MODEL 1
REMARK VINA RESULT:    -3.852      0.000      0.000
REMARK INTER + INTRA:          -6.027
REMARK INTER:                  -5.315
REMARK INTRA:                  -0.711
REMARK UNBOUND:                -0.711
REMARK SMILES OC[C@H](O)C(O)[C@@H](O)CO
REMARK SMILES IDX 5 1 7 2 9 3 10 4 8 6 3 8 2 9 1 10 4 12 6 14
REMARK H PARENT 10 5 8 7 1 11 4 13 6 15
REMARK Flexibility Score: inf
ROOT
ATOM      1  C   UNL     1     -25.488   6.964 -36.678  1.00  0.00     0.176 C 
ENDROOT
BRANCH   1   2
ATOM      2  C   UNL     1     -26.556   8.045 -36.995  1.00  0.00     0.171 C 
BRANCH   2   3
ATOM      3  C   UNL     1     -26.411   9.293 -36.105  1.00  0.00     0.190 C 
BRANCH   3   4
ATOM      4  O   UNL     1     -25.408  10.135 -36.605  1.00  0.00    -0.394 OA
ATOM      5  H   UNL     1     -24.850  10.391 -35.825  1.00  0.00     0.210 HD
ENDBRANCH   3   4
ENDBRANCH   2   3
BRANCH   2   6
ATOM      6  O   UNL     1     -27.853   7.519 -36.860  1.00  0.00    -0.388 OA
ATOM      7  H   UNL     1     -28.468   8.100 -37.380  1.00  0.00     0.211 HD
ENDBRANCH   2   6
ENDBRANCH   1   2
BRANCH   1   8
ATOM      8  C   UNL     1     -24.454   6.830 -37.826  1.00  0.00     0.171 C 
BRANCH   8   9
ATOM      9  C   UNL     1     -23.370   5.783 -37.518  1.00  0.00     0.190 C 
BRANCH   9  10
ATOM     10  O   UNL     1     -22.267   6.395 -36.908  1.00  0.00    -0.394 OA
ATOM     11  H   UNL     1     -22.464   7.367 -36.892  1.00  0.00     0.210 HD
ENDBRANCH   9  10
ENDBRANCH   8   9
BRANCH   8  12
ATOM     12  O   UNL     1     -23.862   8.072 -38.124  1.00  0.00    -0.388 OA
ATOM     13  H   UNL     1     -23.051   7.898 -38.668  1.00  0.00     0.211 HD
ENDBRANCH   8  12
ENDBRANCH   1   8
BRANCH   1  14
ATOM     14  O   UNL     1     -24.819   7.287 -35.483  1.00  0.00    -0.388 OA
ATOM     15  H   UNL     1     -24.729   8.275 -35.450  1.00  0.00     0.211 HD
ENDBRANCH   1  14
TORSDOF 9
ENDMDL
MODEL 2
REMARK VINA RESULT:    -3.812     11.279     12.737
REMARK INTER + INTRA:          -5.972
REMARK INTER:                  -5.646
REMARK INTRA:                  -0.326
REMARK UNBOUND:                -0.711
REMARK SMILES OC[C@H](O)C(O)[C@@H](O)CO
REMARK SMILES IDX 5 1 7 2 9 3 10 4 8 6 3 8 2 9 1 10 4 12 6 14
REMARK H PARENT 10 5 8 7 1 11 4 13 6 15
REMARK Flexibility Score: inf
ROOT
ATOM      1  C   UNL     1     -22.222  12.400 -26.729  1.00  0.00     0.176 C 
ENDROOT
BRANCH   1   2
ATOM      2  C   UNL     1     -21.549  13.422 -25.774  1.00  0.00     0.171 C 
BRANCH   2   3
ATOM      3  C   UNL     1     -20.496  14.289 -26.488  1.00  0.00     0.190 C 
BRANCH   3   4
ATOM      4  O   UNL     1     -19.264  13.622 -26.533  1.00  0.00    -0.394 OA
ATOM      5  H   UNL     1     -19.403  12.756 -26.069  1.00  0.00     0.210 HD
ENDBRANCH   3   4
ENDBRANCH   2   3
BRANCH   2   6
ATOM      6  O   UNL     1     -20.957  12.765 -24.681  1.00  0.00    -0.388 OA
ATOM      7  H   UNL     1     -21.436  11.904 -24.552  1.00  0.00     0.211 HD
ENDBRANCH   2   6
ENDBRANCH   1   2
BRANCH   1   8
ATOM      8  C   UNL     1     -23.735  12.693 -26.903  1.00  0.00     0.171 C 
BRANCH   8   9
ATOM      9  C   UNL     1     -24.170  13.976 -26.174  1.00  0.00     0.190 C 
BRANCH   9  10
ATOM     10  O   UNL     1     -25.558  14.141 -26.274  1.00  0.00    -0.394 OA
ATOM     11  H   UNL     1     -25.919  13.994 -25.361  1.00  0.00     0.210 HD
ENDBRANCH   9  10
ENDBRANCH   8   9
BRANCH   8  12
ATOM     12  O   UNL     1     -24.517  11.602 -26.479  1.00  0.00    -0.388 OA
ATOM     13  H   UNL     1     -25.470  11.853 -26.585  1.00  0.00     0.211 HD
ENDBRANCH   8  12
ENDBRANCH   1   8
BRANCH   1  14
ATOM     14  O   UNL     1     -21.593  12.435 -27.988  1.00  0.00    -0.388 OA
ATOM     15  H   UNL     1     -21.315  13.373 -28.155  1.00  0.00     0.211 HD
ENDBRANCH   1  14
TORSDOF 9
ENDMDL
MODEL 3
REMARK VINA RESULT:    -3.778     11.051     12.180
REMARK INTER + INTRA:          -5.924
REMARK INTER:                  -5.460
REMARK INTRA:                  -0.464
REMARK UNBOUND:                -0.711
REMARK SMILES OC[C@H](O)C(O)[C@@H](O)CO
REMARK SMILES IDX 5 1 7 2 9 3 10 4 8 6 3 8 2 9 1 10 4 12 6 14
REMARK H PARENT 10 5 8 7 1 11 4 13 6 15
REMARK Flexibility Score: inf
ROOT
ATOM      1  C   UNL     1     -22.346  13.261 -27.410  1.00  0.00     0.176 C 
ENDROOT
BRANCH   1   2
ATOM      2  C   UNL     1     -23.865  12.963 -27.289  1.00  0.00     0.171 C 
BRANCH   2   3
ATOM      3  C   UNL     1     -24.604  14.014 -26.440  1.00  0.00     0.190 C 
BRANCH   3   4
ATOM      4  O   UNL     1     -25.988  13.915 -26.638  1.00  0.00    -0.394 OA
ATOM      5  H   UNL     1     -26.110  13.396 -27.475  1.00  0.00     0.210 HD
ENDBRANCH   3   4
ENDBRANCH   2   3
BRANCH   2   6
ATOM      6  O   UNL     1     -24.079  11.684 -26.747  1.00  0.00    -0.388 OA
ATOM      7  H   UNL     1     -24.202  11.790 -25.766  1.00  0.00     0.211 HD
ENDBRANCH   2   6
ENDBRANCH   1   2
BRANCH   1   8
ATOM      8  C   UNL     1     -21.721  13.610 -26.034  1.00  0.00     0.171 C 
BRANCH   8   9
ATOM      9  C   UNL     1     -20.476  14.503 -26.166  1.00  0.00     0.190 C 
BRANCH   9  10
ATOM     10  O   UNL     1     -19.359  13.727 -26.508  1.00  0.00    -0.394 OA
ATOM     11  H   UNL     1     -19.427  12.896 -25.972  1.00  0.00     0.210 HD
ENDBRANCH   9  10
ENDBRANCH   8   9
BRANCH   8  12
ATOM     12  O   UNL     1     -21.412  12.446 -25.306  1.00  0.00    -0.388 OA
ATOM     13  H   UNL     1     -21.172  11.737 -25.957  1.00  0.00     0.211 HD
ENDBRANCH   8  12
ENDBRANCH   1   8
BRANCH   1  14
ATOM     14  O   UNL     1     -21.681  12.147 -27.955  1.00  0.00    -0.388 OA
ATOM     15  H   UNL     1     -21.385  12.395 -28.870  1.00  0.00     0.211 HD
ENDBRANCH   1  14
TORSDOF 9
ENDMDL
MODEL 4
REMARK VINA RESULT:    -3.632     11.228     12.196
REMARK INTER + INTRA:          -5.724
REMARK INTER:                  -5.233
REMARK INTRA:                  -0.490
REMARK UNBOUND:                -0.711
REMARK SMILES OC[C@H](O)C(O)[C@@H](O)CO
REMARK SMILES IDX 5 1 7 2 9 3 10 4 8 6 3 8 2 9 1 10 4 12 6 14
REMARK H PARENT 10 5 8 7 1 11 4 13 6 15
REMARK Flexibility Score: inf
ROOT
ATOM      1  C   UNL     1     -22.812  13.233 -26.054  1.00  0.00     0.176 C 
ENDROOT
BRANCH   1   2
ATOM      2  C   UNL     1     -23.993  12.827 -26.976  1.00  0.00     0.171 C 
BRANCH   2   3
ATOM      3  C   UNL     1     -24.985  13.983 -27.203  1.00  0.00     0.190 C 
BRANCH   3   4
ATOM      4  O   UNL     1     -25.607  14.336 -25.999  1.00  0.00    -0.394 OA
ATOM      5  H   UNL     1     -25.657  15.327 -25.995  1.00  0.00     0.210 HD
ENDBRANCH   3   4
ENDBRANCH   2   3
BRANCH   2   6
ATOM      6  O   UNL     1     -24.676  11.716 -26.451  1.00  0.00    -0.388 OA
ATOM      7  H   UNL     1     -25.635  11.963 -26.373  1.00  0.00     0.211 HD
ENDBRANCH   2   6
ENDBRANCH   1   2
BRANCH   1   8
ATOM      8  C   UNL     1     -21.489  12.551 -26.488  1.00  0.00     0.171 C 
BRANCH   8   9
ATOM      9  C   UNL     1     -20.257  13.189 -25.823  1.00  0.00     0.190 C 
BRANCH   9  10
ATOM     10  O   UNL     1     -19.948  14.406 -26.446  1.00  0.00    -0.394 OA
ATOM     11  H   UNL     1     -18.987  14.355 -26.690  1.00  0.00     0.210 HD
ENDBRANCH   9  10
ENDBRANCH   8   9
BRANCH   8  12
ATOM     12  O   UNL     1     -21.347  12.560 -27.888  1.00  0.00    -0.388 OA
ATOM     13  H   UNL     1     -21.757  11.728 -28.239  1.00  0.00     0.211 HD
ENDBRANCH   8  12
ENDBRANCH   1   8
BRANCH   1  14
ATOM     14  O   UNL     1     -22.646  14.630 -26.076  1.00  0.00    -0.388 OA
ATOM     15  H   UNL     1     -22.325  14.907 -25.178  1.00  0.00     0.211 HD
ENDBRANCH   1  14
TORSDOF 9
ENDMDL
MODEL 5
REMARK VINA RESULT:    -3.573     11.392     12.390
REMARK INTER + INTRA:          -5.642
REMARK INTER:                  -5.204
REMARK INTRA:                  -0.438
REMARK UNBOUND:                -0.711
REMARK SMILES OC[C@H](O)C(O)[C@@H](O)CO
REMARK SMILES IDX 5 1 7 2 9 3 10 4 8 6 3 8 2 9 1 10 4 12 6 14
REMARK H PARENT 10 5 8 7 1 11 4 13 6 15
REMARK Flexibility Score: inf
ROOT
ATOM      1  C   UNL     1     -23.057  12.602 -26.279  1.00  0.00     0.176 C 
ENDROOT
BRANCH   1   2
ATOM      2  C   UNL     1     -21.556  12.481 -26.659  1.00  0.00     0.171 C 
BRANCH   2   3
ATOM      3  C   UNL     1     -20.726  13.682 -26.170  1.00  0.00     0.190 C 
BRANCH   3   4
ATOM      4  O   UNL     1     -19.384  13.531 -26.541  1.00  0.00    -0.394 OA
ATOM      5  H   UNL     1     -19.388  13.329 -27.513  1.00  0.00     0.210 HD
ENDBRANCH   3   4
ENDBRANCH   2   3
BRANCH   2   6
ATOM      6  O   UNL     1     -21.405  12.338 -28.050  1.00  0.00    -0.388 OA
ATOM      7  H   UNL     1     -21.507  13.239 -28.456  1.00  0.00     0.211 HD
ENDBRANCH   2   6
ENDBRANCH   1   2
BRANCH   1   8
ATOM      8  C   UNL     1     -23.641  13.977 -26.697  1.00  0.00     0.171 C 
BRANCH   8   9
ATOM      9  C   UNL     1     -24.875  14.365 -25.863  1.00  0.00     0.190 C 
BRANCH   9  10
ATOM     10  O   UNL     1     -26.041  13.889 -26.478  1.00  0.00    -0.394 OA
ATOM     11  H   UNL     1     -25.762  13.529 -27.359  1.00  0.00     0.210 HD
ENDBRANCH   9  10
ENDBRANCH   8   9
BRANCH   8  12
ATOM     12  O   UNL     1     -23.951  14.002 -28.069  1.00  0.00    -0.388 OA
ATOM     13  H   UNL     1     -23.103  13.901 -28.573  1.00  0.00     0.211 HD
ENDBRANCH   8  12
ENDBRANCH   1   8
BRANCH   1  14
ATOM     14  O   UNL     1     -23.792  11.575 -26.898  1.00  0.00    -0.388 OA
ATOM     15  H   UNL     1     -24.375  11.167 -26.206  1.00  0.00     0.211 HD
ENDBRANCH   1  14
TORSDOF 9
ENDMDL
MODEL 6
REMARK VINA RESULT:    -3.393      0.742      3.862
REMARK INTER + INTRA:          -5.394
REMARK INTER:                  -4.854
REMARK INTRA:                  -0.540
REMARK UNBOUND:                -0.711
REMARK SMILES OC[C@H](O)C(O)[C@@H](O)CO
REMARK SMILES IDX 5 1 7 2 9 3 10 4 8 6 3 8 2 9 1 10 4 12 6 14
REMARK H PARENT 10 5 8 7 1 11 4 13 6 15
REMARK Flexibility Score: inf
ROOT
ATOM      1  C   UNL     1     -25.481   7.200 -36.651  1.00  0.00     0.176 C 
ENDROOT
BRANCH   1   2
ATOM      2  C   UNL     1     -24.485   7.103 -37.838  1.00  0.00     0.171 C 
BRANCH   2   3
ATOM      3  C   UNL     1     -23.358   6.087 -37.578  1.00  0.00     0.190 C 
BRANCH   3   4
ATOM      4  O   UNL     1     -23.014   6.076 -36.219  1.00  0.00    -0.394 OA
ATOM      5  H   UNL     1     -22.543   5.217 -36.061  1.00  0.00     0.210 HD
ENDBRANCH   3   4
ENDBRANCH   2   3
BRANCH   2   6
ATOM      6  O   UNL     1     -23.928   8.362 -38.125  1.00  0.00    -0.388 OA
ATOM      7  H   UNL     1     -24.663   9.030 -38.090  1.00  0.00     0.211 HD
ENDBRANCH   2   6
ENDBRANCH   1   2
BRANCH   1   8
ATOM      8  C   UNL     1     -26.671   8.139 -36.980  1.00  0.00     0.171 C 
BRANCH   8   9
ATOM      9  C   UNL     1     -26.637   9.437 -36.155  1.00  0.00     0.190 C 
BRANCH   9  10
ATOM     10  O   UNL     1     -25.565  10.242 -36.565  1.00  0.00    -0.394 OA
ATOM     11  H   UNL     1     -25.736  11.142 -36.186  1.00  0.00     0.210 HD
ENDBRANCH   9  10
ENDBRANCH   8   9
BRANCH   8  12
ATOM     12  O   UNL     1     -27.902   7.480 -36.804  1.00  0.00    -0.388 OA
ATOM     13  H   UNL     1     -28.619   8.164 -36.843  1.00  0.00     0.211 HD
ENDBRANCH   8  12
ENDBRANCH   1   8
BRANCH   1  14
ATOM     14  O   UNL     1     -25.971   5.920 -36.331  1.00  0.00    -0.388 OA
ATOM     15  H   UNL     1     -25.446   5.261 -36.855  1.00  0.00     0.211 HD
ENDBRANCH   1  14
TORSDOF 9
ENDMDL
MODEL 7
REMARK VINA RESULT:    -3.241      1.032      3.726
REMARK INTER + INTRA:          -5.184
REMARK INTER:                  -4.478
REMARK INTRA:                  -0.706
REMARK UNBOUND:                -0.711
REMARK SMILES OC[C@H](O)C(O)[C@@H](O)CO
REMARK SMILES IDX 5 1 7 2 9 3 10 4 8 6 3 8 2 9 1 10 4 12 6 14
REMARK H PARENT 10 5 8 7 1 11 4 13 6 15
REMARK Flexibility Score: inf
ROOT
ATOM      1  C   UNL     1     -25.496   7.107 -37.468  1.00  0.00     0.176 C 
ENDROOT
BRANCH   1   2
ATOM      2  C   UNL     1     -25.152   6.155 -36.291  1.00  0.00     0.171 C 
BRANCH   2   3
ATOM      3  C   UNL     1     -23.874   5.336 -36.550  1.00  0.00     0.190 C 
BRANCH   3   4
ATOM      4  O   UNL     1     -22.737   6.106 -36.272  1.00  0.00    -0.394 OA
ATOM      5  H   UNL     1     -22.746   6.855 -36.922  1.00  0.00     0.210 HD
ENDBRANCH   3   4
ENDBRANCH   2   3
BRANCH   2   6
ATOM      6  O   UNL     1     -26.224   5.284 -36.026  1.00  0.00    -0.388 OA
ATOM      7  H   UNL     1     -26.116   4.950 -35.096  1.00  0.00     0.211 HD
ENDBRANCH   2   6
ENDBRANCH   1   2
BRANCH   1   8
ATOM      8  C   UNL     1     -26.651   8.074 -37.101  1.00  0.00     0.171 C 
BRANCH   8   9
ATOM      9  C   UNL     1     -26.253   9.066 -35.994  1.00  0.00     0.190 C 
BRANCH   9  10
ATOM     10  O   UNL     1     -25.614  10.181 -36.553  1.00  0.00    -0.394 OA
ATOM     11  H   UNL     1     -24.738  10.257 -36.093  1.00  0.00     0.210 HD
ENDBRANCH   9  10
ENDBRANCH   8   9
BRANCH   8  12
ATOM     12  O   UNL     1     -27.809   7.366 -36.729  1.00  0.00    -0.388 OA
ATOM     13  H   UNL     1     -28.586   7.813 -37.152  1.00  0.00     0.211 HD
ENDBRANCH   8  12
ENDBRANCH   1   8
BRANCH   1  14
ATOM     14  O   UNL     1     -24.359   7.853 -37.828  1.00  0.00    -0.388 OA
ATOM     15  H   UNL     1     -24.185   8.502 -37.096  1.00  0.00     0.211 HD
ENDBRANCH   1  14
TORSDOF 9
ENDMDL
MODEL 8
REMARK VINA RESULT:    -3.216     11.058     12.461
REMARK INTER + INTRA:          -5.149
REMARK INTER:                  -4.832
REMARK INTRA:                  -0.317
REMARK UNBOUND:                -0.711
REMARK SMILES OC[C@H](O)C(O)[C@@H](O)CO
REMARK SMILES IDX 5 1 7 2 9 3 10 4 8 6 3 8 2 9 1 10 4 12 6 14
REMARK H PARENT 10 5 8 7 1 11 4 13 6 15
REMARK Flexibility Score: inf
ROOT
ATOM      1  C   UNL     1     -22.774  13.702 -26.743  1.00  0.00     0.176 C 
ENDROOT
BRANCH   1   2
ATOM      2  C   UNL     1     -21.606  12.679 -26.729  1.00  0.00     0.171 C 
BRANCH   2   3
ATOM      3  C   UNL     1     -20.471  13.095 -25.776  1.00  0.00     0.190 C 
BRANCH   3   4
ATOM      4  O   UNL     1     -19.637  14.037 -26.392  1.00  0.00    -0.394 OA
ATOM      5  H   UNL     1     -18.738  13.620 -26.439  1.00  0.00     0.210 HD
ENDBRANCH   3   4
ENDBRANCH   2   3
BRANCH   2   6
ATOM      6  O   UNL     1     -21.090  12.494 -28.024  1.00  0.00    -0.388 OA
ATOM      7  H   UNL     1     -20.995  11.516 -28.173  1.00  0.00     0.211 HD
ENDBRANCH   2   6
ENDBRANCH   1   2
BRANCH   1   8
ATOM      8  C   UNL     1     -24.101  13.061 -26.260  1.00  0.00     0.171 C 
BRANCH   8   9
ATOM      9  C   UNL     1     -24.337  11.672 -26.878  1.00  0.00     0.190 C 
BRANCH   9  10
ATOM     10  O   UNL     1     -25.208  10.926 -26.070  1.00  0.00    -0.394 OA
ATOM     11  H   UNL     1     -24.634  10.440 -25.423  1.00  0.00     0.210 HD
ENDBRANCH   9  10
ENDBRANCH   8   9
BRANCH   8  12
ATOM     12  O   UNL     1     -25.197  13.904 -26.520  1.00  0.00    -0.388 OA
ATOM     13  H   UNL     1     -25.884  13.729 -25.826  1.00  0.00     0.211 HD
ENDBRANCH   8  12
ENDBRANCH   1   8
BRANCH   1  14
ATOM     14  O   UNL     1     -22.459  14.799 -25.919  1.00  0.00    -0.388 OA
ATOM     15  H   UNL     1     -21.623  14.575 -25.433  1.00  0.00     0.211 HD
ENDBRANCH   1  14
TORSDOF 9
ENDMDL
MODEL 9
REMARK VINA RESULT:    -3.113      7.360      8.570
REMARK INTER + INTRA:          -5.007
REMARK INTER:                  -4.082
REMARK INTRA:                  -0.925
REMARK UNBOUND:                -0.711
REMARK SMILES OC[C@H](O)C(O)[C@@H](O)CO
REMARK SMILES IDX 5 1 7 2 9 3 10 4 8 6 3 8 2 9 1 10 4 12 6 14
REMARK H PARENT 10 5 8 7 1 11 4 13 6 15
REMARK Flexibility Score: inf
ROOT
ATOM      1  C   UNL     1     -30.515   4.105 -32.862  1.00  0.00     0.176 C 
ENDROOT
BRANCH   1   2
ATOM      2  C   UNL     1     -31.461   5.089 -32.122  1.00  0.00     0.171 C 
BRANCH   2   3
ATOM      3  C   UNL     1     -31.901   6.265 -33.014  1.00  0.00     0.190 C 
BRANCH   3   4
ATOM      4  O   UNL     1     -32.833   5.832 -33.967  1.00  0.00    -0.394 OA
ATOM      5  H   UNL     1     -32.833   6.519 -34.683  1.00  0.00     0.210 HD
ENDBRANCH   3   4
ENDBRANCH   2   3
BRANCH   2   6
ATOM      6  O   UNL     1     -30.850   5.585 -30.957  1.00  0.00    -0.388 OA
ATOM      7  H   UNL     1     -30.045   5.030 -30.780  1.00  0.00     0.211 HD
ENDBRANCH   2   6
ENDBRANCH   1   2
BRANCH   1   8
ATOM      8  C   UNL     1     -31.225   2.764 -33.182  1.00  0.00     0.171 C 
BRANCH   8   9
ATOM      9  C   UNL     1     -31.376   2.529 -34.695  1.00  0.00     0.190 C 
BRANCH   9  10
ATOM     10  O   UNL     1     -32.430   3.303 -35.201  1.00  0.00    -0.394 OA
ATOM     11  H   UNL     1     -32.273   3.377 -36.178  1.00  0.00     0.210 HD
ENDBRANCH   9  10
ENDBRANCH   8   9
BRANCH   8  12
ATOM     12  O   UNL     1     -32.480   2.688 -32.549  1.00  0.00    -0.388 OA
ATOM     13  H   UNL     1     -32.322   2.540 -31.581  1.00  0.00     0.211 HD
ENDBRANCH   8  12
ENDBRANCH   1   8
BRANCH   1  14
ATOM     14  O   UNL     1     -30.058   4.688 -34.058  1.00  0.00    -0.388 OA
ATOM     15  H   UNL     1     -29.066   4.686 -34.031  1.00  0.00     0.211 HD
ENDBRANCH   1  14
TORSDOF 9
ENDMDL
