MODEL 1
REMARK VINA RESULT:    -4.885      0.000      0.000
REMARK INTER + INTRA:          -5.972
REMARK INTER:                  -5.742
REMARK INTRA:                  -0.230
REMARK UNBOUND:                -0.230
REMARK SMILES O=c1c(O)c(-c2ccc(O)c(O)c2)oc2cc(O)ccc12
REMARK SMILES IDX 5 1 3 2 2 3 1 4 21 5 15 6 14 7 16 8 17 9 19 10 20 11 6 12
REMARK SMILES IDX 7 13 8 14 9 15 13 16 11 17 10 18 12 20 4 22 18 24
REMARK H PARENT 10 19 12 21 4 23 18 25
REMARK Flexibility Score: inf
ROOT
ATOM      1  C   UNL     1      20.898  -2.473  19.672  1.00  0.00     0.180 A 
ATOM      2  C   UNL     1      19.956  -3.002  20.579  1.00  0.00     0.208 A 
ATOM      3  C   UNL     1      18.819  -2.243  20.894  1.00  0.00     0.235 A 
ATOM      4  O   UNL     1      17.968  -2.690  21.711  1.00  0.00    -0.285 OA
ATOM      5  C   UNL     1      18.636  -0.990  20.287  1.00  0.00     0.069 A 
ATOM      6  C   UNL     1      19.613  -0.541  19.371  1.00  0.00     0.142 A 
ATOM      7  O   UNL     1      20.679  -1.287  19.107  1.00  0.00    -0.452 OA
ATOM      8  C   UNL     1      19.461   0.698  18.738  1.00  0.00     0.094 A 
ATOM      9  C   UNL     1      18.343   1.497  19.011  1.00  0.00     0.119 A 
ATOM     10  C   UNL     1      17.375   1.055  19.919  1.00  0.00     0.047 A 
ATOM     11  C   UNL     1      17.517  -0.182  20.555  1.00  0.00     0.020 A 
ENDROOT
BRANCH   1  12
ATOM     12  C   UNL     1      22.131  -3.204  19.303  1.00  0.00     0.025 A 
ATOM     13  C   UNL     1      23.365  -2.786  19.825  1.00  0.00     0.016 A 
ATOM     14  C   UNL     1      24.538  -3.473  19.506  1.00  0.00     0.051 A 
ATOM     15  C   UNL     1      24.496  -4.597  18.676  1.00  0.00     0.157 A 
ATOM     16  C   UNL     1      22.088  -4.347  18.484  1.00  0.00     0.062 A 
ATOM     17  C   UNL     1      23.264  -5.040  18.166  1.00  0.00     0.158 A 
BRANCH  15  18
ATOM     18  O   UNL     1      25.684  -5.262  18.375  1.00  0.00    -0.504 OA
ATOM     19  H   UNL     1      25.702  -6.103  17.811  1.00  0.00     0.293 HD
ENDBRANCH  15  18
BRANCH  17  20
ATOM     20  O   UNL     1      23.214  -6.169  17.349  1.00  0.00    -0.504 OA
ATOM     21  H   UNL     1      22.658  -6.979  17.598  1.00  0.00     0.293 HD
ENDBRANCH  17  20
ENDBRANCH   1  12
BRANCH   2  22
ATOM     22  O   UNL     1      20.141  -4.273  21.129  1.00  0.00    -0.502 OA
ATOM     23  H   UNL     1      19.454  -5.011  21.031  1.00  0.00     0.293 HD
ENDBRANCH   2  22
BRANCH   9  24
ATOM     24  O   UNL     1      18.184   2.732  18.385  1.00  0.00    -0.508 OA
ATOM     25  H   UNL     1      17.647   2.827  17.531  1.00  0.00     0.293 HD
ENDBRANCH   9  24
TORSDOF 5
ENDMDL
MODEL 2
REMARK VINA RESULT:    -4.776      1.739      2.861
REMARK INTER + INTRA:          -5.843
REMARK INTER:                  -5.595
REMARK INTRA:                  -0.248
REMARK UNBOUND:                -0.230
REMARK SMILES O=c1c(O)c(-c2ccc(O)c(O)c2)oc2cc(O)ccc12
REMARK SMILES IDX 5 1 3 2 2 3 1 4 21 5 15 6 14 7 16 8 17 9 19 10 20 11 6 12
REMARK SMILES IDX 7 13 8 14 9 15 13 16 11 17 10 18 12 20 4 22 18 24
REMARK H PARENT 10 19 12 21 4 23 18 25
REMARK Flexibility Score: inf
ROOT
ATOM      1  C   UNL     1      20.707  -2.989  20.076  1.00  0.00     0.180 A 
ATOM      2  C   UNL     1      21.202  -1.668  20.105  1.00  0.00     0.208 A 
ATOM      3  C   UNL     1      20.292  -0.607  20.239  1.00  0.00     0.235 A 
ATOM      4  O   UNL     1      20.709   0.583  20.256  1.00  0.00    -0.285 OA
ATOM      5  C   UNL     1      18.922  -0.885  20.360  1.00  0.00     0.069 A 
ATOM      6  C   UNL     1      18.508  -2.235  20.347  1.00  0.00     0.142 A 
ATOM      7  O   UNL     1      19.400  -3.210  20.209  1.00  0.00    -0.452 OA
ATOM      8  C   UNL     1      17.151  -2.553  20.475  1.00  0.00     0.094 A 
ATOM      9  C   UNL     1      16.199  -1.535  20.616  1.00  0.00     0.119 A 
ATOM     10  C   UNL     1      16.606  -0.196  20.629  1.00  0.00     0.047 A 
ATOM     11  C   UNL     1      17.959   0.131  20.502  1.00  0.00     0.020 A 
ENDROOT
BRANCH   1  12
ATOM     12  C   UNL     1      21.599  -4.159  19.919  1.00  0.00     0.025 A 
ATOM     13  C   UNL     1      21.781  -5.039  20.997  1.00  0.00     0.016 A 
ATOM     14  C   UNL     1      22.603  -6.161  20.865  1.00  0.00     0.051 A 
ATOM     15  C   UNL     1      23.241  -6.430  19.651  1.00  0.00     0.157 A 
ATOM     16  C   UNL     1      22.226  -4.443  18.692  1.00  0.00     0.062 A 
ATOM     17  C   UNL     1      23.050  -5.570  18.557  1.00  0.00     0.158 A 
BRANCH  15  18
ATOM     18  O   UNL     1      24.057  -7.558  19.550  1.00  0.00    -0.504 OA
ATOM     19  H   UNL     1      25.055  -7.487  19.392  1.00  0.00     0.293 HD
ENDBRANCH  15  18
BRANCH  17  20
ATOM     20  O   UNL     1      23.672  -5.842  17.339  1.00  0.00    -0.504 OA
ATOM     21  H   UNL     1      24.599  -6.250  17.297  1.00  0.00     0.293 HD
ENDBRANCH  17  20
ENDBRANCH   1  12
BRANCH   2  22
ATOM     22  O   UNL     1      22.576  -1.426  20.031  1.00  0.00    -0.502 OA
ATOM     23  H   UNL     1      22.960  -0.489  20.019  1.00  0.00     0.293 HD
ENDBRANCH   2  22
BRANCH   9  24
ATOM     24  O   UNL     1      14.846  -1.842  20.745  1.00  0.00    -0.508 OA
ATOM     25  H   UNL     1      14.314  -2.222  19.971  1.00  0.00     0.293 HD
ENDBRANCH   9  24
TORSDOF 5
ENDMDL
MODEL 3
REMARK VINA RESULT:    -4.735      1.231      2.800
REMARK INTER + INTRA:          -5.795
REMARK INTER:                  -5.478
REMARK INTRA:                  -0.316
REMARK UNBOUND:                -0.230
REMARK SMILES O=c1c(O)c(-c2ccc(O)c(O)c2)oc2cc(O)ccc12
REMARK SMILES IDX 5 1 3 2 2 3 1 4 21 5 15 6 14 7 16 8 17 9 19 10 20 11 6 12
REMARK SMILES IDX 7 13 8 14 9 15 13 16 11 17 10 18 12 20 4 22 18 24
REMARK H PARENT 10 19 12 21 4 23 18 25
REMARK Flexibility Score: inf
ROOT
ATOM      1  C   UNL     1      20.965  -2.320  19.450  1.00  0.00     0.180 A 
ATOM      2  C   UNL     1      20.961  -1.063  18.808  1.00  0.00     0.208 A 
ATOM      3  C   UNL     1      19.832  -0.240  18.941  1.00  0.00     0.235 A 
ATOM      4  O   UNL     1      19.800   0.883  18.367  1.00  0.00    -0.285 OA
ATOM      5  C   UNL     1      18.749  -0.674  19.720  1.00  0.00     0.069 A 
ATOM      6  C   UNL     1      18.840  -1.935  20.350  1.00  0.00     0.142 A 
ATOM      7  O   UNL     1      19.923  -2.688  20.192  1.00  0.00    -0.452 OA
ATOM      8  C   UNL     1      17.785  -2.399  21.144  1.00  0.00     0.094 A 
ATOM      9  C   UNL     1      16.635  -1.617  21.316  1.00  0.00     0.119 A 
ATOM     10  C   UNL     1      16.541  -0.368  20.692  1.00  0.00     0.047 A 
ATOM     11  C   UNL     1      17.591   0.104  19.898  1.00  0.00     0.020 A 
ENDROOT
BRANCH   1  12
ATOM     12  C   UNL     1      22.109  -3.253  19.343  1.00  0.00     0.025 A 
ATOM     13  C   UNL     1      23.169  -3.155  20.259  1.00  0.00     0.016 A 
ATOM     14  C   UNL     1      24.249  -4.037  20.189  1.00  0.00     0.051 A 
ATOM     15  C   UNL     1      24.280  -5.041  19.216  1.00  0.00     0.157 A 
ATOM     16  C   UNL     1      22.133  -4.276  18.378  1.00  0.00     0.062 A 
ATOM     17  C   UNL     1      23.215  -5.165  18.308  1.00  0.00     0.158 A 
BRANCH  15  18
ATOM     18  O   UNL     1      25.373  -5.907  19.171  1.00  0.00    -0.504 OA
ATOM     19  H   UNL     1      26.171  -5.799  19.785  1.00  0.00     0.293 HD
ENDBRANCH  15  18
BRANCH  17  20
ATOM     20  O   UNL     1      23.233  -6.173  17.345  1.00  0.00    -0.504 OA
ATOM     21  H   UNL     1      23.183  -7.153  17.601  1.00  0.00     0.293 HD
ENDBRANCH  17  20
ENDBRANCH   1  12
BRANCH   2  22
ATOM     22  O   UNL     1      22.074  -0.638  18.079  1.00  0.00    -0.502 OA
ATOM     23  H   UNL     1      22.964  -1.119  18.121  1.00  0.00     0.293 HD
ENDBRANCH   2  22
BRANCH   9  24
ATOM     24  O   UNL     1      15.580  -2.071  22.104  1.00  0.00    -0.508 OA
ATOM     25  H   UNL     1      15.434  -1.722  23.045  1.00  0.00     0.293 HD
ENDBRANCH   9  24
TORSDOF 5
ENDMDL
MODEL 4
REMARK VINA RESULT:    -4.694     13.488     14.210
REMARK INTER + INTRA:          -5.747
REMARK INTER:                  -5.581
REMARK INTRA:                  -0.166
REMARK UNBOUND:                -0.230
REMARK SMILES O=c1c(O)c(-c2ccc(O)c(O)c2)oc2cc(O)ccc12
REMARK SMILES IDX 5 1 3 2 2 3 1 4 21 5 15 6 14 7 16 8 17 9 19 10 20 11 6 12
REMARK SMILES IDX 7 13 8 14 9 15 13 16 11 17 10 18 12 20 4 22 18 24
REMARK H PARENT 10 19 12 21 4 23 18 25
REMARK Flexibility Score: inf
ROOT
ATOM      1  C   UNL     1      13.343  -8.282   9.301  1.00  0.00     0.180 A 
ATOM      2  C   UNL     1      12.112  -7.880   9.861  1.00  0.00     0.208 A 
ATOM      3  C   UNL     1      11.821  -6.510   9.946  1.00  0.00     0.235 A 
ATOM      4  O   UNL     1      10.732  -6.126  10.453  1.00  0.00    -0.285 OA
ATOM      5  C   UNL     1      12.748  -5.577   9.456  1.00  0.00     0.069 A 
ATOM      6  C   UNL     1      13.947  -6.059   8.887  1.00  0.00     0.142 A 
ATOM      7  O   UNL     1      14.188  -7.364   8.834  1.00  0.00    -0.452 OA
ATOM      8  C   UNL     1      14.892  -5.160   8.378  1.00  0.00     0.094 A 
ATOM      9  C   UNL     1      14.653  -3.781   8.432  1.00  0.00     0.119 A 
ATOM     10  C   UNL     1      13.466  -3.300   8.995  1.00  0.00     0.047 A 
ATOM     11  C   UNL     1      12.516  -4.190   9.505  1.00  0.00     0.020 A 
ENDROOT
BRANCH   1  12
ATOM     12  C   UNL     1      13.731  -9.706   9.194  1.00  0.00     0.025 A 
ATOM     13  C   UNL     1      14.790 -10.195   9.975  1.00  0.00     0.016 A 
ATOM     14  C   UNL     1      15.160 -11.539   9.904  1.00  0.00     0.051 A 
ATOM     15  C   UNL     1      14.469 -12.420   9.066  1.00  0.00     0.157 A 
ATOM     16  C   UNL     1      13.024 -10.597   8.366  1.00  0.00     0.062 A 
ATOM     17  C   UNL     1      13.392 -11.948   8.296  1.00  0.00     0.158 A 
BRANCH  15  18
ATOM     18  O   UNL     1      14.862 -13.757   9.016  1.00  0.00    -0.504 OA
ATOM     19  H   UNL     1      14.736 -14.385   9.802  1.00  0.00     0.293 HD
ENDBRANCH  15  18
BRANCH  17  20
ATOM     20  O   UNL     1      12.690 -12.825   7.469  1.00  0.00    -0.504 OA
ATOM     21  H   UNL     1      12.878 -12.881   6.475  1.00  0.00     0.293 HD
ENDBRANCH  17  20
ENDBRANCH   1  12
BRANCH   2  22
ATOM     22  O   UNL     1      11.189  -8.835  10.296  1.00  0.00    -0.502 OA
ATOM     23  H   UNL     1      11.218  -9.798   9.984  1.00  0.00     0.293 HD
ENDBRANCH   2  22
BRANCH   9  24
ATOM     24  O   UNL     1      15.588  -2.879   7.927  1.00  0.00    -0.508 OA
ATOM     25  H   UNL     1      16.578  -2.983   8.116  1.00  0.00     0.293 HD
ENDBRANCH   9  24
TORSDOF 5
ENDMDL
MODEL 5
REMARK VINA RESULT:    -4.669      1.824      6.761
REMARK INTER + INTRA:          -5.717
REMARK INTER:                  -5.455
REMARK INTRA:                  -0.262
REMARK UNBOUND:                -0.230
REMARK SMILES O=c1c(O)c(-c2ccc(O)c(O)c2)oc2cc(O)ccc12
REMARK SMILES IDX 5 1 3 2 2 3 1 4 21 5 15 6 14 7 16 8 17 9 19 10 20 11 6 12
REMARK SMILES IDX 7 13 8 14 9 15 13 16 11 17 10 18 12 20 4 22 18 24
REMARK H PARENT 10 19 12 21 4 23 18 25
REMARK Flexibility Score: inf
ROOT
ATOM      1  C   UNL     1      20.041  -3.272  20.703  1.00  0.00     0.180 A 
ATOM      2  C   UNL     1      20.230  -4.061  21.857  1.00  0.00     0.208 A 
ATOM      3  C   UNL     1      21.158  -5.113  21.814  1.00  0.00     0.235 A 
ATOM      4  O   UNL     1      21.335  -5.840  22.829  1.00  0.00    -0.285 OA
ATOM      5  C   UNL     1      21.887  -5.341  20.637  1.00  0.00     0.069 A 
ATOM      6  C   UNL     1      21.659  -4.491  19.532  1.00  0.00     0.142 A 
ATOM      7  O   UNL     1      20.765  -3.512  19.611  1.00  0.00    -0.452 OA
ATOM      8  C   UNL     1      22.374  -4.681  18.344  1.00  0.00     0.094 A 
ATOM      9  C   UNL     1      23.317  -5.712  18.245  1.00  0.00     0.119 A 
ATOM     10  C   UNL     1      23.544  -6.556  19.338  1.00  0.00     0.047 A 
ATOM     11  C   UNL     1      22.835  -6.374  20.529  1.00  0.00     0.020 A 
ENDROOT
BRANCH   1  12
ATOM     12  C   UNL     1      19.069  -2.157  20.663  1.00  0.00     0.025 A 
ATOM     13  C   UNL     1      19.536  -0.833  20.628  1.00  0.00     0.016 A 
ATOM     14  C   UNL     1      18.636   0.233  20.570  1.00  0.00     0.051 A 
ATOM     15  C   UNL     1      17.259  -0.004  20.529  1.00  0.00     0.157 A 
ATOM     16  C   UNL     1      17.684  -2.394  20.602  1.00  0.00     0.062 A 
ATOM     17  C   UNL     1      16.779  -1.325  20.541  1.00  0.00     0.158 A 
BRANCH  15  18
ATOM     18  O   UNL     1      16.385   1.082  20.473  1.00  0.00    -0.504 OA
ATOM     19  H   UNL     1      16.527   1.916  21.030  1.00  0.00     0.293 HD
ENDBRANCH  15  18
BRANCH  17  20
ATOM     20  O   UNL     1      15.407  -1.569  20.486  1.00  0.00    -0.504 OA
ATOM     21  H   UNL     1      14.745  -0.830  20.277  1.00  0.00     0.293 HD
ENDBRANCH  17  20
ENDBRANCH   1  12
BRANCH   2  22
ATOM     22  O   UNL     1      19.523  -3.779  23.030  1.00  0.00    -0.502 OA
ATOM     23  H   UNL     1      18.511  -3.763  23.061  1.00  0.00     0.293 HD
ENDBRANCH   2  22
BRANCH   9  24
ATOM     24  O   UNL     1      24.033  -5.908  17.066  1.00  0.00    -0.508 OA
ATOM     25  H   UNL     1      24.326  -6.833  16.772  1.00  0.00     0.293 HD
ENDBRANCH   9  24
TORSDOF 5
ENDMDL
MODEL 6
REMARK VINA RESULT:    -4.481      2.991      7.641
REMARK INTER + INTRA:          -5.497
REMARK INTER:                  -5.185
REMARK INTRA:                  -0.313
REMARK UNBOUND:                -0.230
REMARK SMILES O=c1c(O)c(-c2ccc(O)c(O)c2)oc2cc(O)ccc12
REMARK SMILES IDX 5 1 3 2 2 3 1 4 21 5 15 6 14 7 16 8 17 9 19 10 20 11 6 12
REMARK SMILES IDX 7 13 8 14 9 15 13 16 11 17 10 18 12 20 4 22 18 24
REMARK H PARENT 10 19 12 21 4 23 18 25
REMARK Flexibility Score: inf
ROOT
ATOM      1  C   UNL     1      22.822  -5.470  18.823  1.00  0.00     0.180 A 
ATOM      2  C   UNL     1      22.449  -6.212  19.964  1.00  0.00     0.208 A 
ATOM      3  C   UNL     1      22.692  -7.594  19.983  1.00  0.00     0.235 A 
ATOM      4  O   UNL     1      22.358  -8.280  20.986  1.00  0.00    -0.285 OA
ATOM      5  C   UNL     1      23.316  -8.199  18.881  1.00  0.00     0.069 A 
ATOM      6  C   UNL     1      23.681  -7.384  17.787  1.00  0.00     0.142 A 
ATOM      7  O   UNL     1      23.425  -6.081  17.805  1.00  0.00    -0.452 OA
ATOM      8  C   UNL     1      24.315  -7.948  16.674  1.00  0.00     0.094 A 
ATOM      9  C   UNL     1      24.587  -9.322  16.638  1.00  0.00     0.119 A 
ATOM     10  C   UNL     1      24.225 -10.133  17.720  1.00  0.00     0.047 A 
ATOM     11  C   UNL     1      23.593  -9.577  18.837  1.00  0.00     0.020 A 
ENDROOT
BRANCH   1  12
ATOM     12  C   UNL     1      22.582  -4.014  18.720  1.00  0.00     0.025 A 
ATOM     13  C   UNL     1      21.334  -3.548  18.277  1.00  0.00     0.016 A 
ATOM     14  C   UNL     1      21.079  -2.178  18.191  1.00  0.00     0.051 A 
ATOM     15  C   UNL     1      22.059  -1.252  18.560  1.00  0.00     0.157 A 
ATOM     16  C   UNL     1      23.560  -3.080  19.110  1.00  0.00     0.062 A 
ATOM     17  C   UNL     1      23.305  -1.704  19.027  1.00  0.00     0.158 A 
BRANCH  15  18
ATOM     18  O   UNL     1      21.776   0.111  18.462  1.00  0.00    -0.504 OA
ATOM     19  H   UNL     1      21.709   0.583  17.569  1.00  0.00     0.293 HD
ENDBRANCH  15  18
BRANCH  17  20
ATOM     20  O   UNL     1      24.281  -0.785  19.411  1.00  0.00    -0.504 OA
ATOM     21  H   UNL     1      24.067  -0.012  20.030  1.00  0.00     0.293 HD
ENDBRANCH  17  20
ENDBRANCH   1  12
BRANCH   2  22
ATOM     22  O   UNL     1      21.874  -5.573  21.066  1.00  0.00    -0.502 OA
ATOM     23  H   UNL     1      21.003  -5.885  21.478  1.00  0.00     0.293 HD
ENDBRANCH   2  22
BRANCH   9  24
ATOM     24  O   UNL     1      25.217  -9.893  15.534  1.00  0.00    -0.508 OA
ATOM     25  H   UNL     1      25.991 -10.538  15.642  1.00  0.00     0.293 HD
ENDBRANCH   9  24
TORSDOF 5
ENDMDL
MODEL 7
REMARK VINA RESULT:    -4.479      9.079     11.018
REMARK INTER + INTRA:          -5.494
REMARK INTER:                  -5.171
REMARK INTRA:                  -0.324
REMARK UNBOUND:                -0.230
REMARK SMILES O=c1c(O)c(-c2ccc(O)c(O)c2)oc2cc(O)ccc12
REMARK SMILES IDX 5 1 3 2 2 3 1 4 21 5 15 6 14 7 16 8 17 9 19 10 20 11 6 12
REMARK SMILES IDX 7 13 8 14 9 15 13 16 11 17 10 18 12 20 4 22 18 24
REMARK H PARENT 10 19 12 21 4 23 18 25
REMARK Flexibility Score: inf
ROOT
ATOM      1  C   UNL     1      19.509 -11.347  23.807  1.00  0.00     0.180 A 
ATOM      2  C   UNL     1      19.927 -12.615  24.266  1.00  0.00     0.208 A 
ATOM      3  C   UNL     1      19.143 -13.280  25.221  1.00  0.00     0.235 A 
ATOM      4  O   UNL     1      19.502 -14.409  25.655  1.00  0.00    -0.285 OA
ATOM      5  C   UNL     1      17.959 -12.683  25.680  1.00  0.00     0.069 A 
ATOM      6  C   UNL     1      17.597 -11.423  25.154  1.00  0.00     0.142 A 
ATOM      7  O   UNL     1      18.371 -10.822  24.257  1.00  0.00    -0.452 OA
ATOM      8  C   UNL     1      16.419 -10.799  25.579  1.00  0.00     0.094 A 
ATOM      9  C   UNL     1      15.595 -11.420  26.527  1.00  0.00     0.119 A 
ATOM     10  C   UNL     1      15.952 -12.667  27.051  1.00  0.00     0.047 A 
ATOM     11  C   UNL     1      17.127 -13.299  26.632  1.00  0.00     0.020 A 
ENDROOT
BRANCH   1  12
ATOM     12  C   UNL     1      20.290 -10.574  22.815  1.00  0.00     0.025 A 
ATOM     13  C   UNL     1      20.001 -10.712  21.449  1.00  0.00     0.016 A 
ATOM     14  C   UNL     1      20.711  -9.978  20.497  1.00  0.00     0.051 A 
ATOM     15  C   UNL     1      21.708  -9.082  20.895  1.00  0.00     0.157 A 
ATOM     16  C   UNL     1      21.279  -9.657  23.215  1.00  0.00     0.062 A 
ATOM     17  C   UNL     1      21.991  -8.916  22.261  1.00  0.00     0.158 A 
BRANCH  15  18
ATOM     18  O   UNL     1      22.401  -8.363  19.921  1.00  0.00    -0.504 OA
ATOM     19  H   UNL     1      23.310  -8.654  19.582  1.00  0.00     0.293 HD
ENDBRANCH  15  18
BRANCH  17  20
ATOM     20  O   UNL     1      22.974  -8.013  22.665  1.00  0.00    -0.504 OA
ATOM     21  H   UNL     1      22.819  -7.012  22.635  1.00  0.00     0.293 HD
ENDBRANCH  17  20
ENDBRANCH   1  12
BRANCH   2  22
ATOM     22  O   UNL     1      21.085 -13.205  23.754  1.00  0.00    -0.502 OA
ATOM     23  H   UNL     1      21.569 -13.954  24.235  1.00  0.00     0.293 HD
ENDBRANCH   2  22
BRANCH   9  24
ATOM     24  O   UNL     1      14.420 -10.806  26.956  1.00  0.00    -0.508 OA
ATOM     25  H   UNL     1      13.512 -11.116  26.629  1.00  0.00     0.293 HD
ENDBRANCH   9  24
TORSDOF 5
ENDMDL
MODEL 8
REMARK VINA RESULT:    -4.474      2.372      7.089
REMARK INTER + INTRA:          -5.488
REMARK INTER:                  -5.505
REMARK INTRA:                   0.016
REMARK UNBOUND:                -0.230
REMARK SMILES O=c1c(O)c(-c2ccc(O)c(O)c2)oc2cc(O)ccc12
REMARK SMILES IDX 5 1 3 2 2 3 1 4 21 5 15 6 14 7 16 8 17 9 19 10 20 11 6 12
REMARK SMILES IDX 7 13 8 14 9 15 13 16 11 17 10 18 12 20 4 22 18 24
REMARK H PARENT 10 19 12 21 4 23 18 25
REMARK Flexibility Score: inf
ROOT
ATOM      1  C   UNL     1      20.492  -3.235  20.012  1.00  0.00     0.180 A 
ATOM      2  C   UNL     1      21.283  -3.575  18.895  1.00  0.00     0.208 A 
ATOM      3  C   UNL     1      22.098  -4.715  18.964  1.00  0.00     0.235 A 
ATOM      4  O   UNL     1      22.824  -5.033  17.983  1.00  0.00    -0.285 OA
ATOM      5  C   UNL     1      22.091  -5.498  20.130  1.00  0.00     0.069 A 
ATOM      6  C   UNL     1      21.253  -5.104  21.196  1.00  0.00     0.142 A 
ATOM      7  O   UNL     1      20.503  -4.013  21.093  1.00  0.00    -0.452 OA
ATOM      8  C   UNL     1      21.210  -5.864  22.370  1.00  0.00     0.094 A 
ATOM      9  C   UNL     1      21.999  -7.016  22.494  1.00  0.00     0.119 A 
ATOM     10  C   UNL     1      22.832  -7.407  21.440  1.00  0.00     0.047 A 
ATOM     11  C   UNL     1      22.880  -6.655  20.262  1.00  0.00     0.020 A 
ENDROOT
BRANCH   1  12
ATOM     12  C   UNL     1      19.621  -2.038  20.024  1.00  0.00     0.025 A 
ATOM     13  C   UNL     1      20.152  -0.793  19.652  1.00  0.00     0.016 A 
ATOM     14  C   UNL     1      19.343   0.345  19.636  1.00  0.00     0.051 A 
ATOM     15  C   UNL     1      17.990   0.256  19.975  1.00  0.00     0.157 A 
ATOM     16  C   UNL     1      18.254  -2.130  20.345  1.00  0.00     0.062 A 
ATOM     17  C   UNL     1      17.440  -0.988  20.327  1.00  0.00     0.158 A 
BRANCH  15  18
ATOM     18  O   UNL     1      17.207   1.411  19.951  1.00  0.00    -0.504 OA
ATOM     19  H   UNL     1      16.697   1.731  20.765  1.00  0.00     0.293 HD
ENDBRANCH  15  18
BRANCH  17  20
ATOM     20  O   UNL     1      16.087  -1.086  20.651  1.00  0.00    -0.504 OA
ATOM     21  H   UNL     1      15.783  -1.315  21.591  1.00  0.00     0.293 HD
ENDBRANCH  17  20
ENDBRANCH   1  12
BRANCH   2  22
ATOM     22  O   UNL     1      21.232  -2.803  17.731  1.00  0.00    -0.502 OA
ATOM     23  H   UNL     1      21.745  -1.935  17.635  1.00  0.00     0.293 HD
ENDBRANCH   2  22
BRANCH   9  24
ATOM     24  O   UNL     1      21.963  -7.778  23.660  1.00  0.00    -0.508 OA
ATOM     25  H   UNL     1      21.194  -7.706  24.316  1.00  0.00     0.293 HD
ENDBRANCH   9  24
TORSDOF 5
ENDMDL
MODEL 9
REMARK VINA RESULT:    -4.420     13.273     15.429
REMARK INTER + INTRA:          -5.425
REMARK INTER:                  -5.123
REMARK INTRA:                  -0.302
REMARK UNBOUND:                -0.230
REMARK SMILES O=c1c(O)c(-c2ccc(O)c(O)c2)oc2cc(O)ccc12
REMARK SMILES IDX 5 1 3 2 2 3 1 4 21 5 15 6 14 7 16 8 17 9 19 10 20 11 6 12
REMARK SMILES IDX 7 13 8 14 9 15 13 16 11 17 10 18 12 20 4 22 18 24
REMARK H PARENT 10 19 12 21 4 23 18 25
REMARK Flexibility Score: inf
ROOT
ATOM      1  C   UNL     1      11.815  -5.908   9.682  1.00  0.00     0.180 A 
ATOM      2  C   UNL     1      12.759  -5.014   9.133  1.00  0.00     0.208 A 
ATOM      3  C   UNL     1      14.048  -5.486   8.842  1.00  0.00     0.235 A 
ATOM      4  O   UNL     1      14.913  -4.704   8.361  1.00  0.00    -0.285 OA
ATOM      5  C   UNL     1      14.361  -6.833   9.084  1.00  0.00     0.069 A 
ATOM      6  C   UNL     1      13.353  -7.670   9.612  1.00  0.00     0.142 A 
ATOM      7  O   UNL     1      12.148  -7.181   9.882  1.00  0.00    -0.452 OA
ATOM      8  C   UNL     1      13.623  -9.021   9.857  1.00  0.00     0.094 A 
ATOM      9  C   UNL     1      14.891  -9.548   9.582  1.00  0.00     0.119 A 
ATOM     10  C   UNL     1      15.892  -8.722   9.059  1.00  0.00     0.047 A 
ATOM     11  C   UNL     1      15.631  -7.371   8.810  1.00  0.00     0.020 A 
ENDROOT
BRANCH   1  12
ATOM     12  C   UNL     1      10.442  -5.482  10.033  1.00  0.00     0.025 A 
ATOM     13  C   UNL     1       9.450  -5.462   9.040  1.00  0.00     0.016 A 
ATOM     14  C   UNL     1       8.143  -5.083   9.353  1.00  0.00     0.051 A 
ATOM     15  C   UNL     1       7.802  -4.735  10.664  1.00  0.00     0.157 A 
ATOM     16  C   UNL     1      10.093  -5.151  11.355  1.00  0.00     0.062 A 
ATOM     17  C   UNL     1       8.780  -4.773  11.672  1.00  0.00     0.158 A 
BRANCH  15  18
ATOM     18  O   UNL     1       6.488  -4.360  10.946  1.00  0.00    -0.504 OA
ATOM     19  H   UNL     1       5.811  -5.014  11.321  1.00  0.00     0.293 HD
ENDBRANCH  15  18
BRANCH  17  20
ATOM     20  O   UNL     1       8.443  -4.441  12.983  1.00  0.00    -0.504 OA
ATOM     21  H   UNL     1       8.566  -5.098  13.745  1.00  0.00     0.293 HD
ENDBRANCH  17  20
ENDBRANCH   1  12
BRANCH   2  22
ATOM     22  O   UNL     1      12.404  -3.691   8.858  1.00  0.00    -0.502 OA
ATOM     23  H   UNL     1      12.948  -2.904   9.191  1.00  0.00     0.293 HD
ENDBRANCH   2  22
BRANCH   9  24
ATOM     24  O   UNL     1      15.169 -10.892   9.823  1.00  0.00    -0.508 OA
ATOM     25  H   UNL     1      14.756 -11.627   9.259  1.00  0.00     0.293 HD
ENDBRANCH   9  24
TORSDOF 5
ENDMDL
