MODEL 1
REMARK VINA RESULT:    -5.545      0.000      0.000
REMARK INTER + INTRA:          -9.553
REMARK INTER:                  -8.786
REMARK INTRA:                  -0.766
REMARK UNBOUND:                -0.766
REMARK SMILES CCCCCCCCCCCC(=O)[O-]
REMARK SMILES IDX 7 1 8 2 9 3 10 4 11 5 12 6 13 7 14 8 6 9 5 10 4 11 3 12 2 13
REMARK SMILES IDX 1 14
REMARK H PARENT
REMARK Flexibility Score: inf
ROOT
ATOM      1  C   UNL     1      25.888   1.187  62.744  1.00  0.00     0.000 C 
ENDROOT
BRANCH   1   2
ATOM      2  C   UNL     1      25.086   0.063  62.065  1.00  0.00     0.000 C 
BRANCH   2   3
ATOM      3  C   UNL     1      25.911  -1.182  61.681  1.00  0.00     0.000 C 
BRANCH   3   4
ATOM      4  C   UNL     1      25.240  -2.516  62.069  1.00  0.00     0.006 C 
BRANCH   4   5
ATOM      5  C   UNL     1      25.590  -3.650  61.097  1.00  0.00     0.053 C 
BRANCH   5   6
ATOM      6  C   UNL     1      24.660  -3.639  59.925  1.00  0.00     0.041 C 
ATOM      7  O   UNL     1      23.478  -4.057  60.050  1.00  0.00    -0.550 OA
ATOM      8  O   UNL     1      25.111  -3.214  58.683  1.00  0.00    -0.550 OA
ENDBRANCH   5   6
ENDBRANCH   4   5
ENDBRANCH   3   4
ENDBRANCH   2   3
ENDBRANCH   1   2
BRANCH   1   9
ATOM      9  C   UNL     1      25.472   2.615  62.341  1.00  0.00     0.000 C 
BRANCH   9  10
ATOM     10  C   UNL     1      25.440   3.609  63.521  1.00  0.00    -0.000 C 
BRANCH  10  11
ATOM     11  C   UNL     1      24.029   3.777  64.104  1.00  0.00    -0.000 C 
BRANCH  11  12
ATOM     12  C   UNL     1      22.957   3.458  63.051  1.00  0.00    -0.000 C 
BRANCH  12  13
ATOM     13  C   UNL     1      21.892   2.481  63.570  1.00  0.00    -0.003 C 
ATOM     14  C   UNL     1      21.627   1.326  62.605  1.00  0.00     0.004 C 
ENDBRANCH  12  13
ENDBRANCH  11  12
ENDBRANCH  10  11
ENDBRANCH   9  10
ENDBRANCH   1   9
TORSDOF 10
ENDMDL
MODEL 2
REMARK VINA RESULT:    -5.499      3.699      6.341
REMARK INTER + INTRA:          -9.480
REMARK INTER:                  -8.697
REMARK INTRA:                  -0.784
REMARK UNBOUND:                -0.766
REMARK SMILES CCCCCCCCCCCC(=O)[O-]
REMARK SMILES IDX 7 1 8 2 9 3 10 4 11 5 12 6 13 7 14 8 6 9 5 10 4 11 3 12 2 13
REMARK SMILES IDX 1 14
REMARK H PARENT
REMARK Flexibility Score: inf
ROOT
ATOM      1  C   UNL     1      25.124  -0.136  62.281  1.00  0.00     0.000 C 
ENDROOT
BRANCH   1   2
ATOM      2  C   UNL     1      25.892   1.154  62.622  1.00  0.00     0.000 C 
BRANCH   2   3
ATOM      3  C   UNL     1      25.223   2.455  62.133  1.00  0.00     0.000 C 
BRANCH   3   4
ATOM      4  C   UNL     1      23.828   2.704  62.743  1.00  0.00     0.006 C 
BRANCH   4   5
ATOM      5  C   UNL     1      23.847   3.801  63.814  1.00  0.00     0.053 C 
BRANCH   5   6
ATOM      6  C   UNL     1      24.049   3.204  65.171  1.00  0.00     0.041 C 
ATOM      7  O   UNL     1      25.205   3.132  65.667  1.00  0.00    -0.550 OA
ATOM      8  O   UNL     1      22.968   2.681  65.868  1.00  0.00    -0.550 OA
ENDBRANCH   5   6
ENDBRANCH   4   5
ENDBRANCH   3   4
ENDBRANCH   2   3
ENDBRANCH   1   2
BRANCH   1   9
ATOM      9  C   UNL     1      25.931  -1.180  61.487  1.00  0.00     0.000 C 
BRANCH   9  10
ATOM     10  C   UNL     1      25.536  -2.640  61.800  1.00  0.00    -0.000 C 
BRANCH  10  11
ATOM     11  C   UNL     1      24.094  -2.756  62.314  1.00  0.00    -0.000 C 
BRANCH  11  12
ATOM     12  C   UNL     1      23.204  -3.485  61.297  1.00  0.00    -0.000 C 
BRANCH  12  13
ATOM     13  C   UNL     1      22.073  -2.595  60.758  1.00  0.00    -0.003 C 
ATOM     14  C   UNL     1      21.747  -1.425  61.687  1.00  0.00     0.004 C 
ENDBRANCH  12  13
ENDBRANCH  11  12
ENDBRANCH  10  11
ENDBRANCH   9  10
ENDBRANCH   1   9
TORSDOF 10
ENDMDL
MODEL 3
REMARK VINA RESULT:    -5.478      3.275      6.241
REMARK INTER + INTRA:          -9.448
REMARK INTER:                  -8.498
REMARK INTRA:                  -0.950
REMARK UNBOUND:                -0.766
REMARK SMILES CCCCCCCCCCCC(=O)[O-]
REMARK SMILES IDX 7 1 8 2 9 3 10 4 11 5 12 6 13 7 14 8 6 9 5 10 4 11 3 12 2 13
REMARK SMILES IDX 1 14
REMARK H PARENT
REMARK Flexibility Score: inf
ROOT
ATOM      1  C   UNL     1      25.514  -2.504  62.045  1.00  0.00     0.000 C 
ENDROOT
BRANCH   1   2
ATOM      2  C   UNL     1      25.929  -1.110  61.541  1.00  0.00     0.000 C 
BRANCH   2   3
ATOM      3  C   UNL     1      25.056   0.052  62.055  1.00  0.00     0.000 C 
BRANCH   3   4
ATOM      4  C   UNL     1      25.862   1.179  62.736  1.00  0.00     0.006 C 
BRANCH   4   5
ATOM      5  C   UNL     1      25.448   2.571  62.242  1.00  0.00     0.053 C 
BRANCH   5   6
ATOM      6  C   UNL     1      24.105   2.942  62.789  1.00  0.00     0.041 C 
ATOM      7  O   UNL     1      23.257   3.513  62.054  1.00  0.00    -0.550 OA
ATOM      8  O   UNL     1      23.808   2.701  64.124  1.00  0.00    -0.550 OA
ENDBRANCH   5   6
ENDBRANCH   4   5
ENDBRANCH   3   4
ENDBRANCH   2   3
ENDBRANCH   1   2
BRANCH   1   9
ATOM      9  C   UNL     1      25.513  -3.609  60.971  1.00  0.00     0.000 C 
BRANCH   9  10
ATOM     10  C   UNL     1      25.473  -3.070  59.525  1.00  0.00    -0.000 C 
BRANCH  10  11
ATOM     11  C   UNL     1      24.054  -3.074  58.940  1.00  0.00    -0.000 C 
BRANCH  11  12
ATOM     12  C   UNL     1      23.075  -3.798  59.876  1.00  0.00    -0.000 C 
BRANCH  12  13
ATOM     13  C   UNL     1      21.790  -2.993  60.122  1.00  0.00    -0.003 C 
ATOM     14  C   UNL     1      21.938  -1.971  61.249  1.00  0.00     0.004 C 
ENDBRANCH  12  13
ENDBRANCH  11  12
ENDBRANCH  10  11
ENDBRANCH   9  10
ENDBRANCH   1   9
TORSDOF 10
ENDMDL
MODEL 4
REMARK VINA RESULT:    -5.460      0.840      1.245
REMARK INTER + INTRA:          -9.419
REMARK INTER:                  -8.575
REMARK INTRA:                  -0.844
REMARK UNBOUND:                -0.766
REMARK SMILES CCCCCCCCCCCC(=O)[O-]
REMARK SMILES IDX 7 1 8 2 9 3 10 4 11 5 12 6 13 7 14 8 6 9 5 10 4 11 3 12 2 13
REMARK SMILES IDX 1 14
REMARK H PARENT
REMARK Flexibility Score: inf
ROOT
ATOM      1  C   UNL     1      25.872   1.129  62.703  1.00  0.00     0.000 C 
ENDROOT
BRANCH   1   2
ATOM      2  C   UNL     1      25.084  -0.010  62.032  1.00  0.00     0.000 C 
BRANCH   2   3
ATOM      3  C   UNL     1      25.921  -1.254  61.672  1.00  0.00     0.000 C 
BRANCH   3   4
ATOM      4  C   UNL     1      25.259  -2.587  62.080  1.00  0.00     0.006 C 
BRANCH   4   5
ATOM      5  C   UNL     1      23.734  -2.554  61.919  1.00  0.00     0.053 C 
BRANCH   5   6
ATOM      6  C   UNL     1      23.304  -3.478  60.823  1.00  0.00     0.041 C 
ATOM      7  O   UNL     1      24.152  -4.193  60.228  1.00  0.00    -0.550 OA
ATOM      8  O   UNL     1      21.974  -3.513  60.425  1.00  0.00    -0.550 OA
ENDBRANCH   5   6
ENDBRANCH   4   5
ENDBRANCH   3   4
ENDBRANCH   2   3
ENDBRANCH   1   2
BRANCH   1   9
ATOM      9  C   UNL     1      25.395   2.549  62.342  1.00  0.00     0.000 C 
BRANCH   9  10
ATOM     10  C   UNL     1      25.457   3.544  63.520  1.00  0.00    -0.000 C 
BRANCH  10  11
ATOM     11  C   UNL     1      24.124   3.635  64.277  1.00  0.00    -0.000 C 
BRANCH  11  12
ATOM     12  C   UNL     1      22.936   3.601  63.305  1.00  0.00    -0.000 C 
BRANCH  12  13
ATOM     13  C   UNL     1      21.877   2.562  63.704  1.00  0.00    -0.003 C 
ATOM     14  C   UNL     1      21.733   1.438  62.677  1.00  0.00     0.004 C 
ENDBRANCH  12  13
ENDBRANCH  11  12
ENDBRANCH  10  11
ENDBRANCH   9  10
ENDBRANCH   1   9
TORSDOF 10
ENDMDL
MODEL 5
REMARK VINA RESULT:    -5.435      0.992      1.603
REMARK INTER + INTRA:          -9.379
REMARK INTER:                  -8.760
REMARK INTRA:                  -0.619
REMARK UNBOUND:                -0.766
REMARK SMILES CCCCCCCCCCCC(=O)[O-]
REMARK SMILES IDX 7 1 8 2 9 3 10 4 11 5 12 6 13 7 14 8 6 9 5 10 4 11 3 12 2 13
REMARK SMILES IDX 1 14
REMARK H PARENT
REMARK Flexibility Score: inf
ROOT
ATOM      1  C   UNL     1      25.070   0.023  62.283  1.00  0.00     0.000 C 
ENDROOT
BRANCH   1   2
ATOM      2  C   UNL     1      25.891  -1.090  61.606  1.00  0.00     0.000 C 
BRANCH   2   3
ATOM      3  C   UNL     1      25.441  -2.525  61.946  1.00  0.00     0.000 C 
BRANCH   3   4
ATOM      4  C   UNL     1      23.932  -2.769  61.736  1.00  0.00     0.006 C 
BRANCH   4   5
ATOM      5  C   UNL     1      23.655  -3.790  60.624  1.00  0.00     0.053 C 
BRANCH   5   6
ATOM      6  C   UNL     1      23.626  -3.114  59.290  1.00  0.00     0.041 C 
ATOM      7  O   UNL     1      22.548  -2.641  58.842  1.00  0.00    -0.550 OA
ATOM      8  O   UNL     1      24.779  -3.049  58.517  1.00  0.00    -0.550 OA
ENDBRANCH   5   6
ENDBRANCH   4   5
ENDBRANCH   3   4
ENDBRANCH   2   3
ENDBRANCH   1   2
BRANCH   1   9
ATOM      9  C   UNL     1      25.886   1.253  62.723  1.00  0.00     0.000 C 
BRANCH   9  10
ATOM     10  C   UNL     1      25.329   2.591  62.190  1.00  0.00    -0.000 C 
BRANCH  10  11
ATOM     11  C   UNL     1      25.437   3.721  63.224  1.00  0.00    -0.000 C 
BRANCH  11  12
ATOM     12  C   UNL     1      24.185   3.776  64.112  1.00  0.00    -0.000 C 
BRANCH  12  13
ATOM     13  C   UNL     1      22.898   3.453  63.338  1.00  0.00    -0.003 C 
ATOM     14  C   UNL     1      21.824   2.812  64.216  1.00  0.00     0.004 C 
ENDBRANCH  12  13
ENDBRANCH  11  12
ENDBRANCH  10  11
ENDBRANCH   9  10
ENDBRANCH   1   9
TORSDOF 10
ENDMDL
MODEL 6
REMARK VINA RESULT:    -5.427      3.173      5.857
REMARK INTER + INTRA:          -9.366
REMARK INTER:                  -8.288
REMARK INTRA:                  -1.078
REMARK UNBOUND:                -0.766
REMARK SMILES CCCCCCCCCCCC(=O)[O-]
REMARK SMILES IDX 7 1 8 2 9 3 10 4 11 5 12 6 13 7 14 8 6 9 5 10 4 11 3 12 2 13
REMARK SMILES IDX 1 14
REMARK H PARENT
REMARK Flexibility Score: inf
ROOT
ATOM      1  C   UNL     1      25.477  -3.634  60.973  1.00  0.00     0.000 C 
ENDROOT
BRANCH   1   2
ATOM      2  C   UNL     1      25.514  -2.521  62.036  1.00  0.00     0.000 C 
BRANCH   2   3
ATOM      3  C   UNL     1      25.993  -1.149  61.522  1.00  0.00     0.000 C 
BRANCH   3   4
ATOM      4  C   UNL     1      25.097   0.027  61.965  1.00  0.00     0.006 C 
BRANCH   4   5
ATOM      5  C   UNL     1      25.899   1.151  62.634  1.00  0.00     0.053 C 
BRANCH   5   6
ATOM      6  C   UNL     1      25.144   2.441  62.571  1.00  0.00     0.041 C 
ATOM      7  O   UNL     1      23.915   2.443  62.299  1.00  0.00    -0.550 OA
ATOM      8  O   UNL     1      25.808   3.645  62.764  1.00  0.00    -0.550 OA
ENDBRANCH   5   6
ENDBRANCH   4   5
ENDBRANCH   3   4
ENDBRANCH   2   3
ENDBRANCH   1   2
BRANCH   1   9
ATOM      9  C   UNL     1      25.502  -3.138  59.514  1.00  0.00     0.000 C 
BRANCH   9  10
ATOM     10  C   UNL     1      24.102  -3.021  58.874  1.00  0.00    -0.000 C 
BRANCH  10  11
ATOM     11  C   UNL     1      23.002  -3.621  59.761  1.00  0.00    -0.000 C 
BRANCH  11  12
ATOM     12  C   UNL     1      21.930  -2.573  60.093  1.00  0.00    -0.000 C 
BRANCH  12  13
ATOM     13  C   UNL     1      22.034  -2.060  61.537  1.00  0.00    -0.003 C 
ATOM     14  C   UNL     1      21.414  -0.675  61.720  1.00  0.00     0.004 C 
ENDBRANCH  12  13
ENDBRANCH  11  12
ENDBRANCH  10  11
ENDBRANCH   9  10
ENDBRANCH   1   9
TORSDOF 10
ENDMDL
MODEL 7
REMARK VINA RESULT:    -5.344      3.034      6.124
REMARK INTER + INTRA:          -9.234
REMARK INTER:                  -8.497
REMARK INTRA:                  -0.737
REMARK UNBOUND:                -0.766
REMARK SMILES CCCCCCCCCCCC(=O)[O-]
REMARK SMILES IDX 7 1 8 2 9 3 10 4 11 5 12 6 13 7 14 8 6 9 5 10 4 11 3 12 2 13
REMARK SMILES IDX 1 14
REMARK H PARENT
REMARK Flexibility Score: inf
ROOT
ATOM      1  C   UNL     1      25.118   0.076  62.042  1.00  0.00     0.000 C 
ENDROOT
BRANCH   1   2
ATOM      2  C   UNL     1      25.996   1.127  62.746  1.00  0.00     0.000 C 
BRANCH   2   3
ATOM      3  C   UNL     1      25.588   2.591  62.487  1.00  0.00     0.000 C 
BRANCH   3   4
ATOM      4  C   UNL     1      24.136   2.752  61.987  1.00  0.00     0.006 C 
BRANCH   4   5
ATOM      5  C   UNL     1      23.253   3.500  62.994  1.00  0.00     0.053 C 
BRANCH   5   6
ATOM      6  C   UNL     1      22.050   2.683  63.342  1.00  0.00     0.041 C 
ATOM      7  O   UNL     1      21.217   3.109  64.186  1.00  0.00    -0.550 OA
ATOM      8  O   UNL     1      21.873   1.429  62.774  1.00  0.00    -0.550 OA
ENDBRANCH   5   6
ENDBRANCH   4   5
ENDBRANCH   3   4
ENDBRANCH   2   3
ENDBRANCH   1   2
BRANCH   1   9
ATOM      9  C   UNL     1      25.850  -1.221  61.648  1.00  0.00     0.000 C 
BRANCH   9  10
ATOM     10  C   UNL     1      25.152  -2.505  62.147  1.00  0.00    -0.000 C 
BRANCH  10  11
ATOM     11  C   UNL     1      23.624  -2.427  62.014  1.00  0.00    -0.000 C 
BRANCH  11  12
ATOM     12  C   UNL     1      23.097  -3.523  61.076  1.00  0.00    -0.000 C 
BRANCH  12  13
ATOM     13  C   UNL     1      22.734  -2.983  59.684  1.00  0.00    -0.003 C 
ATOM     14  C   UNL     1      23.907  -3.032  58.705  1.00  0.00     0.004 C 
ENDBRANCH  12  13
ENDBRANCH  11  12
ENDBRANCH  10  11
ENDBRANCH   9  10
ENDBRANCH   1   9
TORSDOF 10
ENDMDL
MODEL 8
REMARK VINA RESULT:    -5.298      3.726      6.594
REMARK INTER + INTRA:          -9.162
REMARK INTER:                  -8.551
REMARK INTRA:                  -0.611
REMARK UNBOUND:                -0.766
REMARK SMILES CCCCCCCCCCCC(=O)[O-]
REMARK SMILES IDX 7 1 8 2 9 3 10 4 11 5 12 6 13 7 14 8 6 9 5 10 4 11 3 12 2 13
REMARK SMILES IDX 1 14
REMARK H PARENT
REMARK Flexibility Score: inf
ROOT
ATOM      1  C   UNL     1      25.688   1.397  62.734  1.00  0.00     0.000 C 
ENDROOT
BRANCH   1   2
ATOM      2  C   UNL     1      25.191   2.653  61.996  1.00  0.00     0.000 C 
BRANCH   2   3
ATOM      3  C   UNL     1      23.690   2.956  62.172  1.00  0.00     0.000 C 
BRANCH   3   4
ATOM      4  C   UNL     1      23.363   3.757  63.451  1.00  0.00     0.006 C 
BRANCH   4   5
ATOM      5  C   UNL     1      22.838   2.862  64.581  1.00  0.00     0.053 C 
BRANCH   5   6
ATOM      6  C   UNL     1      23.732   2.950  65.776  1.00  0.00     0.041 C 
ATOM      7  O   UNL     1      23.262   2.783  66.933  1.00  0.00    -0.550 OA
ATOM      8  O   UNL     1      25.075   3.266  65.618  1.00  0.00    -0.550 OA
ENDBRANCH   5   6
ENDBRANCH   4   5
ENDBRANCH   3   4
ENDBRANCH   2   3
ENDBRANCH   1   2
BRANCH   1   9
ATOM      9  C   UNL     1      24.983   0.087  62.333  1.00  0.00     0.000 C 
BRANCH   9  10
ATOM     10  C   UNL     1      25.909  -0.927  61.627  1.00  0.00    -0.000 C 
BRANCH  10  11
ATOM     11  C   UNL     1      25.442  -2.377  61.821  1.00  0.00    -0.000 C 
BRANCH  11  12
ATOM     12  C   UNL     1      23.965  -2.536  61.431  1.00  0.00    -0.000 C 
BRANCH  12  13
ATOM     13  C   UNL     1      23.783  -3.285  60.102  1.00  0.00    -0.003 C 
ATOM     14  C   UNL     1      25.089  -3.428  59.320  1.00  0.00     0.004 C 
ENDBRANCH  12  13
ENDBRANCH  11  12
ENDBRANCH  10  11
ENDBRANCH   9  10
ENDBRANCH   1   9
TORSDOF 10
ENDMDL
MODEL 9
REMARK VINA RESULT:    -5.272      1.737      3.331
REMARK INTER + INTRA:          -9.120
REMARK INTER:                  -8.493
REMARK INTRA:                  -0.627
REMARK UNBOUND:                -0.766
REMARK SMILES CCCCCCCCCCCC(=O)[O-]
REMARK SMILES IDX 7 1 8 2 9 3 10 4 11 5 12 6 13 7 14 8 6 9 5 10 4 11 3 12 2 13
REMARK SMILES IDX 1 14
REMARK H PARENT
REMARK Flexibility Score: inf
ROOT
ATOM      1  C   UNL     1      25.335  -2.364  62.062  1.00  0.00     0.000 C 
ENDROOT
BRANCH   1   2
ATOM      2  C   UNL     1      25.509  -3.521  61.062  1.00  0.00     0.000 C 
BRANCH   2   3
ATOM      3  C   UNL     1      25.533  -3.099  59.580  1.00  0.00     0.000 C 
BRANCH   3   4
ATOM      4  C   UNL     1      24.137  -3.058  58.922  1.00  0.00     0.006 C 
BRANCH   4   5
ATOM      5  C   UNL     1      23.043  -3.614  59.843  1.00  0.00     0.053 C 
BRANCH   5   6
ATOM      6  C   UNL     1      22.046  -2.548  60.172  1.00  0.00     0.041 C 
ATOM      7  O   UNL     1      21.370  -2.008  59.258  1.00  0.00    -0.550 OA
ATOM      8  O   UNL     1      21.899  -2.115  61.484  1.00  0.00    -0.550 OA
ENDBRANCH   5   6
ENDBRANCH   4   5
ENDBRANCH   3   4
ENDBRANCH   2   3
ENDBRANCH   1   2
BRANCH   1   9
ATOM      9  C   UNL     1      25.924  -1.016  61.603  1.00  0.00     0.000 C 
BRANCH   9  10
ATOM     10  C   UNL     1      25.073   0.206  62.013  1.00  0.00    -0.000 C 
BRANCH  10  11
ATOM     11  C   UNL     1      25.892   1.255  62.780  1.00  0.00    -0.000 C 
BRANCH  11  12
ATOM     12  C   UNL     1      25.549   2.675  62.305  1.00  0.00    -0.000 C 
BRANCH  12  13
ATOM     13  C   UNL     1      24.061   2.839  61.962  1.00  0.00    -0.003 C 
ATOM     14  C   UNL     1      23.313   3.706  62.974  1.00  0.00     0.004 C 
ENDBRANCH  12  13
ENDBRANCH  11  12
ENDBRANCH  10  11
ENDBRANCH   9  10
ENDBRANCH   1   9
TORSDOF 10
ENDMDL
