MODEL 1
REMARK VINA RESULT:    -5.377      0.000      0.000
REMARK INTER + INTRA:         -11.403
REMARK INTER:                  -9.935
REMARK INTRA:                  -1.468
REMARK UNBOUND:                -1.468
REMARK SMILES CCCCCCCCCCCCCCCCO
REMARK SMILES IDX 9 1 8 2 7 3 6 4 5 5 4 6 3 7 2 8 1 9 10 10 11 11 12 12 13 13
REMARK SMILES IDX 14 14 15 15 16 16 17 17
REMARK H PARENT 17 18
REMARK Flexibility Score: inf
ROOT
ATOM      1  C   UNL     1      18.822  -7.566  16.120  1.00  0.00     0.000 C 
ENDROOT
BRANCH   1   2
ATOM      2  C   UNL     1      19.715  -6.892  17.175  1.00  0.00    -0.000 C 
BRANCH   2   3
ATOM      3  C   UNL     1      21.103  -6.521  16.622  1.00  0.00    -0.000 C 
BRANCH   3   4
ATOM      4  C   UNL     1      21.105  -6.356  15.094  1.00  0.00    -0.000 C 
BRANCH   4   5
ATOM      5  C   UNL     1      21.788  -5.058  14.637  1.00  0.00    -0.000 C 
BRANCH   5   6
ATOM      6  C   UNL     1      20.750  -3.992  14.264  1.00  0.00    -0.000 C 
BRANCH   6   7
ATOM      7  C   UNL     1      20.521  -3.016  15.426  1.00  0.00    -0.000 C 
BRANCH   7   8
ATOM      8  C   UNL     1      19.208  -3.288  16.176  1.00  0.00    -0.003 C 
ATOM      9  C   UNL     1      18.153  -3.956  15.296  1.00  0.00     0.004 C 
ENDBRANCH   7   8
ENDBRANCH   6   7
ENDBRANCH   5   6
ENDBRANCH   4   5
ENDBRANCH   3   4
ENDBRANCH   2   3
ENDBRANCH   1   2
BRANCH   1  10
ATOM     10  C   UNL     1      18.348  -8.965  16.551  1.00  0.00     0.000 C 
BRANCH  10  11
ATOM     11  C   UNL     1      18.168  -9.922  15.362  1.00  0.00     0.000 C 
BRANCH  11  12
ATOM     12  C   UNL     1      16.923 -10.814  15.506  1.00  0.00     0.000 C 
BRANCH  12  13
ATOM     13  C   UNL     1      15.717 -10.291  14.704  1.00  0.00     0.000 C 
BRANCH  13  14
ATOM     14  C   UNL     1      15.992  -9.043  13.841  1.00  0.00     0.002 C 
BRANCH  14  15
ATOM     15  C   UNL     1      15.651  -7.700  14.511  1.00  0.00     0.028 C 
BRANCH  15  16
ATOM     16  C   UNL     1      14.230  -7.219  14.199  1.00  0.00     0.156 C 
BRANCH  16  17
ATOM     17  O   UNL     1      14.250  -6.300  13.142  1.00  0.00    -0.396 OA
ATOM     18  H   UNL     1      13.311  -6.194  12.839  1.00  0.00     0.210 HD
ENDBRANCH  16  17
ENDBRANCH  15  16
ENDBRANCH  14  15
ENDBRANCH  13  14
ENDBRANCH  12  13
ENDBRANCH  11  12
ENDBRANCH  10  11
ENDBRANCH   1  10
TORSDOF 15
ENDMDL
MODEL 2
REMARK VINA RESULT:    -5.240      1.083      2.551
REMARK INTER + INTRA:         -11.150
REMARK INTER:                  -9.782
REMARK INTRA:                  -1.368
REMARK UNBOUND:                -1.468
REMARK SMILES CCCCCCCCCCCCCCCCO
REMARK SMILES IDX 9 1 8 2 7 3 6 4 5 5 4 6 3 7 2 8 1 9 10 10 11 11 12 12 13 13
REMARK SMILES IDX 14 14 15 15 16 16 17 17
REMARK H PARENT 17 18
REMARK Flexibility Score: inf
ROOT
ATOM      1  C   UNL     1      19.614  -6.562  16.911  1.00  0.00     0.000 C 
ENDROOT
BRANCH   1   2
ATOM      2  C   UNL     1      19.194  -5.125  17.261  1.00  0.00    -0.000 C 
BRANCH   2   3
ATOM      3  C   UNL     1      18.710  -4.336  16.032  1.00  0.00    -0.000 C 
BRANCH   3   4
ATOM      4  C   UNL     1      19.375  -2.954  15.919  1.00  0.00    -0.000 C 
BRANCH   4   5
ATOM      5  C   UNL     1      20.736  -3.005  15.210  1.00  0.00    -0.000 C 
BRANCH   5   6
ATOM      6  C   UNL     1      20.820  -4.212  14.268  1.00  0.00    -0.000 C 
BRANCH   6   7
ATOM      7  C   UNL     1      22.037  -5.087  14.601  1.00  0.00    -0.000 C 
BRANCH   7   8
ATOM      8  C   UNL     1      22.744  -4.650  15.893  1.00  0.00    -0.003 C 
ATOM      9  C   UNL     1      24.119  -5.295  16.062  1.00  0.00     0.004 C 
ENDBRANCH   7   8
ENDBRANCH   6   7
ENDBRANCH   5   6
ENDBRANCH   4   5
ENDBRANCH   3   4
ENDBRANCH   2   3
ENDBRANCH   1   2
BRANCH   1  10
ATOM     10  C   UNL     1      18.686  -7.214  15.871  1.00  0.00     0.000 C 
BRANCH  10  11
ATOM     11  C   UNL     1      18.345  -8.674  16.212  1.00  0.00     0.000 C 
BRANCH  11  12
ATOM     12  C   UNL     1      17.534  -9.364  15.103  1.00  0.00     0.000 C 
BRANCH  12  13
ATOM     13  C   UNL     1      16.233 -10.003  15.623  1.00  0.00     0.000 C 
BRANCH  13  14
ATOM     14  C   UNL     1      14.939  -9.507  14.945  1.00  0.00     0.002 C 
BRANCH  14  15
ATOM     15  C   UNL     1      15.139  -8.405  13.889  1.00  0.00     0.028 C 
BRANCH  15  16
ATOM     16  C   UNL     1      14.339  -7.134  14.192  1.00  0.00     0.156 C 
BRANCH  16  17
ATOM     17  O   UNL     1      14.334  -6.288  13.076  1.00  0.00    -0.396 OA
ATOM     18  H   UNL     1      15.041  -6.621  12.463  1.00  0.00     0.210 HD
ENDBRANCH  16  17
ENDBRANCH  15  16
ENDBRANCH  14  15
ENDBRANCH  13  14
ENDBRANCH  12  13
ENDBRANCH  11  12
ENDBRANCH  10  11
ENDBRANCH   1  10
TORSDOF 15
ENDMDL
MODEL 3
REMARK VINA RESULT:    -5.163      2.659      6.795
REMARK INTER + INTRA:         -11.007
REMARK INTER:                  -9.656
REMARK INTRA:                  -1.350
REMARK UNBOUND:                -1.468
REMARK SMILES CCCCCCCCCCCCCCCCO
REMARK SMILES IDX 9 1 8 2 7 3 6 4 5 5 4 6 3 7 2 8 1 9 10 10 11 11 12 12 13 13
REMARK SMILES IDX 14 14 15 15 16 16 17 17
REMARK H PARENT 17 18
REMARK Flexibility Score: inf
ROOT
ATOM      1  C   UNL     1      19.184  -5.226  17.206  1.00  0.00     0.000 C 
ENDROOT
BRANCH   1   2
ATOM      2  C   UNL     1      19.657  -6.663  16.935  1.00  0.00    -0.000 C 
BRANCH   2   3
ATOM      3  C   UNL     1      18.879  -7.334  15.788  1.00  0.00    -0.000 C 
BRANCH   3   4
ATOM      4  C   UNL     1      18.267  -8.682  16.200  1.00  0.00    -0.000 C 
BRANCH   4   5
ATOM      5  C   UNL     1      17.285  -9.233  15.155  1.00  0.00    -0.000 C 
BRANCH   5   6
ATOM      6  C   UNL     1      16.386  -8.119  14.604  1.00  0.00    -0.000 C 
BRANCH   6   7
ATOM      7  C   UNL     1      14.902  -8.483  14.755  1.00  0.00    -0.000 C 
BRANCH   7   8
ATOM      8  C   UNL     1      13.974  -7.486  14.045  1.00  0.00    -0.003 C 
ATOM      9  C   UNL     1      12.689  -8.137  13.534  1.00  0.00     0.004 C 
ENDBRANCH   7   8
ENDBRANCH   6   7
ENDBRANCH   5   6
ENDBRANCH   4   5
ENDBRANCH   3   4
ENDBRANCH   2   3
ENDBRANCH   1   2
BRANCH   1  10
ATOM     10  C   UNL     1      18.682  -4.517  15.935  1.00  0.00     0.000 C 
BRANCH  10  11
ATOM     11  C   UNL     1      19.210  -3.079  15.811  1.00  0.00     0.000 C 
BRANCH  11  12
ATOM     12  C   UNL     1      20.612  -3.018  15.181  1.00  0.00     0.000 C 
BRANCH  12  13
ATOM     13  C   UNL     1      20.910  -4.221  14.267  1.00  0.00     0.000 C 
BRANCH  13  14
ATOM     14  C   UNL     1      22.109  -5.092  14.695  1.00  0.00     0.002 C 
BRANCH  14  15
ATOM     15  C   UNL     1      22.801  -4.652  15.998  1.00  0.00     0.028 C 
BRANCH  15  16
ATOM     16  C   UNL     1      23.877  -5.637  16.466  1.00  0.00     0.156 C 
BRANCH  16  17
ATOM     17  O   UNL     1      23.282  -6.761  17.053  1.00  0.00    -0.396 OA
ATOM     18  H   UNL     1      23.097  -6.524  17.999  1.00  0.00     0.210 HD
ENDBRANCH  16  17
ENDBRANCH  15  16
ENDBRANCH  14  15
ENDBRANCH  13  14
ENDBRANCH  12  13
ENDBRANCH  11  12
ENDBRANCH  10  11
ENDBRANCH   1  10
TORSDOF 15
ENDMDL
MODEL 4
REMARK VINA RESULT:    -5.130      4.445      8.212
REMARK INTER + INTRA:         -10.946
REMARK INTER:                  -9.406
REMARK INTRA:                  -1.540
REMARK UNBOUND:                -1.468
REMARK SMILES CCCCCCCCCCCCCCCCO
REMARK SMILES IDX 9 1 8 2 7 3 6 4 5 5 4 6 3 7 2 8 1 9 10 10 11 11 12 12 13 13
REMARK SMILES IDX 14 14 15 15 16 16 17 17
REMARK H PARENT 17 18
REMARK Flexibility Score: inf
ROOT
ATOM      1  C   UNL     1      22.946  -4.628  15.904  1.00  0.00     0.000 C 
ENDROOT
BRANCH   1   2
ATOM      2  C   UNL     1      22.201  -5.162  14.670  1.00  0.00    -0.000 C 
BRANCH   2   3
ATOM      3  C   UNL     1      20.976  -4.305  14.304  1.00  0.00    -0.000 C 
BRANCH   3   4
ATOM      4  C   UNL     1      21.007  -2.918  14.966  1.00  0.00    -0.000 C 
BRANCH   4   5
ATOM      5  C   UNL     1      19.873  -2.720  15.984  1.00  0.00    -0.000 C 
BRANCH   5   6
ATOM      6  C   UNL     1      18.910  -3.913  15.972  1.00  0.00    -0.000 C 
BRANCH   6   7
ATOM      7  C   UNL     1      18.991  -4.700  17.289  1.00  0.00    -0.000 C 
BRANCH   7   8
ATOM      8  C   UNL     1      19.661  -6.071  17.118  1.00  0.00    -0.003 C 
ATOM      9  C   UNL     1      19.039  -6.896  15.991  1.00  0.00     0.004 C 
ENDBRANCH   7   8
ENDBRANCH   6   7
ENDBRANCH   5   6
ENDBRANCH   4   5
ENDBRANCH   3   4
ENDBRANCH   2   3
ENDBRANCH   1   2
BRANCH   1  10
ATOM     10  C   UNL     1      24.184  -5.470  16.260  1.00  0.00     0.000 C 
BRANCH  10  11
ATOM     11  C   UNL     1      25.312  -5.333  15.225  1.00  0.00     0.000 C 
BRANCH  11  12
ATOM     12  C   UNL     1      26.601  -4.753  15.831  1.00  0.00     0.000 C 
BRANCH  12  13
ATOM     13  C   UNL     1      26.481  -3.256  16.171  1.00  0.00     0.000 C 
BRANCH  13  14
ATOM     14  C   UNL     1      26.619  -2.909  17.668  1.00  0.00     0.002 C 
BRANCH  14  15
ATOM     15  C   UNL     1      25.418  -2.164  18.277  1.00  0.00     0.028 C 
BRANCH  15  16
ATOM     16  C   UNL     1      24.844  -1.091  17.345  1.00  0.00     0.156 C 
BRANCH  16  17
ATOM     17  O   UNL     1      24.014  -0.221  18.063  1.00  0.00    -0.396 OA
ATOM     18  H   UNL     1      23.396  -0.789  18.593  1.00  0.00     0.210 HD
ENDBRANCH  16  17
ENDBRANCH  15  16
ENDBRANCH  14  15
ENDBRANCH  13  14
ENDBRANCH  12  13
ENDBRANCH  11  12
ENDBRANCH  10  11
ENDBRANCH   1  10
TORSDOF 15
ENDMDL
MODEL 5
REMARK VINA RESULT:    -5.089      2.201      6.418
REMARK INTER + INTRA:         -10.870
REMARK INTER:                  -9.496
REMARK INTRA:                  -1.374
REMARK UNBOUND:                -1.468
REMARK SMILES CCCCCCCCCCCCCCCCO
REMARK SMILES IDX 9 1 8 2 7 3 6 4 5 5 4 6 3 7 2 8 1 9 10 10 11 11 12 12 13 13
REMARK SMILES IDX 14 14 15 15 16 16 17 17
REMARK H PARENT 17 18
REMARK Flexibility Score: inf
ROOT
ATOM      1  C   UNL     1      18.771  -7.871  17.242  1.00  0.00     0.000 C 
ENDROOT
BRANCH   1   2
ATOM      2  C   UNL     1      18.404  -8.822  16.091  1.00  0.00    -0.000 C 
BRANCH   2   3
ATOM      3  C   UNL     1      17.446  -9.943  16.534  1.00  0.00    -0.000 C 
BRANCH   3   4
ATOM      4  C   UNL     1      16.212 -10.057  15.626  1.00  0.00    -0.000 C 
BRANCH   4   5
ATOM      5  C   UNL     1      16.574 -10.118  14.134  1.00  0.00    -0.000 C 
BRANCH   5   6
ATOM      6  C   UNL     1      15.758  -9.100  13.329  1.00  0.00    -0.000 C 
BRANCH   6   7
ATOM      7  C   UNL     1      15.674  -7.755  14.065  1.00  0.00    -0.000 C 
BRANCH   7   8
ATOM      8  C   UNL     1      14.237  -7.220  14.157  1.00  0.00    -0.003 C 
ATOM      9  C   UNL     1      13.195  -8.252  13.725  1.00  0.00     0.004 C 
ENDBRANCH   7   8
ENDBRANCH   6   7
ENDBRANCH   5   6
ENDBRANCH   4   5
ENDBRANCH   3   4
ENDBRANCH   2   3
ENDBRANCH   1   2
BRANCH   1  10
ATOM     10  C   UNL     1      19.541  -6.629  16.763  1.00  0.00     0.000 C 
BRANCH  10  11
ATOM     11  C   UNL     1      18.975  -6.046  15.458  1.00  0.00     0.000 C 
BRANCH  11  12
ATOM     12  C   UNL     1      18.565  -4.571  15.600  1.00  0.00     0.000 C 
BRANCH  12  13
ATOM     13  C   UNL     1      19.562  -3.750  16.438  1.00  0.00     0.000 C 
BRANCH  13  14
ATOM     14  C   UNL     1      20.881  -3.390  15.723  1.00  0.00     0.002 C 
BRANCH  14  15
ATOM     15  C   UNL     1      22.137  -4.075  16.290  1.00  0.00     0.028 C 
BRANCH  15  16
ATOM     16  C   UNL     1      22.865  -4.941  15.256  1.00  0.00     0.156 C 
BRANCH  16  17
ATOM     17  O   UNL     1      22.056  -5.130  14.128  1.00  0.00    -0.396 OA
ATOM     18  H   UNL     1      22.536  -5.767  13.537  1.00  0.00     0.210 HD
ENDBRANCH  16  17
ENDBRANCH  15  16
ENDBRANCH  14  15
ENDBRANCH  13  14
ENDBRANCH  12  13
ENDBRANCH  11  12
ENDBRANCH  10  11
ENDBRANCH   1  10
TORSDOF 15
ENDMDL
MODEL 6
REMARK VINA RESULT:    -5.074      1.278      1.703
REMARK INTER + INTRA:         -10.843
REMARK INTER:                  -9.577
REMARK INTRA:                  -1.266
REMARK UNBOUND:                -1.468
REMARK SMILES CCCCCCCCCCCCCCCCO
REMARK SMILES IDX 9 1 8 2 7 3 6 4 5 5 4 6 3 7 2 8 1 9 10 10 11 11 12 12 13 13
REMARK SMILES IDX 14 14 15 15 16 16 17 17
REMARK H PARENT 17 18
REMARK Flexibility Score: inf
ROOT
ATOM      1  C   UNL     1      18.966  -7.389  15.762  1.00  0.00     0.000 C 
ENDROOT
BRANCH   1   2
ATOM      2  C   UNL     1      19.721  -6.671  16.891  1.00  0.00    -0.000 C 
BRANCH   2   3
ATOM      3  C   UNL     1      21.249  -6.745  16.719  1.00  0.00    -0.000 C 
BRANCH   3   4
ATOM      4  C   UNL     1      21.855  -5.413  16.247  1.00  0.00    -0.000 C 
BRANCH   4   5
ATOM      5  C   UNL     1      21.799  -5.242  14.721  1.00  0.00    -0.000 C 
BRANCH   5   6
ATOM      6  C   UNL     1      20.732  -4.214  14.323  1.00  0.00    -0.000 C 
BRANCH   6   7
ATOM      7  C   UNL     1      20.533  -3.170  15.431  1.00  0.00    -0.000 C 
BRANCH   7   8
ATOM      8  C   UNL     1      19.086  -3.118  15.941  1.00  0.00    -0.003 C 
ATOM      9  C   UNL     1      18.115  -3.885  15.043  1.00  0.00     0.004 C 
ENDBRANCH   7   8
ENDBRANCH   6   7
ENDBRANCH   5   6
ENDBRANCH   4   5
ENDBRANCH   3   4
ENDBRANCH   2   3
ENDBRANCH   1   2
BRANCH   1  10
ATOM     10  C   UNL     1      18.384  -8.743  16.205  1.00  0.00     0.000 C 
BRANCH  10  11
ATOM     11  C   UNL     1      17.269  -9.243  15.273  1.00  0.00     0.000 C 
BRANCH  11  12
ATOM     12  C   UNL     1      16.423  -8.095  14.696  1.00  0.00     0.000 C 
BRANCH  12  13
ATOM     13  C   UNL     1      15.313  -8.586  13.749  1.00  0.00     0.000 C 
BRANCH  13  14
ATOM     14  C   UNL     1      14.007  -7.767  13.785  1.00  0.00     0.002 C 
BRANCH  14  15
ATOM     15  C   UNL     1      12.869  -8.391  14.612  1.00  0.00     0.028 C 
BRANCH  15  16
ATOM     16  C   UNL     1      11.479  -7.927  14.164  1.00  0.00     0.156 C 
BRANCH  16  17
ATOM     17  O   UNL     1      11.440  -7.794  12.770  1.00  0.00    -0.396 OA
ATOM     18  H   UNL     1      12.327  -7.444  12.492  1.00  0.00     0.210 HD
ENDBRANCH  16  17
ENDBRANCH  15  16
ENDBRANCH  14  15
ENDBRANCH  13  14
ENDBRANCH  12  13
ENDBRANCH  11  12
ENDBRANCH  10  11
ENDBRANCH   1  10
TORSDOF 15
ENDMDL
MODEL 7
REMARK VINA RESULT:    -5.070      1.485      6.068
REMARK INTER + INTRA:         -10.835
REMARK INTER:                  -9.440
REMARK INTRA:                  -1.395
REMARK UNBOUND:                -1.468
REMARK SMILES CCCCCCCCCCCCCCCCO
REMARK SMILES IDX 9 1 8 2 7 3 6 4 5 5 4 6 3 7 2 8 1 9 10 10 11 11 12 12 13 13
REMARK SMILES IDX 14 14 15 15 16 16 17 17
REMARK H PARENT 17 18
REMARK Flexibility Score: inf
ROOT
ATOM      1  C   UNL     1      18.627  -7.361  15.898  1.00  0.00     0.000 C 
ENDROOT
BRANCH   1   2
ATOM      2  C   UNL     1      18.447  -8.883  15.770  1.00  0.00    -0.000 C 
BRANCH   2   3
ATOM      3  C   UNL     1      16.968  -9.307  15.810  1.00  0.00    -0.000 C 
BRANCH   3   4
ATOM      4  C   UNL     1      16.481  -9.879  14.469  1.00  0.00    -0.000 C 
BRANCH   4   5
ATOM      5  C   UNL     1      15.976  -8.793  13.508  1.00  0.00    -0.000 C 
BRANCH   5   6
ATOM      6  C   UNL     1      15.352  -7.623  14.279  1.00  0.00    -0.000 C 
BRANCH   6   7
ATOM      7  C   UNL     1      13.900  -7.385  13.839  1.00  0.00    -0.000 C 
BRANCH   7   8
ATOM      8  C   UNL     1      13.085  -8.685  13.761  1.00  0.00    -0.003 C 
ATOM      9  C   UNL     1      12.633  -9.182  15.133  1.00  0.00     0.004 C 
ENDBRANCH   7   8
ENDBRANCH   6   7
ENDBRANCH   5   6
ENDBRANCH   4   5
ENDBRANCH   3   4
ENDBRANCH   2   3
ENDBRANCH   1   2
BRANCH   1  10
ATOM     10  C   UNL     1      19.567  -6.970  17.052  1.00  0.00     0.000 C 
BRANCH  10  11
ATOM     11  C   UNL     1      20.946  -6.502  16.561  1.00  0.00     0.000 C 
BRANCH  11  12
ATOM     12  C   UNL     1      20.996  -6.313  15.035  1.00  0.00     0.000 C 
BRANCH  12  13
ATOM     13  C   UNL     1      21.537  -4.933  14.620  1.00  0.00     0.000 C 
BRANCH  13  14
ATOM     14  C   UNL     1      20.462  -3.883  14.270  1.00  0.00     0.002 C 
BRANCH  14  15
ATOM     15  C   UNL     1      19.955  -3.049  15.460  1.00  0.00     0.028 C 
BRANCH  15  16
ATOM     16  C   UNL     1      18.639  -3.576  16.043  1.00  0.00     0.156 C 
BRANCH  16  17
ATOM     17  O   UNL     1      17.777  -3.969  15.011  1.00  0.00    -0.396 OA
ATOM     18  H   UNL     1      17.727  -3.208  14.376  1.00  0.00     0.210 HD
ENDBRANCH  16  17
ENDBRANCH  15  16
ENDBRANCH  14  15
ENDBRANCH  13  14
ENDBRANCH  12  13
ENDBRANCH  11  12
ENDBRANCH  10  11
ENDBRANCH   1  10
TORSDOF 15
ENDMDL
MODEL 8
REMARK VINA RESULT:    -5.055      4.037      7.975
REMARK INTER + INTRA:         -10.808
REMARK INTER:                  -9.673
REMARK INTRA:                  -1.136
REMARK UNBOUND:                -1.468
REMARK SMILES CCCCCCCCCCCCCCCCO
REMARK SMILES IDX 9 1 8 2 7 3 6 4 5 5 4 6 3 7 2 8 1 9 10 10 11 11 12 12 13 13
REMARK SMILES IDX 14 14 15 15 16 16 17 17
REMARK H PARENT 17 18
REMARK Flexibility Score: inf
ROOT
ATOM      1  C   UNL     1      21.138  -4.788  14.328  1.00  0.00     0.000 C 
ENDROOT
BRANCH   1   2
ATOM      2  C   UNL     1      20.790  -3.617  15.261  1.00  0.00    -0.000 C 
BRANCH   2   3
ATOM      3  C   UNL     1      19.276  -3.492  15.511  1.00  0.00    -0.000 C 
BRANCH   3   4
ATOM      4  C   UNL     1      18.797  -4.368  16.680  1.00  0.00    -0.000 C 
BRANCH   4   5
ATOM      5  C   UNL     1      19.942  -5.142  17.352  1.00  0.00    -0.000 C 
BRANCH   5   6
ATOM      6  C   UNL     1      19.704  -6.655  17.270  1.00  0.00    -0.000 C 
BRANCH   6   7
ATOM      7  C   UNL     1      18.809  -7.008  16.073  1.00  0.00    -0.000 C 
BRANCH   7   8
ATOM      8  C   UNL     1      18.676  -8.523  15.862  1.00  0.00    -0.003 C 
ATOM      9  C   UNL     1      18.004  -9.227  17.040  1.00  0.00     0.004 C 
ENDBRANCH   7   8
ENDBRANCH   6   7
ENDBRANCH   5   6
ENDBRANCH   4   5
ENDBRANCH   3   4
ENDBRANCH   2   3
ENDBRANCH   1   2
BRANCH   1  10
ATOM     10  C   UNL     1      22.560  -5.329  14.560  1.00  0.00     0.000 C 
BRANCH  10  11
ATOM     11  C   UNL     1      23.179  -4.825  15.874  1.00  0.00     0.000 C 
BRANCH  11  12
ATOM     12  C   UNL     1      24.687  -5.113  15.964  1.00  0.00     0.000 C 
BRANCH  12  13
ATOM     13  C   UNL     1      25.500  -3.902  16.458  1.00  0.00     0.000 C 
BRANCH  13  14
ATOM     14  C   UNL     1      24.662  -2.695  16.926  1.00  0.00     0.002 C 
BRANCH  14  15
ATOM     15  C   UNL     1      25.269  -1.317  16.605  1.00  0.00     0.028 C 
BRANCH  15  16
ATOM     16  C   UNL     1      25.202  -0.344  17.787  1.00  0.00     0.156 C 
BRANCH  16  17
ATOM     17  O   UNL     1      23.868  -0.098  18.137  1.00  0.00    -0.396 OA
ATOM     18  H   UNL     1      23.412   0.220  17.314  1.00  0.00     0.210 HD
ENDBRANCH  16  17
ENDBRANCH  15  16
ENDBRANCH  14  15
ENDBRANCH  13  14
ENDBRANCH  12  13
ENDBRANCH  11  12
ENDBRANCH  10  11
ENDBRANCH   1  10
TORSDOF 15
ENDMDL
MODEL 9
REMARK VINA RESULT:    -5.051      3.809      6.044
REMARK INTER + INTRA:         -10.801
REMARK INTER:                  -9.272
REMARK INTRA:                  -1.529
REMARK UNBOUND:                -1.468
REMARK SMILES CCCCCCCCCCCCCCCCO
REMARK SMILES IDX 9 1 8 2 7 3 6 4 5 5 4 6 3 7 2 8 1 9 10 10 11 11 12 12 13 13
REMARK SMILES IDX 14 14 15 15 16 16 17 17
REMARK H PARENT 17 18
REMARK Flexibility Score: inf
ROOT
ATOM      1  C   UNL     1      21.822  -4.517  14.805  1.00  0.00     0.000 C 
ENDROOT
BRANCH   1   2
ATOM      2  C   UNL     1      22.352  -3.918  16.118  1.00  0.00    -0.000 C 
BRANCH   2   3
ATOM      3  C   UNL     1      23.591  -4.663  16.648  1.00  0.00    -0.000 C 
BRANCH   3   4
ATOM      4  C   UNL     1      24.579  -5.034  15.530  1.00  0.00    -0.000 C 
BRANCH   4   5
ATOM      5  C   UNL     1      25.989  -4.477  15.774  1.00  0.00    -0.000 C 
BRANCH   5   6
ATOM      6  C   UNL     1      26.011  -3.555  16.999  1.00  0.00    -0.000 C 
BRANCH   6   7
ATOM      7  C   UNL     1      26.020  -2.078  16.577  1.00  0.00    -0.000 C 
BRANCH   7   8
ATOM      8  C   UNL     1      25.634  -1.134  17.725  1.00  0.00    -0.003 C 
ATOM      9  C   UNL     1      26.096  -1.643  19.090  1.00  0.00     0.004 C 
ENDBRANCH   7   8
ENDBRANCH   6   7
ENDBRANCH   5   6
ENDBRANCH   4   5
ENDBRANCH   3   4
ENDBRANCH   2   3
ENDBRANCH   1   2
BRANCH   1  10
ATOM     10  C   UNL     1      20.641  -3.720  14.224  1.00  0.00     0.000 C 
BRANCH  10  11
ATOM     11  C   UNL     1      19.844  -2.970  15.302  1.00  0.00     0.000 C 
BRANCH  11  12
ATOM     12  C   UNL     1      18.628  -3.769  15.800  1.00  0.00     0.000 C 
BRANCH  12  13
ATOM     13  C   UNL     1      18.841  -4.373  17.201  1.00  0.00     0.000 C 
BRANCH  13  14
ATOM     14  C   UNL     1      19.499  -5.767  17.223  1.00  0.00     0.002 C 
BRANCH  14  15
ATOM     15  C   UNL     1      19.057  -6.714  16.092  1.00  0.00     0.028 C 
BRANCH  15  16
ATOM     16  C   UNL     1      20.170  -7.664  15.637  1.00  0.00     0.156 C 
BRANCH  16  17
ATOM     17  O   UNL     1      21.311  -7.486  16.429  1.00  0.00    -0.396 OA
ATOM     18  H   UNL     1      21.948  -8.204  16.177  1.00  0.00     0.210 HD
ENDBRANCH  16  17
ENDBRANCH  15  16
ENDBRANCH  14  15
ENDBRANCH  13  14
ENDBRANCH  12  13
ENDBRANCH  11  12
ENDBRANCH  10  11
ENDBRANCH   1  10
TORSDOF 15
ENDMDL
