MODEL 1
REMARK VINA RESULT:    -4.665      0.000      0.000
REMARK INTER + INTRA:          -4.665
REMARK INTER:                  -4.665
REMARK INTRA:                   0.000
REMARK UNBOUND:                 0.000
REMARK SMILES CC1(C)[C@H]2CC[C@]1(C)C(=O)C2
REMARK SMILES IDX 1 1 2 2 4 3 5 4 6 5 7 6 9 7 10 8 11 9 8 10 3 11
REMARK H PARENT
REMARK Flexibility Score: inf
ROOT
ATOM      1  C   UNL     1      29.684  -7.408  73.434  1.00  0.00     0.012 C 
ATOM      2  C   UNL     1      29.681  -7.604  71.886  1.00  0.00    -0.020 C 
ATOM      3  C   UNL     1      28.378  -8.241  71.345  1.00  0.00     0.003 C 
ATOM      4  C   UNL     1      28.709  -8.473  69.845  1.00  0.00     0.005 C 
ATOM      5  C   UNL     1      30.211  -8.851  69.875  1.00  0.00     0.015 C 
ATOM      6  C   UNL     1      30.550  -8.776  71.382  1.00  0.00     0.032 C 
ATOM      7  C   UNL     1      29.824  -9.946  71.999  1.00  0.00     0.139 C 
ATOM      8  O   UNL     1      30.329 -11.001  72.351  1.00  0.00    -0.299 OA
ATOM      9  C   UNL     1      28.356  -9.645  72.011  1.00  0.00     0.080 C 
ATOM     10  C   UNL     1      32.048  -8.703  71.702  1.00  0.00     0.020 C 
ATOM     11  C   UNL     1      30.008  -6.212  71.264  1.00  0.00     0.012 C 
ENDROOT
TORSDOF 0
ENDMDL
MODEL 2
REMARK VINA RESULT:    -4.470      1.248      2.151
REMARK INTER + INTRA:          -4.470
REMARK INTER:                  -4.470
REMARK INTRA:                   0.000
REMARK UNBOUND:                 0.000
REMARK SMILES CC1(C)[C@H]2CC[C@]1(C)C(=O)C2
REMARK SMILES IDX 1 1 2 2 4 3 5 4 6 5 7 6 9 7 10 8 11 9 8 10 3 11
REMARK H PARENT
REMARK Flexibility Score: inf
ROOT
ATOM      1  C   UNL     1      30.590  -6.841  71.543  1.00  0.00     0.012 C 
ATOM      2  C   UNL     1      29.542  -7.996  71.479  1.00  0.00    -0.020 C 
ATOM      3  C   UNL     1      28.365  -7.820  72.468  1.00  0.00     0.003 C 
ATOM      4  C   UNL     1      27.589  -9.158  72.317  1.00  0.00     0.005 C 
ATOM      5  C   UNL     1      28.722 -10.193  72.097  1.00  0.00     0.015 C 
ATOM      6  C   UNL     1      29.996  -9.316  72.139  1.00  0.00     0.032 C 
ATOM      7  C   UNL     1      30.117  -8.880  73.579  1.00  0.00     0.139 C 
ATOM      8  O   UNL     1      30.893  -9.336  74.404  1.00  0.00    -0.299 OA
ATOM      9  C   UNL     1      29.051  -7.866  73.862  1.00  0.00     0.080 C 
ATOM     10  C   UNL     1      31.250  -9.977  71.555  1.00  0.00     0.020 C 
ATOM     11  C   UNL     1      29.102  -8.109  69.988  1.00  0.00     0.012 C 
ENDROOT
TORSDOF 0
ENDMDL
MODEL 3
REMARK VINA RESULT:    -4.460      1.375      2.427
REMARK INTER + INTRA:          -4.460
REMARK INTER:                  -4.460
REMARK INTRA:                   0.000
REMARK UNBOUND:                 0.000
REMARK SMILES CC1(C)[C@H]2CC[C@]1(C)C(=O)C2
REMARK SMILES IDX 1 1 2 2 4 3 5 4 6 5 7 6 9 7 10 8 11 9 8 10 3 11
REMARK H PARENT
REMARK Flexibility Score: inf
ROOT
ATOM      1  C   UNL     1      29.106 -10.339  72.005  1.00  0.00     0.012 C 
ATOM      2  C   UNL     1      29.545  -8.843  72.084  1.00  0.00    -0.020 C 
ATOM      3  C   UNL     1      28.756  -7.914  71.130  1.00  0.00     0.003 C 
ATOM      4  C   UNL     1      29.496  -6.557  71.286  1.00  0.00     0.005 C 
ATOM      5  C   UNL     1      30.975  -6.986  71.461  1.00  0.00     0.015 C 
ATOM      6  C   UNL     1      30.891  -8.529  71.394  1.00  0.00     0.032 C 
ATOM      7  C   UNL     1      30.545  -8.835  69.958  1.00  0.00     0.139 C 
ATOM      8  O   UNL     1      31.318  -9.245  69.105  1.00  0.00    -0.299 OA
ATOM      9  C   UNL     1      29.117  -8.451  69.717  1.00  0.00     0.080 C 
ATOM     10  C   UNL     1      32.123  -9.264  71.934  1.00  0.00     0.020 C 
ATOM     11  C   UNL     1      29.450  -8.435  73.585  1.00  0.00     0.012 C 
ENDROOT
TORSDOF 0
ENDMDL
MODEL 4
REMARK VINA RESULT:    -4.455      1.761      2.945
REMARK INTER + INTRA:          -4.455
REMARK INTER:                  -4.455
REMARK INTRA:                   0.000
REMARK UNBOUND:                 0.000
REMARK SMILES CC1(C)[C@H]2CC[C@]1(C)C(=O)C2
REMARK SMILES IDX 1 1 2 2 4 3 5 4 6 5 7 6 9 7 10 8 11 9 8 10 3 11
REMARK H PARENT
REMARK Flexibility Score: inf
ROOT
ATOM      1  C   UNL     1      28.604  -8.135  69.657  1.00  0.00     0.012 C 
ATOM      2  C   UNL     1      29.624  -8.641  70.725  1.00  0.00    -0.020 C 
ATOM      3  C   UNL     1      29.092  -9.813  71.584  1.00  0.00     0.003 C 
ATOM      4  C   UNL     1      30.213  -9.994  72.645  1.00  0.00     0.005 C 
ATOM      5  C   UNL     1      30.685  -8.541  72.903  1.00  0.00     0.015 C 
ATOM      6  C   UNL     1      29.785  -7.717  71.951  1.00  0.00     0.032 C 
ATOM      7  C   UNL     1      28.404  -7.809  72.552  1.00  0.00     0.139 C 
ATOM      8  O   UNL     1      27.839  -6.933  73.188  1.00  0.00    -0.299 OA
ATOM      9  C   UNL     1      27.878  -9.194  72.331  1.00  0.00     0.080 C 
ATOM     10  C   UNL     1      30.278  -6.292  71.674  1.00  0.00     0.020 C 
ATOM     11  C   UNL     1      30.940  -8.970  69.955  1.00  0.00     0.012 C 
ENDROOT
TORSDOF 0
ENDMDL
MODEL 5
REMARK VINA RESULT:    -4.438      1.595      3.122
REMARK INTER + INTRA:          -4.438
REMARK INTER:                  -4.438
REMARK INTRA:                   0.000
REMARK UNBOUND:                 0.000
REMARK SMILES CC1(C)[C@H]2CC[C@]1(C)C(=O)C2
REMARK SMILES IDX 1 1 2 2 4 3 5 4 6 5 7 6 9 7 10 8 11 9 8 10 3 11
REMARK H PARENT
REMARK Flexibility Score: inf
ROOT
ATOM      1  C   UNL     1      28.876  -8.413  69.836  1.00  0.00     0.012 C 
ATOM      2  C   UNL     1      28.997  -8.404  71.393  1.00  0.00    -0.020 C 
ATOM      3  C   UNL     1      28.884  -6.992  72.016  1.00  0.00     0.003 C 
ATOM      4  C   UNL     1      29.203  -7.254  73.514  1.00  0.00     0.005 C 
ATOM      5  C   UNL     1      30.280  -8.367  73.450  1.00  0.00     0.015 C 
ATOM      6  C   UNL     1      30.430  -8.607  71.929  1.00  0.00     0.032 C 
ATOM      7  C   UNL     1      31.102  -7.361  71.407  1.00  0.00     0.139 C 
ATOM      8  O   UNL     1      32.278  -7.256  71.097  1.00  0.00    -0.299 OA
ATOM      9  C   UNL     1      30.111  -6.238  71.431  1.00  0.00     0.080 C 
ATOM     10  C   UNL     1      31.122  -9.923  71.552  1.00  0.00     0.020 C 
ATOM     11  C   UNL     1      27.934  -9.414  71.922  1.00  0.00     0.012 C 
ENDROOT
TORSDOF 0
ENDMDL
MODEL 6
REMARK VINA RESULT:    -4.422      1.419      2.800
REMARK INTER + INTRA:          -4.422
REMARK INTER:                  -4.422
REMARK INTRA:                   0.000
REMARK UNBOUND:                 0.000
REMARK SMILES CC1(C)[C@H]2CC[C@]1(C)C(=O)C2
REMARK SMILES IDX 1 1 2 2 4 3 5 4 6 5 7 6 9 7 10 8 11 9 8 10 3 11
REMARK H PARENT
REMARK Flexibility Score: inf
ROOT
ATOM      1  C   UNL     1      30.454  -6.158  71.277  1.00  0.00     0.012 C 
ATOM      2  C   UNL     1      29.809  -7.478  71.806  1.00  0.00    -0.020 C 
ATOM      3  C   UNL     1      30.791  -8.372  72.601  1.00  0.00     0.003 C 
ATOM      4  C   UNL     1      29.956  -9.658  72.850  1.00  0.00     0.005 C 
ATOM      5  C   UNL     1      29.125  -9.790  71.549  1.00  0.00     0.015 C 
ATOM      6  C   UNL     1      29.581  -8.560  70.729  1.00  0.00     0.032 C 
ATOM      7  C   UNL     1      31.005  -8.866  70.335  1.00  0.00     0.139 C 
ATOM      8  O   UNL     1      31.382  -9.234  69.233  1.00  0.00    -0.299 OA
ATOM      9  C   UNL     1      31.873  -8.749  71.551  1.00  0.00     0.080 C 
ATOM     10  C   UNL     1      28.655  -8.184  69.566  1.00  0.00     0.020 C 
ATOM     11  C   UNL     1      28.544  -7.058  72.612  1.00  0.00     0.012 C 
ENDROOT
TORSDOF 0
ENDMDL
MODEL 7
REMARK VINA RESULT:    -4.381      1.441      2.788
REMARK INTER + INTRA:          -4.381
REMARK INTER:                  -4.381
REMARK INTRA:                   0.000
REMARK UNBOUND:                 0.000
REMARK SMILES CC1(C)[C@H]2CC[C@]1(C)C(=O)C2
REMARK SMILES IDX 1 1 2 2 4 3 5 4 6 5 7 6 9 7 10 8 11 9 8 10 3 11
REMARK H PARENT
REMARK Flexibility Score: inf
ROOT
ATOM      1  C   UNL     1      30.970  -9.894  71.808  1.00  0.00     0.012 C 
ATOM      2  C   UNL     1      30.703  -8.365  71.643  1.00  0.00    -0.020 C 
ATOM      3  C   UNL     1      30.404  -7.641  72.977  1.00  0.00     0.003 C 
ATOM      4  C   UNL     1      30.018  -6.210  72.510  1.00  0.00     0.005 C 
ATOM      5  C   UNL     1      29.261  -6.470  71.183  1.00  0.00     0.015 C 
ATOM      6  C   UNL     1      29.320  -8.011  71.055  1.00  0.00     0.032 C 
ATOM      7  C   UNL     1      28.414  -8.523  72.148  1.00  0.00     0.139 C 
ATOM      8  O   UNL     1      27.283  -8.959  71.997  1.00  0.00    -0.299 OA
ATOM      9  C   UNL     1      29.090  -8.311  73.468  1.00  0.00     0.080 C 
ATOM     10  C   UNL     1      29.014  -8.552  69.653  1.00  0.00     0.020 C 
ATOM     11  C   UNL     1      31.928  -7.785  70.872  1.00  0.00     0.012 C 
ENDROOT
TORSDOF 0
ENDMDL
MODEL 8
REMARK VINA RESULT:    -4.360      1.872      3.269
REMARK INTER + INTRA:          -4.360
REMARK INTER:                  -4.360
REMARK INTRA:                   0.000
REMARK UNBOUND:                 0.000
REMARK SMILES CC1(C)[C@H]2CC[C@]1(C)C(=O)C2
REMARK SMILES IDX 1 1 2 2 4 3 5 4 6 5 7 6 9 7 10 8 11 9 8 10 3 11
REMARK H PARENT
REMARK Flexibility Score: inf
ROOT
ATOM      1  C   UNL     1      27.606  -8.718  72.618  1.00  0.00     0.012 C 
ATOM      2  C   UNL     1      29.023  -9.130  72.111  1.00  0.00    -0.020 C 
ATOM      3  C   UNL     1      30.175  -8.618  73.008  1.00  0.00     0.003 C 
ATOM      4  C   UNL     1      31.441  -9.013  72.198  1.00  0.00     0.005 C 
ATOM      5  C   UNL     1      30.990  -8.810  70.729  1.00  0.00     0.015 C 
ATOM      6  C   UNL     1      29.526  -8.337  70.886  1.00  0.00     0.032 C 
ATOM      7  C   UNL     1      29.630  -6.951  71.475  1.00  0.00     0.139 C 
ATOM      8  O   UNL     1      29.479  -5.901  70.870  1.00  0.00    -0.299 OA
ATOM      9  C   UNL     1      30.055  -7.072  72.906  1.00  0.00     0.080 C 
ATOM     10  C   UNL     1      28.678  -8.437  69.612  1.00  0.00     0.020 C 
ATOM     11  C   UNL     1      28.997 -10.680  71.941  1.00  0.00     0.012 C 
ENDROOT
TORSDOF 0
ENDMDL
MODEL 9
REMARK VINA RESULT:    -4.358      1.449      2.889
REMARK INTER + INTRA:          -4.358
REMARK INTER:                  -4.358
REMARK INTRA:                   0.000
REMARK UNBOUND:                 0.000
REMARK SMILES CC1(C)[C@H]2CC[C@]1(C)C(=O)C2
REMARK SMILES IDX 1 1 2 2 4 3 5 4 6 5 7 6 9 7 10 8 11 9 8 10 3 11
REMARK H PARENT
REMARK Flexibility Score: inf
ROOT
ATOM      1  C   UNL     1      28.350 -10.110  71.727  1.00  0.00     0.012 C 
ATOM      2  C   UNL     1      29.329  -8.935  71.418  1.00  0.00    -0.020 C 
ATOM      3  C   UNL     1      30.819  -9.355  71.409  1.00  0.00     0.003 C 
ATOM      4  C   UNL     1      31.556  -7.996  71.253  1.00  0.00     0.005 C 
ATOM      5  C   UNL     1      30.672  -7.024  72.074  1.00  0.00     0.015 C 
ATOM      6  C   UNL     1      29.539  -7.946  72.585  1.00  0.00     0.032 C 
ATOM      7  C   UNL     1      30.202  -8.847  73.597  1.00  0.00     0.139 C 
ATOM      8  O   UNL     1      30.117  -8.747  74.811  1.00  0.00    -0.299 OA
ATOM      9  C   UNL     1      31.072  -9.825  72.869  1.00  0.00     0.080 C 
ATOM     10  C   UNL     1      28.291  -7.211  73.091  1.00  0.00     0.020 C 
ATOM     11  C   UNL     1      28.846  -8.298  70.079  1.00  0.00     0.012 C 
ENDROOT
TORSDOF 0
ENDMDL
