MODEL 1
REMARK VINA RESULT:    -5.267      0.000      0.000
REMARK INTER + INTRA:          -9.596
REMARK INTER:                  -8.038
REMARK INTRA:                  -1.558
REMARK UNBOUND:                -1.558
REMARK SMILES OC[C@@H]1O[C@@H](O[C@]2(CO)O[C@H](CO)[C@H](O)[C@@H]2O)[C@H](O)[C@H](O)[C@H]1O
REMARK SMILES IDX 6 1 5 2 3 3 22 4 4 5 20 6 18 7 2 8 1 9 23 11 21 13 19 15
REMARK SMILES IDX 7 17 16 18 10 19 14 20 11 21 8 22 9 23 17 25 15 27 12 29
REMARK SMILES IDX 13 30
REMARK H PARENT 1 10 23 12 21 14 19 16 9 24 17 26 15 28 13 31
REMARK Flexibility Score: inf
ROOT
ATOM      1  O   UNL     1       7.005  10.285  59.924  1.00  0.00    -0.313 OA
ENDROOT
BRANCH   1   2
ATOM      2  C   UNL     1       5.902  10.234  59.024  1.00  0.00     0.285 C 
ATOM      3  C   UNL     1       5.710  12.583  59.035  1.00  0.00     0.178 C 
ATOM      4  C   UNL     1       4.352  12.568  59.783  1.00  0.00     0.177 C 
ATOM      5  O   UNL     1       5.857  11.416  58.238  1.00  0.00    -0.341 OA
ATOM      6  C   UNL     1       4.241  11.289  60.633  1.00  0.00     0.179 C 
ATOM      7  C   UNL     1       4.581  10.039  59.803  1.00  0.00     0.202 C 
BRANCH   3   8
ATOM      8  C   UNL     1       5.824  13.800  58.106  1.00  0.00     0.191 C 
BRANCH   8   9
ATOM      9  O   UNL     1       6.440  14.870  58.771  1.00  0.00    -0.394 OA
ATOM     10  H   UNL     1       7.394  14.851  58.499  1.00  0.00     0.210 HD
ENDBRANCH   8   9
ENDBRANCH   3   8
BRANCH   4  11
ATOM     11  O   UNL     1       4.255  13.683  60.634  1.00  0.00    -0.387 OA
ATOM     12  H   UNL     1       4.855  13.517  61.408  1.00  0.00     0.211 HD
ENDBRANCH   4  11
BRANCH   6  13
ATOM     13  O   UNL     1       2.944  11.166  61.159  1.00  0.00    -0.387 OA
ATOM     14  H   UNL     1       3.042  10.933  62.118  1.00  0.00     0.211 HD
ENDBRANCH   6  13
BRANCH   7  15
ATOM     15  O   UNL     1       3.526   9.694  58.936  1.00  0.00    -0.385 OA
ATOM     16  H   UNL     1       3.471   8.704  58.891  1.00  0.00     0.211 HD
ENDBRANCH   7  15
ENDBRANCH   1   2
BRANCH   1  17
ATOM     17  C   UNL     1       7.993   9.279  59.705  1.00  0.00     0.224 C 
ATOM     18  C   UNL     1       8.539   8.832  61.077  1.00  0.00     0.208 C 
ATOM     19  O   UNL     1       7.443   8.139  59.062  1.00  0.00    -0.337 OA
ATOM     20  C   UNL     1       8.793   7.353  60.895  1.00  0.00     0.180 C 
ATOM     21  C   UNL     1       7.883   6.968  59.718  1.00  0.00     0.179 C 
BRANCH  17  22
ATOM     22  C   UNL     1       9.125   9.873  58.832  1.00  0.00     0.225 C 
BRANCH  22  23
ATOM     23  O   UNL     1       9.018  11.268  58.755  1.00  0.00    -0.391 OA
ATOM     24  H   UNL     1       8.063  11.464  58.575  1.00  0.00     0.210 HD
ENDBRANCH  22  23
ENDBRANCH  17  22
BRANCH  18  25
ATOM     25  O   UNL     1       7.624   9.082  62.121  1.00  0.00    -0.385 OA
ATOM     26  H   UNL     1       7.628   8.300  62.733  1.00  0.00     0.211 HD
ENDBRANCH  18  25
BRANCH  20  27
ATOM     27  O   UNL     1       8.527   6.634  62.075  1.00  0.00    -0.387 OA
ATOM     28  H   UNL     1       7.543   6.498  62.109  1.00  0.00     0.211 HD
ENDBRANCH  20  27
BRANCH  21  29
ATOM     29  C   UNL     1       6.650   6.128  60.103  1.00  0.00     0.191 C 
BRANCH  29  30
ATOM     30  O   UNL     1       5.783   6.857  60.931  1.00  0.00    -0.394 OA
ATOM     31  H   UNL     1       5.789   7.793  60.598  1.00  0.00     0.210 HD
ENDBRANCH  29  30
ENDBRANCH  21  29
ENDBRANCH   1  17
TORSDOF 13
ENDMDL
MODEL 2
REMARK VINA RESULT:    -5.205      3.315      5.656
REMARK INTER + INTRA:          -9.501
REMARK INTER:                  -7.766
REMARK INTRA:                  -1.735
REMARK UNBOUND:                -1.558
REMARK SMILES OC[C@@H]1O[C@@H](O[C@]2(CO)O[C@H](CO)[C@H](O)[C@@H]2O)[C@H](O)[C@H](O)[C@H]1O
REMARK SMILES IDX 6 1 5 2 3 3 22 4 4 5 20 6 18 7 2 8 1 9 23 11 21 13 19 15
REMARK SMILES IDX 7 17 16 18 10 19 14 20 11 21 8 22 9 23 17 25 15 27 12 29
REMARK SMILES IDX 13 30
REMARK H PARENT 1 10 23 12 21 14 19 16 9 24 17 26 15 28 13 31
REMARK Flexibility Score: inf
ROOT
ATOM      1  O   UNL     1       4.970  12.316  57.118  1.00  0.00    -0.313 OA
ENDROOT
BRANCH   1   2
ATOM      2  C   UNL     1       4.421  11.205  56.417  1.00  0.00     0.285 C 
ATOM      3  C   UNL     1       6.206  11.217  54.879  1.00  0.00     0.178 C 
ATOM      4  C   UNL     1       5.313  11.663  53.695  1.00  0.00     0.177 C 
ATOM      5  O   UNL     1       5.458  10.448  55.810  1.00  0.00    -0.341 OA
ATOM      6  C   UNL     1       4.099  12.448  54.225  1.00  0.00     0.179 C 
ATOM      7  C   UNL     1       3.398  11.686  55.362  1.00  0.00     0.202 C 
BRANCH   3   8
ATOM      8  C   UNL     1       7.382  10.355  54.401  1.00  0.00     0.191 C 
BRANCH   8   9
ATOM      9  O   UNL     1       8.421  11.164  53.919  1.00  0.00    -0.394 OA
ATOM     10  H   UNL     1       8.431  11.971  54.496  1.00  0.00     0.210 HD
ENDBRANCH   8   9
ENDBRANCH   3   8
BRANCH   4  11
ATOM     11  O   UNL     1       6.041  12.495  52.825  1.00  0.00    -0.387 OA
ATOM     12  H   UNL     1       5.704  12.328  51.906  1.00  0.00     0.211 HD
ENDBRANCH   4  11
BRANCH   6  13
ATOM     13  O   UNL     1       3.184  12.688  53.186  1.00  0.00    -0.387 OA
ATOM     14  H   UNL     1       3.400  12.052  52.457  1.00  0.00     0.211 HD
ENDBRANCH   6  13
BRANCH   7  15
ATOM     15  O   UNL     1       2.634  10.611  54.867  1.00  0.00    -0.385 OA
ATOM     16  H   UNL     1       2.006  10.965  54.186  1.00  0.00     0.211 HD
ENDBRANCH   7  15
ENDBRANCH   1   2
BRANCH   1  17
ATOM     17  C   UNL     1       5.264  12.063  58.491  1.00  0.00     0.224 C 
ATOM     18  C   UNL     1       4.659  13.204  59.334  1.00  0.00     0.208 C 
ATOM     19  O   UNL     1       4.688  10.843  58.931  1.00  0.00    -0.337 OA
ATOM     20  C   UNL     1       4.205  12.512  60.599  1.00  0.00     0.180 C 
ATOM     21  C   UNL     1       4.049  11.043  60.175  1.00  0.00     0.179 C 
BRANCH  17  22
ATOM     22  C   UNL     1       6.801  12.006  58.670  1.00  0.00     0.225 C 
BRANCH  22  23
ATOM     23  O   UNL     1       7.309  10.771  58.242  1.00  0.00    -0.391 OA
ATOM     24  H   UNL     1       6.603  10.362  57.678  1.00  0.00     0.210 HD
ENDBRANCH  22  23
ENDBRANCH  17  22
BRANCH  18  25
ATOM     25  O   UNL     1       3.588  13.843  58.674  1.00  0.00    -0.385 OA
ATOM     26  H   UNL     1       3.658  13.648  57.703  1.00  0.00     0.211 HD
ENDBRANCH  18  25
BRANCH  20  27
ATOM     27  O   UNL     1       3.022  13.083  61.105  1.00  0.00    -0.387 OA
ATOM     28  H   UNL     1       2.967  12.821  62.061  1.00  0.00     0.211 HD
ENDBRANCH  20  27
BRANCH  21  29
ATOM     29  C   UNL     1       2.593  10.553  60.064  1.00  0.00     0.191 C 
BRANCH  29  30
ATOM     30  O   UNL     1       1.891  11.279  59.090  1.00  0.00    -0.394 OA
ATOM     31  H   UNL     1       1.351  11.957  59.574  1.00  0.00     0.210 HD
ENDBRANCH  29  30
ENDBRANCH  21  29
ENDBRANCH   1  17
TORSDOF 13
ENDMDL
MODEL 3
REMARK VINA RESULT:    -5.003      2.785      5.932
REMARK INTER + INTRA:          -9.193
REMARK INTER:                  -7.511
REMARK INTRA:                  -1.681
REMARK UNBOUND:                -1.558
REMARK SMILES OC[C@@H]1O[C@@H](O[C@]2(CO)O[C@H](CO)[C@H](O)[C@@H]2O)[C@H](O)[C@H](O)[C@H]1O
REMARK SMILES IDX 6 1 5 2 3 3 22 4 4 5 20 6 18 7 2 8 1 9 23 11 21 13 19 15
REMARK SMILES IDX 7 17 16 18 10 19 14 20 11 21 8 22 9 23 17 25 15 27 12 29
REMARK SMILES IDX 13 30
REMARK H PARENT 1 10 23 12 21 14 19 16 9 24 17 26 15 28 13 31
REMARK Flexibility Score: inf
ROOT
ATOM      1  O   UNL     1       4.452  10.404  57.328  1.00  0.00    -0.313 OA
ENDROOT
BRANCH   1   2
ATOM      2  C   UNL     1       5.620  11.193  57.535  1.00  0.00     0.285 C 
ATOM      3  C   UNL     1       6.538  10.478  55.486  1.00  0.00     0.178 C 
ATOM      4  C   UNL     1       7.672   9.668  56.164  1.00  0.00     0.177 C 
ATOM      5  O   UNL     1       6.169  11.591  56.287  1.00  0.00    -0.341 OA
ATOM      6  C   UNL     1       7.228   9.226  57.570  1.00  0.00     0.179 C 
ATOM      7  C   UNL     1       6.658  10.410  58.370  1.00  0.00     0.202 C 
BRANCH   3   8
ATOM      8  C   UNL     1       6.974  11.014  54.115  1.00  0.00     0.191 C 
BRANCH   8   9
ATOM      9  O   UNL     1       8.372  11.073  54.033  1.00  0.00    -0.394 OA
ATOM     10  H   UNL     1       8.616  10.638  53.175  1.00  0.00     0.210 HD
ENDBRANCH   8   9
ENDBRANCH   3   8
BRANCH   4  11
ATOM     11  O   UNL     1       7.970   8.523  55.405  1.00  0.00    -0.387 OA
ATOM     12  H   UNL     1       7.862   8.766  54.448  1.00  0.00     0.211 HD
ENDBRANCH   4  11
BRANCH   6  13
ATOM     13  O   UNL     1       8.309   8.664  58.268  1.00  0.00    -0.387 OA
ATOM     14  H   UNL     1       9.137   8.965  57.810  1.00  0.00     0.211 HD
ENDBRANCH   6  13
BRANCH   7  15
ATOM     15  O   UNL     1       7.682  11.257  58.834  1.00  0.00    -0.385 OA
ATOM     16  H   UNL     1       8.477  11.130  58.255  1.00  0.00     0.211 HD
ENDBRANCH   7  15
ENDBRANCH   1   2
BRANCH   1  17
ATOM     17  C   UNL     1       3.225  11.090  57.566  1.00  0.00     0.224 C 
ATOM     18  C   UNL     1       2.298  10.157  58.372  1.00  0.00     0.208 C 
ATOM     19  O   UNL     1       3.426  12.270  58.330  1.00  0.00    -0.337 OA
ATOM     20  C   UNL     1       1.554  11.098  59.292  1.00  0.00     0.180 C 
ATOM     21  C   UNL     1       2.466  12.334  59.364  1.00  0.00     0.179 C 
BRANCH  17  22
ATOM     22  C   UNL     1       2.584  11.456  56.205  1.00  0.00     0.225 C 
BRANCH  22  23
ATOM     23  O   UNL     1       3.296  12.490  55.580  1.00  0.00    -0.391 OA
ATOM     24  H   UNL     1       3.684  12.099  54.755  1.00  0.00     0.210 HD
ENDBRANCH  22  23
ENDBRANCH  17  22
BRANCH  18  25
ATOM     25  O   UNL     1       3.019   9.183  59.093  1.00  0.00    -0.385 OA
ATOM     26  H   UNL     1       3.286   9.573  59.965  1.00  0.00     0.211 HD
ENDBRANCH  18  25
BRANCH  20  27
ATOM     27  O   UNL     1       1.302  10.507  60.543  1.00  0.00    -0.387 OA
ATOM     28  H   UNL     1       0.321  10.564  60.692  1.00  0.00     0.211 HD
ENDBRANCH  20  27
BRANCH  21  29
ATOM     29  C   UNL     1       3.201  12.516  60.706  1.00  0.00     0.191 C 
BRANCH  29  30
ATOM     30  O   UNL     1       4.062  11.437  60.959  1.00  0.00    -0.394 OA
ATOM     31  H   UNL     1       4.957  11.824  61.145  1.00  0.00     0.210 HD
ENDBRANCH  29  30
ENDBRANCH  21  29
ENDBRANCH   1  17
TORSDOF 13
ENDMDL
MODEL 4
REMARK VINA RESULT:    -4.921      2.863      5.898
REMARK INTER + INTRA:          -9.068
REMARK INTER:                  -7.625
REMARK INTRA:                  -1.442
REMARK UNBOUND:                -1.558
REMARK SMILES OC[C@@H]1O[C@@H](O[C@]2(CO)O[C@H](CO)[C@H](O)[C@@H]2O)[C@H](O)[C@H](O)[C@H]1O
REMARK SMILES IDX 6 1 5 2 3 3 22 4 4 5 20 6 18 7 2 8 1 9 23 11 21 13 19 15
REMARK SMILES IDX 7 17 16 18 10 19 14 20 11 21 8 22 9 23 17 25 15 27 12 29
REMARK SMILES IDX 13 30
REMARK H PARENT 1 10 23 12 21 14 19 16 9 24 17 26 15 28 13 31
REMARK Flexibility Score: inf
ROOT
ATOM      1  O   UNL     1       5.276  10.610  58.025  1.00  0.00    -0.313 OA
ENDROOT
BRANCH   1   2
ATOM      2  C   UNL     1       4.581  10.240  56.838  1.00  0.00     0.285 C 
ATOM      3  C   UNL     1       6.513   9.215  55.958  1.00  0.00     0.178 C 
ATOM      4  C   UNL     1       6.682  10.270  54.836  1.00  0.00     0.177 C 
ATOM      5  O   UNL     1       5.141   9.054  56.293  1.00  0.00    -0.341 OA
ATOM      6  C   UNL     1       6.051  11.604  55.276  1.00  0.00     0.179 C 
ATOM      7  C   UNL     1       4.624  11.393  55.810  1.00  0.00     0.202 C 
BRANCH   3   8
ATOM      8  C   UNL     1       7.050   7.844  55.524  1.00  0.00     0.191 C 
BRANCH   8   9
ATOM      9  O   UNL     1       8.445   7.798  55.658  1.00  0.00    -0.394 OA
ATOM     10  H   UNL     1       8.667   6.866  55.913  1.00  0.00     0.210 HD
ENDBRANCH   8   9
ENDBRANCH   3   8
BRANCH   4  11
ATOM     11  O   UNL     1       8.047  10.483  54.574  1.00  0.00    -0.387 OA
ATOM     12  H   UNL     1       8.478   9.591  54.510  1.00  0.00     0.211 HD
ENDBRANCH   4  11
BRANCH   6  13
ATOM     13  O   UNL     1       6.023  12.507  54.201  1.00  0.00    -0.387 OA
ATOM     14  H   UNL     1       6.169  13.413  54.579  1.00  0.00     0.211 HD
ENDBRANCH   6  13
BRANCH   7  15
ATOM     15  O   UNL     1       3.710  11.174  54.761  1.00  0.00    -0.385 OA
ATOM     16  H   UNL     1       2.966  10.616  55.108  1.00  0.00     0.211 HD
ENDBRANCH   7  15
ENDBRANCH   1   2
BRANCH   1  17
ATOM     17  C   UNL     1       4.508  10.489  59.221  1.00  0.00     0.224 C 
ATOM     18  C   UNL     1       4.879  11.659  60.155  1.00  0.00     0.208 C 
ATOM     19  O   UNL     1       3.115  10.567  58.957  1.00  0.00    -0.337 OA
ATOM     20  C   UNL     1       3.574  12.000  60.838  1.00  0.00     0.180 C 
ATOM     21  C   UNL     1       2.506  11.443  59.882  1.00  0.00     0.179 C 
BRANCH  17  22
ATOM     22  C   UNL     1       4.833   9.130  59.889  1.00  0.00     0.225 C 
BRANCH  22  23
ATOM     23  O   UNL     1       5.591   9.315  61.054  1.00  0.00    -0.391 OA
ATOM     24  H   UNL     1       4.950   9.584  61.761  1.00  0.00     0.210 HD
ENDBRANCH  22  23
ENDBRANCH  17  22
BRANCH  18  25
ATOM     25  O   UNL     1       5.401  12.761  59.445  1.00  0.00    -0.385 OA
ATOM     26  H   UNL     1       5.797  13.394  60.099  1.00  0.00     0.211 HD
ENDBRANCH  18  25
BRANCH  20  27
ATOM     27  O   UNL     1       3.458  13.382  61.072  1.00  0.00    -0.387 OA
ATOM     28  H   UNL     1       3.037  13.773  60.262  1.00  0.00     0.211 HD
ENDBRANCH  20  27
BRANCH  21  29
ATOM     29  C   UNL     1       1.718  12.512  59.101  1.00  0.00     0.191 C 
BRANCH  29  30
ATOM     30  O   UNL     1       2.584  13.361  58.396  1.00  0.00    -0.394 OA
ATOM     31  H   UNL     1       2.753  12.931  57.517  1.00  0.00     0.210 HD
ENDBRANCH  29  30
ENDBRANCH  21  29
ENDBRANCH   1  17
TORSDOF 13
ENDMDL
MODEL 5
REMARK VINA RESULT:    -4.917      1.317      1.572
REMARK INTER + INTRA:          -9.062
REMARK INTER:                  -7.381
REMARK INTRA:                  -1.680
REMARK UNBOUND:                -1.558
REMARK SMILES OC[C@@H]1O[C@@H](O[C@]2(CO)O[C@H](CO)[C@H](O)[C@@H]2O)[C@H](O)[C@H](O)[C@H]1O
REMARK SMILES IDX 6 1 5 2 3 3 22 4 4 5 20 6 18 7 2 8 1 9 23 11 21 13 19 15
REMARK SMILES IDX 7 17 16 18 10 19 14 20 11 21 8 22 9 23 17 25 15 27 12 29
REMARK SMILES IDX 13 30
REMARK H PARENT 1 10 23 12 21 14 19 16 9 24 17 26 15 28 13 31
REMARK Flexibility Score: inf
ROOT
ATOM      1  O   UNL     1       6.832  10.673  59.727  1.00  0.00    -0.313 OA
ENDROOT
BRANCH   1   2
ATOM      2  C   UNL     1       5.473  10.301  59.516  1.00  0.00     0.285 C 
ATOM      3  C   UNL     1       5.185  12.030  57.941  1.00  0.00     0.178 C 
ATOM      4  C   UNL     1       4.217  12.830  58.849  1.00  0.00     0.177 C 
ATOM      5  O   UNL     1       5.074  10.637  58.195  1.00  0.00    -0.341 OA
ATOM      6  C   UNL     1       4.501  12.505  60.326  1.00  0.00     0.179 C 
ATOM      7  C   UNL     1       4.560  10.985  60.559  1.00  0.00     0.202 C 
BRANCH   3   8
ATOM      8  C   UNL     1       4.877  12.259  56.455  1.00  0.00     0.191 C 
BRANCH   8   9
ATOM      9  O   UNL     1       3.520  12.565  56.275  1.00  0.00    -0.394 OA
ATOM     10  H   UNL     1       3.210  12.006  55.517  1.00  0.00     0.210 HD
ENDBRANCH   8   9
ENDBRANCH   3   8
BRANCH   4  11
ATOM     11  O   UNL     1       4.397  14.211  58.650  1.00  0.00    -0.387 OA
ATOM     12  H   UNL     1       3.503  14.638  58.717  1.00  0.00     0.211 HD
ENDBRANCH   4  11
BRANCH   6  13
ATOM     13  O   UNL     1       3.511  13.068  61.148  1.00  0.00    -0.387 OA
ATOM     14  H   UNL     1       2.645  12.956  60.676  1.00  0.00     0.211 HD
ENDBRANCH   6  13
BRANCH   7  15
ATOM     15  O   UNL     1       3.273  10.414  60.560  1.00  0.00    -0.385 OA
ATOM     16  H   UNL     1       2.872  10.554  61.457  1.00  0.00     0.211 HD
ENDBRANCH   7  15
ENDBRANCH   1   2
BRANCH   1  17
ATOM     17  C   UNL     1       7.783   9.688  59.327  1.00  0.00     0.224 C 
ATOM     18  C   UNL     1       8.717   9.404  60.521  1.00  0.00     0.208 C 
ATOM     19  O   UNL     1       7.152   8.468  58.967  1.00  0.00    -0.337 OA
ATOM     20  C   UNL     1       9.006   7.924  60.405  1.00  0.00     0.180 C 
ATOM     21  C   UNL     1       7.831   7.387  59.571  1.00  0.00     0.179 C 
BRANCH  17  22
ATOM     22  C   UNL     1       8.587  10.232  58.120  1.00  0.00     0.225 C 
BRANCH  22  23
ATOM     23  O   UNL     1       7.877  10.053  56.925  1.00  0.00    -0.391 OA
ATOM     24  H   UNL     1       7.912  10.922  56.450  1.00  0.00     0.210 HD
ENDBRANCH  22  23
ENDBRANCH  17  22
BRANCH  18  25
ATOM     25  O   UNL     1       8.114   9.723  61.756  1.00  0.00    -0.385 OA
ATOM     26  H   UNL     1       8.415  10.629  62.025  1.00  0.00     0.211 HD
ENDBRANCH  18  25
BRANCH  20  27
ATOM     27  O   UNL     1       9.125   7.319  61.669  1.00  0.00    -0.387 OA
ATOM     28  H   UNL     1       9.577   6.447  61.525  1.00  0.00     0.211 HD
ENDBRANCH  20  27
BRANCH  21  29
ATOM     29  C   UNL     1       6.811   6.545  60.360  1.00  0.00     0.191 C 
BRANCH  29  30
ATOM     30  O   UNL     1       6.199   7.308  61.366  1.00  0.00    -0.394 OA
ATOM     31  H   UNL     1       5.260   7.457  61.080  1.00  0.00     0.210 HD
ENDBRANCH  29  30
ENDBRANCH  21  29
ENDBRANCH   1  17
TORSDOF 13
ENDMDL
MODEL 6
REMARK VINA RESULT:    -4.628      2.397      6.111
REMARK INTER + INTRA:          -8.621
REMARK INTER:                  -7.074
REMARK INTRA:                  -1.547
REMARK UNBOUND:                -1.558
REMARK SMILES OC[C@@H]1O[C@@H](O[C@]2(CO)O[C@H](CO)[C@H](O)[C@@H]2O)[C@H](O)[C@H](O)[C@H]1O
REMARK SMILES IDX 6 1 5 2 3 3 22 4 4 5 20 6 18 7 2 8 1 9 23 11 21 13 19 15
REMARK SMILES IDX 7 17 16 18 10 19 14 20 11 21 8 22 9 23 17 25 15 27 12 29
REMARK SMILES IDX 13 30
REMARK H PARENT 1 10 23 12 21 14 19 16 9 24 17 26 15 28 13 31
REMARK Flexibility Score: inf
ROOT
ATOM      1  O   UNL     1       4.725  11.329  58.878  1.00  0.00    -0.313 OA
ENDROOT
BRANCH   1   2
ATOM      2  C   UNL     1       5.075   9.973  58.615  1.00  0.00     0.285 C 
ATOM      3  C   UNL     1       7.130  10.224  59.741  1.00  0.00     0.178 C 
ATOM      4  C   UNL     1       7.970  10.083  58.446  1.00  0.00     0.177 C 
ATOM      5  O   UNL     1       5.925   9.480  59.641  1.00  0.00    -0.341 OA
ATOM      6  C   UNL     1       7.134  10.528  57.233  1.00  0.00     0.179 C 
ATOM      7  C   UNL     1       5.753   9.851  57.231  1.00  0.00     0.202 C 
BRANCH   3   8
ATOM      8  C   UNL     1       7.897   9.707  60.966  1.00  0.00     0.191 C 
BRANCH   8   9
ATOM      9  O   UNL     1       9.042   9.004  60.568  1.00  0.00    -0.394 OA
ATOM     10  H   UNL     1       9.153   9.184  59.598  1.00  0.00     0.210 HD
ENDBRANCH   8   9
ENDBRANCH   3   8
BRANCH   4  11
ATOM     11  O   UNL     1       9.118  10.892  58.523  1.00  0.00    -0.387 OA
ATOM     12  H   UNL     1       8.831  11.781  58.860  1.00  0.00     0.211 HD
ENDBRANCH   4  11
BRANCH   6  13
ATOM     13  O   UNL     1       7.809  10.223  56.039  1.00  0.00    -0.387 OA
ATOM     14  H   UNL     1       8.713   9.901  56.292  1.00  0.00     0.211 HD
ENDBRANCH   6  13
BRANCH   7  15
ATOM     15  O   UNL     1       5.840   8.506  56.824  1.00  0.00    -0.385 OA
ATOM     16  H   UNL     1       5.164   7.984  57.330  1.00  0.00     0.211 HD
ENDBRANCH   7  15
ENDBRANCH   1   2
BRANCH   1  17
ATOM     17  C   UNL     1       3.331  11.550  59.084  1.00  0.00     0.224 C 
ATOM     18  C   UNL     1       2.853  12.603  58.063  1.00  0.00     0.208 C 
ATOM     19  O   UNL     1       2.578  10.365  58.874  1.00  0.00    -0.337 OA
ATOM     20  C   UNL     1       1.453  12.150  57.712  1.00  0.00     0.180 C 
ATOM     21  C   UNL     1       1.452  10.655  58.072  1.00  0.00     0.179 C 
BRANCH  17  22
ATOM     22  C   UNL     1       3.114  12.052  60.532  1.00  0.00     0.225 C 
BRANCH  22  23
ATOM     23  O   UNL     1       2.788  10.990  61.386  1.00  0.00    -0.391 OA
ATOM     24  H   UNL     1       3.534  10.917  62.034  1.00  0.00     0.210 HD
ENDBRANCH  22  23
ENDBRANCH  17  22
BRANCH  18  25
ATOM     25  O   UNL     1       3.685  12.658  56.926  1.00  0.00    -0.385 OA
ATOM     26  H   UNL     1       3.984  11.736  56.712  1.00  0.00     0.211 HD
ENDBRANCH  18  25
BRANCH  20  27
ATOM     27  O   UNL     1       1.150  12.408  56.363  1.00  0.00    -0.387 OA
ATOM     28  H   UNL     1       1.918  12.073  55.830  1.00  0.00     0.211 HD
ENDBRANCH  20  27
BRANCH  21  29
ATOM     29  C   UNL     1       1.450   9.700  56.863  1.00  0.00     0.191 C 
BRANCH  29  30
ATOM     30  O   UNL     1       2.551   9.944  56.027  1.00  0.00    -0.394 OA
ATOM     31  H   UNL     1       2.251   9.755  55.100  1.00  0.00     0.210 HD
ENDBRANCH  29  30
ENDBRANCH  21  29
ENDBRANCH   1  17
TORSDOF 13
ENDMDL
MODEL 7
REMARK VINA RESULT:    -4.623      3.535      5.883
REMARK INTER + INTRA:          -8.613
REMARK INTER:                  -7.538
REMARK INTRA:                  -1.075
REMARK UNBOUND:                -1.558
REMARK SMILES OC[C@@H]1O[C@@H](O[C@]2(CO)O[C@H](CO)[C@H](O)[C@@H]2O)[C@H](O)[C@H](O)[C@H]1O
REMARK SMILES IDX 6 1 5 2 3 3 22 4 4 5 20 6 18 7 2 8 1 9 23 11 21 13 19 15
REMARK SMILES IDX 7 17 16 18 10 19 14 20 11 21 8 22 9 23 17 25 15 27 12 29
REMARK SMILES IDX 13 30
REMARK H PARENT 1 10 23 12 21 14 19 16 9 24 17 26 15 28 13 31
REMARK Flexibility Score: inf
ROOT
ATOM      1  O   UNL     1       5.455  10.600  56.602  1.00  0.00    -0.313 OA
ENDROOT
BRANCH   1   2
ATOM      2  C   UNL     1       6.107  11.700  57.229  1.00  0.00     0.285 C 
ATOM      3  C   UNL     1       5.946  10.669  59.341  1.00  0.00     0.178 C 
ATOM      4  C   UNL     1       4.933  11.710  59.882  1.00  0.00     0.177 C 
ATOM      5  O   UNL     1       6.810  11.261  58.382  1.00  0.00    -0.341 OA
ATOM      6  C   UNL     1       4.140  12.321  58.713  1.00  0.00     0.179 C 
ATOM      7  C   UNL     1       5.080  12.797  57.593  1.00  0.00     0.202 C 
BRANCH   3   8
ATOM      8  C   UNL     1       6.820  10.099  60.467  1.00  0.00     0.191 C 
BRANCH   8   9
ATOM      9  O   UNL     1       6.059   9.281  61.314  1.00  0.00    -0.394 OA
ATOM     10  H   UNL     1       6.622   9.113  62.113  1.00  0.00     0.210 HD
ENDBRANCH   8   9
ENDBRANCH   3   8
BRANCH   4  11
ATOM     11  O   UNL     1       4.030  11.093  60.766  1.00  0.00    -0.387 OA
ATOM     12  H   UNL     1       4.549  10.453  61.320  1.00  0.00     0.211 HD
ENDBRANCH   4  11
BRANCH   6  13
ATOM     13  O   UNL     1       3.362  13.400  59.165  1.00  0.00    -0.387 OA
ATOM     14  H   UNL     1       2.476  13.322  58.724  1.00  0.00     0.211 HD
ENDBRANCH   6  13
BRANCH   7  15
ATOM     15  O   UNL     1       5.723  14.001  57.938  1.00  0.00    -0.385 OA
ATOM     16  H   UNL     1       5.093  14.547  58.477  1.00  0.00     0.211 HD
ENDBRANCH   7  15
ENDBRANCH   1   2
BRANCH   1  17
ATOM     17  C   UNL     1       6.173  10.031  55.509  1.00  0.00     0.224 C 
ATOM     18  C   UNL     1       5.152   9.508  54.479  1.00  0.00     0.208 C 
ATOM     19  O   UNL     1       6.989  10.997  54.862  1.00  0.00    -0.337 OA
ATOM     20  C   UNL     1       5.815   9.779  53.147  1.00  0.00     0.180 C 
ATOM     21  C   UNL     1       6.824  10.895  53.463  1.00  0.00     0.179 C 
BRANCH  17  22
ATOM     22  C   UNL     1       7.058   8.876  56.039  1.00  0.00     0.225 C 
BRANCH  22  23
ATOM     23  O   UNL     1       8.327   9.345  56.403  1.00  0.00    -0.391 OA
ATOM     24  H   UNL     1       8.595   8.826  57.204  1.00  0.00     0.210 HD
ENDBRANCH  22  23
ENDBRANCH  17  22
BRANCH  18  25
ATOM     25  O   UNL     1       3.906  10.162  54.585  1.00  0.00    -0.385 OA
ATOM     26  H   UNL     1       3.210   9.574  54.193  1.00  0.00     0.211 HD
ENDBRANCH  18  25
BRANCH  20  27
ATOM     27  O   UNL     1       4.874  10.129  52.162  1.00  0.00    -0.387 OA
ATOM     28  H   UNL     1       4.172   9.427  52.178  1.00  0.00     0.211 HD
ENDBRANCH  20  27
BRANCH  21  29
ATOM     29  C   UNL     1       6.445  12.283  52.911  1.00  0.00     0.191 C 
BRANCH  29  30
ATOM     30  O   UNL     1       7.554  12.912  52.325  1.00  0.00    -0.394 OA
ATOM     31  H   UNL     1       7.374  12.956  51.349  1.00  0.00     0.210 HD
ENDBRANCH  29  30
ENDBRANCH  21  29
ENDBRANCH   1  17
TORSDOF 13
ENDMDL
MODEL 8
REMARK VINA RESULT:    -4.556      1.669      2.575
REMARK INTER + INTRA:          -8.510
REMARK INTER:                  -7.192
REMARK INTRA:                  -1.318
REMARK UNBOUND:                -1.558
REMARK SMILES OC[C@@H]1O[C@@H](O[C@]2(CO)O[C@H](CO)[C@H](O)[C@@H]2O)[C@H](O)[C@H](O)[C@H]1O
REMARK SMILES IDX 6 1 5 2 3 3 22 4 4 5 20 6 18 7 2 8 1 9 23 11 21 13 19 15
REMARK SMILES IDX 7 17 16 18 10 19 14 20 11 21 8 22 9 23 17 25 15 27 12 29
REMARK SMILES IDX 13 30
REMARK H PARENT 1 10 23 12 21 14 19 16 9 24 17 26 15 28 13 31
REMARK Flexibility Score: inf
ROOT
ATOM      1  O   UNL     1       6.018  10.149  58.415  1.00  0.00    -0.313 OA
ENDROOT
BRANCH   1   2
ATOM      2  C   UNL     1       6.167  11.516  58.043  1.00  0.00     0.285 C 
ATOM      3  C   UNL     1       4.391  12.155  59.454  1.00  0.00     0.178 C 
ATOM      4  C   UNL     1       3.462  12.539  58.275  1.00  0.00     0.177 C 
ATOM      5  O   UNL     1       5.753  12.361  59.107  1.00  0.00    -0.341 OA
ATOM      6  C   UNL     1       3.850  11.733  57.022  1.00  0.00     0.179 C 
ATOM      7  C   UNL     1       5.364  11.814  56.757  1.00  0.00     0.202 C 
BRANCH   3   8
ATOM      8  C   UNL     1       4.095  13.000  60.700  1.00  0.00     0.191 C 
BRANCH   8   9
ATOM      9  O   UNL     1       3.183  12.341  61.536  1.00  0.00    -0.394 OA
ATOM     10  H   UNL     1       3.315  12.721  62.442  1.00  0.00     0.210 HD
ENDBRANCH   8   9
ENDBRANCH   3   8
BRANCH   4  11
ATOM     11  O   UNL     1       2.124  12.251  58.598  1.00  0.00    -0.387 OA
ATOM     12  H   UNL     1       2.057  11.268  58.729  1.00  0.00     0.211 HD
ENDBRANCH   4  11
BRANCH   6  13
ATOM     13  O   UNL     1       3.150  12.209  55.901  1.00  0.00    -0.387 OA
ATOM     14  H   UNL     1       2.292  11.713  55.863  1.00  0.00     0.211 HD
ENDBRANCH   6  13
BRANCH   7  15
ATOM     15  O   UNL     1       5.724  13.060  56.209  1.00  0.00    -0.385 OA
ATOM     16  H   UNL     1       6.656  13.262  56.482  1.00  0.00     0.211 HD
ENDBRANCH   7  15
ENDBRANCH   1   2
BRANCH   1  17
ATOM     17  C   UNL     1       7.224   9.516  58.837  1.00  0.00     0.224 C 
ATOM     18  C   UNL     1       7.310   9.612  60.374  1.00  0.00     0.208 C 
ATOM     19  O   UNL     1       7.243   8.140  58.484  1.00  0.00    -0.337 OA
ATOM     20  C   UNL     1       7.957   8.307  60.779  1.00  0.00     0.180 C 
ATOM     21  C   UNL     1       7.671   7.374  59.591  1.00  0.00     0.179 C 
BRANCH  17  22
ATOM     22  C   UNL     1       8.424  10.237  58.175  1.00  0.00     0.225 C 
BRANCH  22  23
ATOM     23  O   UNL     1       9.125  11.006  59.114  1.00  0.00    -0.391 OA
ATOM     24  H   UNL     1       9.199  11.916  58.726  1.00  0.00     0.210 HD
ENDBRANCH  22  23
ENDBRANCH  17  22
BRANCH  18  25
ATOM     25  O   UNL     1       6.040   9.773  60.968  1.00  0.00    -0.385 OA
ATOM     26  H   UNL     1       6.151   9.749  61.954  1.00  0.00     0.211 HD
ENDBRANCH  18  25
BRANCH  20  27
ATOM     27  O   UNL     1       7.449   7.836  62.003  1.00  0.00    -0.387 OA
ATOM     28  H   UNL     1       6.461   7.798  61.905  1.00  0.00     0.211 HD
ENDBRANCH  20  27
BRANCH  21  29
ATOM     29  C   UNL     1       6.621   6.281  59.867  1.00  0.00     0.191 C 
BRANCH  29  30
ATOM     30  O   UNL     1       5.383   6.846  60.207  1.00  0.00    -0.394 OA
ATOM     31  H   UNL     1       4.909   6.177  60.768  1.00  0.00     0.210 HD
ENDBRANCH  29  30
ENDBRANCH  21  29
ENDBRANCH   1  17
TORSDOF 13
ENDMDL
MODEL 9
REMARK VINA RESULT:    -4.552      2.657      5.830
REMARK INTER + INTRA:          -8.506
REMARK INTER:                  -7.129
REMARK INTRA:                  -1.376
REMARK UNBOUND:                -1.558
REMARK SMILES OC[C@@H]1O[C@@H](O[C@]2(CO)O[C@H](CO)[C@H](O)[C@@H]2O)[C@H](O)[C@H](O)[C@H]1O
REMARK SMILES IDX 6 1 5 2 3 3 22 4 4 5 20 6 18 7 2 8 1 9 23 11 21 13 19 15
REMARK SMILES IDX 7 17 16 18 10 19 14 20 11 21 8 22 9 23 17 25 15 27 12 29
REMARK SMILES IDX 13 30
REMARK H PARENT 1 10 23 12 21 14 19 16 9 24 17 26 15 28 13 31
REMARK Flexibility Score: inf
ROOT
ATOM      1  O   UNL     1       5.030  10.519  58.418  1.00  0.00    -0.313 OA
ENDROOT
BRANCH   1   2
ATOM      2  C   UNL     1       6.177  11.347  58.245  1.00  0.00     0.285 C 
ATOM      3  C   UNL     1       6.301  10.796  55.957  1.00  0.00     0.178 C 
ATOM      4  C   UNL     1       7.620  10.000  56.119  1.00  0.00     0.177 C 
ATOM      5  O   UNL     1       6.226  11.843  56.915  1.00  0.00    -0.341 OA
ATOM      6  C   UNL     1       7.727   9.455  57.555  1.00  0.00     0.179 C 
ATOM      7  C   UNL     1       7.463  10.563  58.590  1.00  0.00     0.202 C 
BRANCH   3   8
ATOM      8  C   UNL     1       6.197  11.432  54.564  1.00  0.00     0.191 C 
BRANCH   8   9
ATOM      9  O   UNL     1       7.447  11.431  53.929  1.00  0.00    -0.394 OA
ATOM     10  H   UNL     1       7.658  12.380  53.735  1.00  0.00     0.210 HD
ENDBRANCH   8   9
ENDBRANCH   3   8
BRANCH   4  11
ATOM     11  O   UNL     1       7.644   8.916  55.224  1.00  0.00    -0.387 OA
ATOM     12  H   UNL     1       6.742   8.849  54.816  1.00  0.00     0.211 HD
ENDBRANCH   4  11
BRANCH   6  13
ATOM     13  O   UNL     1       8.999   8.902  57.772  1.00  0.00    -0.387 OA
ATOM     14  H   UNL     1       9.638   9.418  57.216  1.00  0.00     0.211 HD
ENDBRANCH   6  13
BRANCH   7  15
ATOM     15  O   UNL     1       8.568  11.427  58.712  1.00  0.00    -0.385 OA
ATOM     16  H   UNL     1       9.152  11.298  57.920  1.00  0.00     0.211 HD
ENDBRANCH   7  15
ENDBRANCH   1   2
BRANCH   1  17
ATOM     17  C   UNL     1       3.999  11.097  59.216  1.00  0.00     0.224 C 
ATOM     18  C   UNL     1       3.051  11.883  58.287  1.00  0.00     0.208 C 
ATOM     19  O   UNL     1       3.233  10.103  59.880  1.00  0.00    -0.337 OA
ATOM     20  C   UNL     1       1.688  11.672  58.906  1.00  0.00     0.180 C 
ATOM     21  C   UNL     1       1.858  10.389  59.735  1.00  0.00     0.179 C 
BRANCH  17  22
ATOM     22  C   UNL     1       4.645  12.039  60.262  1.00  0.00     0.225 C 
BRANCH  22  23
ATOM     23  O   UNL     1       4.147  13.343  60.135  1.00  0.00    -0.391 OA
ATOM     24  H   UNL     1       4.508  13.695  59.282  1.00  0.00     0.210 HD
ENDBRANCH  22  23
ENDBRANCH  17  22
BRANCH  18  25
ATOM     25  O   UNL     1       3.100  11.413  56.957  1.00  0.00    -0.385 OA
ATOM     26  H   UNL     1       3.499  12.123  56.390  1.00  0.00     0.211 HD
ENDBRANCH  18  25
BRANCH  20  27
ATOM     27  O   UNL     1       0.683  11.582  57.925  1.00  0.00    -0.387 OA
ATOM     28  H   UNL     1       0.107  12.384  58.034  1.00  0.00     0.211 HD
ENDBRANCH  20  27
BRANCH  21  29
ATOM     29  C   UNL     1       1.156   9.147  59.155  1.00  0.00     0.191 C 
BRANCH  29  30
ATOM     30  O   UNL     1       1.657   8.834  57.882  1.00  0.00    -0.394 OA
ATOM     31  H   UNL     1       1.362   7.908  57.679  1.00  0.00     0.210 HD
ENDBRANCH  29  30
ENDBRANCH  21  29
ENDBRANCH   1  17
TORSDOF 13
ENDMDL
