MODEL 1
REMARK VINA RESULT:    -3.765      0.000      0.000
REMARK INTER + INTRA:          -4.442
REMARK INTER:                  -4.425
REMARK INTRA:                  -0.017
REMARK UNBOUND:                -0.017
REMARK SMILES CCCCC(=O)[O-]
REMARK SMILES IDX 4 1 5 2 6 3 7 4 3 5 2 6 1 7
REMARK H PARENT
REMARK Flexibility Score: inf
ROOT
ATOM      1  C   UNL     1      19.462 -21.622  14.306  1.00  0.00     0.053 C 
ENDROOT
BRANCH   1   2
ATOM      2  C   UNL     1      20.018 -23.012  14.370  1.00  0.00     0.041 C 
ATOM      3  O   UNL     1      20.352 -23.511  15.476  1.00  0.00    -0.550 OA
ATOM      4  O   UNL     1      20.195 -23.742  13.202  1.00  0.00    -0.550 OA
ENDBRANCH   1   2
BRANCH   1   5
ATOM      5  C   UNL     1      20.314 -20.632  15.110  1.00  0.00     0.006 C 
BRANCH   5   6
ATOM      6  C   UNL     1      20.046 -19.175  14.706  1.00  0.00    -0.003 C 
ATOM      7  C   UNL     1      20.000 -18.263  15.931  1.00  0.00     0.004 C 
ENDBRANCH   5   6
ENDBRANCH   1   5
TORSDOF 3
ENDMDL
MODEL 2
REMARK VINA RESULT:    -3.747      2.813      4.086
REMARK INTER + INTRA:          -4.421
REMARK INTER:                  -4.403
REMARK INTRA:                  -0.018
REMARK UNBOUND:                -0.017
REMARK SMILES CCCCC(=O)[O-]
REMARK SMILES IDX 4 1 5 2 6 3 7 4 3 5 2 6 1 7
REMARK H PARENT
REMARK Flexibility Score: inf
ROOT
ATOM      1  C   UNL     1      19.620 -20.708  14.763  1.00  0.00     0.053 C 
ENDROOT
BRANCH   1   2
ATOM      2  C   UNL     1      20.005 -19.261  14.822  1.00  0.00     0.041 C 
ATOM      3  O   UNL     1      20.064 -18.665  15.930  1.00  0.00    -0.550 OA
ATOM      4  O   UNL     1      20.267 -18.564  13.650  1.00  0.00    -0.550 OA
ENDBRANCH   1   2
BRANCH   1   5
ATOM      5  C   UNL     1      20.814 -21.627  15.048  1.00  0.00     0.006 C 
BRANCH   5   6
ATOM      6  C   UNL     1      20.413 -23.109  15.074  1.00  0.00    -0.003 C 
ATOM      7  C   UNL     1      20.077 -23.613  13.672  1.00  0.00     0.004 C 
ENDBRANCH   5   6
ENDBRANCH   1   5
TORSDOF 3
ENDMDL
MODEL 3
REMARK VINA RESULT:    -3.220      3.086      5.431
REMARK INTER + INTRA:          -3.802
REMARK INTER:                  -3.769
REMARK INTRA:                  -0.032
REMARK UNBOUND:                -0.017
REMARK SMILES CCCCC(=O)[O-]
REMARK SMILES IDX 4 1 5 2 6 3 7 4 3 5 2 6 1 7
REMARK H PARENT
REMARK Flexibility Score: inf
ROOT
ATOM      1  C   UNL     1      20.931 -24.926  14.208  1.00  0.00     0.053 C 
ENDROOT
BRANCH   1   2
ATOM      2  C   UNL     1      20.269 -23.596  14.399  1.00  0.00     0.041 C 
ATOM      3  O   UNL     1      20.630 -22.837  15.337  1.00  0.00    -0.550 OA
ATOM      4  O   UNL     1      19.233 -23.209  13.560  1.00  0.00    -0.550 OA
ENDBRANCH   1   2
BRANCH   1   5
ATOM      5  C   UNL     1      20.532 -25.573  12.876  1.00  0.00     0.006 C 
BRANCH   5   6
ATOM      6  C   UNL     1      20.542 -27.107  12.950  1.00  0.00    -0.003 C 
ATOM      7  C   UNL     1      21.756 -27.613  13.726  1.00  0.00     0.004 C 
ENDBRANCH   5   6
ENDBRANCH   1   5
TORSDOF 3
ENDMDL
MODEL 4
REMARK VINA RESULT:    -2.890      2.257      4.404
REMARK INTER + INTRA:          -3.413
REMARK INTER:                  -3.462
REMARK INTRA:                   0.049
REMARK UNBOUND:                -0.017
REMARK SMILES CCCCC(=O)[O-]
REMARK SMILES IDX 4 1 5 2 6 3 7 4 3 5 2 6 1 7
REMARK H PARENT
REMARK Flexibility Score: inf
ROOT
ATOM      1  C   UNL     1      20.410 -22.759  15.242  1.00  0.00     0.053 C 
ENDROOT
BRANCH   1   2
ATOM      2  C   UNL     1      19.901 -21.439  14.749  1.00  0.00     0.041 C 
ATOM      3  O   UNL     1      18.895 -21.389  13.993  1.00  0.00    -0.550 OA
ATOM      4  O   UNL     1      20.558 -20.266  15.099  1.00  0.00    -0.550 OA
ENDBRANCH   1   2
BRANCH   1   5
ATOM      5  C   UNL     1      21.008 -23.598  14.105  1.00  0.00     0.006 C 
BRANCH   5   6
ATOM      6  C   UNL     1      19.945 -24.436  13.381  1.00  0.00    -0.003 C 
ATOM      7  C   UNL     1      20.530 -25.752  12.876  1.00  0.00     0.004 C 
ENDBRANCH   5   6
ENDBRANCH   1   5
TORSDOF 3
ENDMDL
MODEL 5
REMARK VINA RESULT:    -2.676     21.599     22.772
REMARK INTER + INTRA:          -3.162
REMARK INTER:                  -3.057
REMARK INTRA:                  -0.105
REMARK UNBOUND:                -0.017
REMARK SMILES CCCCC(=O)[O-]
REMARK SMILES IDX 4 1 5 2 6 3 7 4 3 5 2 6 1 7
REMARK H PARENT
REMARK Flexibility Score: inf
ROOT
ATOM      1  C   UNL     1      15.989 -35.408  31.260  1.00  0.00     0.053 C 
ENDROOT
BRANCH   1   2
ATOM      2  C   UNL     1      16.755 -36.033  30.133  1.00  0.00     0.041 C 
ATOM      3  O   UNL     1      17.393 -35.310  29.323  1.00  0.00    -0.550 OA
ATOM      4  O   UNL     1      16.737 -37.411  29.961  1.00  0.00    -0.550 OA
ENDBRANCH   1   2
BRANCH   1   5
ATOM      5  C   UNL     1      15.493 -36.459  32.261  1.00  0.00     0.006 C 
BRANCH   5   6
ATOM      6  C   UNL     1      13.963 -36.595  32.248  1.00  0.00    -0.003 C 
ATOM      7  C   UNL     1      13.534 -37.938  31.662  1.00  0.00     0.004 C 
ENDBRANCH   5   6
ENDBRANCH   1   5
TORSDOF 3
ENDMDL
MODEL 6
REMARK VINA RESULT:    -2.650     16.090     17.464
REMARK INTER + INTRA:          -3.132
REMARK INTER:                  -3.051
REMARK INTRA:                  -0.082
REMARK UNBOUND:                -0.017
REMARK SMILES CCCCC(=O)[O-]
REMARK SMILES IDX 4 1 5 2 6 3 7 4 3 5 2 6 1 7
REMARK H PARENT
REMARK Flexibility Score: inf
ROOT
ATOM      1  C   UNL     1       7.514 -32.892  17.850  1.00  0.00     0.053 C 
ENDROOT
BRANCH   1   2
ATOM      2  C   UNL     1       8.815 -32.200  17.582  1.00  0.00     0.041 C 
ATOM      3  O   UNL     1       9.257 -32.115  16.406  1.00  0.00    -0.550 OA
ATOM      4  O   UNL     1       9.553 -31.677  18.636  1.00  0.00    -0.550 OA
ENDBRANCH   1   2
BRANCH   1   5
ATOM      5  C   UNL     1       6.637 -32.961  16.594  1.00  0.00     0.006 C 
BRANCH   5   6
ATOM      6  C   UNL     1       6.246 -34.403  16.237  1.00  0.00    -0.003 C 
ATOM      7  C   UNL     1       7.063 -35.410  17.043  1.00  0.00     0.004 C 
ENDBRANCH   5   6
ENDBRANCH   1   5
TORSDOF 3
ENDMDL
MODEL 7
REMARK VINA RESULT:    -2.630     15.928     16.705
REMARK INTER + INTRA:          -3.109
REMARK INTER:                  -3.071
REMARK INTRA:                  -0.037
REMARK UNBOUND:                -0.017
REMARK SMILES CCCCC(=O)[O-]
REMARK SMILES IDX 4 1 5 2 6 3 7 4 3 5 2 6 1 7
REMARK H PARENT
REMARK Flexibility Score: inf
ROOT
ATOM      1  C   UNL     1       8.671 -32.551  16.271  1.00  0.00     0.053 C 
ENDROOT
BRANCH   1   2
ATOM      2  C   UNL     1       8.497 -32.461  17.756  1.00  0.00     0.041 C 
ATOM      3  O   UNL     1       7.522 -33.028  18.316  1.00  0.00    -0.550 OA
ATOM      4  O   UNL     1       9.395 -31.724  18.517  1.00  0.00    -0.550 OA
ENDBRANCH   1   2
BRANCH   1   5
ATOM      5  C   UNL     1       7.370 -32.964  15.570  1.00  0.00     0.006 C 
BRANCH   5   6
ATOM      6  C   UNL     1       7.558 -33.143  14.057  1.00  0.00    -0.003 C 
ATOM      7  C   UNL     1       8.970 -32.754  13.627  1.00  0.00     0.004 C 
ENDBRANCH   5   6
ENDBRANCH   1   5
TORSDOF 3
ENDMDL
MODEL 8
REMARK VINA RESULT:    -2.601     15.569     16.837
REMARK INTER + INTRA:          -3.074
REMARK INTER:                  -3.058
REMARK INTRA:                  -0.016
REMARK UNBOUND:                -0.017
REMARK SMILES CCCCC(=O)[O-]
REMARK SMILES IDX 4 1 5 2 6 3 7 4 3 5 2 6 1 7
REMARK H PARENT
REMARK Flexibility Score: inf
ROOT
ATOM      1  C   UNL     1       7.469 -32.859  15.994  1.00  0.00     0.053 C 
ENDROOT
BRANCH   1   2
ATOM      2  C   UNL     1       7.423 -33.305  17.424  1.00  0.00     0.041 C 
ATOM      3  O   UNL     1       7.725 -32.504  18.348  1.00  0.00    -0.550 OA
ATOM      4  O   UNL     1       7.078 -34.614  17.731  1.00  0.00    -0.550 OA
ENDBRANCH   1   2
BRANCH   1   5
ATOM      5  C   UNL     1       8.900 -32.530  15.547  1.00  0.00     0.006 C 
BRANCH   5   6
ATOM      6  C   UNL     1       9.151 -32.912  14.081  1.00  0.00    -0.003 C 
ATOM      7  C   UNL     1      10.576 -32.562  13.658  1.00  0.00     0.004 C 
ENDBRANCH   5   6
ENDBRANCH   1   5
TORSDOF 3
ENDMDL
MODEL 9
REMARK VINA RESULT:    -2.559     16.541     17.925
REMARK INTER + INTRA:          -3.025
REMARK INTER:                  -2.899
REMARK INTRA:                  -0.126
REMARK UNBOUND:                -0.017
REMARK SMILES CCCCC(=O)[O-]
REMARK SMILES IDX 4 1 5 2 6 3 7 4 3 5 2 6 1 7
REMARK H PARENT
REMARK Flexibility Score: inf
ROOT
ATOM      1  C   UNL     1       6.897 -32.958  16.680  1.00  0.00     0.053 C 
ENDROOT
BRANCH   1   2
ATOM      2  C   UNL     1       7.940 -32.709  15.635  1.00  0.00     0.041 C 
ATOM      3  O   UNL     1       7.710 -32.990  14.429  1.00  0.00    -0.550 OA
ATOM      4  O   UNL     1       9.178 -32.195  15.998  1.00  0.00    -0.550 OA
ENDBRANCH   1   2
BRANCH   1   5
ATOM      5  C   UNL     1       7.381 -33.954  17.741  1.00  0.00     0.006 C 
BRANCH   5   6
ATOM      6  C   UNL     1       7.783 -35.304  17.130  1.00  0.00    -0.003 C 
ATOM      7  C   UNL     1       6.573 -36.023  16.540  1.00  0.00     0.004 C 
ENDBRANCH   5   6
ENDBRANCH   1   5
TORSDOF 3
ENDMDL
