MODEL 1
REMARK VINA RESULT:    -8.685      0.000      0.000
REMARK INTER + INTRA:         -10.773
REMARK INTER:                 -10.462
REMARK INTRA:                  -0.311
REMARK UNBOUND:                -0.311
REMARK SMILES Oc1cc(O)c2c(c1)O[C@H](c1ccc(O)c(O)c1)[C@@H](O)C2
REMARK SMILES IDX 21 1 19 2 10 3 9 4 7 5 8 6 2 7 3 8 4 9 6 10 20 11 11 13
REMARK SMILES IDX 18 14 12 15 16 16 13 17 14 18 17 19 15 21 5 23 1 25
REMARK H PARENT 20 12 17 20 15 22 5 24 1 26
REMARK Flexibility Score: inf
ROOT
ATOM      1  C   UNL     1      47.059  14.006  10.043  1.00  0.00     0.079 C 
ATOM      2  C   UNL     1      48.102  13.447   9.059  1.00  0.00     0.164 C 
ATOM      3  C   UNL     1      47.805  11.963   8.775  1.00  0.00     0.232 C 
ATOM      4  O   UNL     1      47.769  11.226  10.000  1.00  0.00    -0.482 OA
ATOM      5  C   UNL     1      47.245  11.759  11.183  1.00  0.00     0.131 A 
ATOM      6  C   UNL     1      47.086  10.932  12.296  1.00  0.00     0.093 A 
ATOM      7  C   UNL     1      46.562  11.446  13.489  1.00  0.00     0.122 A 
ATOM      8  C   UNL     1      46.197  12.794  13.564  1.00  0.00     0.092 A 
ATOM      9  C   UNL     1      46.359  13.636  12.454  1.00  0.00     0.126 A 
ATOM     10  C   UNL     1      46.904  13.125  11.260  1.00  0.00     0.039 A 
ENDROOT
BRANCH   2  11
ATOM     11  O   UNL     1      48.061  14.176   7.859  1.00  0.00    -0.389 OA
ATOM     12  H   UNL     1      48.780  13.812   7.279  1.00  0.00     0.211 HD
ENDBRANCH   2  11
BRANCH   3  13
ATOM     13  C   UNL     1      48.843  11.365   7.855  1.00  0.00    -0.001 A 
ATOM     14  C   UNL     1      48.459  10.533   6.790  1.00  0.00     0.057 A 
ATOM     15  C   UNL     1      50.207  11.596   8.083  1.00  0.00     0.012 A 
ATOM     16  C   UNL     1      49.416   9.953   5.948  1.00  0.00     0.157 A 
ATOM     17  C   UNL     1      51.169  11.023   7.249  1.00  0.00     0.050 A 
ATOM     18  C   UNL     1      50.790  10.203   6.180  1.00  0.00     0.157 A 
BRANCH  16  19
ATOM     19  O   UNL     1      48.963   9.141   4.907  1.00  0.00    -0.504 OA
ATOM     20  H   UNL     1      47.988   8.996   4.687  1.00  0.00     0.293 HD
ENDBRANCH  16  19
BRANCH  18  21
ATOM     21  O   UNL     1      51.800   9.663   5.382  1.00  0.00    -0.504 OA
ATOM     22  H   UNL     1      52.491  10.215   4.894  1.00  0.00     0.293 HD
ENDBRANCH  18  21
ENDBRANCH   3  13
BRANCH   9  23
ATOM     23  O   UNL     1      45.978  14.975  12.534  1.00  0.00    -0.507 OA
ATOM     24  H   UNL     1      45.584  15.366  13.382  1.00  0.00     0.293 HD
ENDBRANCH   9  23
BRANCH   7  25
ATOM     25  O   UNL     1      46.397  10.627  14.603  1.00  0.00    -0.508 OA
ATOM     26  H   UNL     1      45.548  10.649  15.156  1.00  0.00     0.293 HD
ENDBRANCH   7  25
TORSDOF 6
ENDMDL
MODEL 2
REMARK VINA RESULT:    -7.823      1.736      6.845
REMARK INTER + INTRA:          -9.734
REMARK INTER:                  -9.368
REMARK INTRA:                  -0.367
REMARK UNBOUND:                -0.311
REMARK SMILES Oc1cc(O)c2c(c1)O[C@H](c1ccc(O)c(O)c1)[C@@H](O)C2
REMARK SMILES IDX 21 1 19 2 10 3 9 4 7 5 8 6 2 7 3 8 4 9 6 10 20 11 11 13
REMARK SMILES IDX 18 14 12 15 16 16 13 17 14 18 17 19 15 21 5 23 1 25
REMARK H PARENT 20 12 17 20 15 22 5 24 1 26
REMARK Flexibility Score: inf
ROOT
ATOM      1  C   UNL     1      48.424  13.737   8.828  1.00  0.00     0.079 C 
ATOM      2  C   UNL     1      47.223  13.384   9.723  1.00  0.00     0.164 C 
ATOM      3  C   UNL     1      47.472  12.032  10.417  1.00  0.00     0.232 C 
ATOM      4  O   UNL     1      47.734  11.020   9.443  1.00  0.00    -0.482 OA
ATOM      5  C   UNL     1      48.462  11.272   8.274  1.00  0.00     0.131 A 
ATOM      6  C   UNL     1      48.825  10.205   7.449  1.00  0.00     0.093 A 
ATOM      7  C   UNL     1      49.555  10.437   6.276  1.00  0.00     0.122 A 
ATOM      8  C   UNL     1      49.919  11.741   5.931  1.00  0.00     0.092 A 
ATOM      9  C   UNL     1      49.554  12.821   6.747  1.00  0.00     0.126 A 
ATOM     10  C   UNL     1      48.803  12.592   7.917  1.00  0.00     0.039 A 
ENDROOT
BRANCH   2  11
ATOM     11  O   UNL     1      47.041  14.386  10.690  1.00  0.00    -0.389 OA
ATOM     12  H   UNL     1      46.716  15.192  10.209  1.00  0.00     0.211 HD
ENDBRANCH   2  11
BRANCH   3  13
ATOM     13  C   UNL     1      46.288  11.627  11.262  1.00  0.00    -0.001 A 
ATOM     14  C   UNL     1      46.395  11.572  12.662  1.00  0.00     0.057 A 
ATOM     15  C   UNL     1      45.081  11.254  10.655  1.00  0.00     0.012 A 
ATOM     16  C   UNL     1      45.310  11.172  13.452  1.00  0.00     0.157 A 
ATOM     17  C   UNL     1      43.993  10.854  11.434  1.00  0.00     0.050 A 
ATOM     18  C   UNL     1      44.091  10.809  12.829  1.00  0.00     0.157 A 
BRANCH  16  19
ATOM     19  O   UNL     1      45.485  11.145  14.836  1.00  0.00    -0.504 OA
ATOM     20  H   UNL     1      44.727  11.176  15.503  1.00  0.00     0.293 HD
ENDBRANCH  16  19
BRANCH  18  21
ATOM     21  O   UNL     1      42.967  10.403  13.549  1.00  0.00    -0.504 OA
ATOM     22  H   UNL     1      42.998   9.772  14.337  1.00  0.00     0.293 HD
ENDBRANCH  18  21
ENDBRANCH   3  13
BRANCH   9  23
ATOM     23  O   UNL     1      49.935  14.117   6.401  1.00  0.00    -0.507 OA
ATOM     24  H   UNL     1      50.807  14.519   6.725  1.00  0.00     0.293 HD
ENDBRANCH   9  23
BRANCH   7  25
ATOM     25  O   UNL     1      49.924   9.378   5.450  1.00  0.00    -0.508 OA
ATOM     26  H   UNL     1      49.931   9.471   4.441  1.00  0.00     0.293 HD
ENDBRANCH   7  25
TORSDOF 6
ENDMDL
MODEL 3
REMARK VINA RESULT:    -7.438      1.599      2.500
REMARK INTER + INTRA:          -9.271
REMARK INTER:                  -8.987
REMARK INTRA:                  -0.284
REMARK UNBOUND:                -0.311
REMARK SMILES Oc1cc(O)c2c(c1)O[C@H](c1ccc(O)c(O)c1)[C@@H](O)C2
REMARK SMILES IDX 21 1 19 2 10 3 9 4 7 5 8 6 2 7 3 8 4 9 6 10 20 11 11 13
REMARK SMILES IDX 18 14 12 15 16 16 13 17 14 18 17 19 15 21 5 23 1 25
REMARK H PARENT 20 12 17 20 15 22 5 24 1 26
REMARK Flexibility Score: inf
ROOT
ATOM      1  C   UNL     1      48.150  15.510   8.510  1.00  0.00     0.079 C 
ATOM      2  C   UNL     1      48.954  14.411   7.792  1.00  0.00     0.164 C 
ATOM      3  C   UNL     1      48.136  13.106   7.760  1.00  0.00     0.232 C 
ATOM      4  O   UNL     1      47.767  12.724   9.087  1.00  0.00    -0.482 OA
ATOM      5  C   UNL     1      47.425  13.659  10.070  1.00  0.00     0.131 A 
ATOM      6  C   UNL     1      46.913  13.214  11.291  1.00  0.00     0.093 A 
ATOM      7  C   UNL     1      46.562  14.134  12.288  1.00  0.00     0.122 A 
ATOM      8  C   UNL     1      46.726  15.503  12.057  1.00  0.00     0.092 A 
ATOM      9  C   UNL     1      47.245  15.962  10.838  1.00  0.00     0.126 A 
ATOM     10  C   UNL     1      47.617  15.037   9.843  1.00  0.00     0.039 A 
ENDROOT
BRANCH   2  11
ATOM     11  O   UNL     1      49.247  14.818   6.480  1.00  0.00    -0.389 OA
ATOM     12  H   UNL     1      48.720  15.642   6.312  1.00  0.00     0.211 HD
ENDBRANCH   2  11
BRANCH   3  13
ATOM     13  C   UNL     1      48.918  11.989   7.110  1.00  0.00    -0.001 A 
ATOM     14  C   UNL     1      50.281  11.810   7.398  1.00  0.00     0.057 A 
ATOM     15  C   UNL     1      48.302  11.147   6.173  1.00  0.00     0.012 A 
ATOM     16  C   UNL     1      51.020  10.794   6.780  1.00  0.00     0.157 A 
ATOM     17  C   UNL     1      49.030  10.130   5.552  1.00  0.00     0.050 A 
ATOM     18  C   UNL     1      50.385   9.941   5.845  1.00  0.00     0.157 A 
BRANCH  16  19
ATOM     19  O   UNL     1      52.369  10.671   7.116  1.00  0.00    -0.504 OA
ATOM     20  H   UNL     1      52.993   9.989   6.709  1.00  0.00     0.293 HD
ENDBRANCH  16  19
BRANCH  18  21
ATOM     21  O   UNL     1      51.055   8.906   5.192  1.00  0.00    -0.504 OA
ATOM     22  H   UNL     1      50.607   8.065   4.856  1.00  0.00     0.293 HD
ENDBRANCH  18  21
ENDBRANCH   3  13
BRANCH   9  23
ATOM     23  O   UNL     1      47.391  17.330  10.613  1.00  0.00    -0.507 OA
ATOM     24  H   UNL     1      48.015  17.688   9.899  1.00  0.00     0.293 HD
ENDBRANCH   9  23
BRANCH   7  25
ATOM     25  O   UNL     1      46.048  13.698  13.506  1.00  0.00    -0.508 OA
ATOM     26  H   UNL     1      46.069  14.287  14.331  1.00  0.00     0.293 HD
ENDBRANCH   7  25
TORSDOF 6
ENDMDL
MODEL 4
REMARK VINA RESULT:    -7.256      3.615      6.748
REMARK INTER + INTRA:          -9.052
REMARK INTER:                  -8.683
REMARK INTRA:                  -0.368
REMARK UNBOUND:                -0.311
REMARK SMILES Oc1cc(O)c2c(c1)O[C@H](c1ccc(O)c(O)c1)[C@@H](O)C2
REMARK SMILES IDX 21 1 19 2 10 3 9 4 7 5 8 6 2 7 3 8 4 9 6 10 20 11 11 13
REMARK SMILES IDX 18 14 12 15 16 16 13 17 14 18 17 19 15 21 5 23 1 25
REMARK H PARENT 20 12 17 20 15 22 5 24 1 26
REMARK Flexibility Score: inf
ROOT
ATOM      1  C   UNL     1      47.753  16.458  10.984  1.00  0.00     0.079 C 
ATOM      2  C   UNL     1      46.931  15.356  11.675  1.00  0.00     0.164 C 
ATOM      3  C   UNL     1      47.401  13.974  11.186  1.00  0.00     0.232 C 
ATOM      4  O   UNL     1      47.311  13.899   9.761  1.00  0.00    -0.482 OA
ATOM      5  C   UNL     1      47.594  14.992   8.933  1.00  0.00     0.131 A 
ATOM      6  C   UNL     1      47.651  14.806   7.550  1.00  0.00     0.093 A 
ATOM      7  C   UNL     1      47.934  15.886   6.704  1.00  0.00     0.122 A 
ATOM      8  C   UNL     1      48.161  17.154   7.247  1.00  0.00     0.092 A 
ATOM      9  C   UNL     1      48.099  17.354   8.634  1.00  0.00     0.126 A 
ATOM     10  C   UNL     1      47.795  16.273   9.485  1.00  0.00     0.039 A 
ENDROOT
BRANCH   2  11
ATOM     11  O   UNL     1      47.093  15.446  13.068  1.00  0.00    -0.389 OA
ATOM     12  H   UNL     1      47.262  14.525  13.396  1.00  0.00     0.211 HD
ENDBRANCH   2  11
BRANCH   3  13
ATOM     13  C   UNL     1      46.577  12.868  11.803  1.00  0.00    -0.001 A 
ATOM     14  C   UNL     1      45.179  12.855  11.662  1.00  0.00     0.057 A 
ATOM     15  C   UNL     1      47.194  11.868  12.567  1.00  0.00     0.012 A 
ATOM     16  C   UNL     1      44.405  11.849  12.253  1.00  0.00     0.157 A 
ATOM     17  C   UNL     1      46.432  10.860  13.161  1.00  0.00     0.050 A 
ATOM     18  C   UNL     1      45.041  10.836  13.012  1.00  0.00     0.157 A 
BRANCH  16  19
ATOM     19  O   UNL     1      43.022  11.896  12.068  1.00  0.00    -0.504 OA
ATOM     20  H   UNL     1      42.514  11.280  11.449  1.00  0.00     0.293 HD
ENDBRANCH  16  19
BRANCH  18  21
ATOM     21  O   UNL     1      44.336   9.801  13.628  1.00  0.00    -0.504 OA
ATOM     22  H   UNL     1      43.340   9.664  13.539  1.00  0.00     0.293 HD
ENDBRANCH  18  21
ENDBRANCH   3  13
BRANCH   9  23
ATOM     23  O   UNL     1      48.341  18.619   9.168  1.00  0.00    -0.507 OA
ATOM     24  H   UNL     1      47.682  19.066   9.795  1.00  0.00     0.293 HD
ENDBRANCH   9  23
BRANCH   7  25
ATOM     25  O   UNL     1      47.996  15.708   5.324  1.00  0.00    -0.508 OA
ATOM     26  H   UNL     1      48.044  16.498   4.690  1.00  0.00     0.293 HD
ENDBRANCH   7  25
TORSDOF 6
ENDMDL
MODEL 5
REMARK VINA RESULT:    -6.894      2.301      6.801
REMARK INTER + INTRA:          -8.615
REMARK INTER:                  -8.240
REMARK INTRA:                  -0.375
REMARK UNBOUND:                -0.311
REMARK SMILES Oc1cc(O)c2c(c1)O[C@H](c1ccc(O)c(O)c1)[C@@H](O)C2
REMARK SMILES IDX 21 1 19 2 10 3 9 4 7 5 8 6 2 7 3 8 4 9 6 10 20 11 11 13
REMARK SMILES IDX 18 14 12 15 16 16 13 17 14 18 17 19 15 21 5 23 1 25
REMARK H PARENT 20 12 17 20 15 22 5 24 1 26
REMARK Flexibility Score: inf
ROOT
ATOM      1  C   UNL     1      48.109  11.710   8.171  1.00  0.00     0.079 C 
ATOM      2  C   UNL     1      47.639  11.211   9.549  1.00  0.00     0.164 C 
ATOM      3  C   UNL     1      46.442  12.055  10.026  1.00  0.00     0.232 C 
ATOM      4  O   UNL     1      46.794  13.440  10.046  1.00  0.00    -0.482 OA
ATOM      5  C   UNL     1      47.628  14.017   9.081  1.00  0.00     0.131 A 
ATOM      6  C   UNL     1      47.795  15.404   9.061  1.00  0.00     0.093 A 
ATOM      7  C   UNL     1      48.624  16.001   8.103  1.00  0.00     0.122 A 
ATOM      8  C   UNL     1      49.287  15.205   7.164  1.00  0.00     0.092 A 
ATOM      9  C   UNL     1      49.132  13.811   7.179  1.00  0.00     0.126 A 
ATOM     10  C   UNL     1      48.314  13.207   8.154  1.00  0.00     0.039 A 
ENDROOT
BRANCH   2  11
ATOM     11  O   UNL     1      47.262   9.861   9.461  1.00  0.00    -0.389 OA
ATOM     12  H   UNL     1      46.271   9.838   9.509  1.00  0.00     0.211 HD
ENDBRANCH   2  11
BRANCH   3  13
ATOM     13  C   UNL     1      45.989  11.628  11.402  1.00  0.00    -0.001 A 
ATOM     14  C   UNL     1      44.696  11.115  11.601  1.00  0.00     0.057 A 
ATOM     15  C   UNL     1      46.838  11.784  12.507  1.00  0.00     0.012 A 
ATOM     16  C   UNL     1      44.258  10.742  12.878  1.00  0.00     0.157 A 
ATOM     17  C   UNL     1      46.412  11.415  13.784  1.00  0.00     0.050 A 
ATOM     18  C   UNL     1      45.129  10.892  13.984  1.00  0.00     0.157 A 
BRANCH  16  19
ATOM     19  O   UNL     1      42.963  10.236  13.001  1.00  0.00    -0.504 OA
ATOM     20  H   UNL     1      42.444  10.218  13.867  1.00  0.00     0.293 HD
ENDBRANCH  16  19
BRANCH  18  21
ATOM     21  O   UNL     1      44.764  10.540  15.285  1.00  0.00    -0.504 OA
ATOM     22  H   UNL     1      43.825  10.617  15.649  1.00  0.00     0.293 HD
ENDBRANCH  18  21
ENDBRANCH   3  13
BRANCH   9  23
ATOM     23  O   UNL     1      49.786  13.027   6.229  1.00  0.00    -0.507 OA
ATOM     24  H   UNL     1      49.280  12.564   5.483  1.00  0.00     0.293 HD
ENDBRANCH   9  23
BRANCH   7  25
ATOM     25  O   UNL     1      48.793  17.383   8.073  1.00  0.00    -0.508 OA
ATOM     26  H   UNL     1      49.399  17.828   7.395  1.00  0.00     0.293 HD
ENDBRANCH   7  25
TORSDOF 6
ENDMDL
MODEL 6
REMARK VINA RESULT:    -6.764      5.481      7.318
REMARK INTER + INTRA:          -8.459
REMARK INTER:                  -8.317
REMARK INTRA:                  -0.142
REMARK UNBOUND:                -0.311
REMARK SMILES Oc1cc(O)c2c(c1)O[C@H](c1ccc(O)c(O)c1)[C@@H](O)C2
REMARK SMILES IDX 21 1 19 2 10 3 9 4 7 5 8 6 2 7 3 8 4 9 6 10 20 11 11 13
REMARK SMILES IDX 18 14 12 15 16 16 13 17 14 18 17 19 15 21 5 23 1 25
REMARK H PARENT 20 12 17 20 15 22 5 24 1 26
REMARK Flexibility Score: inf
ROOT
ATOM      1  C   UNL     1      46.428  16.954  11.760  1.00  0.00     0.079 C 
ATOM      2  C   UNL     1      46.466  15.488  12.228  1.00  0.00     0.164 C 
ATOM      3  C   UNL     1      45.050  14.886  12.163  1.00  0.00     0.232 C 
ATOM      4  O   UNL     1      44.143  15.676  12.937  1.00  0.00    -0.482 OA
ATOM      5  C   UNL     1      44.233  17.071  13.006  1.00  0.00     0.131 A 
ATOM      6  C   UNL     1      43.219  17.792  13.640  1.00  0.00     0.093 A 
ATOM      7  C   UNL     1      43.290  19.189  13.719  1.00  0.00     0.122 A 
ATOM      8  C   UNL     1      44.380  19.862  13.159  1.00  0.00     0.092 A 
ATOM      9  C   UNL     1      45.408  19.148  12.526  1.00  0.00     0.126 A 
ATOM     10  C   UNL     1      45.348  17.742  12.464  1.00  0.00     0.039 A 
ENDROOT
BRANCH   2  11
ATOM     11  O   UNL     1      47.332  14.749  11.406  1.00  0.00    -0.389 OA
ATOM     12  H   UNL     1      46.767  14.300  10.725  1.00  0.00     0.211 HD
ENDBRANCH   2  11
BRANCH   3  13
ATOM     13  C   UNL     1      45.039  13.463  12.668  1.00  0.00    -0.001 A 
ATOM     14  C   UNL     1      44.067  12.553  12.219  1.00  0.00     0.057 A 
ATOM     15  C   UNL     1      45.970  13.046  13.630  1.00  0.00     0.012 A 
ATOM     16  C   UNL     1      44.033  11.239  12.703  1.00  0.00     0.157 A 
ATOM     17  C   UNL     1      45.946  11.738  14.117  1.00  0.00     0.050 A 
ATOM     18  C   UNL     1      44.987  10.825  13.664  1.00  0.00     0.157 A 
BRANCH  16  19
ATOM     19  O   UNL     1      43.043  10.387  12.209  1.00  0.00    -0.504 OA
ATOM     20  H   UNL     1      42.398   9.874  12.792  1.00  0.00     0.293 HD
ENDBRANCH  16  19
BRANCH  18  21
ATOM     21  O   UNL     1      45.018   9.533  14.189  1.00  0.00    -0.504 OA
ATOM     22  H   UNL     1      45.648   9.234  14.919  1.00  0.00     0.293 HD
ENDBRANCH  18  21
ENDBRANCH   3  13
BRANCH   9  23
ATOM     23  O   UNL     1      46.484  19.830  11.959  1.00  0.00    -0.507 OA
ATOM     24  H   UNL     1      47.285  19.337  11.580  1.00  0.00     0.293 HD
ENDBRANCH   9  23
BRANCH   7  25
ATOM     25  O   UNL     1      42.282  19.916  14.346  1.00  0.00    -0.508 OA
ATOM     26  H   UNL     1      41.800  19.558  15.162  1.00  0.00     0.293 HD
ENDBRANCH   7  25
TORSDOF 6
ENDMDL
MODEL 7
REMARK VINA RESULT:    -6.658      3.175      7.244
REMARK INTER + INTRA:          -8.331
REMARK INTER:                  -7.961
REMARK INTRA:                  -0.370
REMARK UNBOUND:                -0.311
REMARK SMILES Oc1cc(O)c2c(c1)O[C@H](c1ccc(O)c(O)c1)[C@@H](O)C2
REMARK SMILES IDX 21 1 19 2 10 3 9 4 7 5 8 6 2 7 3 8 4 9 6 10 20 11 11 13
REMARK SMILES IDX 18 14 12 15 16 16 13 17 14 18 17 19 15 21 5 23 1 25
REMARK H PARENT 20 12 17 20 15 22 5 24 1 26
REMARK Flexibility Score: inf
ROOT
ATOM      1  C   UNL     1      48.731  12.189   6.255  1.00  0.00     0.079 C 
ATOM      2  C   UNL     1      48.131  13.277   7.164  1.00  0.00     0.164 C 
ATOM      3  C   UNL     1      49.104  14.466   7.262  1.00  0.00     0.232 C 
ATOM      4  O   UNL     1      50.380  14.020   7.727  1.00  0.00    -0.482 OA
ATOM      5  C   UNL     1      50.927  12.787   7.353  1.00  0.00     0.131 A 
ATOM      6  C   UNL     1      52.245  12.487   7.705  1.00  0.00     0.093 A 
ATOM      7  C   UNL     1      52.811  11.259   7.339  1.00  0.00     0.122 A 
ATOM      8  C   UNL     1      52.052  10.331   6.619  1.00  0.00     0.092 A 
ATOM      9  C   UNL     1      50.725  10.619   6.266  1.00  0.00     0.126 A 
ATOM     10  C   UNL     1      50.148  11.845   6.651  1.00  0.00     0.039 A 
ENDROOT
BRANCH   2  11
ATOM     11  O   UNL     1      46.904  13.711   6.636  1.00  0.00    -0.389 OA
ATOM     12  H   UNL     1      46.285  12.936   6.675  1.00  0.00     0.211 HD
ENDBRANCH   2  11
BRANCH   3  13
ATOM     13  C   UNL     1      48.571  15.531   8.191  1.00  0.00    -0.001 A 
ATOM     14  C   UNL     1      48.252  15.221   9.524  1.00  0.00     0.057 A 
ATOM     15  C   UNL     1      48.342  16.831   7.720  1.00  0.00     0.012 A 
ATOM     16  C   UNL     1      47.732  16.196  10.385  1.00  0.00     0.157 A 
ATOM     17  C   UNL     1      47.825  17.810   8.570  1.00  0.00     0.050 A 
ATOM     18  C   UNL     1      47.517  17.509   9.901  1.00  0.00     0.157 A 
BRANCH  16  19
ATOM     19  O   UNL     1      47.441  15.819  11.697  1.00  0.00    -0.504 OA
ATOM     20  H   UNL     1      47.879  16.226  12.511  1.00  0.00     0.293 HD
ENDBRANCH  16  19
BRANCH  18  21
ATOM     21  O   UNL     1      47.005  18.533  10.700  1.00  0.00    -0.504 OA
ATOM     22  H   UNL     1      47.552  19.056  11.369  1.00  0.00     0.293 HD
ENDBRANCH  18  21
ENDBRANCH   3  13
BRANCH   9  23
ATOM     23  O   UNL     1      49.982   9.693   5.536  1.00  0.00    -0.507 OA
ATOM     24  H   UNL     1      49.956   8.712   5.791  1.00  0.00     0.293 HD
ENDBRANCH   9  23
BRANCH   7  25
ATOM     25  O   UNL     1      54.125  10.953   7.683  1.00  0.00    -0.508 OA
ATOM     26  H   UNL     1      54.908  11.294   7.137  1.00  0.00     0.293 HD
ENDBRANCH   7  25
TORSDOF 6
ENDMDL
MODEL 8
REMARK VINA RESULT:    -6.447      1.493      7.182
REMARK INTER + INTRA:          -8.077
REMARK INTER:                  -8.331
REMARK INTRA:                   0.254
REMARK UNBOUND:                -0.311
REMARK SMILES Oc1cc(O)c2c(c1)O[C@H](c1ccc(O)c(O)c1)[C@@H](O)C2
REMARK SMILES IDX 21 1 19 2 10 3 9 4 7 5 8 6 2 7 3 8 4 9 6 10 20 11 11 13
REMARK SMILES IDX 18 14 12 15 16 16 13 17 14 18 17 19 15 21 5 23 1 25
REMARK H PARENT 20 12 17 20 15 22 5 24 1 26
REMARK Flexibility Score: inf
ROOT
ATOM      1  C   UNL     1      48.315  10.535   7.710  1.00  0.00     0.079 C 
ATOM      2  C   UNL     1      47.853  11.068   9.078  1.00  0.00     0.164 C 
ATOM      3  C   UNL     1      47.774  12.605   9.036  1.00  0.00     0.232 C 
ATOM      4  O   UNL     1      49.035  13.152   8.643  1.00  0.00    -0.482 OA
ATOM      5  C   UNL     1      49.856  12.537   7.691  1.00  0.00     0.131 A 
ATOM      6  C   UNL     1      50.991  13.207   7.229  1.00  0.00     0.093 A 
ATOM      7  C   UNL     1      51.825  12.609   6.276  1.00  0.00     0.122 A 
ATOM      8  C   UNL     1      51.519  11.336   5.786  1.00  0.00     0.092 A 
ATOM      9  C   UNL     1      50.386  10.650   6.247  1.00  0.00     0.126 A 
ATOM     10  C   UNL     1      49.557  11.242   7.220  1.00  0.00     0.039 A 
ENDROOT
BRANCH   2  11
ATOM     11  O   UNL     1      46.591  10.537   9.392  1.00  0.00    -0.389 OA
ATOM     12  H   UNL     1      46.587   9.599   9.069  1.00  0.00     0.211 HD
ENDBRANCH   2  11
BRANCH   3  13
ATOM     13  C   UNL     1      47.376  13.167  10.381  1.00  0.00    -0.001 A 
ATOM     14  C   UNL     1      47.080  12.310  11.454  1.00  0.00     0.057 A 
ATOM     15  C   UNL     1      47.251  14.552  10.560  1.00  0.00     0.012 A 
ATOM     16  C   UNL     1      46.685  12.821  12.696  1.00  0.00     0.157 A 
ATOM     17  C   UNL     1      46.858  15.072  11.794  1.00  0.00     0.050 A 
ATOM     18  C   UNL     1      46.574  14.222  12.869  1.00  0.00     0.157 A 
BRANCH  16  19
ATOM     19  O   UNL     1      46.410  11.911  13.719  1.00  0.00    -0.504 OA
ATOM     20  H   UNL     1      47.119  11.465  14.282  1.00  0.00     0.293 HD
ENDBRANCH  16  19
BRANCH  18  21
ATOM     21  O   UNL     1      46.188  14.805  14.077  1.00  0.00    -0.504 OA
ATOM     22  H   UNL     1      45.470  15.509  14.161  1.00  0.00     0.293 HD
ENDBRANCH  18  21
ENDBRANCH   3  13
BRANCH   9  23
ATOM     23  O   UNL     1      50.082   9.387   5.742  1.00  0.00    -0.507 OA
ATOM     24  H   UNL     1      50.132   9.185   4.750  1.00  0.00     0.293 HD
ENDBRANCH   9  23
BRANCH   7  25
ATOM     25  O   UNL     1      52.957  13.272   5.808  1.00  0.00    -0.508 OA
ATOM     26  H   UNL     1      53.824  12.779   5.631  1.00  0.00     0.293 HD
ENDBRANCH   7  25
TORSDOF 6
ENDMDL
MODEL 9
REMARK VINA RESULT:    -6.443      1.702      2.030
REMARK INTER + INTRA:          -8.072
REMARK INTER:                  -7.870
REMARK INTRA:                  -0.202
REMARK UNBOUND:                -0.311
REMARK SMILES Oc1cc(O)c2c(c1)O[C@H](c1ccc(O)c(O)c1)[C@@H](O)C2
REMARK SMILES IDX 21 1 19 2 10 3 9 4 7 5 8 6 2 7 3 8 4 9 6 10 20 11 11 13
REMARK SMILES IDX 18 14 12 15 16 16 13 17 14 18 17 19 15 21 5 23 1 25
REMARK H PARENT 20 12 17 20 15 22 5 24 1 26
REMARK Flexibility Score: inf
ROOT
ATOM      1  C   UNL     1      46.751  14.444  11.390  1.00  0.00     0.079 C 
ATOM      2  C   UNL     1      47.835  14.245  10.316  1.00  0.00     0.164 C 
ATOM      3  C   UNL     1      47.477  13.034   9.435  1.00  0.00     0.232 C 
ATOM      4  O   UNL     1      47.303  11.870  10.246  1.00  0.00    -0.482 OA
ATOM      5  C   UNL     1      46.718  11.921  11.516  1.00  0.00     0.131 A 
ATOM      6  C   UNL     1      46.425  10.729  12.184  1.00  0.00     0.093 A 
ATOM      7  C   UNL     1      45.838  10.758  13.455  1.00  0.00     0.122 A 
ATOM      8  C   UNL     1      45.545  11.985  14.058  1.00  0.00     0.092 A 
ATOM      9  C   UNL     1      45.842  13.188  13.400  1.00  0.00     0.126 A 
ATOM     10  C   UNL     1      46.450  13.161  12.130  1.00  0.00     0.039 A 
ENDROOT
BRANCH   2  11
ATOM     11  O   UNL     1      47.930  15.398   9.520  1.00  0.00    -0.389 OA
ATOM     12  H   UNL     1      48.876  15.466   9.227  1.00  0.00     0.211 HD
ENDBRANCH   2  11
BRANCH   3  13
ATOM     13  C   UNL     1      48.549  12.776   8.402  1.00  0.00    -0.001 A 
ATOM     14  C   UNL     1      49.645  11.950   8.702  1.00  0.00     0.057 A 
ATOM     15  C   UNL     1      48.487  13.398   7.148  1.00  0.00     0.012 A 
ATOM     16  C   UNL     1      50.657  11.726   7.760  1.00  0.00     0.157 A 
ATOM     17  C   UNL     1      49.490  13.182   6.201  1.00  0.00     0.050 A 
ATOM     18  C   UNL     1      50.577  12.350   6.491  1.00  0.00     0.157 A 
BRANCH  16  19
ATOM     19  O   UNL     1      51.714  10.890   8.124  1.00  0.00    -0.504 OA
ATOM     20  H   UNL     1      51.899  10.593   9.071  1.00  0.00     0.293 HD
ENDBRANCH  16  19
BRANCH  18  21
ATOM     21  O   UNL     1      51.546  12.172   5.502  1.00  0.00    -0.504 OA
ATOM     22  H   UNL     1      51.675  12.797   4.719  1.00  0.00     0.293 HD
ENDBRANCH  18  21
ENDBRANCH   3  13
BRANCH   9  23
ATOM     23  O   UNL     1      45.533  14.407  14.004  1.00  0.00    -0.507 OA
ATOM     24  H   UNL     1      45.006  14.453  14.868  1.00  0.00     0.293 HD
ENDBRANCH   9  23
BRANCH   7  25
ATOM     25  O   UNL     1      45.539   9.574  14.126  1.00  0.00    -0.508 OA
ATOM     26  H   UNL     1      44.599   9.197  14.141  1.00  0.00     0.293 HD
ENDBRANCH   7  25
TORSDOF 6
ENDMDL
