MODEL 1
REMARK VINA RESULT:    -4.770      0.000      0.000
REMARK INTER + INTRA:          -9.376
REMARK INTER:                  -8.674
REMARK INTRA:                  -0.702
REMARK UNBOUND:                -0.702
REMARK SMILES CCCCCCCCCCCCCCCC(=O)[O-]
REMARK SMILES IDX 9 1 10 2 11 3 12 4 13 5 14 6 15 7 16 8 17 9 18 10 8 11 7 12
REMARK SMILES IDX 6 13 5 14 4 15 3 16 2 17 1 18
REMARK H PARENT
REMARK Flexibility Score: inf
ROOT
ATOM      1  C   UNL     1       0.226  -1.948  -0.098  1.00  0.00     0.000 C 
ENDROOT
BRANCH   1   2
ATOM      2  C   UNL     1       0.840  -1.243   1.120  1.00  0.00     0.000 C 
BRANCH   2   3
ATOM      3  C   UNL     1       0.515   0.259   1.105  1.00  0.00     0.000 C 
BRANCH   3   4
ATOM      4  C   UNL     1      -0.257   0.687  -0.154  1.00  0.00     0.000 C 
BRANCH   4   5
ATOM      5  C   UNL     1      -1.053   1.985   0.052  1.00  0.00     0.000 C 
BRANCH   5   6
ATOM      6  C   UNL     1      -1.713   2.436  -1.258  1.00  0.00     0.006 C 
BRANCH   6   7
ATOM      7  C   UNL     1      -0.848   2.120  -2.485  1.00  0.00     0.053 C 
BRANCH   7   8
ATOM      8  C   UNL     1       0.032   3.274  -2.856  1.00  0.00     0.041 C 
ATOM      9  O   UNL     1      -0.153   4.406  -2.337  1.00  0.00    -0.550 OA
ATOM     10  O   UNL     1       1.078   3.090  -3.751  1.00  0.00    -0.550 OA
ENDBRANCH   7   8
ENDBRANCH   6   7
ENDBRANCH   5   6
ENDBRANCH   4   5
ENDBRANCH   3   4
ENDBRANCH   2   3
ENDBRANCH   1   2
BRANCH   1  11
ATOM     11  C   UNL     1       0.858  -3.324  -0.365  1.00  0.00     0.000 C 
BRANCH  11  12
ATOM     12  C   UNL     1       0.867  -3.689  -1.858  1.00  0.00    -0.000 C 
BRANCH  12  13
ATOM     13  C   UNL     1       0.174  -5.031  -2.149  1.00  0.00    -0.000 C 
BRANCH  13  14
ATOM     14  C   UNL     1       0.113  -5.972  -0.926  1.00  0.00    -0.000 C 
BRANCH  14  15
ATOM     15  C   UNL     1       0.103  -7.454  -1.332  1.00  0.00    -0.000 C 
BRANCH  15  16
ATOM     16  C   UNL     1      -1.305  -8.048  -1.207  1.00  0.00    -0.000 C 
BRANCH  16  17
ATOM     17  C   UNL     1      -1.279  -9.364  -0.420  1.00  0.00    -0.003 C 
ATOM     18  C   UNL     1      -2.162  -9.281   0.822  1.00  0.00     0.004 C 
ENDBRANCH  16  17
ENDBRANCH  15  16
ENDBRANCH  14  15
ENDBRANCH  13  14
ENDBRANCH  12  13
ENDBRANCH  11  12
ENDBRANCH   1  11
TORSDOF 14
ENDMDL
MODEL 2
REMARK VINA RESULT:    -4.568      4.839      9.557
REMARK INTER + INTRA:          -9.009
REMARK INTER:                  -8.392
REMARK INTRA:                  -0.617
REMARK UNBOUND:                -0.702
REMARK SMILES CCCCCCCCCCCCCCCC(=O)[O-]
REMARK SMILES IDX 9 1 10 2 11 3 12 4 13 5 14 6 15 7 16 8 17 9 18 10 8 11 7 12
REMARK SMILES IDX 6 13 5 14 4 15 3 16 2 17 1 18
REMARK H PARENT
REMARK Flexibility Score: inf
ROOT
ATOM      1  C   UNL     1       0.867  -3.376  -0.402  1.00  0.00     0.000 C 
ENDROOT
BRANCH   1   2
ATOM      2  C   UNL     1       0.789  -3.615  -1.917  1.00  0.00     0.000 C 
BRANCH   2   3
ATOM      3  C   UNL     1       0.337  -5.050  -2.223  1.00  0.00     0.000 C 
BRANCH   3   4
ATOM      4  C   UNL     1       0.013  -5.855  -0.953  1.00  0.00     0.000 C 
BRANCH   4   5
ATOM      5  C   UNL     1      -0.007  -7.371  -1.201  1.00  0.00     0.000 C 
BRANCH   5   6
ATOM      6  C   UNL     1      -1.410  -7.946  -0.960  1.00  0.00     0.006 C 
BRANCH   6   7
ATOM      7  C   UNL     1      -1.378  -9.452  -0.668  1.00  0.00     0.053 C 
BRANCH   7   8
ATOM      8  C   UNL     1      -1.490  -9.735   0.799  1.00  0.00     0.041 C 
ATOM      9  O   UNL     1      -2.604  -9.650   1.379  1.00  0.00    -0.550 OA
ATOM     10  O   UNL     1      -0.369 -10.125   1.519  1.00  0.00    -0.550 OA
ENDBRANCH   7   8
ENDBRANCH   6   7
ENDBRANCH   5   6
ENDBRANCH   4   5
ENDBRANCH   3   4
ENDBRANCH   2   3
ENDBRANCH   1   2
BRANCH   1  11
ATOM     11  C   UNL     1       0.145  -2.090   0.031  1.00  0.00     0.000 C 
BRANCH  11  12
ATOM     12  C   UNL     1       0.911  -1.320   1.119  1.00  0.00    -0.000 C 
BRANCH  12  13
ATOM     13  C   UNL     1       0.604   0.187   1.113  1.00  0.00    -0.000 C 
BRANCH  13  14
ATOM     14  C   UNL     1      -0.287   0.631  -0.068  1.00  0.00    -0.000 C 
BRANCH  14  15
ATOM     15  C   UNL     1      -1.112   1.884   0.265  1.00  0.00    -0.000 C 
BRANCH  15  16
ATOM     16  C   UNL     1      -2.063   2.237  -0.884  1.00  0.00    -0.000 C 
BRANCH  16  17
ATOM     17  C   UNL     1      -1.357   2.115  -2.240  1.00  0.00    -0.003 C 
ATOM     18  C   UNL     1      -0.282   3.185  -2.401  1.00  0.00     0.004 C 
ENDBRANCH  16  17
ENDBRANCH  15  16
ENDBRANCH  14  15
ENDBRANCH  13  14
ENDBRANCH  12  13
ENDBRANCH  11  12
ENDBRANCH   1  11
TORSDOF 14
ENDMDL
MODEL 3
REMARK VINA RESULT:    -4.540      4.347      9.329
REMARK INTER + INTRA:          -8.958
REMARK INTER:                  -8.256
REMARK INTRA:                  -0.702
REMARK UNBOUND:                -0.702
REMARK SMILES CCCCCCCCCCCCCCCC(=O)[O-]
REMARK SMILES IDX 9 1 10 2 11 3 12 4 13 5 14 6 15 7 16 8 17 9 18 10 8 11 7 12
REMARK SMILES IDX 6 13 5 14 4 15 3 16 2 17 1 18
REMARK H PARENT
REMARK Flexibility Score: inf
ROOT
ATOM      1  C   UNL     1       0.980  -1.267   1.137  1.00  0.00     0.000 C 
ENDROOT
BRANCH   1   2
ATOM      2  C   UNL     1       0.302  -2.066   0.015  1.00  0.00     0.000 C 
BRANCH   2   3
ATOM      3  C   UNL     1       1.136  -3.299  -0.362  1.00  0.00     0.000 C 
BRANCH   3   4
ATOM      4  C   UNL     1       0.398  -4.247  -1.321  1.00  0.00     0.000 C 
BRANCH   4   5
ATOM      5  C   UNL     1       0.034  -5.588  -0.667  1.00  0.00     0.000 C 
BRANCH   5   6
ATOM      6  C   UNL     1       0.105  -6.733  -1.687  1.00  0.00     0.006 C 
BRANCH   6   7
ATOM      7  C   UNL     1       0.139  -8.111  -1.013  1.00  0.00     0.053 C 
BRANCH   7   8
ATOM      8  C   UNL     1      -1.218  -8.746  -0.980  1.00  0.00     0.041 C 
ATOM      9  O   UNL     1      -2.146  -8.225  -0.308  1.00  0.00    -0.550 OA
ATOM     10  O   UNL     1      -1.465  -9.895  -1.719  1.00  0.00    -0.550 OA
ENDBRANCH   7   8
ENDBRANCH   6   7
ENDBRANCH   5   6
ENDBRANCH   4   5
ENDBRANCH   3   4
ENDBRANCH   2   3
ENDBRANCH   1   2
BRANCH   1  11
ATOM     11  C   UNL     1       0.579   0.217   1.131  1.00  0.00     0.000 C 
BRANCH  11  12
ATOM     12  C   UNL     1      -0.234   0.605  -0.114  1.00  0.00    -0.000 C 
BRANCH  12  13
ATOM     13  C   UNL     1      -1.121   1.841   0.113  1.00  0.00    -0.000 C 
BRANCH  13  14
ATOM     14  C   UNL     1      -1.663   2.460  -1.193  1.00  0.00    -0.000 C 
BRANCH  14  15
ATOM     15  C   UNL     1      -1.061   3.845  -1.474  1.00  0.00    -0.000 C 
BRANCH  15  16
ATOM     16  C   UNL     1       0.165   3.736  -2.388  1.00  0.00    -0.000 C 
BRANCH  16  17
ATOM     17  C   UNL     1       0.043   2.534  -3.332  1.00  0.00    -0.003 C 
ATOM     18  C   UNL     1       1.036   2.636  -4.486  1.00  0.00     0.004 C 
ENDBRANCH  16  17
ENDBRANCH  15  16
ENDBRANCH  14  15
ENDBRANCH  13  14
ENDBRANCH  12  13
ENDBRANCH  11  12
ENDBRANCH   1  11
TORSDOF 14
ENDMDL
MODEL 4
REMARK VINA RESULT:    -4.507      4.748      9.403
REMARK INTER + INTRA:          -8.897
REMARK INTER:                  -8.205
REMARK INTRA:                  -0.692
REMARK UNBOUND:                -0.702
REMARK SMILES CCCCCCCCCCCCCCCC(=O)[O-]
REMARK SMILES IDX 9 1 10 2 11 3 12 4 13 5 14 6 15 7 16 8 17 9 18 10 8 11 7 12
REMARK SMILES IDX 6 13 5 14 4 15 3 16 2 17 1 18
REMARK H PARENT
REMARK Flexibility Score: inf
ROOT
ATOM      1  C   UNL     1       0.313  -2.213  -0.013  1.00  0.00     0.000 C 
ENDROOT
BRANCH   1   2
ATOM      2  C   UNL     1       0.945  -3.567  -0.365  1.00  0.00     0.000 C 
BRANCH   2   3
ATOM      3  C   UNL     1       0.792  -3.871  -1.862  1.00  0.00     0.000 C 
BRANCH   3   4
ATOM      4  C   UNL     1       0.131  -5.233  -2.128  1.00  0.00     0.000 C 
BRANCH   4   5
ATOM      5  C   UNL     1       0.042  -6.105  -0.866  1.00  0.00     0.000 C 
BRANCH   5   6
ATOM      6  C   UNL     1      -0.115  -7.587  -1.234  1.00  0.00     0.006 C 
BRANCH   6   7
ATOM      7  C   UNL     1      -1.477  -8.150  -0.806  1.00  0.00     0.053 C 
BRANCH   7   8
ATOM      8  C   UNL     1      -1.328  -9.346   0.085  1.00  0.00     0.041 C 
ATOM      9  O   UNL     1      -0.338 -10.113  -0.044  1.00  0.00    -0.550 OA
ATOM     10  O   UNL     1      -2.265  -9.593   1.078  1.00  0.00    -0.550 OA
ENDBRANCH   7   8
ENDBRANCH   6   7
ENDBRANCH   5   6
ENDBRANCH   4   5
ENDBRANCH   3   4
ENDBRANCH   2   3
ENDBRANCH   1   2
BRANCH   1  11
ATOM     11  C   UNL     1       1.040  -1.502   1.141  1.00  0.00     0.000 C 
BRANCH  11  12
ATOM     12  C   UNL     1       0.704  -0.005   1.217  1.00  0.00    -0.000 C 
BRANCH  12  13
ATOM     13  C   UNL     1      -0.175   0.471   0.048  1.00  0.00    -0.000 C 
BRANCH  13  14
ATOM     14  C   UNL     1      -0.778   1.876   0.261  1.00  0.00    -0.000 C 
BRANCH  14  15
ATOM     15  C   UNL     1      -1.907   2.182  -0.736  1.00  0.00    -0.000 C 
BRANCH  15  16
ATOM     16  C   UNL     1      -1.408   2.070  -2.181  1.00  0.00    -0.000 C 
BRANCH  16  17
ATOM     17  C   UNL     1      -0.253   3.043  -2.441  1.00  0.00    -0.003 C 
ATOM     18  C   UNL     1       0.485   2.692  -3.730  1.00  0.00     0.004 C 
ENDBRANCH  16  17
ENDBRANCH  15  16
ENDBRANCH  14  15
ENDBRANCH  13  14
ENDBRANCH  12  13
ENDBRANCH  11  12
ENDBRANCH   1  11
TORSDOF 14
ENDMDL
MODEL 5
REMARK VINA RESULT:    -4.475      5.271      8.365
REMARK INTER + INTRA:          -8.839
REMARK INTER:                  -7.656
REMARK INTRA:                  -1.183
REMARK UNBOUND:                -0.702
REMARK SMILES CCCCCCCCCCCCCCCC(=O)[O-]
REMARK SMILES IDX 9 1 10 2 11 3 12 4 13 5 14 6 15 7 16 8 17 9 18 10 8 11 7 12
REMARK SMILES IDX 6 13 5 14 4 15 3 16 2 17 1 18
REMARK H PARENT
REMARK Flexibility Score: inf
ROOT
ATOM      1  C   UNL     1       2.061  -9.256  -1.468  1.00  0.00     0.000 C 
ENDROOT
BRANCH   1   2
ATOM      2  C   UNL     1       0.998 -10.107  -0.758  1.00  0.00     0.000 C 
BRANCH   2   3
ATOM      3  C   UNL     1      -0.355 -10.006  -1.477  1.00  0.00     0.000 C 
BRANCH   3   4
ATOM      4  C   UNL     1      -1.513  -9.670  -0.523  1.00  0.00     0.000 C 
BRANCH   4   5
ATOM      5  C   UNL     1      -1.789  -8.162  -0.435  1.00  0.00     0.000 C 
BRANCH   5   6
ATOM      6  C   UNL     1      -1.010  -7.398  -1.514  1.00  0.00     0.006 C 
BRANCH   6   7
ATOM      7  C   UNL     1      -0.011  -6.400  -0.914  1.00  0.00     0.053 C 
BRANCH   7   8
ATOM      8  C   UNL     1       0.128  -5.175  -1.764  1.00  0.00     0.041 C 
ATOM      9  O   UNL     1      -0.219  -5.199  -2.974  1.00  0.00    -0.550 OA
ATOM     10  O   UNL     1       0.612  -3.997  -1.211  1.00  0.00    -0.550 OA
ENDBRANCH   7   8
ENDBRANCH   6   7
ENDBRANCH   5   6
ENDBRANCH   4   5
ENDBRANCH   3   4
ENDBRANCH   2   3
ENDBRANCH   1   2
BRANCH   1  11
ATOM     11  C   UNL     1       1.937  -9.312  -2.999  1.00  0.00     0.000 C 
BRANCH  11  12
ATOM     12  C   UNL     1       3.161  -9.958  -3.668  1.00  0.00    -0.000 C 
BRANCH  12  13
ATOM     13  C   UNL     1       4.346  -8.988  -3.806  1.00  0.00    -0.000 C 
BRANCH  13  14
ATOM     14  C   UNL     1       4.839  -8.818  -5.260  1.00  0.00    -0.000 C 
BRANCH  14  15
ATOM     15  C   UNL     1       3.712  -9.026  -6.284  1.00  0.00    -0.000 C 
BRANCH  15  16
ATOM     16  C   UNL     1       3.212  -7.684  -6.830  1.00  0.00    -0.000 C 
BRANCH  16  17
ATOM     17  C   UNL     1       2.548  -6.854  -5.725  1.00  0.00    -0.003 C 
ATOM     18  C   UNL     1       1.826  -5.641  -6.305  1.00  0.00     0.004 C 
ENDBRANCH  16  17
ENDBRANCH  15  16
ENDBRANCH  14  15
ENDBRANCH  13  14
ENDBRANCH  12  13
ENDBRANCH  11  12
ENDBRANCH   1  11
TORSDOF 14
ENDMDL
MODEL 6
REMARK VINA RESULT:    -4.451      2.132      3.507
REMARK INTER + INTRA:          -8.796
REMARK INTER:                  -8.120
REMARK INTRA:                  -0.675
REMARK UNBOUND:                -0.702
REMARK SMILES CCCCCCCCCCCCCCCC(=O)[O-]
REMARK SMILES IDX 9 1 10 2 11 3 12 4 13 5 14 6 15 7 16 8 17 9 18 10 8 11 7 12
REMARK SMILES IDX 6 13 5 14 4 15 3 16 2 17 1 18
REMARK H PARENT
REMARK Flexibility Score: inf
ROOT
ATOM      1  C   UNL     1       0.797  -3.654  -1.883  1.00  0.00     0.000 C 
ENDROOT
BRANCH   1   2
ATOM      2  C   UNL     1       0.914  -3.376  -0.378  1.00  0.00     0.000 C 
BRANCH   2   3
ATOM      3  C   UNL     1       0.187  -2.076  -0.002  1.00  0.00     0.000 C 
BRANCH   3   4
ATOM      4  C   UNL     1       0.939  -1.262   1.063  1.00  0.00     0.000 C 
BRANCH   4   5
ATOM      5  C   UNL     1       0.444   0.189   1.160  1.00  0.00     0.000 C 
BRANCH   5   6
ATOM      6  C   UNL     1      -0.366   0.576  -0.086  1.00  0.00     0.006 C 
BRANCH   6   7
ATOM      7  C   UNL     1      -0.868   2.024  -0.027  1.00  0.00     0.053 C 
BRANCH   7   8
ATOM      8  C   UNL     1      -1.938   2.282  -1.043  1.00  0.00     0.041 C 
ATOM      9  O   UNL     1      -2.872   3.088  -0.790  1.00  0.00    -0.550 OA
ATOM     10  O   UNL     1      -1.885   1.658  -2.282  1.00  0.00    -0.550 OA
ENDBRANCH   7   8
ENDBRANCH   6   7
ENDBRANCH   5   6
ENDBRANCH   4   5
ENDBRANCH   3   4
ENDBRANCH   2   3
ENDBRANCH   1   2
BRANCH   1  11
ATOM     11  C   UNL     1       0.212  -5.043  -2.185  1.00  0.00     0.000 C 
BRANCH  11  12
ATOM     12  C   UNL     1       0.153  -5.942  -0.940  1.00  0.00    -0.000 C 
BRANCH  12  13
ATOM     13  C   UNL     1      -0.289  -7.379  -1.262  1.00  0.00    -0.000 C 
BRANCH  13  14
ATOM     14  C   UNL     1       0.815  -8.433  -1.024  1.00  0.00    -0.000 C 
BRANCH  14  15
ATOM     15  C   UNL     1       1.052  -9.317  -2.258  1.00  0.00    -0.000 C 
BRANCH  15  16
ATOM     16  C   UNL     1       2.433  -9.051  -2.867  1.00  0.00    -0.000 C 
BRANCH  16  17
ATOM     17  C   UNL     1       2.440  -9.359  -4.369  1.00  0.00    -0.003 C 
ATOM     18  C   UNL     1       3.029  -8.200  -5.167  1.00  0.00     0.004 C 
ENDBRANCH  16  17
ENDBRANCH  15  16
ENDBRANCH  14  15
ENDBRANCH  13  14
ENDBRANCH  12  13
ENDBRANCH  11  12
ENDBRANCH   1  11
TORSDOF 14
ENDMDL
MODEL 7
REMARK VINA RESULT:    -4.442      6.134      8.185
REMARK INTER + INTRA:          -8.780
REMARK INTER:                  -7.350
REMARK INTRA:                  -1.431
REMARK UNBOUND:                -0.702
REMARK SMILES CCCCCCCCCCCCCCCC(=O)[O-]
REMARK SMILES IDX 9 1 10 2 11 3 12 4 13 5 14 6 15 7 16 8 17 9 18 10 8 11 7 12
REMARK SMILES IDX 6 13 5 14 4 15 3 16 2 17 1 18
REMARK H PARENT
REMARK Flexibility Score: inf
ROOT
ATOM      1  C   UNL     1       0.247  -4.727  -2.916  1.00  0.00     0.000 C 
ENDROOT
BRANCH   1   2
ATOM      2  C   UNL     1       0.287  -4.522  -4.437  1.00  0.00     0.000 C 
BRANCH   2   3
ATOM      3  C   UNL     1       1.691  -4.806  -4.992  1.00  0.00     0.000 C 
BRANCH   3   4
ATOM      4  C   UNL     1       1.658  -5.513  -6.357  1.00  0.00     0.000 C 
BRANCH   4   5
ATOM      5  C   UNL     1       2.537  -6.772  -6.395  1.00  0.00     0.000 C 
BRANCH   5   6
ATOM      6  C   UNL     1       2.566  -7.461  -5.023  1.00  0.00     0.006 C 
BRANCH   6   7
ATOM      7  C   UNL     1       3.293  -8.811  -5.066  1.00  0.00     0.053 C 
BRANCH   7   8
ATOM      8  C   UNL     1       4.781  -8.642  -5.035  1.00  0.00     0.041 C 
ATOM      9  O   UNL     1       5.523  -9.433  -5.675  1.00  0.00    -0.550 OA
ATOM     10  O   UNL     1       5.346  -7.590  -4.326  1.00  0.00    -0.550 OA
ENDBRANCH   7   8
ENDBRANCH   6   7
ENDBRANCH   5   6
ENDBRANCH   4   5
ENDBRANCH   3   4
ENDBRANCH   2   3
ENDBRANCH   1   2
BRANCH   1  11
ATOM     11  C   UNL     1      -0.433  -6.046  -2.515  1.00  0.00     0.000 C 
BRANCH  11  12
ATOM     12  C   UNL     1       0.326  -6.788  -1.404  1.00  0.00    -0.000 C 
BRANCH  12  13
ATOM     13  C   UNL     1       0.713  -8.223  -1.800  1.00  0.00    -0.000 C 
BRANCH  13  14
ATOM     14  C   UNL     1       1.589  -8.939  -0.748  1.00  0.00    -0.000 C 
BRANCH  14  15
ATOM     15  C   UNL     1       0.820 -10.043  -0.006  1.00  0.00    -0.000 C 
BRANCH  15  16
ATOM     16  C   UNL     1      -0.631 -10.123  -0.490  1.00  0.00    -0.000 C 
BRANCH  16  17
ATOM     17  C   UNL     1      -1.608  -9.762   0.635  1.00  0.00    -0.003 C 
ATOM     18  C   UNL     1      -2.407  -8.509   0.290  1.00  0.00     0.004 C 
ENDBRANCH  16  17
ENDBRANCH  15  16
ENDBRANCH  14  15
ENDBRANCH  13  14
ENDBRANCH  12  13
ENDBRANCH  11  12
ENDBRANCH   1  11
TORSDOF 14
ENDMDL
