MODEL 1
REMARK VINA RESULT:    -3.802      0.000      0.000
REMARK INTER + INTRA:          -5.113
REMARK INTER:                  -4.914
REMARK INTRA:                  -0.199
REMARK UNBOUND:                -0.199
REMARK SMILES CCCCCCC(=O)[O-]
REMARK SMILES IDX 5 1 6 2 7 3 8 4 9 5 4 6 3 7 2 8 1 9
REMARK H PARENT
REMARK Flexibility Score: inf
ROOT
ATOM      1  C   UNL     1      74.227 -37.359  10.620  1.00  0.00     0.006 C 
ENDROOT
BRANCH   1   2
ATOM      2  C   UNL     1      75.212 -37.968  11.625  1.00  0.00     0.053 C 
BRANCH   2   3
ATOM      3  C   UNL     1      76.526 -37.251  11.623  1.00  0.00     0.041 C 
ATOM      4  O   UNL     1      77.586 -37.868  11.910  1.00  0.00    -0.550 OA
ATOM      5  O   UNL     1      76.586 -35.909  11.268  1.00  0.00    -0.550 OA
ENDBRANCH   2   3
ENDBRANCH   1   2
BRANCH   1   6
ATOM      6  C   UNL     1      72.816 -37.205  11.208  1.00  0.00     0.000 C 
BRANCH   6   7
ATOM      7  C   UNL     1      71.760 -37.154  10.097  1.00  0.00    -0.000 C 
BRANCH   7   8
ATOM      8  C   UNL     1      70.662 -38.196  10.334  1.00  0.00    -0.003 C 
ATOM      9  C   UNL     1      71.047 -39.158  11.453  1.00  0.00     0.004 C 
ENDBRANCH   7   8
ENDBRANCH   6   7
ENDBRANCH   1   6
TORSDOF 5
ENDMDL
MODEL 2
REMARK VINA RESULT:    -3.672     13.935     15.241
REMARK INTER + INTRA:          -4.944
REMARK INTER:                  -4.656
REMARK INTRA:                  -0.289
REMARK UNBOUND:                -0.199
REMARK SMILES CCCCCCC(=O)[O-]
REMARK SMILES IDX 5 1 6 2 7 3 8 4 9 5 4 6 3 7 2 8 1 9
REMARK H PARENT
REMARK Flexibility Score: inf
ROOT
ATOM      1  C   UNL     1      62.825 -29.255  15.895  1.00  0.00     0.006 C 
ENDROOT
BRANCH   1   2
ATOM      2  C   UNL     1      62.088 -30.402  15.193  1.00  0.00     0.053 C 
BRANCH   2   3
ATOM      3  C   UNL     1      62.653 -30.679  13.834  1.00  0.00     0.041 C 
ATOM      4  O   UNL     1      63.588 -29.968  13.380  1.00  0.00    -0.550 OA
ATOM      5  O   UNL     1      62.172 -31.744  13.083  1.00  0.00    -0.550 OA
ENDBRANCH   2   3
ENDBRANCH   1   2
BRANCH   1   6
ATOM      6  C   UNL     1      61.929 -28.024  16.096  1.00  0.00     0.000 C 
BRANCH   6   7
ATOM      7  C   UNL     1      61.578 -27.375  14.751  1.00  0.00    -0.000 C 
BRANCH   7   8
ATOM      8  C   UNL     1      62.799 -26.679  14.141  1.00  0.00    -0.003 C 
ATOM      9  C   UNL     1      62.552 -26.309  12.682  1.00  0.00     0.004 C 
ENDBRANCH   7   8
ENDBRANCH   6   7
ENDBRANCH   1   6
TORSDOF 5
ENDMDL
MODEL 3
REMARK VINA RESULT:    -3.601      1.355      2.184
REMARK INTER + INTRA:          -4.853
REMARK INTER:                  -4.618
REMARK INTRA:                  -0.235
REMARK UNBOUND:                -0.199
REMARK SMILES CCCCCCC(=O)[O-]
REMARK SMILES IDX 5 1 6 2 7 3 8 4 9 5 4 6 3 7 2 8 1 9
REMARK H PARENT
REMARK Flexibility Score: inf
ROOT
ATOM      1  C   UNL     1      72.484 -37.031  10.387  1.00  0.00     0.006 C 
ENDROOT
BRANCH   1   2
ATOM      2  C   UNL     1      73.549 -37.681  11.279  1.00  0.00     0.053 C 
BRANCH   2   3
ATOM      3  C   UNL     1      74.936 -37.394  10.791  1.00  0.00     0.041 C 
ATOM      4  O   UNL     1      75.120 -36.964   9.621  1.00  0.00    -0.550 OA
ATOM      5  O   UNL     1      76.023 -37.567  11.639  1.00  0.00    -0.550 OA
ENDBRANCH   2   3
ENDBRANCH   1   2
BRANCH   1   6
ATOM      6  C   UNL     1      71.132 -37.753  10.476  1.00  0.00     0.000 C 
BRANCH   6   7
ATOM      7  C   UNL     1      71.127 -38.771  11.623  1.00  0.00    -0.000 C 
BRANCH   7   8
ATOM      8  C   UNL     1      70.585 -40.126  11.155  1.00  0.00    -0.003 C 
ATOM      9  C   UNL     1      69.869 -39.999   9.814  1.00  0.00     0.004 C 
ENDBRANCH   7   8
ENDBRANCH   6   7
ENDBRANCH   1   6
TORSDOF 5
ENDMDL
MODEL 4
REMARK VINA RESULT:    -3.588     13.192     14.545
REMARK INTER + INTRA:          -4.836
REMARK INTER:                  -4.658
REMARK INTRA:                  -0.178
REMARK UNBOUND:                -0.199
REMARK SMILES CCCCCCC(=O)[O-]
REMARK SMILES IDX 5 1 6 2 7 3 8 4 9 5 4 6 3 7 2 8 1 9
REMARK H PARENT
REMARK Flexibility Score: inf
ROOT
ATOM      1  C   UNL     1      63.070 -29.874  13.897  1.00  0.00     0.006 C 
ENDROOT
BRANCH   1   2
ATOM      2  C   UNL     1      62.157 -31.066  14.209  1.00  0.00     0.053 C 
BRANCH   2   3
ATOM      3  C   UNL     1      62.638 -32.323  13.552  1.00  0.00     0.041 C 
ATOM      4  O   UNL     1      62.944 -32.322  12.330  1.00  0.00    -0.550 OA
ATOM      5  O   UNL     1      62.784 -33.487  14.296  1.00  0.00    -0.550 OA
ENDBRANCH   2   3
ENDBRANCH   1   2
BRANCH   1   6
ATOM      6  C   UNL     1      63.185 -28.904  15.083  1.00  0.00     0.000 C 
BRANCH   6   7
ATOM      7  C   UNL     1      62.574 -27.540  14.739  1.00  0.00    -0.000 C 
BRANCH   7   8
ATOM      8  C   UNL     1      62.242 -27.447  13.246  1.00  0.00    -0.003 C 
ATOM      9  C   UNL     1      62.513 -26.047  12.706  1.00  0.00     0.004 C 
ENDBRANCH   7   8
ENDBRANCH   6   7
ENDBRANCH   1   6
TORSDOF 5
ENDMDL
MODEL 5
REMARK VINA RESULT:    -3.585     13.993     15.268
REMARK INTER + INTRA:          -4.832
REMARK INTER:                  -4.574
REMARK INTRA:                  -0.258
REMARK UNBOUND:                -0.199
REMARK SMILES CCCCCCC(=O)[O-]
REMARK SMILES IDX 5 1 6 2 7 3 8 4 9 5 4 6 3 7 2 8 1 9
REMARK H PARENT
REMARK Flexibility Score: inf
ROOT
ATOM      1  C   UNL     1      62.677 -29.272  15.928  1.00  0.00     0.006 C 
ENDROOT
BRANCH   1   2
ATOM      2  C   UNL     1      61.875 -30.552  15.660  1.00  0.00     0.053 C 
BRANCH   2   3
ATOM      3  C   UNL     1      62.421 -31.317  14.494  1.00  0.00     0.041 C 
ATOM      4  O   UNL     1      62.466 -32.575  14.526  1.00  0.00    -0.550 OA
ATOM      5  O   UNL     1      62.847 -30.642  13.356  1.00  0.00    -0.550 OA
ENDBRANCH   2   3
ENDBRANCH   1   2
BRANCH   1   6
ATOM      6  C   UNL     1      61.771 -28.085  16.292  1.00  0.00     0.000 C 
BRANCH   6   7
ATOM      7  C   UNL     1      61.597 -27.141  15.096  1.00  0.00    -0.000 C 
BRANCH   7   8
ATOM      8  C   UNL     1      62.813 -27.201  14.165  1.00  0.00    -0.003 C 
ATOM      9  C   UNL     1      62.622 -26.298  12.950  1.00  0.00     0.004 C 
ENDBRANCH   7   8
ENDBRANCH   6   7
ENDBRANCH   1   6
TORSDOF 5
ENDMDL
MODEL 6
REMARK VINA RESULT:    -3.448     13.603     14.900
REMARK INTER + INTRA:          -4.656
REMARK INTER:                  -4.427
REMARK INTRA:                  -0.229
REMARK UNBOUND:                -0.199
REMARK SMILES CCCCCCC(=O)[O-]
REMARK SMILES IDX 5 1 6 2 7 3 8 4 9 5 4 6 3 7 2 8 1 9
REMARK H PARENT
REMARK Flexibility Score: inf
ROOT
ATOM      1  C   UNL     1      62.803 -30.675  13.555  1.00  0.00     0.006 C 
ENDROOT
BRANCH   1   2
ATOM      2  C   UNL     1      61.606 -31.164  14.381  1.00  0.00     0.053 C 
BRANCH   2   3
ATOM      3  C   UNL     1      62.040 -31.969  15.567  1.00  0.00     0.041 C 
ATOM      4  O   UNL     1      62.611 -33.080  15.405  1.00  0.00    -0.550 OA
ATOM      5  O   UNL     1      61.846 -31.476  16.851  1.00  0.00    -0.550 OA
ENDBRANCH   2   3
ENDBRANCH   1   2
BRANCH   1   6
ATOM      6  C   UNL     1      63.289 -29.288  14.001  1.00  0.00     0.000 C 
BRANCH   6   7
ATOM      7  C   UNL     1      62.107 -28.384  14.372  1.00  0.00    -0.000 C 
BRANCH   7   8
ATOM      8  C   UNL     1      62.514 -26.907  14.346  1.00  0.00    -0.003 C 
ATOM      9  C   UNL     1      62.674 -26.404  12.915  1.00  0.00     0.004 C 
ENDBRANCH   7   8
ENDBRANCH   6   7
ENDBRANCH   1   6
TORSDOF 5
ENDMDL
MODEL 7
REMARK VINA RESULT:    -3.361     14.481     15.486
REMARK INTER + INTRA:          -4.543
REMARK INTER:                  -4.335
REMARK INTRA:                  -0.207
REMARK UNBOUND:                -0.199
REMARK SMILES CCCCCCC(=O)[O-]
REMARK SMILES IDX 5 1 6 2 7 3 8 4 9 5 4 6 3 7 2 8 1 9
REMARK H PARENT
REMARK Flexibility Score: inf
ROOT
ATOM      1  C   UNL     1      63.118 -28.924  15.879  1.00  0.00     0.006 C 
ENDROOT
BRANCH   1   2
ATOM      2  C   UNL     1      61.800 -29.385  16.515  1.00  0.00     0.053 C 
BRANCH   2   3
ATOM      3  C   UNL     1      61.875 -30.806  16.982  1.00  0.00     0.041 C 
ATOM      4  O   UNL     1      62.316 -31.073  18.131  1.00  0.00    -0.550 OA
ATOM      5  O   UNL     1      61.423 -31.833  16.163  1.00  0.00    -0.550 OA
ENDBRANCH   2   3
ENDBRANCH   1   2
BRANCH   1   6
ATOM      6  C   UNL     1      63.242 -29.365  14.413  1.00  0.00     0.000 C 
BRANCH   6   7
ATOM      7  C   UNL     1      62.525 -28.380  13.481  1.00  0.00    -0.000 C 
BRANCH   7   8
ATOM      8  C   UNL     1      62.835 -26.930  13.868  1.00  0.00    -0.003 C 
ATOM      9  C   UNL     1      62.557 -25.979  12.709  1.00  0.00     0.004 C 
ENDBRANCH   7   8
ENDBRANCH   6   7
ENDBRANCH   1   6
TORSDOF 5
ENDMDL
MODEL 8
REMARK VINA RESULT:    -3.345      5.181      6.816
REMARK INTER + INTRA:          -4.523
REMARK INTER:                  -4.172
REMARK INTRA:                  -0.351
REMARK UNBOUND:                -0.199
REMARK SMILES CCCCCCC(=O)[O-]
REMARK SMILES IDX 5 1 6 2 7 3 8 4 9 5 4 6 3 7 2 8 1 9
REMARK H PARENT
REMARK Flexibility Score: inf
ROOT
ATOM      1  C   UNL     1      69.420 -34.530   7.384  1.00  0.00     0.006 C 
ENDROOT
BRANCH   1   2
ATOM      2  C   UNL     1      70.198 -35.805   7.035  1.00  0.00     0.053 C 
BRANCH   2   3
ATOM      3  C   UNL     1      70.914 -36.365   8.226  1.00  0.00     0.041 C 
ATOM      4  O   UNL     1      72.136 -36.117   8.404  1.00  0.00    -0.550 OA
ATOM      5  O   UNL     1      70.224 -37.130   9.158  1.00  0.00    -0.550 OA
ENDBRANCH   2   3
ENDBRANCH   1   2
BRANCH   1   6
ATOM      6  C   UNL     1      69.865 -33.328   6.539  1.00  0.00     0.000 C 
BRANCH   6   7
ATOM      7  C   UNL     1      71.336 -32.984   6.804  1.00  0.00    -0.000 C 
BRANCH   7   8
ATOM      8  C   UNL     1      72.158 -33.048   5.512  1.00  0.00    -0.003 C 
ATOM      9  C   UNL     1      73.228 -34.132   5.593  1.00  0.00     0.004 C 
ENDBRANCH   7   8
ENDBRANCH   6   7
ENDBRANCH   1   6
TORSDOF 5
ENDMDL
MODEL 9
REMARK VINA RESULT:    -3.321     10.865     11.599
REMARK INTER + INTRA:          -4.492
REMARK INTER:                  -4.253
REMARK INTRA:                  -0.239
REMARK UNBOUND:                -0.199
REMARK SMILES CCCCCCC(=O)[O-]
REMARK SMILES IDX 5 1 6 2 7 3 8 4 9 5 4 6 3 7 2 8 1 9
REMARK H PARENT
REMARK Flexibility Score: inf
ROOT
ATOM      1  C   UNL     1      74.089 -32.943  22.114  1.00  0.00     0.006 C 
ENDROOT
BRANCH   1   2
ATOM      2  C   UNL     1      74.110 -31.908  20.983  1.00  0.00     0.053 C 
BRANCH   2   3
ATOM      3  C   UNL     1      72.890 -32.001  20.120  1.00  0.00     0.041 C 
ATOM      4  O   UNL     1      72.885 -31.481  18.972  1.00  0.00    -0.550 OA
ATOM      5  O   UNL     1      71.771 -32.693  20.566  1.00  0.00    -0.550 OA
ENDBRANCH   2   3
ENDBRANCH   1   2
BRANCH   1   6
ATOM      6  C   UNL     1      75.377 -33.778  22.163  1.00  0.00     0.000 C 
BRANCH   6   7
ATOM      7  C   UNL     1      75.059 -35.273  22.291  1.00  0.00    -0.000 C 
BRANCH   7   8
ATOM      8  C   UNL     1      73.601 -35.491  22.710  1.00  0.00    -0.003 C 
ATOM      9  C   UNL     1      72.904 -36.480  21.782  1.00  0.00     0.004 C 
ENDBRANCH   7   8
ENDBRANCH   6   7
ENDBRANCH   1   6
TORSDOF 5
ENDMDL
