MODEL 1
REMARK VINA RESULT:    -2.531      0.000      0.000
REMARK INTER + INTRA:          -2.531
REMARK INTER:                  -2.531
REMARK INTRA:                   0.000
REMARK UNBOUND:                 0.000
REMARK SMILES CC(=O)[O-]
REMARK SMILES IDX 1 1 2 2 3 3 4 4
REMARK H PARENT
REMARK Flexibility Score: inf
ROOT
ATOM      1  C   UNL     1     -19.428  42.378  -2.915  1.00  0.00     0.063 C 
ATOM      2  C   UNL     1     -18.580  43.336  -3.679  1.00  0.00     0.038 C 
ATOM      3  O   UNL     1     -19.116  44.224  -4.393  1.00  0.00    -0.550 OA
ATOM      4  O   UNL     1     -17.196  43.220  -3.648  1.00  0.00    -0.550 OA
ENDROOT
TORSDOF 0
ENDMDL
MODEL 2
REMARK VINA RESULT:    -2.482      0.164      1.623
REMARK INTER + INTRA:          -2.482
REMARK INTER:                  -2.482
REMARK INTRA:                   0.000
REMARK UNBOUND:                 0.000
REMARK SMILES CC(=O)[O-]
REMARK SMILES IDX 1 1 2 2 3 3 4 4
REMARK H PARENT
REMARK Flexibility Score: inf
ROOT
ATOM      1  C   UNL     1     -19.385  42.432  -2.935  1.00  0.00     0.063 C 
ATOM      2  C   UNL     1     -18.559  43.345  -3.775  1.00  0.00     0.038 C 
ATOM      3  O   UNL     1     -17.305  43.342  -3.665  1.00  0.00    -0.550 OA
ATOM      4  O   UNL     1     -19.173  44.241  -4.641  1.00  0.00    -0.550 OA
ENDROOT
TORSDOF 0
ENDMDL
MODEL 3
REMARK VINA RESULT:    -2.458      1.345      1.712
REMARK INTER + INTRA:          -2.458
REMARK INTER:                  -2.458
REMARK INTRA:                   0.000
REMARK UNBOUND:                 0.000
REMARK SMILES CC(=O)[O-]
REMARK SMILES IDX 1 1 2 2 3 3 4 4
REMARK H PARENT
REMARK Flexibility Score: inf
ROOT
ATOM      1  C   UNL     1     -19.237  42.627  -3.146  1.00  0.00     0.063 C 
ATOM      2  C   UNL     1     -17.944  42.532  -3.884  1.00  0.00     0.038 C 
ATOM      3  O   UNL     1     -16.998  43.314  -3.603  1.00  0.00    -0.550 OA
ATOM      4  O   UNL     1     -17.798  41.618  -4.919  1.00  0.00    -0.550 OA
ENDROOT
TORSDOF 0
ENDMDL
MODEL 4
REMARK VINA RESULT:    -2.403      1.378      1.760
REMARK INTER + INTRA:          -2.403
REMARK INTER:                  -2.403
REMARK INTRA:                   0.000
REMARK UNBOUND:                 0.000
REMARK SMILES CC(=O)[O-]
REMARK SMILES IDX 1 1 2 2 3 3 4 4
REMARK H PARENT
REMARK Flexibility Score: inf
ROOT
ATOM      1  C   UNL     1     -17.214  43.047  -3.768  1.00  0.00     0.063 C 
ATOM      2  C   UNL     1     -18.682  43.296  -3.699  1.00  0.00     0.038 C 
ATOM      3  O   UNL     1     -19.202  44.207  -4.396  1.00  0.00    -0.550 OA
ATOM      4  O   UNL     1     -19.473  42.561  -2.825  1.00  0.00    -0.550 OA
ENDROOT
TORSDOF 0
ENDMDL
MODEL 5
REMARK VINA RESULT:    -2.334      1.388      2.134
REMARK INTER + INTRA:          -2.334
REMARK INTER:                  -2.334
REMARK INTRA:                   0.000
REMARK UNBOUND:                 0.000
REMARK SMILES CC(=O)[O-]
REMARK SMILES IDX 1 1 2 2 3 3 4 4
REMARK H PARENT
REMARK Flexibility Score: inf
ROOT
ATOM      1  C   UNL     1     -17.860  41.919  -4.731  1.00  0.00     0.063 C 
ATOM      2  C   UNL     1     -17.621  43.098  -3.850  1.00  0.00     0.038 C 
ATOM      3  O   UNL     1     -16.447  43.412  -3.520  1.00  0.00    -0.550 OA
ATOM      4  O   UNL     1     -18.695  43.822  -3.347  1.00  0.00    -0.550 OA
ENDROOT
TORSDOF 0
ENDMDL
MODEL 6
REMARK VINA RESULT:    -2.061     15.443     15.959
REMARK INTER + INTRA:          -2.061
REMARK INTER:                  -2.061
REMARK INTRA:                   0.000
REMARK UNBOUND:                 0.000
REMARK SMILES CC(=O)[O-]
REMARK SMILES IDX 1 1 2 2 3 3 4 4
REMARK H PARENT
REMARK Flexibility Score: inf
ROOT
ATOM      1  C   UNL     1     -33.769  39.690   2.337  1.00  0.00     0.063 C 
ATOM      2  C   UNL     1     -33.347  41.071   1.968  1.00  0.00     0.038 C 
ATOM      3  O   UNL     1     -34.124  41.815   1.315  1.00  0.00    -0.550 OA
ATOM      4  O   UNL     1     -32.075  41.522   2.296  1.00  0.00    -0.550 OA
ENDROOT
TORSDOF 0
ENDMDL
MODEL 7
REMARK VINA RESULT:    -1.882      9.849     10.051
REMARK INTER + INTRA:          -1.882
REMARK INTER:                  -1.882
REMARK INTRA:                   0.000
REMARK UNBOUND:                 0.000
REMARK SMILES CC(=O)[O-]
REMARK SMILES IDX 1 1 2 2 3 3 4 4
REMARK H PARENT
REMARK Flexibility Score: inf
ROOT
ATOM      1  C   UNL     1     -15.408  51.274  -0.644  1.00  0.00     0.063 C 
ATOM      2  C   UNL     1     -16.302  52.227   0.073  1.00  0.00     0.038 C 
ATOM      3  O   UNL     1     -16.932  53.107  -0.569  1.00  0.00    -0.550 OA
ATOM      4  O   UNL     1     -16.401  52.182   1.458  1.00  0.00    -0.550 OA
ENDROOT
TORSDOF 0
ENDMDL
MODEL 8
REMARK VINA RESULT:    -1.761     11.238     11.489
REMARK INTER + INTRA:          -1.761
REMARK INTER:                  -1.761
REMARK INTRA:                   0.000
REMARK UNBOUND:                 0.000
REMARK SMILES CC(=O)[O-]
REMARK SMILES IDX 1 1 2 2 3 3 4 4
REMARK H PARENT
REMARK Flexibility Score: inf
ROOT
ATOM      1  C   UNL     1     -16.506  52.300   0.760  1.00  0.00     0.063 C 
ATOM      2  C   UNL     1     -15.779  52.750   1.981  1.00  0.00     0.038 C 
ATOM      3  O   UNL     1     -14.520  52.747   2.003  1.00  0.00    -0.550 OA
ATOM      4  O   UNL     1     -16.487  53.124   3.116  1.00  0.00    -0.550 OA
ENDROOT
TORSDOF 0
ENDMDL
