MODEL 1
REMARK VINA RESULT:    -5.965      0.000      0.000
REMARK INTER + INTRA:          -6.551
REMARK INTER:                  -6.488
REMARK INTRA:                  -0.063
REMARK UNBOUND:                -0.063
REMARK SMILES COc1cc2ccc(=O)oc2cc1O
REMARK SMILES IDX 3 1 13 2 12 3 11 4 5 5 4 6 6 7 7 8 8 9 9 10 10 11 2 12 1 13
REMARK SMILES IDX 14 14
REMARK H PARENT 14 15
REMARK Flexibility Score: inf
ROOT
ATOM      1  C   UNL     1      10.523  27.654  -1.182  1.00  0.00     0.161 A 
ATOM      2  C   UNL     1       9.554  27.320  -2.149  1.00  0.00     0.161 A 
ATOM      3  C   UNL     1       8.216  27.685  -1.962  1.00  0.00     0.098 A 
ATOM      4  C   UNL     1       7.826  28.384  -0.818  1.00  0.00     0.142 A 
ATOM      5  C   UNL     1       8.788  28.724   0.156  1.00  0.00     0.022 A 
ATOM      6  C   UNL     1      10.129  28.360  -0.027  1.00  0.00     0.062 A 
ATOM      7  C   UNL     1       8.368  29.425   1.291  1.00  0.00     0.019 A 
ATOM      8  C   UNL     1       7.022  29.764   1.428  1.00  0.00     0.094 A 
ATOM      9  C   UNL     1       6.125  29.393   0.420  1.00  0.00     0.336 A 
ATOM     10  O   UNL     1       4.906  29.689   0.524  1.00  0.00    -0.246 OA
ATOM     11  O   UNL     1       6.551  28.727  -0.650  1.00  0.00    -0.423 OA
ENDROOT
BRANCH   1  12
ATOM     12  O   UNL     1      11.856  27.273  -1.401  1.00  0.00    -0.493 OA
ATOM     13  C   UNL     1      12.916  28.175  -1.702  1.00  0.00     0.278 C 
ENDBRANCH   1  12
BRANCH   2  14
ATOM     14  O   UNL     1       9.904  26.622  -3.305  1.00  0.00    -0.504 OA
ATOM     15  H   UNL     1      10.808  26.732  -3.750  1.00  0.00     0.293 HD
ENDBRANCH   2  14
TORSDOF 2
ENDMDL
MODEL 2
REMARK VINA RESULT:    -5.874      9.200     12.396
REMARK INTER + INTRA:          -6.452
REMARK INTER:                  -6.388
REMARK INTRA:                  -0.064
REMARK UNBOUND:                -0.063
REMARK SMILES COc1cc2ccc(=O)oc2cc1O
REMARK SMILES IDX 3 1 13 2 12 3 11 4 5 5 4 6 6 7 7 8 8 9 9 10 10 11 2 12 1 13
REMARK SMILES IDX 14 14
REMARK H PARENT 14 15
REMARK Flexibility Score: inf
ROOT
ATOM      1  C   UNL     1       3.728  38.899   5.504  1.00  0.00     0.161 A 
ATOM      2  C   UNL     1       3.051  38.192   6.517  1.00  0.00     0.161 A 
ATOM      3  C   UNL     1       2.759  36.834   6.356  1.00  0.00     0.098 A 
ATOM      4  C   UNL     1       3.136  36.162   5.191  1.00  0.00     0.142 A 
ATOM      5  C   UNL     1       3.814  36.860   4.170  1.00  0.00     0.022 A 
ATOM      6  C   UNL     1       4.108  38.221   4.327  1.00  0.00     0.062 A 
ATOM      7  C   UNL     1       4.179  36.162   3.014  1.00  0.00     0.019 A 
ATOM      8  C   UNL     1       3.864  34.808   2.904  1.00  0.00     0.094 A 
ATOM      9  C   UNL     1       3.189  34.181   3.958  1.00  0.00     0.336 A 
ATOM     10  O   UNL     1       2.895  32.960   3.879  1.00  0.00    -0.246 OA
ATOM     11  O   UNL     1       2.854  34.870   5.046  1.00  0.00    -0.423 OA
ENDROOT
BRANCH   1  12
ATOM     12  O   UNL     1       4.005  40.261   5.698  1.00  0.00    -0.493 OA
ATOM     13  C   UNL     1       5.288  40.787   6.023  1.00  0.00     0.278 C 
ENDBRANCH   1  12
BRANCH   2  14
ATOM     14  O   UNL     1       2.658  38.827   7.696  1.00  0.00    -0.504 OA
ATOM     15  H   UNL     1       2.942  39.774   7.921  1.00  0.00     0.293 HD
ENDBRANCH   2  14
TORSDOF 2
ENDMDL
MODEL 3
REMARK VINA RESULT:    -5.782      1.308      4.904
REMARK INTER + INTRA:          -6.352
REMARK INTER:                  -6.292
REMARK INTRA:                  -0.060
REMARK UNBOUND:                -0.063
REMARK SMILES COc1cc2ccc(=O)oc2cc1O
REMARK SMILES IDX 3 1 13 2 12 3 11 4 5 5 4 6 6 7 7 8 8 9 9 10 10 11 2 12 1 13
REMARK SMILES IDX 14 14
REMARK H PARENT 14 15
REMARK Flexibility Score: inf
ROOT
ATOM      1  C   UNL     1       7.022  29.937   1.422  1.00  0.00     0.161 A 
ATOM      2  C   UNL     1       6.053  29.625   0.449  1.00  0.00     0.161 A 
ATOM      3  C   UNL     1       6.397  28.855  -0.667  1.00  0.00     0.098 A 
ATOM      4  C   UNL     1       7.703  28.387  -0.829  1.00  0.00     0.142 A 
ATOM      5  C   UNL     1       8.681  28.694   0.140  1.00  0.00     0.022 A 
ATOM      6  C   UNL     1       8.341  29.465   1.259  1.00  0.00     0.062 A 
ATOM      7  C   UNL     1       9.980  28.212  -0.048  1.00  0.00     0.019 A 
ATOM      8  C   UNL     1      10.270  27.448  -1.179  1.00  0.00     0.094 A 
ATOM      9  C   UNL     1       9.249  27.184  -2.098  1.00  0.00     0.336 A 
ATOM     10  O   UNL     1       9.489  26.497  -3.125  1.00  0.00    -0.246 OA
ATOM     11  O   UNL     1       8.021  27.654  -1.894  1.00  0.00    -0.423 OA
ENDROOT
BRANCH   1  12
ATOM     12  O   UNL     1       6.642  30.712   2.530  1.00  0.00    -0.493 OA
ATOM     13  C   UNL     1       7.129  32.022   2.806  1.00  0.00     0.278 C 
ENDBRANCH   1  12
BRANCH   2  14
ATOM     14  O   UNL     1       4.737  30.073   0.574  1.00  0.00    -0.504 OA
ATOM     15  H   UNL     1       3.942  29.462   0.430  1.00  0.00     0.293 HD
ENDBRANCH   2  14
TORSDOF 2
ENDMDL
MODEL 4
REMARK VINA RESULT:    -5.765      1.170      4.793
REMARK INTER + INTRA:          -6.334
REMARK INTER:                  -6.290
REMARK INTRA:                  -0.043
REMARK UNBOUND:                -0.063
REMARK SMILES COc1cc2ccc(=O)oc2cc1O
REMARK SMILES IDX 3 1 13 2 12 3 11 4 5 5 4 6 6 7 7 8 8 9 9 10 10 11 2 12 1 13
REMARK SMILES IDX 14 14
REMARK H PARENT 14 15
REMARK Flexibility Score: inf
ROOT
ATOM      1  C   UNL     1       7.099  28.474  -0.326  1.00  0.00     0.161 A 
ATOM      2  C   UNL     1       7.227  27.632  -1.448  1.00  0.00     0.161 A 
ATOM      3  C   UNL     1       8.495  27.250  -1.902  1.00  0.00     0.098 A 
ATOM      4  C   UNL     1       9.645  27.697  -1.249  1.00  0.00     0.142 A 
ATOM      5  C   UNL     1       9.528  28.541  -0.124  1.00  0.00     0.022 A 
ATOM      6  C   UNL     1       8.260  28.926   0.334  1.00  0.00     0.062 A 
ATOM      7  C   UNL     1      10.697  28.973   0.509  1.00  0.00     0.019 A 
ATOM      8  C   UNL     1      11.935  28.563   0.016  1.00  0.00     0.094 A 
ATOM      9  C   UNL     1      11.974  27.725  -1.105  1.00  0.00     0.336 A 
ATOM     10  O   UNL     1      13.081  27.343  -1.566  1.00  0.00    -0.246 OA
ATOM     11  O   UNL     1      10.846  27.329  -1.688  1.00  0.00    -0.423 OA
ENDROOT
BRANCH   1  12
ATOM     12  O   UNL     1       5.813  28.837   0.103  1.00  0.00    -0.493 OA
ATOM     13  C   UNL     1       5.540  29.790   1.126  1.00  0.00     0.278 C 
ENDBRANCH   1  12
BRANCH   2  14
ATOM     14  O   UNL     1       6.102  27.163  -2.128  1.00  0.00    -0.504 OA
ATOM     15  H   UNL     1       6.050  26.224  -2.503  1.00  0.00     0.293 HD
ENDBRANCH   2  14
TORSDOF 2
ENDMDL
MODEL 5
REMARK VINA RESULT:    -5.752      1.785      5.301
REMARK INTER + INTRA:          -6.319
REMARK INTER:                  -6.290
REMARK INTRA:                  -0.029
REMARK UNBOUND:                -0.063
REMARK SMILES COc1cc2ccc(=O)oc2cc1O
REMARK SMILES IDX 3 1 13 2 12 3 11 4 5 5 4 6 6 7 7 8 8 9 9 10 10 11 2 12 1 13
REMARK SMILES IDX 14 14
REMARK H PARENT 14 15
REMARK Flexibility Score: inf
ROOT
ATOM      1  C   UNL     1       5.647  28.397  -0.929  1.00  0.00     0.161 A 
ATOM      2  C   UNL     1       5.883  29.302   0.125  1.00  0.00     0.161 A 
ATOM      3  C   UNL     1       7.180  29.488   0.616  1.00  0.00     0.098 A 
ATOM      4  C   UNL     1       8.253  28.781   0.069  1.00  0.00     0.142 A 
ATOM      5  C   UNL     1       8.027  27.873  -0.986  1.00  0.00     0.022 A 
ATOM      6  C   UNL     1       6.729  27.683  -1.482  1.00  0.00     0.062 A 
ATOM      7  C   UNL     1       9.120  27.179  -1.514  1.00  0.00     0.019 A 
ATOM      8  C   UNL     1      10.392  27.402  -0.987  1.00  0.00     0.094 A 
ATOM      9  C   UNL     1      10.540  28.318   0.060  1.00  0.00     0.336 A 
ATOM     10  O   UNL     1      11.679  28.534   0.550  1.00  0.00    -0.246 OA
ATOM     11  O   UNL     1       9.483  28.965   0.543  1.00  0.00    -0.423 OA
ENDROOT
BRANCH   1  12
ATOM     12  O   UNL     1       4.334  28.235  -1.398  1.00  0.00    -0.493 OA
ATOM     13  C   UNL     1       3.372  27.355  -0.825  1.00  0.00     0.278 C 
ENDBRANCH   1  12
BRANCH   2  14
ATOM     14  O   UNL     1       4.838  30.027   0.698  1.00  0.00    -0.504 OA
ATOM     15  H   UNL     1       4.940  30.518   1.579  1.00  0.00     0.293 HD
ENDBRANCH   2  14
TORSDOF 2
ENDMDL
MODEL 6
REMARK VINA RESULT:    -5.685      1.728      2.584
REMARK INTER + INTRA:          -6.247
REMARK INTER:                  -6.181
REMARK INTRA:                  -0.065
REMARK UNBOUND:                -0.063
REMARK SMILES COc1cc2ccc(=O)oc2cc1O
REMARK SMILES IDX 3 1 13 2 12 3 11 4 5 5 4 6 6 7 7 8 8 9 9 10 10 11 2 12 1 13
REMARK SMILES IDX 14 14
REMARK H PARENT 14 15
REMARK Flexibility Score: inf
ROOT
ATOM      1  C   UNL     1       8.148  27.792  -1.026  1.00  0.00     0.161 A 
ATOM      2  C   UNL     1       6.755  27.742  -1.229  1.00  0.00     0.161 A 
ATOM      3  C   UNL     1       5.905  28.572  -0.491  1.00  0.00     0.098 A 
ATOM      4  C   UNL     1       6.426  29.460   0.453  1.00  0.00     0.142 A 
ATOM      5  C   UNL     1       7.819  29.518   0.664  1.00  0.00     0.022 A 
ATOM      6  C   UNL     1       8.675  28.688  -0.072  1.00  0.00     0.062 A 
ATOM      7  C   UNL     1       8.312  30.416   1.617  1.00  0.00     0.019 A 
ATOM      8  C   UNL     1       7.420  31.221   2.325  1.00  0.00     0.094 A 
ATOM      9  C   UNL     1       6.050  31.108   2.062  1.00  0.00     0.336 A 
ATOM     10  O   UNL     1       5.228  31.825   2.690  1.00  0.00    -0.246 OA
ATOM     11  O   UNL     1       5.608  30.246   1.151  1.00  0.00    -0.423 OA
ENDROOT
BRANCH   1  12
ATOM     12  O   UNL     1       8.973  26.946  -1.783  1.00  0.00    -0.493 OA
ATOM     13  C   UNL     1       9.697  27.347  -2.942  1.00  0.00     0.278 C 
ENDBRANCH   1  12
BRANCH   2  14
ATOM     14  O   UNL     1       6.196  26.869  -2.163  1.00  0.00    -0.504 OA
ATOM     15  H   UNL     1       6.116  25.873  -1.993  1.00  0.00     0.293 HD
ENDBRANCH   2  14
TORSDOF 2
ENDMDL
MODEL 7
REMARK VINA RESULT:    -5.672      1.499      5.048
REMARK INTER + INTRA:          -6.232
REMARK INTER:                  -6.171
REMARK INTRA:                  -0.061
REMARK UNBOUND:                -0.063
REMARK SMILES COc1cc2ccc(=O)oc2cc1O
REMARK SMILES IDX 3 1 13 2 12 3 11 4 5 5 4 6 6 7 7 8 8 9 9 10 10 11 2 12 1 13
REMARK SMILES IDX 14 14
REMARK H PARENT 14 15
REMARK Flexibility Score: inf
ROOT
ATOM      1  C   UNL     1       5.504  28.841  -0.120  1.00  0.00     0.161 A 
ATOM      2  C   UNL     1       5.534  27.988  -1.241  1.00  0.00     0.161 A 
ATOM      3  C   UNL     1       6.754  27.498  -1.721  1.00  0.00     0.098 A 
ATOM      4  C   UNL     1       7.953  27.847  -1.096  1.00  0.00     0.142 A 
ATOM      5  C   UNL     1       7.933  28.701   0.027  1.00  0.00     0.022 A 
ATOM      6  C   UNL     1       6.714  29.195   0.511  1.00  0.00     0.062 A 
ATOM      7  C   UNL     1       9.150  29.034   0.632  1.00  0.00     0.019 A 
ATOM      8  C   UNL     1      10.337  28.517   0.113  1.00  0.00     0.094 A 
ATOM      9  C   UNL     1      10.278  27.676  -1.004  1.00  0.00     0.336 A 
ATOM     10  O   UNL     1      11.338  27.200  -1.488  1.00  0.00    -0.246 OA
ATOM     11  O   UNL     1       9.108  27.376  -1.560  1.00  0.00    -0.423 OA
ENDROOT
BRANCH   1  12
ATOM     12  O   UNL     1       4.264  29.315   0.336  1.00  0.00    -0.493 OA
ATOM     13  C   UNL     1       3.490  28.699   1.361  1.00  0.00     0.278 C 
ENDBRANCH   1  12
BRANCH   2  14
ATOM     14  O   UNL     1       4.358  27.616  -1.893  1.00  0.00    -0.504 OA
ATOM     15  H   UNL     1       4.254  26.716  -2.348  1.00  0.00     0.293 HD
ENDBRANCH   2  14
TORSDOF 2
ENDMDL
MODEL 8
REMARK VINA RESULT:    -5.646      9.055     11.200
REMARK INTER + INTRA:          -6.204
REMARK INTER:                  -6.152
REMARK INTRA:                  -0.052
REMARK UNBOUND:                -0.063
REMARK SMILES COc1cc2ccc(=O)oc2cc1O
REMARK SMILES IDX 3 1 13 2 12 3 11 4 5 5 4 6 6 7 7 8 8 9 9 10 10 11 2 12 1 13
REMARK SMILES IDX 14 14
REMARK H PARENT 14 15
REMARK Flexibility Score: inf
ROOT
ATOM      1  C   UNL     1       2.363  34.010   5.020  1.00  0.00     0.161 A 
ATOM      2  C   UNL     1       3.276  33.784   3.971  1.00  0.00     0.161 A 
ATOM      3  C   UNL     1       3.945  34.859   3.375  1.00  0.00     0.098 A 
ATOM      4  C   UNL     1       3.717  36.166   3.813  1.00  0.00     0.142 A 
ATOM      5  C   UNL     1       2.804  36.402   4.862  1.00  0.00     0.022 A 
ATOM      6  C   UNL     1       2.131  35.329   5.461  1.00  0.00     0.062 A 
ATOM      7  C   UNL     1       2.595  37.721   5.278  1.00  0.00     0.019 A 
ATOM      8  C   UNL     1       3.289  38.756   4.650  1.00  0.00     0.094 A 
ATOM      9  C   UNL     1       4.179  38.445   3.616  1.00  0.00     0.336 A 
ATOM     10  O   UNL     1       4.814  39.364   3.036  1.00  0.00    -0.246 OA
ATOM     11  O   UNL     1       4.358  37.181   3.240  1.00  0.00    -0.423 OA
ENDROOT
BRANCH   1  12
ATOM     12  O   UNL     1       1.709  32.910   5.595  1.00  0.00    -0.493 OA
ATOM     13  C   UNL     1       0.461  32.387   5.151  1.00  0.00     0.278 C 
ENDBRANCH   1  12
BRANCH   2  14
ATOM     14  O   UNL     1       3.532  32.494   3.506  1.00  0.00    -0.504 OA
ATOM     15  H   UNL     1       4.079  32.319   2.671  1.00  0.00     0.293 HD
ENDBRANCH   2  14
TORSDOF 2
ENDMDL
MODEL 9
REMARK VINA RESULT:    -5.552      7.838     10.470
REMARK INTER + INTRA:          -6.101
REMARK INTER:                  -6.036
REMARK INTRA:                  -0.065
REMARK UNBOUND:                -0.063
REMARK SMILES COc1cc2ccc(=O)oc2cc1O
REMARK SMILES IDX 3 1 13 2 12 3 11 4 5 5 4 6 6 7 7 8 8 9 9 10 10 11 2 12 1 13
REMARK SMILES IDX 14 14
REMARK H PARENT 14 15
REMARK Flexibility Score: inf
ROOT
ATOM      1  C   UNL     1       4.279  34.745   2.601  1.00  0.00     0.161 A 
ATOM      2  C   UNL     1       3.707  33.957   3.619  1.00  0.00     0.161 A 
ATOM      3  C   UNL     1       3.209  34.558   4.781  1.00  0.00     0.098 A 
ATOM      4  C   UNL     1       3.272  35.944   4.944  1.00  0.00     0.142 A 
ATOM      5  C   UNL     1       3.843  36.742   3.930  1.00  0.00     0.022 A 
ATOM      6  C   UNL     1       4.343  36.144   2.766  1.00  0.00     0.062 A 
ATOM      7  C   UNL     1       3.893  38.126   4.122  1.00  0.00     0.019 A 
ATOM      8  C   UNL     1       3.382  38.674   5.298  1.00  0.00     0.094 A 
ATOM      9  C   UNL     1       2.831  37.820   6.260  1.00  0.00     0.336 A 
ATOM     10  O   UNL     1       2.365  38.294   7.328  1.00  0.00    -0.246 OA
ATOM     11  O   UNL     1       2.796  36.506   6.052  1.00  0.00    -0.423 OA
ENDROOT
BRANCH   1  12
ATOM     12  O   UNL     1       4.768  34.110   1.449  1.00  0.00    -0.493 OA
ATOM     13  C   UNL     1       6.137  33.789   1.222  1.00  0.00     0.278 C 
ENDBRANCH   1  12
BRANCH   2  14
ATOM     14  O   UNL     1       3.625  32.570   3.494  1.00  0.00    -0.504 OA
ATOM     15  H   UNL     1       4.267  32.040   2.916  1.00  0.00     0.293 HD
ENDBRANCH   2  14
TORSDOF 2
ENDMDL
