MODEL 1
REMARK VINA RESULT:    -1.618      0.000      0.000
REMARK INTER + INTRA:          -1.666
REMARK INTER:                  -1.666
REMARK INTRA:                   0.000
REMARK UNBOUND:                 0.000
REMARK SMILES Oc1ccc2[nH]ccc2c1
REMARK SMILES IDX 3 1 4 2 5 3 9 4 8 5 7 6 6 7 10 8 2 9 1 11
REMARK H PARENT 6 10 1 12
REMARK Flexibility Score: inf
ROOT
ATOM      1  C   UNL     1      91.749  17.517 118.873  1.00  0.00     0.048 A 
ATOM      2  C   UNL     1      92.693  16.629 118.323  1.00  0.00     0.030 A 
ATOM      3  C   UNL     1      93.568  15.986 119.196  1.00  0.00     0.046 A 
ATOM      4  C   UNL     1      93.523  16.200 120.548  1.00  0.00     0.003 A 
ATOM      5  C   UNL     1      94.506  15.423 121.121  1.00  0.00     0.028 A 
ATOM      6  C   UNL     1      95.112  14.761 120.058  1.00  0.00     0.083 A 
ATOM      7  N   UNL     1      94.535  15.108 118.884  1.00  0.00    -0.361 N 
ATOM      8  C   UNL     1      92.602  17.071 121.125  1.00  0.00     0.056 A 
ATOM      9  C   UNL     1      91.701  17.740 120.270  1.00  0.00     0.116 A 
ATOM     10  H   UNL     1      94.792  14.763 117.933  1.00  0.00     0.166 HD
ENDROOT
BRANCH   9  11
ATOM     11  O   UNL     1      90.758  18.623 120.789  1.00  0.00    -0.508 OA
ATOM     12  H   UNL     1      89.808  18.328 120.984  1.00  0.00     0.293 HD
ENDBRANCH   9  11
TORSDOF 1
ENDMDL
MODEL 2
REMARK VINA RESULT:    -1.530      2.494      3.568
REMARK INTER + INTRA:          -1.575
REMARK INTER:                  -1.575
REMARK INTRA:                   0.000
REMARK UNBOUND:                 0.000
REMARK SMILES Oc1ccc2[nH]ccc2c1
REMARK SMILES IDX 3 1 4 2 5 3 9 4 8 5 7 6 6 7 10 8 2 9 1 11
REMARK H PARENT 6 10 1 12
REMARK Flexibility Score: inf
ROOT
ATOM      1  C   UNL     1      94.306  15.149 118.966  1.00  0.00     0.048 A 
ATOM      2  C   UNL     1      93.664  16.263 118.395  1.00  0.00     0.030 A 
ATOM      3  C   UNL     1      92.827  17.022 119.211  1.00  0.00     0.046 A 
ATOM      4  C   UNL     1      92.627  16.706 120.528  1.00  0.00     0.003 A 
ATOM      5  C   UNL     1      91.758  17.640 121.049  1.00  0.00     0.028 A 
ATOM      6  C   UNL     1      91.468  18.497 119.990  1.00  0.00     0.083 A 
ATOM      7  N   UNL     1      92.125  18.115 118.870  1.00  0.00    -0.361 N 
ATOM      8  C   UNL     1      93.247  15.611 121.125  1.00  0.00     0.056 A 
ATOM      9  C   UNL     1      94.100  14.821 120.327  1.00  0.00     0.116 A 
ATOM     10  H   UNL     1      92.089  18.577 117.935  1.00  0.00     0.166 HD
ENDROOT
BRANCH   9  11
ATOM     11  O   UNL     1      94.748  13.713 120.869  1.00  0.00    -0.508 OA
ATOM     12  H   UNL     1      95.750  13.708 121.019  1.00  0.00     0.293 HD
ENDBRANCH   9  11
TORSDOF 1
ENDMDL
MODEL 3
REMARK VINA RESULT:     0.103      6.631      7.947
REMARK INTER + INTRA:           0.107
REMARK INTER:                   0.107
REMARK INTRA:                   0.000
REMARK UNBOUND:                 0.000
REMARK SMILES Oc1ccc2[nH]ccc2c1
REMARK SMILES IDX 3 1 4 2 5 3 9 4 8 5 7 6 6 7 10 8 2 9 1 11
REMARK H PARENT 6 10 1 12
REMARK Flexibility Score: inf
ROOT
ATOM      1  C   UNL     1      84.377  16.559 120.396  1.00  0.00     0.048 A 
ATOM      2  C   UNL     1      85.772  16.508 120.218  1.00  0.00     0.030 A 
ATOM      3  C   UNL     1      86.507  17.658 120.500  1.00  0.00     0.046 A 
ATOM      4  C   UNL     1      85.904  18.808 120.938  1.00  0.00     0.003 A 
ATOM      5  C   UNL     1      86.895  19.747 121.125  1.00  0.00     0.028 A 
ATOM      6  C   UNL     1      88.079  19.100 120.780  1.00  0.00     0.083 A 
ATOM      7  N   UNL     1      87.836  17.824 120.400  1.00  0.00    -0.361 N 
ATOM      8  C   UNL     1      84.527  18.892 121.125  1.00  0.00     0.056 A 
ATOM      9  C   UNL     1      83.752  17.746 120.848  1.00  0.00     0.116 A 
ATOM     10  H   UNL     1      88.540  17.117 120.091  1.00  0.00     0.166 HD
ENDROOT
BRANCH   9  11
ATOM     11  O   UNL     1      82.370  17.770 121.016  1.00  0.00    -0.508 OA
ATOM     12  H   UNL     1      81.839  16.917 121.147  1.00  0.00     0.293 HD
ENDBRANCH   9  11
TORSDOF 1
ENDMDL
MODEL 4
REMARK VINA RESULT:     0.352      6.463      7.978
REMARK INTER + INTRA:           0.362
REMARK INTER:                   0.362
REMARK INTRA:                   0.000
REMARK UNBOUND:                 0.000
REMARK SMILES Oc1ccc2[nH]ccc2c1
REMARK SMILES IDX 3 1 4 2 5 3 9 4 8 5 7 6 6 7 10 8 2 9 1 11
REMARK H PARENT 6 10 1 12
REMARK Flexibility Score: inf
ROOT
ATOM      1  C   UNL     1      87.820  18.783 120.541  1.00  0.00     0.048 A 
ATOM      2  C   UNL     1      87.244  17.516 120.336  1.00  0.00     0.030 A 
ATOM      3  C   UNL     1      85.870  17.387 120.528  1.00  0.00     0.046 A 
ATOM      4  C   UNL     1      85.093  18.450 120.903  1.00  0.00     0.003 A 
ATOM      5  C   UNL     1      83.796  17.996 121.006  1.00  0.00     0.028 A 
ATOM      6  C   UNL     1      83.857  16.645 120.678  1.00  0.00     0.083 A 
ATOM      7  N   UNL     1      85.126  16.278 120.387  1.00  0.00    -0.361 N 
ATOM      8  C   UNL     1      85.631  19.717 121.114  1.00  0.00     0.056 A 
ATOM      9  C   UNL     1      87.019  19.883 120.929  1.00  0.00     0.116 A 
ATOM     10  H   UNL     1      85.456  15.326 120.111  1.00  0.00     0.166 HD
ENDROOT
BRANCH   9  11
ATOM     11  O   UNL     1      87.614  21.127 121.125  1.00  0.00    -0.508 OA
ATOM     12  H   UNL     1      87.102  21.988 120.971  1.00  0.00     0.293 HD
ENDBRANCH   9  11
TORSDOF 1
ENDMDL
MODEL 5
REMARK VINA RESULT:     0.424      1.296      2.017
REMARK INTER + INTRA:           0.437
REMARK INTER:                   0.437
REMARK INTRA:                   0.000
REMARK UNBOUND:                 0.000
REMARK SMILES Oc1ccc2[nH]ccc2c1
REMARK SMILES IDX 3 1 4 2 5 3 9 4 8 5 7 6 6 7 10 8 2 9 1 11
REMARK H PARENT 6 10 1 12
REMARK Flexibility Score: inf
ROOT
ATOM      1  C   UNL     1      91.791  17.759 120.349  1.00  0.00     0.048 A 
ATOM      2  C   UNL     1      92.299  16.701 121.125  1.00  0.00     0.030 A 
ATOM      3  C   UNL     1      93.288  15.897 120.562  1.00  0.00     0.046 A 
ATOM      4  C   UNL     1      93.762  16.118 119.296  1.00  0.00     0.003 A 
ATOM      5  C   UNL     1      94.722  15.163 119.042  1.00  0.00     0.028 A 
ATOM      6  C   UNL     1      94.781  14.391 120.199  1.00  0.00     0.083 A 
ATOM      7  N   UNL     1      93.904  14.844 121.125  1.00  0.00    -0.361 N 
ATOM      8  C   UNL     1      93.281  17.156 118.502  1.00  0.00     0.056 A 
ATOM      9  C   UNL     1      92.278  17.989 119.040  1.00  0.00     0.116 A 
ATOM     10  H   UNL     1      93.742  14.453 122.079  1.00  0.00     0.166 HD
ENDROOT
BRANCH   9  11
ATOM     11  O   UNL     1      91.759  19.044 118.293  1.00  0.00    -0.508 OA
ATOM     12  H   UNL     1      92.077  19.996 118.430  1.00  0.00     0.293 HD
ENDBRANCH   9  11
TORSDOF 1
ENDMDL
MODEL 6
REMARK VINA RESULT:     0.633      2.446      2.866
REMARK INTER + INTRA:           0.652
REMARK INTER:                   0.652
REMARK INTRA:                   0.000
REMARK UNBOUND:                 0.000
REMARK SMILES Oc1ccc2[nH]ccc2c1
REMARK SMILES IDX 3 1 4 2 5 3 9 4 8 5 7 6 6 7 10 8 2 9 1 11
REMARK H PARENT 6 10 1 12
REMARK Flexibility Score: inf
ROOT
ATOM      1  C   UNL     1      93.350  16.066 119.173  1.00  0.00     0.048 A 
ATOM      2  C   UNL     1      94.383  16.744 118.501  1.00  0.00     0.030 A 
ATOM      3  C   UNL     1      95.598  16.904 119.166  1.00  0.00     0.046 A 
ATOM      4  C   UNL     1      95.794  16.421 120.432  1.00  0.00     0.003 A 
ATOM      5  C   UNL     1      97.084  16.738 120.799  1.00  0.00     0.028 A 
ATOM      6  C   UNL     1      97.616  17.416 119.706  1.00  0.00     0.083 A 
ATOM      7  N   UNL     1      96.704  17.514 118.711  1.00  0.00    -0.361 N 
ATOM      8  C   UNL     1      94.793  15.744 121.125  1.00  0.00     0.056 A 
ATOM      9  C   UNL     1      93.551  15.566 120.482  1.00  0.00     0.116 A 
ATOM     10  H   UNL     1      96.837  17.972 117.782  1.00  0.00     0.166 HD
ENDROOT
BRANCH   9  11
ATOM     11  O   UNL     1      92.512  14.897 121.125  1.00  0.00    -0.508 OA
ATOM     12  H   UNL     1      91.833  14.351 120.607  1.00  0.00     0.293 HD
ENDBRANCH   9  11
TORSDOF 1
ENDMDL
