MODEL 1
REMARK VINA RESULT:    -4.714      0.000      0.000
REMARK INTER + INTRA:          -6.297
REMARK INTER:                  -6.092
REMARK INTRA:                  -0.205
REMARK UNBOUND:                -0.205
REMARK SMILES C=CC(=O)CCCCC
REMARK SMILES IDX 6 1 7 2 8 3 9 4 5 5 3 6 4 7 2 8 1 9
REMARK H PARENT
REMARK Flexibility Score: inf
ROOT
ATOM      1  C   UNL     1      -5.877 -14.675  28.367  1.00  0.00     0.008 C 
ENDROOT
BRANCH   1   2
ATOM      2  C   UNL     1      -6.118 -15.102  29.823  1.00  0.00     0.000 C 
BRANCH   2   3
ATOM      3  C   UNL     1      -5.106 -14.480  30.797  1.00  0.00    -0.003 C 
ATOM      4  C   UNL     1      -5.293 -15.029  32.209  1.00  0.00     0.004 C 
ENDBRANCH   2   3
ENDBRANCH   1   2
BRANCH   1   5
ATOM      5  C   UNL     1      -5.247 -13.280  28.257  1.00  0.00     0.080 C 
BRANCH   5   6
ATOM      6  C   UNL     1      -3.960 -13.345  27.488  1.00  0.00     0.155 C 
ATOM      7  O   UNL     1      -3.051 -14.131  27.870  1.00  0.00    -0.295 OA
BRANCH   6   8
ATOM      8  C   UNL     1      -3.784 -12.527  26.271  1.00  0.00     0.039 C 
ATOM      9  C   UNL     1      -2.975 -11.470  26.232  1.00  0.00     0.012 C 
ENDBRANCH   6   8
ENDBRANCH   5   6
ENDBRANCH   1   5
TORSDOF 5
ENDMDL
MODEL 2
REMARK VINA RESULT:    -4.621      1.652      4.420
REMARK INTER + INTRA:          -6.177
REMARK INTER:                  -5.825
REMARK INTRA:                  -0.352
REMARK UNBOUND:                -0.205
REMARK SMILES C=CC(=O)CCCCC
REMARK SMILES IDX 6 1 7 2 8 3 9 4 5 5 3 6 4 7 2 8 1 9
REMARK H PARENT
REMARK Flexibility Score: inf
ROOT
ATOM      1  C   UNL     1      -4.891 -14.603  27.105  1.00  0.00     0.008 C 
ENDROOT
BRANCH   1   2
ATOM      2  C   UNL     1      -4.110 -13.556  26.295  1.00  0.00     0.000 C 
BRANCH   2   3
ATOM      3  C   UNL     1      -3.707 -12.337  27.138  1.00  0.00    -0.003 C 
ATOM      4  C   UNL     1      -2.975 -11.301  26.291  1.00  0.00     0.004 C 
ENDBRANCH   2   3
ENDBRANCH   1   2
BRANCH   1   5
ATOM      5  C   UNL     1      -5.788 -13.972  28.178  1.00  0.00     0.080 C 
BRANCH   5   6
ATOM      6  C   UNL     1      -5.926 -14.893  29.354  1.00  0.00     0.155 C 
ATOM      7  O   UNL     1      -6.596 -15.954  29.233  1.00  0.00    -0.295 OA
BRANCH   6   8
ATOM      8  C   UNL     1      -5.244 -14.576  30.625  1.00  0.00     0.039 C 
ATOM      9  C   UNL     1      -4.216 -13.733  30.694  1.00  0.00     0.012 C 
ENDBRANCH   6   8
ENDBRANCH   5   6
ENDBRANCH   1   5
TORSDOF 5
ENDMDL
MODEL 3
REMARK VINA RESULT:    -4.532      2.193      4.275
REMARK INTER + INTRA:          -6.061
REMARK INTER:                  -5.707
REMARK INTRA:                  -0.354
REMARK UNBOUND:                -0.205
REMARK SMILES C=CC(=O)CCCCC
REMARK SMILES IDX 6 1 7 2 8 3 9 4 5 5 3 6 4 7 2 8 1 9
REMARK H PARENT
REMARK Flexibility Score: inf
ROOT
ATOM      1  C   UNL     1      -4.089 -13.701  29.153  1.00  0.00     0.008 C 
ENDROOT
BRANCH   1   2
ATOM      2  C   UNL     1      -5.313 -13.287  28.322  1.00  0.00     0.000 C 
BRANCH   2   3
ATOM      3  C   UNL     1      -6.221 -14.476  27.977  1.00  0.00    -0.003 C 
ATOM      4  C   UNL     1      -6.440 -15.372  29.193  1.00  0.00     0.004 C 
ENDBRANCH   2   3
ENDBRANCH   1   2
BRANCH   1   5
ATOM      5  C   UNL     1      -3.696 -12.644  30.194  1.00  0.00     0.080 C 
BRANCH   5   6
ATOM      6  C   UNL     1      -3.343 -13.298  31.497  1.00  0.00     0.155 C 
ATOM      7  O   UNL     1      -2.131 -13.506  31.776  1.00  0.00    -0.295 OA
BRANCH   6   8
ATOM      8  C   UNL     1      -4.406 -13.651  32.459  1.00  0.00     0.039 C 
ATOM      9  C   UNL     1      -4.998 -14.844  32.465  1.00  0.00     0.012 C 
ENDBRANCH   6   8
ENDBRANCH   5   6
ENDBRANCH   1   5
TORSDOF 5
ENDMDL
MODEL 4
REMARK VINA RESULT:    -4.510      1.502      1.977
REMARK INTER + INTRA:          -6.033
REMARK INTER:                  -5.785
REMARK INTRA:                  -0.247
REMARK UNBOUND:                -0.205
REMARK SMILES C=CC(=O)CCCCC
REMARK SMILES IDX 6 1 7 2 8 3 9 4 5 5 3 6 4 7 2 8 1 9
REMARK H PARENT
REMARK Flexibility Score: inf
ROOT
ATOM      1  C   UNL     1      -5.600 -13.231  28.356  1.00  0.00     0.008 C 
ENDROOT
BRANCH   1   2
ATOM      2  C   UNL     1      -5.973 -14.671  27.971  1.00  0.00     0.000 C 
BRANCH   2   3
ATOM      3  C   UNL     1      -6.639 -15.436  29.124  1.00  0.00    -0.003 C 
ATOM      4  C   UNL     1      -8.076 -15.813  28.775  1.00  0.00     0.004 C 
ENDBRANCH   2   3
ENDBRANCH   1   2
BRANCH   1   5
ATOM      5  C   UNL     1      -4.153 -13.107  28.854  1.00  0.00     0.080 C 
BRANCH   5   6
ATOM      6  C   UNL     1      -3.189 -13.419  27.748  1.00  0.00     0.155 C 
ATOM      7  O   UNL     1      -2.306 -14.301  27.928  1.00  0.00    -0.295 OA
BRANCH   6   8
ATOM      8  C   UNL     1      -3.307 -12.729  26.448  1.00  0.00     0.039 C 
ATOM      9  C   UNL     1      -3.053 -11.430  26.303  1.00  0.00     0.012 C 
ENDBRANCH   6   8
ENDBRANCH   5   6
ENDBRANCH   1   5
TORSDOF 5
ENDMDL
MODEL 5
REMARK VINA RESULT:    -4.489      1.812      3.098
REMARK INTER + INTRA:          -6.005
REMARK INTER:                  -5.613
REMARK INTRA:                  -0.392
REMARK UNBOUND:                -0.205
REMARK SMILES C=CC(=O)CCCCC
REMARK SMILES IDX 6 1 7 2 8 3 9 4 5 5 3 6 4 7 2 8 1 9
REMARK H PARENT
REMARK Flexibility Score: inf
ROOT
ATOM      1  C   UNL     1      -3.853 -13.598  29.778  1.00  0.00     0.008 C 
ENDROOT
BRANCH   1   2
ATOM      2  C   UNL     1      -4.078 -12.940  31.148  1.00  0.00     0.000 C 
BRANCH   2   3
ATOM      3  C   UNL     1      -4.057 -13.954  32.301  1.00  0.00    -0.003 C 
ATOM      4  C   UNL     1      -5.246 -14.907  32.217  1.00  0.00     0.004 C 
ENDBRANCH   2   3
ENDBRANCH   1   2
BRANCH   1   5
ATOM      5  C   UNL     1      -4.725 -12.983  28.675  1.00  0.00     0.080 C 
BRANCH   5   6
ATOM      6  C   UNL     1      -5.388 -14.060  27.869  1.00  0.00     0.155 C 
ATOM      7  O   UNL     1      -4.808 -14.511  26.845  1.00  0.00    -0.295 OA
BRANCH   6   8
ATOM      8  C   UNL     1      -6.686 -14.614  28.302  1.00  0.00     0.039 C 
ATOM      9  C   UNL     1      -6.784 -15.738  29.010  1.00  0.00     0.012 C 
ENDBRANCH   6   8
ENDBRANCH   5   6
ENDBRANCH   1   5
TORSDOF 5
ENDMDL
MODEL 6
REMARK VINA RESULT:    -4.484      1.955      4.234
REMARK INTER + INTRA:          -6.000
REMARK INTER:                  -5.469
REMARK INTRA:                  -0.530
REMARK UNBOUND:                -0.205
REMARK SMILES C=CC(=O)CCCCC
REMARK SMILES IDX 6 1 7 2 8 3 9 4 5 5 3 6 4 7 2 8 1 9
REMARK H PARENT
REMARK Flexibility Score: inf
ROOT
ATOM      1  C   UNL     1      -4.122 -12.058  29.773  1.00  0.00     0.008 C 
ENDROOT
BRANCH   1   2
ATOM      2  C   UNL     1      -4.039 -11.195  28.504  1.00  0.00     0.000 C 
BRANCH   2   3
ATOM      3  C   UNL     1      -2.873 -11.598  27.590  1.00  0.00    -0.003 C 
ATOM      4  C   UNL     1      -3.234 -11.401  26.120  1.00  0.00     0.004 C 
ENDBRANCH   2   3
ENDBRANCH   1   2
BRANCH   1   5
ATOM      5  C   UNL     1      -3.833 -13.541  29.499  1.00  0.00     0.080 C 
BRANCH   5   6
ATOM      6  C   UNL     1      -5.111 -14.327  29.473  1.00  0.00     0.155 C 
ATOM      7  O   UNL     1      -5.582 -14.777  30.553  1.00  0.00    -0.295 OA
BRANCH   6   8
ATOM      8  C   UNL     1      -5.828 -14.530  28.199  1.00  0.00     0.039 C 
ATOM      9  C   UNL     1      -5.232 -14.404  27.015  1.00  0.00     0.012 C 
ENDBRANCH   6   8
ENDBRANCH   5   6
ENDBRANCH   1   5
TORSDOF 5
ENDMDL
MODEL 7
REMARK VINA RESULT:    -4.478      2.004      4.530
REMARK INTER + INTRA:          -5.992
REMARK INTER:                  -5.575
REMARK INTRA:                  -0.417
REMARK UNBOUND:                -0.205
REMARK SMILES C=CC(=O)CCCCC
REMARK SMILES IDX 6 1 7 2 8 3 9 4 5 5 3 6 4 7 2 8 1 9
REMARK H PARENT
REMARK Flexibility Score: inf
ROOT
ATOM      1  C   UNL     1      -5.041 -12.930  28.362  1.00  0.00     0.008 C 
ENDROOT
BRANCH   1   2
ATOM      2  C   UNL     1      -4.502 -11.496  28.479  1.00  0.00     0.000 C 
BRANCH   2   3
ATOM      3  C   UNL     1      -3.134 -11.322  27.803  1.00  0.00    -0.003 C 
ATOM      4  C   UNL     1      -3.233 -11.546  26.296  1.00  0.00     0.004 C 
ENDBRANCH   2   3
ENDBRANCH   1   2
BRANCH   1   5
ATOM      5  C   UNL     1      -4.184 -13.948  29.127  1.00  0.00     0.080 C 
BRANCH   5   6
ATOM      6  C   UNL     1      -4.699 -14.121  30.525  1.00  0.00     0.155 C 
ATOM      7  O   UNL     1      -5.686 -14.879  30.732  1.00  0.00    -0.295 OA
BRANCH   6   8
ATOM      8  C   UNL     1      -4.026 -13.441  31.650  1.00  0.00     0.039 C 
ATOM      9  C   UNL     1      -2.760 -13.034  31.585  1.00  0.00     0.012 C 
ENDBRANCH   6   8
ENDBRANCH   5   6
ENDBRANCH   1   5
TORSDOF 5
ENDMDL
MODEL 8
REMARK VINA RESULT:    -4.417      2.827      3.864
REMARK INTER + INTRA:          -5.912
REMARK INTER:                  -5.662
REMARK INTRA:                  -0.251
REMARK UNBOUND:                -0.205
REMARK SMILES C=CC(=O)CCCCC
REMARK SMILES IDX 6 1 7 2 8 3 9 4 5 5 3 6 4 7 2 8 1 9
REMARK H PARENT
REMARK Flexibility Score: inf
ROOT
ATOM      1  C   UNL     1      -2.956 -13.959  28.089  1.00  0.00     0.008 C 
ENDROOT
BRANCH   1   2
ATOM      2  C   UNL     1      -4.189 -13.905  29.003  1.00  0.00     0.000 C 
BRANCH   2   3
ATOM      3  C   UNL     1      -5.509 -13.950  28.219  1.00  0.00    -0.003 C 
ATOM      4  C   UNL     1      -6.390 -15.104  28.691  1.00  0.00     0.004 C 
ENDBRANCH   2   3
ENDBRANCH   1   2
BRANCH   1   5
ATOM      5  C   UNL     1      -1.892 -12.919  28.468  1.00  0.00     0.080 C 
BRANCH   5   6
ATOM      6  C   UNL     1      -0.706 -13.588  29.096  1.00  0.00     0.155 C 
ATOM      7  O   UNL     1       0.006 -14.363  28.402  1.00  0.00    -0.295 OA
BRANCH   6   8
ATOM      8  C   UNL     1      -0.355 -13.303  30.502  1.00  0.00     0.039 C 
ATOM      9  C   UNL     1      -1.250 -13.354  31.486  1.00  0.00     0.012 C 
ENDBRANCH   6   8
ENDBRANCH   5   6
ENDBRANCH   1   5
TORSDOF 5
ENDMDL
MODEL 9
REMARK VINA RESULT:    -4.382      3.221      4.135
REMARK INTER + INTRA:          -5.868
REMARK INTER:                  -5.380
REMARK INTRA:                  -0.487
REMARK UNBOUND:                -0.205
REMARK SMILES C=CC(=O)CCCCC
REMARK SMILES IDX 6 1 7 2 8 3 9 4 5 5 3 6 4 7 2 8 1 9
REMARK H PARENT
REMARK Flexibility Score: inf
ROOT
ATOM      1  C   UNL     1      -3.424 -12.769  31.046  1.00  0.00     0.008 C 
ENDROOT
BRANCH   1   2
ATOM      2  C   UNL     1      -4.449 -13.813  30.575  1.00  0.00     0.000 C 
BRANCH   2   3
ATOM      3  C   UNL     1      -4.513 -13.928  29.045  1.00  0.00    -0.003 C 
ATOM      4  C   UNL     1      -4.858 -12.585  28.407  1.00  0.00     0.004 C 
ENDBRANCH   2   3
ENDBRANCH   1   2
BRANCH   1   5
ATOM      5  C   UNL     1      -2.180 -13.405  31.680  1.00  0.00     0.080 C 
BRANCH   5   6
ATOM      6  C   UNL     1      -0.941 -12.967  30.957  1.00  0.00     0.155 C 
ATOM      7  O   UNL     1       0.057 -12.577  31.621  1.00  0.00    -0.295 OA
BRANCH   6   8
ATOM      8  C   UNL     1      -0.881 -13.037  29.483  1.00  0.00     0.039 C 
ATOM      9  C   UNL     1      -0.480 -14.129  28.835  1.00  0.00     0.012 C 
ENDBRANCH   6   8
ENDBRANCH   5   6
ENDBRANCH   1   5
TORSDOF 5
ENDMDL
