MODEL 1
REMARK VINA RESULT:    -1.566      0.000      0.000
REMARK INTER + INTRA:          -2.785
REMARK INTER:                  -2.390
REMARK INTRA:                  -0.396
REMARK UNBOUND:                -0.396
REMARK SMILES CC1=CCC[C@H](C)C(=O)C[C@H](C(C)C)C(=O)C1
REMARK SMILES IDX 8 1 9 2 6 3 7 4 5 5 4 6 3 7 2 8 1 9 10 11 11 12 15 13 16 14
REMARK SMILES IDX 17 15 12 17 13 18 14 19
REMARK H PARENT
REMARK Flexibility Score: 70.00
ROOT
ATOM      1  C   UNL     1     121.841  85.410  54.303  1.00  0.00     0.136 C 
ATOM      2  O   UNL     1     121.108  85.431  53.323  1.00  0.00    -0.299 OA
ENDROOT
BRANCH   1   3
ATOM      3  C   UNL     1     122.885  86.497  54.495  1.00  0.00     0.053 C 
ATOM      4  C   UNL     1     123.806  86.651  53.274  1.00  0.00     0.016 C 
BRANCH   3   5
ATOM      5  C   UNL     1     122.274  87.846  54.944  1.00  0.00     0.015 C 
BRANCH   5   6
ATOM      6  C   UNL     1     122.190  88.139  56.458  1.00  0.00     0.028 C 
BRANCH   6   7
ATOM      7  C   UNL     1     120.895  87.797  57.161  1.00  0.00    -0.028 C 
ATOM      8  C   UNL     1     120.732  86.900  58.162  1.00  0.00    -0.070 CG0
ATOM      9  C   UNL     1     119.387  86.847  58.843  1.00  0.00     0.039 C 
ATOM     10  G   UNL     1     121.788  85.898  58.582  1.00  0.00     0.000 G0
ENDBRANCH   6   7
ENDBRANCH   5   6
ENDBRANCH   3   5
ENDBRANCH   1   3
BRANCH   1  11
ATOM     11  C   UNL     1     121.691  84.277  55.298  1.00  0.00     0.087 C 
BRANCH  11  12
ATOM     12  C   UNL     1     122.574  84.429  56.567  1.00  0.00     0.066 C 
BRANCH  12  13
ATOM     13  C   UNL     1     121.699  84.634  57.792  1.00  0.00     0.140 C 
ATOM     14  O   UNL     1     120.895  83.766  58.106  1.00  0.00    -0.299 OA
BRANCH  13  15
ATOM     15  C   UNL     1     121.778  85.898  58.617  1.00  0.00     0.106 CG0
ATOM     16  G   UNL     1     120.735  86.890  58.145  1.00  0.00     0.000 G0
ENDBRANCH  13  15
ENDBRANCH  12  13
BRANCH  12  17
ATOM     17  C   UNL     1     123.537  83.216  56.766  1.00  0.00    -0.006 C 
ATOM     18  C   UNL     1     124.887  83.456  56.067  1.00  0.00     0.008 C 
ATOM     19  C   UNL     1     122.929  81.904  56.239  1.00  0.00     0.008 C 
ENDBRANCH  12  17
ENDBRANCH  11  12
ENDBRANCH   1  11
TORSDOF 1
ENDMDL
MODEL 2
REMARK VINA RESULT:    -1.469     12.763     14.984
REMARK INTER + INTRA:          -2.637
REMARK INTER:                  -2.602
REMARK INTRA:                  -0.035
REMARK UNBOUND:                -0.396
REMARK SMILES CC1=CCC[C@H](C)C(=O)C[C@H](C(C)C)C(=O)C1
REMARK SMILES IDX 8 1 9 2 6 3 7 4 5 5 4 6 3 7 2 8 1 9 10 11 11 12 15 13 16 14
REMARK SMILES IDX 17 15 12 17 13 18 14 19
REMARK H PARENT
REMARK Flexibility Score: 70.00
ROOT
ATOM      1  C   UNL     1     107.517  84.470  56.089  1.00  0.00     0.136 C 
ATOM      2  O   UNL     1     108.565  83.887  55.851  1.00  0.00    -0.299 OA
ENDROOT
BRANCH   1   3
ATOM      3  C   UNL     1     106.193  83.854  55.671  1.00  0.00     0.053 C 
ATOM      4  C   UNL     1     105.122  83.955  56.770  1.00  0.00     0.016 C 
BRANCH   3   5
ATOM      5  C   UNL     1     105.686  84.382  54.307  1.00  0.00     0.015 C 
BRANCH   5   6
ATOM      6  C   UNL     1     105.300  85.874  54.202  1.00  0.00     0.028 C 
BRANCH   6   7
ATOM      7  C   UNL     1     106.178  86.759  53.345  1.00  0.00    -0.028 C 
ATOM      8  C   UNL     1     107.043  87.704  53.783  1.00  0.00    -0.070 CG0
ATOM      9  C   UNL     1     107.954  88.346  52.765  1.00  0.00     0.039 C 
ATOM     10  G   UNL     1     107.095  88.210  55.211  1.00  0.00     0.000 G0
ENDBRANCH   6   7
ENDBRANCH   5   6
ENDBRANCH   3   5
ENDBRANCH   1   3
BRANCH   1  11
ATOM     11  C   UNL     1     107.574  85.813  56.789  1.00  0.00     0.087 C 
BRANCH  11  12
ATOM     12  C   UNL     1     108.849  86.641  56.468  1.00  0.00     0.066 C 
BRANCH  12  13
ATOM     13  C   UNL     1     108.467  87.959  55.816  1.00  0.00     0.140 C 
ATOM     14  O   UNL     1     109.287  88.867  55.778  1.00  0.00    -0.299 OA
BRANCH  13  15
ATOM     15  C   UNL     1     107.089  88.185  55.239  1.00  0.00     0.106 CG0
ATOM     16  G   UNL     1     107.052  87.728  53.795  1.00  0.00     0.000 G0
ENDBRANCH  13  15
ENDBRANCH  12  13
BRANCH  12  17
ATOM     17  C   UNL     1     109.733  86.879  57.732  1.00  0.00    -0.006 C 
ATOM     18  C   UNL     1     111.190  86.448  57.483  1.00  0.00     0.008 C 
ATOM     19  C   UNL     1     109.196  86.127  58.963  1.00  0.00     0.008 C 
ENDBRANCH  12  17
ENDBRANCH  11  12
ENDBRANCH   1  11
TORSDOF 1
ENDMDL
MODEL 3
REMARK VINA RESULT:    -1.449     13.626     15.665
REMARK INTER + INTRA:          -2.607
REMARK INTER:                  -2.195
REMARK INTRA:                  -0.412
REMARK UNBOUND:                -0.396
REMARK SMILES CC1=CCC[C@H](C)C(=O)C[C@H](C(C)C)C(=O)C1
REMARK SMILES IDX 8 1 9 2 6 3 7 4 5 5 4 6 3 7 2 8 1 9 10 11 11 12 15 13 16 14
REMARK SMILES IDX 17 15 12 17 13 18 14 19
REMARK H PARENT
REMARK Flexibility Score: 70.00
ROOT
ATOM      1  C   UNL     1     108.764  84.468  56.119  1.00  0.00     0.136 C 
ATOM      2  O   UNL     1     109.839  83.899  55.992  1.00  0.00    -0.299 OA
ENDROOT
BRANCH   1   3
ATOM      3  C   UNL     1     108.707  85.859  56.726  1.00  0.00     0.053 C 
ATOM      4  C   UNL     1     109.601  85.997  57.969  1.00  0.00     0.016 C 
BRANCH   3   5
ATOM      5  C   UNL     1     108.966  86.979  55.689  1.00  0.00     0.015 C 
BRANCH   5   6
ATOM      6  C   UNL     1     107.754  87.777  55.161  1.00  0.00     0.028 C 
BRANCH   6   7
ATOM      7  C   UNL     1     107.196  87.382  53.812  1.00  0.00    -0.028 C 
ATOM      8  C   UNL     1     105.978  86.844  53.568  1.00  0.00    -0.070 CG0
ATOM      9  C   UNL     1     105.553  86.694  52.129  1.00  0.00     0.039 C 
ATOM     10  G   UNL     1     105.055  86.314  54.647  1.00  0.00     0.000 G0
ENDBRANCH   6   7
ENDBRANCH   5   6
ENDBRANCH   3   5
ENDBRANCH   1   3
BRANCH   1  11
ATOM     11  C   UNL     1     107.505  83.750  55.676  1.00  0.00     0.087 C 
BRANCH  11  12
ATOM     12  C   UNL     1     106.189  84.442  56.128  1.00  0.00     0.066 C 
BRANCH  12  13
ATOM     13  C   UNL     1     105.364  84.839  54.916  1.00  0.00     0.140 C 
ATOM     14  O   UNL     1     104.977  83.971  54.145  1.00  0.00    -0.299 OA
BRANCH  13  15
ATOM     15  C   UNL     1     105.032  86.284  54.625  1.00  0.00     0.106 CG0
ATOM     16  G   UNL     1     105.960  86.822  53.554  1.00  0.00     0.000 G0
ENDBRANCH  13  15
ENDBRANCH  12  13
BRANCH  12  17
ATOM     17  C   UNL     1     105.357  83.550  57.102  1.00  0.00    -0.006 C 
ATOM     18  C   UNL     1     105.303  84.165  58.513  1.00  0.00     0.008 C 
ATOM     19  C   UNL     1     105.922  82.122  57.203  1.00  0.00     0.008 C 
ENDBRANCH  12  17
ENDBRANCH  11  12
ENDBRANCH   1  11
TORSDOF 1
ENDMDL
MODEL 4
REMARK VINA RESULT:    -1.282     13.264     14.981
REMARK INTER + INTRA:          -2.352
REMARK INTER:                  -2.218
REMARK INTRA:                  -0.135
REMARK UNBOUND:                -0.396
REMARK SMILES CC1=CCC[C@H](C)C(=O)C[C@H](C(C)C)C(=O)C1
REMARK SMILES IDX 8 1 9 2 6 3 7 4 5 5 4 6 3 7 2 8 1 9 10 11 11 12 15 13 16 14
REMARK SMILES IDX 17 15 12 17 13 18 14 19
REMARK H PARENT
REMARK Flexibility Score: 70.00
ROOT
ATOM      1  C   UNL     1     107.341  87.706  54.677  1.00  0.00     0.136 C 
ATOM      2  O   UNL     1     107.090  88.770  55.225  1.00  0.00    -0.299 OA
ENDROOT
BRANCH   1   3
ATOM      3  C   UNL     1     106.378  87.135  53.649  1.00  0.00     0.053 C 
ATOM      4  C   UNL     1     107.104  86.500  52.451  1.00  0.00     0.016 C 
BRANCH   3   5
ATOM      5  C   UNL     1     105.327  86.185  54.270  1.00  0.00     0.015 C 
BRANCH   5   6
ATOM      6  C   UNL     1     105.319  84.709  53.812  1.00  0.00     0.028 C 
BRANCH   6   7
ATOM      7  C   UNL     1     105.598  83.655  54.860  1.00  0.00    -0.028 C 
ATOM      8  C   UNL     1     106.815  83.256  55.300  1.00  0.00    -0.070 CG0
ATOM      9  C   UNL     1     106.862  82.320  56.482  1.00  0.00     0.039 C 
ATOM     10  G   UNL     1     108.122  83.628  54.628  1.00  0.00     0.000 G0
ENDBRANCH   6   7
ENDBRANCH   5   6
ENDBRANCH   3   5
ENDBRANCH   1   3
BRANCH   1  11
ATOM     11  C   UNL     1     108.612  86.974  55.057  1.00  0.00     0.087 C 
BRANCH  11  12
ATOM     12  C   UNL     1     108.396  85.812  56.065  1.00  0.00     0.066 C 
BRANCH  12  13
ATOM     13  C   UNL     1     108.963  84.519  55.504  1.00  0.00     0.140 C 
ATOM     14  O   UNL     1     110.123  84.216  55.753  1.00  0.00    -0.299 OA
BRANCH  13  15
ATOM     15  C   UNL     1     108.138  83.613  54.620  1.00  0.00     0.106 CG0
ATOM     16  G   UNL     1     106.835  83.264  55.311  1.00  0.00     0.000 G0
ENDBRANCH  13  15
ENDBRANCH  12  13
BRANCH  12  17
ATOM     17  C   UNL     1     109.007  86.126  57.467  1.00  0.00    -0.006 C 
ATOM     18  C   UNL     1     108.423  85.199  58.549  1.00  0.00     0.008 C 
ATOM     19  C   UNL     1     108.772  87.589  57.886  1.00  0.00     0.008 C 
ENDBRANCH  12  17
ENDBRANCH  11  12
ENDBRANCH   1  11
TORSDOF 1
ENDMDL
MODEL 5
REMARK VINA RESULT:    -1.179      9.562     11.664
REMARK INTER + INTRA:          -2.195
REMARK INTER:                  -1.726
REMARK INTRA:                  -0.469
REMARK UNBOUND:                -0.396
REMARK SMILES CC1=CCC[C@H](C)C(=O)C[C@H](C(C)C)C(=O)C1
REMARK SMILES IDX 8 1 9 2 6 3 7 4 5 5 4 6 3 7 2 8 1 9 10 11 11 12 15 13 16 14
REMARK SMILES IDX 17 15 12 17 13 18 14 19
REMARK H PARENT
REMARK Flexibility Score: 70.00
ROOT
ATOM      1  C   UNL     1     109.447  86.848  54.253  1.00  0.00     0.136 C 
ATOM      2  O   UNL     1     108.808  87.366  53.349  1.00  0.00    -0.299 OA
ENDROOT
BRANCH   1   3
ATOM      3  C   UNL     1     110.264  85.595  53.985  1.00  0.00     0.053 C 
ATOM      4  C   UNL     1     109.431  84.475  53.342  1.00  0.00     0.016 C 
BRANCH   3   5
ATOM      5  C   UNL     1     111.567  85.883  53.200  1.00  0.00     0.015 C 
BRANCH   5   6
ATOM      6  C   UNL     1     112.290  87.223  53.455  1.00  0.00     0.028 C 
BRANCH   6   7
ATOM      7  C   UNL     1     113.412  87.225  54.469  1.00  0.00    -0.028 C 
ATOM      8  C   UNL     1     113.337  87.636  55.757  1.00  0.00    -0.070 CG0
ATOM      9  C   UNL     1     114.529  87.381  56.645  1.00  0.00     0.039 C 
ATOM     10  G   UNL     1     112.165  88.405  56.332  1.00  0.00     0.000 G0
ENDBRANCH   6   7
ENDBRANCH   5   6
ENDBRANCH   3   5
ENDBRANCH   1   3
BRANCH   1  11
ATOM     11  C   UNL     1     109.392  87.472  55.633  1.00  0.00     0.087 C 
BRANCH  11  12
ATOM     12  C   UNL     1     110.206  86.701  56.709  1.00  0.00     0.066 C 
BRANCH  12  13
ATOM     13  C   UNL     1     111.333  87.572  57.237  1.00  0.00     0.140 C 
ATOM     14  O   UNL     1     111.557  87.596  58.440  1.00  0.00    -0.299 OA
BRANCH  13  15
ATOM     15  C   UNL     1     112.166  88.431  56.315  1.00  0.00     0.106 CG0
ATOM     16  G   UNL     1     113.336  87.631  55.778  1.00  0.00     0.000 G0
ENDBRANCH  13  15
ENDBRANCH  12  13
BRANCH  12  17
ATOM     17  C   UNL     1     109.304  86.187  57.876  1.00  0.00    -0.006 C 
ATOM     18  C   UNL     1     109.315  84.649  57.952  1.00  0.00     0.008 C 
ATOM     19  C   UNL     1     107.849  86.669  57.737  1.00  0.00     0.008 C 
ENDBRANCH  12  17
ENDBRANCH  11  12
ENDBRANCH   1  11
TORSDOF 1
ENDMDL
MODEL 6
REMARK VINA RESULT:    -1.155     11.387     13.759
REMARK INTER + INTRA:          -2.158
REMARK INTER:                  -1.947
REMARK INTRA:                  -0.211
REMARK UNBOUND:                -0.396
REMARK SMILES CC1=CCC[C@H](C)C(=O)C[C@H](C(C)C)C(=O)C1
REMARK SMILES IDX 8 1 9 2 6 3 7 4 5 5 4 6 3 7 2 8 1 9 10 11 11 12 15 13 16 14
REMARK SMILES IDX 17 15 12 17 13 18 14 19
REMARK H PARENT
REMARK Flexibility Score: 70.00
ROOT
ATOM      1  C   UNL     1     109.491  83.844  58.173  1.00  0.00     0.136 C 
ATOM      2  O   UNL     1     110.185  83.151  58.903  1.00  0.00    -0.299 OA
ENDROOT
BRANCH   1   3
ATOM      3  C   UNL     1     108.546  83.191  57.179  1.00  0.00     0.053 C 
ATOM      4  C   UNL     1     109.037  81.808  56.720  1.00  0.00     0.016 C 
BRANCH   3   5
ATOM      5  C   UNL     1     107.080  83.159  57.673  1.00  0.00     0.015 C 
BRANCH   5   6
ATOM      6  C   UNL     1     106.195  84.398  57.410  1.00  0.00     0.028 C 
BRANCH   6   7
ATOM      7  C   UNL     1     106.300  85.049  56.049  1.00  0.00    -0.028 C 
ATOM      8  C   UNL     1     107.077  86.107  55.718  1.00  0.00    -0.070 CG0
ATOM      9  C   UNL     1     107.167  86.482  54.259  1.00  0.00     0.039 C 
ATOM     10  G   UNL     1     107.793  86.981  56.728  1.00  0.00     0.000 G0
ENDBRANCH   6   7
ENDBRANCH   5   6
ENDBRANCH   3   5
ENDBRANCH   1   3
BRANCH   1  11
ATOM     11  C   UNL     1     109.609  85.351  58.275  1.00  0.00     0.087 C 
BRANCH  11  12
ATOM     12  C   UNL     1     110.226  86.024  57.018  1.00  0.00     0.066 C 
BRANCH  12  13
ATOM     13  C   UNL     1     109.267  87.058  56.453  1.00  0.00     0.140 C 
ATOM     14  O   UNL     1     109.708  87.972  55.769  1.00  0.00    -0.299 OA
BRANCH  13  15
ATOM     15  C   UNL     1     107.784  87.000  56.739  1.00  0.00     0.106 CG0
ATOM     16  G   UNL     1     107.096  86.110  55.725  1.00  0.00     0.000 G0
ENDBRANCH  13  15
ENDBRANCH  12  13
BRANCH  12  17
ATOM     17  C   UNL     1     111.621  86.660  57.313  1.00  0.00    -0.006 C 
ATOM     18  C   UNL     1     112.763  85.751  56.824  1.00  0.00     0.008 C 
ATOM     19  C   UNL     1     111.820  86.946  58.813  1.00  0.00     0.008 C 
ENDBRANCH  12  17
ENDBRANCH  11  12
ENDBRANCH   1  11
TORSDOF 1
ENDMDL
MODEL 7
REMARK VINA RESULT:    -1.107      1.984      3.573
REMARK INTER + INTRA:          -2.085
REMARK INTER:                  -1.732
REMARK INTRA:                  -0.353
REMARK UNBOUND:                -0.396
REMARK SMILES CC1=CCC[C@H](C)C(=O)C[C@H](C(C)C)C(=O)C1
REMARK SMILES IDX 8 1 9 2 6 3 7 4 5 5 4 6 3 7 2 8 1 9 10 11 11 12 15 13 16 14
REMARK SMILES IDX 17 15 12 17 13 18 14 19
REMARK H PARENT
REMARK Flexibility Score: 70.00
ROOT
ATOM      1  C   UNL     1     120.284  86.542  53.667  1.00  0.00     0.136 C 
ATOM      2  O   UNL     1     119.090  86.304  53.555  1.00  0.00    -0.299 OA
ENDROOT
BRANCH   1   3
ATOM      3  C   UNL     1     120.744  87.835  54.319  1.00  0.00     0.053 C 
ATOM      4  C   UNL     1     120.119  89.078  53.667  1.00  0.00     0.016 C 
BRANCH   3   5
ATOM      5  C   UNL     1     120.571  87.828  55.857  1.00  0.00     0.015 C 
BRANCH   5   6
ATOM      6  C   UNL     1     121.790  87.445  56.725  1.00  0.00     0.028 C 
BRANCH   6   7
ATOM      7  C   UNL     1     121.810  86.053  57.317  1.00  0.00    -0.028 C 
ATOM      8  C   UNL     1     122.726  85.086  57.074  1.00  0.00    -0.070 CG0
ATOM      9  C   UNL     1     122.661  83.831  57.909  1.00  0.00     0.039 C 
ATOM     10  G   UNL     1     123.756  85.155  55.964  1.00  0.00     0.000 G0
ENDBRANCH   6   7
ENDBRANCH   5   6
ENDBRANCH   3   5
ENDBRANCH   1   3
BRANCH   1  11
ATOM     11  C   UNL     1     121.280  85.533  53.130  1.00  0.00     0.087 C 
BRANCH  11  12
ATOM     12  C   UNL     1     122.739  85.769  53.607  1.00  0.00     0.066 C 
BRANCH  12  13
ATOM     13  C   UNL     1     123.128  84.728  54.642  1.00  0.00     0.140 C 
ATOM     14  O   UNL     1     122.902  83.546  54.417  1.00  0.00    -0.299 OA
BRANCH  13  15
ATOM     15  C   UNL     1     123.759  85.119  55.958  1.00  0.00     0.106 CG0
ATOM     16  G   UNL     1     122.720  85.088  57.061  1.00  0.00     0.000 G0
ENDBRANCH  13  15
ENDBRANCH  12  13
BRANCH  12  17
ATOM     17  C   UNL     1     123.754  85.781  52.420  1.00  0.00    -0.006 C 
ATOM     18  C   UNL     1     125.028  86.565  52.783  1.00  0.00     0.008 C 
ATOM     19  C   UNL     1     123.143  86.386  51.144  1.00  0.00     0.008 C 
ENDBRANCH  12  17
ENDBRANCH  11  12
ENDBRANCH   1  11
TORSDOF 1
ENDMDL
MODEL 8
REMARK VINA RESULT:    -0.986     11.694     13.967
REMARK INTER + INTRA:          -1.900
REMARK INTER:                  -1.549
REMARK INTRA:                  -0.351
REMARK UNBOUND:                -0.396
REMARK SMILES CC1=CCC[C@H](C)C(=O)C[C@H](C(C)C)C(=O)C1
REMARK SMILES IDX 8 1 9 2 6 3 7 4 5 5 4 6 3 7 2 8 1 9 10 11 11 12 15 13 16 14
REMARK SMILES IDX 17 15 12 17 13 18 14 19
REMARK H PARENT
REMARK Flexibility Score: 70.00
ROOT
ATOM      1  C   UNL     1     108.789  84.055  55.111  1.00  0.00     0.136 C 
ATOM      2  O   UNL     1     109.592  83.136  55.028  1.00  0.00    -0.299 OA
ENDROOT
BRANCH   1   3
ATOM      3  C   UNL     1     107.941  84.212  56.362  1.00  0.00     0.053 C 
ATOM      4  C   UNL     1     106.973  83.036  56.569  1.00  0.00     0.016 C 
BRANCH   3   5
ATOM      5  C   UNL     1     108.783  84.509  57.626  1.00  0.00     0.015 C 
BRANCH   5   6
ATOM      6  C   UNL     1     109.307  85.948  57.830  1.00  0.00     0.028 C 
BRANCH   6   7
ATOM      7  C   UNL     1     110.501  86.375  57.006  1.00  0.00    -0.028 C 
ATOM      8  C   UNL     1     110.544  87.395  56.116  1.00  0.00    -0.070 CG0
ATOM      9  C   UNL     1     111.887  87.764  55.536  1.00  0.00     0.039 C 
ATOM     10  G   UNL     1     109.319  88.130  55.610  1.00  0.00     0.000 G0
ENDBRANCH   6   7
ENDBRANCH   5   6
ENDBRANCH   3   5
ENDBRANCH   1   3
BRANCH   1  11
ATOM     11  C   UNL     1     108.653  85.011  53.943  1.00  0.00     0.087 C 
BRANCH  11  12
ATOM     12  C   UNL     1     107.901  86.326  54.286  1.00  0.00     0.066 C 
BRANCH  12  13
ATOM     13  C   UNL     1     108.869  87.496  54.295  1.00  0.00     0.140 C 
ATOM     14  O   UNL     1     109.307  87.918  53.233  1.00  0.00    -0.299 OA
BRANCH  13  15
ATOM     15  C   UNL     1     109.326  88.134  55.586  1.00  0.00     0.106 CG0
ATOM     16  G   UNL     1     110.547  87.410  56.117  1.00  0.00     0.000 G0
ENDBRANCH  13  15
ENDBRANCH  12  13
BRANCH  12  17
ATOM     17  C   UNL     1     106.709  86.595  53.313  1.00  0.00    -0.006 C 
ATOM     18  C   UNL     1     105.369  86.168  53.942  1.00  0.00     0.008 C 
ATOM     19  C   UNL     1     106.883  85.866  51.969  1.00  0.00     0.008 C 
ENDBRANCH  12  17
ENDBRANCH  11  12
ENDBRANCH   1  11
TORSDOF 1
ENDMDL
MODEL 9
REMARK VINA RESULT:    -0.984      2.124      2.543
REMARK INTER + INTRA:          -1.897
REMARK INTER:                  -1.697
REMARK INTRA:                  -0.200
REMARK UNBOUND:                -0.396
REMARK SMILES CC1=CCC[C@H](C)C(=O)C[C@H](C(C)C)C(=O)C1
REMARK SMILES IDX 8 1 9 2 6 3 7 4 5 5 4 6 3 7 2 8 1 9 10 11 11 12 15 13 16 14
REMARK SMILES IDX 17 15 12 17 13 18 14 19
REMARK H PARENT
REMARK Flexibility Score: 70.00
ROOT
ATOM      1  C   UNL     1     121.039  85.437  53.534  1.00  0.00     0.136 C 
ATOM      2  O   UNL     1     121.098  84.754  52.521  1.00  0.00    -0.299 OA
ENDROOT
BRANCH   1   3
ATOM      3  C   UNL     1     120.468  86.843  53.471  1.00  0.00     0.053 C 
ATOM      4  C   UNL     1     120.925  87.609  52.218  1.00  0.00     0.016 C 
BRANCH   3   5
ATOM      5  C   UNL     1     118.931  86.877  53.651  1.00  0.00     0.015 C 
BRANCH   5   6
ATOM      6  C   UNL     1     118.311  86.023  54.778  1.00  0.00     0.028 C 
BRANCH   6   7
ATOM      7  C   UNL     1     118.199  86.655  56.148  1.00  0.00    -0.028 C 
ATOM      8  C   UNL     1     119.034  86.463  57.197  1.00  0.00    -0.070 CG0
ATOM      9  C   UNL     1     118.842  87.334  58.414  1.00  0.00     0.039 C 
ATOM     10  G   UNL     1     120.089  85.377  57.251  1.00  0.00     0.000 G0
ENDBRANCH   6   7
ENDBRANCH   5   6
ENDBRANCH   3   5
ENDBRANCH   1   3
BRANCH   1  11
ATOM     11  C   UNL     1     121.558  84.856  54.834  1.00  0.00     0.087 C 
BRANCH  11  12
ATOM     12  C   UNL     1     122.213  85.902  55.778  1.00  0.00     0.066 C 
BRANCH  12  13
ATOM     13  C   UNL     1     121.461  85.961  57.096  1.00  0.00     0.140 C 
ATOM     14  O   UNL     1     121.993  86.486  58.066  1.00  0.00    -0.299 OA
BRANCH  13  15
ATOM     15  C   UNL     1     120.082  85.362  57.246  1.00  0.00     0.106 CG0
ATOM     16  G   UNL     1     119.035  86.457  57.208  1.00  0.00     0.000 G0
ENDBRANCH  13  15
ENDBRANCH  12  13
BRANCH  12  17
ATOM     17  C   UNL     1     123.730  85.617  56.014  1.00  0.00    -0.006 C 
ATOM     18  C   UNL     1     124.611  86.644  55.279  1.00  0.00     0.008 C 
ATOM     19  C   UNL     1     124.130  84.202  55.559  1.00  0.00     0.008 C 
ENDBRANCH  12  17
ENDBRANCH  11  12
ENDBRANCH   1  11
TORSDOF 1
ENDMDL
