MODEL 1
REMARK VINA RESULT:    -5.160      0.000      0.000
REMARK INTER + INTRA:          -5.160
REMARK INTER:                  -5.160
REMARK INTRA:                   0.000
REMARK UNBOUND:                 0.000
REMARK SMILES C=C1c2ccccc2-c2ccccc21
REMARK SMILES IDX 1 1 2 2 3 3 4 4 5 5 6 6 7 7 8 8 9 9 10 10 11 11 12 12 13 13
REMARK SMILES IDX 14 14
REMARK H PARENT
REMARK Flexibility Score: inf
ROOT
ATOM      1  C   UNL     1      -1.761 -12.621  42.247  1.00  0.00     0.018 C 
ATOM      2  C   UNL     1      -2.361 -11.522  41.794  1.00  0.00    -0.017 C 
ATOM      3  C   UNL     1      -1.827 -10.546  40.834  1.00  0.00    -0.010 A 
ATOM      4  C   UNL     1      -0.598 -10.516  40.171  1.00  0.00     0.009 A 
ATOM      5  C   UNL     1      -0.341  -9.449  39.292  1.00  0.00     0.001 A 
ATOM      6  C   UNL     1      -1.303  -8.440  39.091  1.00  0.00     0.001 A 
ATOM      7  C   UNL     1      -2.535  -8.485  39.766  1.00  0.00     0.009 A 
ATOM      8  C   UNL     1      -2.771  -9.552  40.633  1.00  0.00    -0.010 A 
ATOM      9  C   UNL     1      -3.939  -9.853  41.454  1.00  0.00    -0.010 A 
ATOM     10  C   UNL     1      -5.140  -9.156  41.595  1.00  0.00     0.009 A 
ATOM     11  C   UNL     1      -6.111  -9.677  42.466  1.00  0.00     0.001 A 
ATOM     12  C   UNL     1      -5.869 -10.872  43.174  1.00  0.00     0.001 A 
ATOM     13  C   UNL     1      -4.654 -11.559  43.018  1.00  0.00     0.009 A 
ATOM     14  C   UNL     1      -3.698 -11.027  42.148  1.00  0.00    -0.010 A 
ENDROOT
TORSDOF 0
ENDMDL
MODEL 2
REMARK VINA RESULT:    -5.154      0.020      4.268
REMARK INTER + INTRA:          -5.154
REMARK INTER:                  -5.154
REMARK INTRA:                   0.000
REMARK UNBOUND:                 0.000
REMARK SMILES C=C1c2ccccc2-c2ccccc21
REMARK SMILES IDX 1 1 2 2 3 3 4 4 5 5 6 6 7 7 8 8 9 9 10 10 11 11 12 12 13 13
REMARK SMILES IDX 14 14
REMARK H PARENT
REMARK Flexibility Score: inf
ROOT
ATOM      1  C   UNL     1      -1.761 -12.618  42.248  1.00  0.00     0.018 C 
ATOM      2  C   UNL     1      -2.368 -11.522  41.795  1.00  0.00    -0.017 C 
ATOM      3  C   UNL     1      -3.708 -11.035  42.151  1.00  0.00    -0.010 A 
ATOM      4  C   UNL     1      -4.660 -11.573  43.021  1.00  0.00     0.009 A 
ATOM      5  C   UNL     1      -5.880 -10.892  43.179  1.00  0.00     0.001 A 
ATOM      6  C   UNL     1      -6.128  -9.698  42.473  1.00  0.00     0.001 A 
ATOM      7  C   UNL     1      -5.161  -9.171  41.601  1.00  0.00     0.009 A 
ATOM      8  C   UNL     1      -3.957  -9.861  41.459  1.00  0.00    -0.010 A 
ATOM      9  C   UNL     1      -2.790  -9.554  40.638  1.00  0.00    -0.010 A 
ATOM     10  C   UNL     1      -2.560  -8.485  39.771  1.00  0.00     0.009 A 
ATOM     11  C   UNL     1      -1.330  -8.432  39.095  1.00  0.00     0.001 A 
ATOM     12  C   UNL     1      -0.360  -9.437  39.295  1.00  0.00     0.001 A 
ATOM     13  C   UNL     1      -0.612 -10.505  40.172  1.00  0.00     0.009 A 
ATOM     14  C   UNL     1      -1.841 -10.543  40.837  1.00  0.00    -0.010 A 
ENDROOT
TORSDOF 0
ENDMDL
MODEL 3
REMARK VINA RESULT:    -5.031      1.451      4.905
REMARK INTER + INTRA:          -5.031
REMARK INTER:                  -5.031
REMARK INTRA:                   0.000
REMARK UNBOUND:                 0.000
REMARK SMILES C=C1c2ccccc2-c2ccccc21
REMARK SMILES IDX 1 1 2 2 3 3 4 4 5 5 6 6 7 7 8 8 9 9 10 10 11 11 12 12 13 13
REMARK SMILES IDX 14 14
REMARK H PARENT
REMARK Flexibility Score: inf
ROOT
ATOM      1  C   UNL     1      -5.360  -8.455  40.070  1.00  0.00     0.018 C 
ATOM      2  C   UNL     1      -4.081  -8.777  39.886  1.00  0.00    -0.017 C 
ATOM      3  C   UNL     1      -3.289  -9.749  40.653  1.00  0.00    -0.010 A 
ATOM      4  C   UNL     1      -3.655 -10.557  41.733  1.00  0.00     0.009 A 
ATOM      5  C   UNL     1      -2.683 -11.409  42.286  1.00  0.00     0.001 A 
ATOM      6  C   UNL     1      -1.377 -11.442  41.760  1.00  0.00     0.001 A 
ATOM      7  C   UNL     1      -1.026 -10.623  40.673  1.00  0.00     0.009 A 
ATOM      8  C   UNL     1      -2.003  -9.784  40.138  1.00  0.00    -0.010 A 
ATOM      9  C   UNL     1      -1.925  -8.841  39.028  1.00  0.00    -0.010 A 
ATOM     10  C   UNL     1      -0.850  -8.520  38.197  1.00  0.00     0.009 A 
ATOM     11  C   UNL     1      -1.053  -7.562  37.191  1.00  0.00     0.001 A 
ATOM     12  C   UNL     1      -2.312  -6.947  37.032  1.00  0.00     0.001 A 
ATOM     13  C   UNL     1      -3.381  -7.283  37.879  1.00  0.00     0.009 A 
ATOM     14  C   UNL     1      -3.163  -8.239  38.875  1.00  0.00    -0.010 A 
ENDROOT
TORSDOF 0
ENDMDL
MODEL 4
REMARK VINA RESULT:    -5.017      1.457      3.611
REMARK INTER + INTRA:          -5.017
REMARK INTER:                  -5.017
REMARK INTRA:                   0.000
REMARK UNBOUND:                 0.000
REMARK SMILES C=C1c2ccccc2-c2ccccc21
REMARK SMILES IDX 1 1 2 2 3 3 4 4 5 5 6 6 7 7 8 8 9 9 10 10 11 11 12 12 13 13
REMARK SMILES IDX 14 14
REMARK H PARENT
REMARK Flexibility Score: inf
ROOT
ATOM      1  C   UNL     1      -5.346  -8.493  40.066  1.00  0.00     0.018 C 
ATOM      2  C   UNL     1      -4.067  -8.811  39.882  1.00  0.00    -0.017 C 
ATOM      3  C   UNL     1      -3.151  -8.266  38.870  1.00  0.00    -0.010 A 
ATOM      4  C   UNL     1      -3.373  -7.311  37.876  1.00  0.00     0.009 A 
ATOM      5  C   UNL     1      -2.304  -6.968  37.029  1.00  0.00     0.001 A 
ATOM      6  C   UNL     1      -1.044  -7.578  37.186  1.00  0.00     0.001 A 
ATOM      7  C   UNL     1      -0.837  -8.538  38.192  1.00  0.00     0.009 A 
ATOM      8  C   UNL     1      -1.910  -8.863  39.022  1.00  0.00    -0.010 A 
ATOM      9  C   UNL     1      -1.985  -9.808  40.131  1.00  0.00    -0.010 A 
ATOM     10  C   UNL     1      -1.003 -10.644  40.665  1.00  0.00     0.009 A 
ATOM     11  C   UNL     1      -1.351 -11.466  41.750  1.00  0.00     0.001 A 
ATOM     12  C   UNL     1      -2.658 -11.439  42.278  1.00  0.00     0.001 A 
ATOM     13  C   UNL     1      -3.632 -10.590  41.726  1.00  0.00     0.009 A 
ATOM     14  C   UNL     1      -3.270  -9.779  40.646  1.00  0.00    -0.010 A 
ENDROOT
TORSDOF 0
ENDMDL
MODEL 5
REMARK VINA RESULT:    -4.854      2.110      4.814
REMARK INTER + INTRA:          -4.854
REMARK INTER:                  -4.854
REMARK INTRA:                   0.000
REMARK UNBOUND:                 0.000
REMARK SMILES C=C1c2ccccc2-c2ccccc21
REMARK SMILES IDX 1 1 2 2 3 3 4 4 5 5 6 6 7 7 8 8 9 9 10 10 11 11 12 12 13 13
REMARK SMILES IDX 14 14
REMARK H PARENT
REMARK Flexibility Score: inf
ROOT
ATOM      1  C   UNL     1      -0.652  -8.493  39.513  1.00  0.00     0.018 C 
ATOM      2  C   UNL     1      -1.983  -8.461  39.483  1.00  0.00    -0.017 C 
ATOM      3  C   UNL     1      -2.911  -9.138  40.399  1.00  0.00    -0.010 A 
ATOM      4  C   UNL     1      -2.650  -9.962  41.498  1.00  0.00     0.009 A 
ATOM      5  C   UNL     1      -3.742 -10.486  42.211  1.00  0.00     0.001 A 
ATOM      6  C   UNL     1      -5.062 -10.185  41.822  1.00  0.00     0.001 A 
ATOM      7  C   UNL     1      -5.307  -9.355  40.715  1.00  0.00     0.009 A 
ATOM      8  C   UNL     1      -4.210  -8.844  40.020  1.00  0.00    -0.010 A 
ATOM      9  C   UNL     1      -4.163  -7.971  38.852  1.00  0.00    -0.010 A 
ATOM     10  C   UNL     1      -5.203  -7.408  38.111  1.00  0.00     0.009 A 
ATOM     11  C   UNL     1      -4.871  -6.592  37.017  1.00  0.00     0.001 A 
ATOM     12  C   UNL     1      -3.521  -6.355  36.685  1.00  0.00     0.001 A 
ATOM     13  C   UNL     1      -2.489  -6.931  37.444  1.00  0.00     0.009 A 
ATOM     14  C   UNL     1      -2.836  -7.740  38.529  1.00  0.00    -0.010 A 
ENDROOT
TORSDOF 0
ENDMDL
MODEL 6
REMARK VINA RESULT:    -4.834      1.290      5.187
REMARK INTER + INTRA:          -4.834
REMARK INTER:                  -4.834
REMARK INTRA:                   0.000
REMARK UNBOUND:                 0.000
REMARK SMILES C=C1c2ccccc2-c2ccccc21
REMARK SMILES IDX 1 1 2 2 3 3 4 4 5 5 6 6 7 7 8 8 9 9 10 10 11 11 12 12 13 13
REMARK SMILES IDX 14 14
REMARK H PARENT
REMARK Flexibility Score: inf
ROOT
ATOM      1  C   UNL     1      -5.720  -7.769  38.896  1.00  0.00     0.018 C 
ATOM      2  C   UNL     1      -4.802  -8.406  39.619  1.00  0.00    -0.017 C 
ATOM      3  C   UNL     1      -5.024  -9.234  40.812  1.00  0.00    -0.010 A 
ATOM      4  C   UNL     1      -6.211  -9.555  41.476  1.00  0.00     0.009 A 
ATOM      5  C   UNL     1      -6.136 -10.381  42.612  1.00  0.00     0.001 A 
ATOM      6  C   UNL     1      -4.893 -10.866  43.063  1.00  0.00     0.001 A 
ATOM      7  C   UNL     1      -3.709 -10.532  42.384  1.00  0.00     0.009 A 
ATOM      8  C   UNL     1      -3.804  -9.713  41.259  1.00  0.00    -0.010 A 
ATOM      9  C   UNL     1      -2.759  -9.213  40.372  1.00  0.00    -0.010 A 
ATOM     10  C   UNL     1      -1.379  -9.417  40.406  1.00  0.00     0.009 A 
ATOM     11  C   UNL     1      -0.593  -8.808  39.414  1.00  0.00     0.001 A 
ATOM     12  C   UNL     1      -1.192  -8.013  38.415  1.00  0.00     0.001 A 
ATOM     13  C   UNL     1      -2.583  -7.819  38.398  1.00  0.00     0.009 A 
ATOM     14  C   UNL     1      -3.351  -8.433  39.392  1.00  0.00    -0.010 A 
ENDROOT
TORSDOF 0
ENDMDL
MODEL 7
REMARK VINA RESULT:    -4.818      1.280      3.020
REMARK INTER + INTRA:          -4.818
REMARK INTER:                  -4.818
REMARK INTRA:                   0.000
REMARK UNBOUND:                 0.000
REMARK SMILES C=C1c2ccccc2-c2ccccc21
REMARK SMILES IDX 1 1 2 2 3 3 4 4 5 5 6 6 7 7 8 8 9 9 10 10 11 11 12 12 13 13
REMARK SMILES IDX 14 14
REMARK H PARENT
REMARK Flexibility Score: inf
ROOT
ATOM      1  C   UNL     1      -6.138  -7.848  39.221  1.00  0.00     0.018 C 
ATOM      2  C   UNL     1      -5.202  -8.493  39.914  1.00  0.00    -0.017 C 
ATOM      3  C   UNL     1      -3.752  -8.480  39.678  1.00  0.00    -0.010 A 
ATOM      4  C   UNL     1      -3.004  -7.813  38.704  1.00  0.00     0.009 A 
ATOM      5  C   UNL     1      -1.608  -7.977  38.707  1.00  0.00     0.001 A 
ATOM      6  C   UNL     1      -0.986  -8.795  39.671  1.00  0.00     0.001 A 
ATOM      7  C   UNL     1      -1.752  -9.458  40.644  1.00  0.00     0.009 A 
ATOM      8  C   UNL     1      -3.136  -9.282  40.625  1.00  0.00    -0.010 A 
ATOM      9  C   UNL     1      -4.165  -9.838  41.497  1.00  0.00    -0.010 A 
ATOM     10  C   UNL     1      -4.045 -10.697  42.591  1.00  0.00     0.009 A 
ATOM     11  C   UNL     1      -5.217 -11.081  43.263  1.00  0.00     0.001 A 
ATOM     12  C   UNL     1      -6.475 -10.606  42.838  1.00  0.00     0.001 A 
ATOM     13  C   UNL     1      -6.573  -9.742  41.734  1.00  0.00     0.009 A 
ATOM     14  C   UNL     1      -5.398  -9.369  41.076  1.00  0.00    -0.010 A 
ENDROOT
TORSDOF 0
ENDMDL
MODEL 8
REMARK VINA RESULT:    -4.798      1.441      2.428
REMARK INTER + INTRA:          -4.798
REMARK INTER:                  -4.798
REMARK INTRA:                   0.000
REMARK UNBOUND:                 0.000
REMARK SMILES C=C1c2ccccc2-c2ccccc21
REMARK SMILES IDX 1 1 2 2 3 3 4 4 5 5 6 6 7 7 8 8 9 9 10 10 11 11 12 12 13 13
REMARK SMILES IDX 14 14
REMARK H PARENT
REMARK Flexibility Score: inf
ROOT
ATOM      1  C   UNL     1      -0.471 -10.537  40.029  1.00  0.00     0.018 C 
ATOM      2  C   UNL     1      -1.578  -9.820  39.844  1.00  0.00    -0.017 C 
ATOM      3  C   UNL     1      -1.818  -8.804  38.810  1.00  0.00    -0.010 A 
ATOM      4  C   UNL     1      -0.982  -8.343  37.790  1.00  0.00     0.009 A 
ATOM      5  C   UNL     1      -1.472  -7.349  36.925  1.00  0.00     0.001 A 
ATOM      6  C   UNL     1      -2.774  -6.836  37.089  1.00  0.00     0.001 A 
ATOM      7  C   UNL     1      -3.602  -7.311  38.120  1.00  0.00     0.009 A 
ATOM      8  C   UNL     1      -3.098  -8.298  38.968  1.00  0.00    -0.010 A 
ATOM      9  C   UNL     1      -3.721  -8.967  40.104  1.00  0.00    -0.010 A 
ATOM     10  C   UNL     1      -4.994  -8.803  40.654  1.00  0.00     0.009 A 
ATOM     11  C   UNL     1      -5.342  -9.588  41.765  1.00  0.00     0.001 A 
ATOM     12  C   UNL     1      -4.425 -10.515  42.303  1.00  0.00     0.001 A 
ATOM     13  C   UNL     1      -3.148 -10.664  41.734  1.00  0.00     0.009 A 
ATOM     14  C   UNL     1      -2.817  -9.876  40.629  1.00  0.00    -0.010 A 
ENDROOT
TORSDOF 0
ENDMDL
MODEL 9
REMARK VINA RESULT:    -4.727      0.972      4.834
REMARK INTER + INTRA:          -4.727
REMARK INTER:                  -4.727
REMARK INTRA:                   0.000
REMARK UNBOUND:                 0.000
REMARK SMILES C=C1c2ccccc2-c2ccccc21
REMARK SMILES IDX 1 1 2 2 3 3 4 4 5 5 6 6 7 7 8 8 9 9 10 10 11 11 12 12 13 13
REMARK SMILES IDX 14 14
REMARK H PARENT
REMARK Flexibility Score: inf
ROOT
ATOM      1  C   UNL     1      -5.349  -9.210  41.814  1.00  0.00     0.018 C 
ATOM      2  C   UNL     1      -4.315 -10.026  41.620  1.00  0.00    -0.017 C 
ATOM      3  C   UNL     1      -4.176 -11.414  42.081  1.00  0.00    -0.010 A 
ATOM      4  C   UNL     1      -5.058 -12.210  42.815  1.00  0.00     0.009 A 
ATOM      5  C   UNL     1      -4.668 -13.525  43.125  1.00  0.00     0.001 A 
ATOM      6  C   UNL     1      -3.418 -14.019  42.703  1.00  0.00     0.001 A 
ATOM      7  C   UNL     1      -2.542 -13.204  41.965  1.00  0.00     0.009 A 
ATOM      8  C   UNL     1      -2.948 -11.903  41.667  1.00  0.00    -0.010 A 
ATOM      9  C   UNL     1      -2.257 -10.851  40.929  1.00  0.00    -0.010 A 
ATOM     10  C   UNL     1      -1.002 -10.859  40.319  1.00  0.00     0.009 A 
ATOM     11  C   UNL     1      -0.575  -9.691  39.665  1.00  0.00     0.001 A 
ATOM     12  C   UNL     1      -1.400  -8.548  39.632  1.00  0.00     0.001 A 
ATOM     13  C   UNL     1      -2.660  -8.560  40.253  1.00  0.00     0.009 A 
ATOM     14  C   UNL     1      -3.070  -9.729  40.899  1.00  0.00    -0.010 A 
ENDROOT
TORSDOF 0
ENDMDL
