MODEL 1
REMARK VINA RESULT:    -5.345      0.000      0.000
REMARK INTER + INTRA:          -5.345
REMARK INTER:                  -5.345
REMARK INTRA:                   0.000
REMARK UNBOUND:                 0.000
REMARK SMILES CC1=CC[C@]2(C)CCCC(C)(C)[C@@]23C[C@@H]13
REMARK SMILES IDX 1 1 2 2 3 3 4 4 5 5 7 6 8 7 9 8 10 9 13 10 15 11 14 12 11 13
REMARK SMILES IDX 12 14 6 15
REMARK H PARENT
REMARK Flexibility Score: inf
ROOT
ATOM      1  C   UNL     1     142.893 137.622 131.827  1.00  0.00     0.039 C 
ATOM      2  C   UNL     1     141.596 137.988 132.488  1.00  0.00    -0.074 C 
ATOM      3  C   UNL     1     141.286 137.475 133.688  1.00  0.00    -0.027 C 
ATOM      4  C   UNL     1     140.014 137.868 134.381  1.00  0.00     0.034 C 
ATOM      5  C   UNL     1     139.735 139.389 134.238  1.00  0.00    -0.022 C 
ATOM      6  C   UNL     1     138.363 139.684 134.907  1.00  0.00     0.008 C 
ATOM      7  C   UNL     1     137.790 141.016 134.442  1.00  0.00     0.001 C 
ATOM      8  C   UNL     1     137.393 140.982 132.961  1.00  0.00     0.007 C 
ATOM      9  C   UNL     1     138.292 140.098 132.025  1.00  0.00    -0.029 C 
ATOM     10  C   UNL     1     139.703 139.789 132.696  1.00  0.00    -0.012 C 
ATOM     11  C   UNL     1     140.656 138.951 131.801  1.00  0.00     0.022 C 
ATOM     12  C   UNL     1     140.981 140.410 132.073  1.00  0.00     0.017 C 
ATOM     13  C   UNL     1     138.390 140.847 130.666  1.00  0.00     0.012 C 
ATOM     14  C   UNL     1     137.562 138.758 131.734  1.00  0.00     0.012 C 
ATOM     15  C   UNL     1     140.820 140.175 135.034  1.00  0.00     0.012 C 
ENDROOT
TORSDOF 0
ENDMDL
MODEL 2
REMARK VINA RESULT:    -5.333      2.691      4.194
REMARK INTER + INTRA:          -5.333
REMARK INTER:                  -5.333
REMARK INTRA:                   0.000
REMARK UNBOUND:                 0.000
REMARK SMILES CC1=CC[C@]2(C)CCCC(C)(C)[C@@]23C[C@@H]13
REMARK SMILES IDX 1 1 2 2 3 3 4 4 5 5 7 6 8 7 9 8 10 9 13 10 15 11 14 12 11 13
REMARK SMILES IDX 12 14 6 15
REMARK H PARENT
REMARK Flexibility Score: inf
ROOT
ATOM      1  C   UNL     1     137.621 139.283 131.749  1.00  0.00     0.039 C 
ATOM      2  C   UNL     1     137.967 140.576 132.428  1.00  0.00    -0.074 C 
ATOM      3  C   UNL     1     137.424 140.876 133.617  1.00  0.00    -0.027 C 
ATOM      4  C   UNL     1     137.797 142.143 134.329  1.00  0.00     0.034 C 
ATOM      5  C   UNL     1     139.321 142.425 134.226  1.00  0.00    -0.022 C 
ATOM      6  C   UNL     1     139.597 143.793 134.912  1.00  0.00     0.008 C 
ATOM      7  C   UNL     1     140.940 144.371 134.485  1.00  0.00     0.001 C 
ATOM      8  C   UNL     1     140.943 144.778 133.007  1.00  0.00     0.007 C 
ATOM      9  C   UNL     1     140.085 143.885 132.042  1.00  0.00    -0.029 C 
ATOM     10  C   UNL     1     139.760 142.469 132.695  1.00  0.00    -0.012 C 
ATOM     11  C   UNL     1     138.947 141.522 131.773  1.00  0.00     0.022 C 
ATOM     12  C   UNL     1     140.399 141.196 132.079  1.00  0.00     0.017 C 
ATOM     13  C   UNL     1     140.868 143.798 130.703  1.00  0.00     0.012 C 
ATOM     14  C   UNL     1     138.752 144.615 131.722  1.00  0.00     0.012 C 
ATOM     15  C   UNL     1     140.088 141.335 135.034  1.00  0.00     0.012 C 
ENDROOT
TORSDOF 0
ENDMDL
MODEL 3
REMARK VINA RESULT:    -5.325      3.644      6.008
REMARK INTER + INTRA:          -5.325
REMARK INTER:                  -5.325
REMARK INTRA:                   0.000
REMARK UNBOUND:                 0.000
REMARK SMILES CC1=CC[C@]2(C)CCCC(C)(C)[C@@]23C[C@@H]13
REMARK SMILES IDX 1 1 2 2 3 3 4 4 5 5 7 6 8 7 9 8 10 9 13 10 15 11 14 12 11 13
REMARK SMILES IDX 12 14 6 15
REMARK H PARENT
REMARK Flexibility Score: inf
ROOT
ATOM      1  C   UNL     1     139.357 144.696 131.739  1.00  0.00     0.039 C 
ATOM      2  C   UNL     1     140.650 144.312 132.396  1.00  0.00    -0.074 C 
ATOM      3  C   UNL     1     140.980 144.834 133.587  1.00  0.00    -0.027 C 
ATOM      4  C   UNL     1     142.248 144.422 134.276  1.00  0.00     0.034 C 
ATOM      5  C   UNL     1     142.493 142.893 134.151  1.00  0.00    -0.022 C 
ATOM      6  C   UNL     1     143.863 142.578 134.815  1.00  0.00     0.008 C 
ATOM      7  C   UNL     1     144.403 141.227 134.364  1.00  0.00     0.001 C 
ATOM      8  C   UNL     1     144.790 141.233 132.880  1.00  0.00     0.007 C 
ATOM      9  C   UNL     1     143.904 142.123 131.938  1.00  0.00    -0.029 C 
ATOM     10  C   UNL     1     142.505 142.472 132.615  1.00  0.00    -0.012 C 
ATOM     11  C   UNL     1     141.564 143.318 131.716  1.00  0.00     0.022 C 
ATOM     12  C   UNL     1     141.209 141.871 132.009  1.00  0.00     0.017 C 
ATOM     13  C   UNL     1     143.780 141.358 130.591  1.00  0.00     0.012 C 
ATOM     14  C   UNL     1     144.660 143.442 131.624  1.00  0.00     0.012 C 
ATOM     15  C   UNL     1     141.397 142.143 134.966  1.00  0.00     0.012 C 
ENDROOT
TORSDOF 0
ENDMDL
MODEL 4
REMARK VINA RESULT:    -5.307      2.649      4.182
REMARK INTER + INTRA:          -5.307
REMARK INTER:                  -5.307
REMARK INTRA:                   0.000
REMARK UNBOUND:                 0.000
REMARK SMILES CC1=CC[C@]2(C)CCCC(C)(C)[C@@]23C[C@@H]13
REMARK SMILES IDX 1 1 2 2 3 3 4 4 5 5 7 6 8 7 9 8 10 9 13 10 15 11 14 12 11 13
REMARK SMILES IDX 12 14 6 15
REMARK H PARENT
REMARK Flexibility Score: inf
ROOT
ATOM      1  C   UNL     1     144.379 142.952 131.890  1.00  0.00     0.039 C 
ATOM      2  C   UNL     1     144.077 141.647 132.568  1.00  0.00    -0.074 C 
ATOM      3  C   UNL     1     144.680 141.336 133.725  1.00  0.00    -0.027 C 
ATOM      4  C   UNL     1     144.353 140.056 134.437  1.00  0.00     0.034 C 
ATOM      5  C   UNL     1     142.829 139.760 134.403  1.00  0.00    -0.022 C 
ATOM      6  C   UNL     1     142.599 138.381 135.084  1.00  0.00     0.008 C 
ATOM      7  C   UNL     1     141.243 137.796 134.714  1.00  0.00     0.001 C 
ATOM      8  C   UNL     1     141.172 137.408 133.232  1.00  0.00     0.007 C 
ATOM      9  C   UNL     1     141.975 138.322 132.240  1.00  0.00    -0.029 C 
ATOM     10  C   UNL     1     142.317 139.732 132.895  1.00  0.00    -0.012 C 
ATOM     11  C   UNL     1     143.076 140.699 131.948  1.00  0.00     0.022 C 
ATOM     12  C   UNL     1     141.638 141.007 132.327  1.00  0.00     0.017 C 
ATOM     13  C   UNL     1     141.127 138.419 130.940  1.00  0.00     0.012 C 
ATOM     14  C   UNL     1     143.297 137.609 131.846  1.00  0.00     0.012 C 
ATOM     15  C   UNL     1     142.092 140.832 135.262  1.00  0.00     0.012 C 
ENDROOT
TORSDOF 0
ENDMDL
MODEL 5
REMARK VINA RESULT:    -5.172      3.228      4.413
REMARK INTER + INTRA:          -5.172
REMARK INTER:                  -5.172
REMARK INTRA:                   0.000
REMARK UNBOUND:                 0.000
REMARK SMILES CC1=CC[C@]2(C)CCCC(C)(C)[C@@]23C[C@@H]13
REMARK SMILES IDX 1 1 2 2 3 3 4 4 5 5 7 6 8 7 9 8 10 9 13 10 15 11 14 12 11 13
REMARK SMILES IDX 12 14 6 15
REMARK H PARENT
REMARK Flexibility Score: inf
ROOT
ATOM      1  C   UNL     1     143.603 137.591 131.707  1.00  0.00     0.039 C 
ATOM      2  C   UNL     1     143.112 138.654 132.646  1.00  0.00    -0.074 C 
ATOM      3  C   UNL     1     142.257 138.339 133.630  1.00  0.00    -0.027 C 
ATOM      4  C   UNL     1     141.795 139.382 134.605  1.00  0.00     0.034 C 
ATOM      5  C   UNL     1     142.962 140.312 135.037  1.00  0.00    -0.022 C 
ATOM      6  C   UNL     1     142.373 141.406 135.972  1.00  0.00     0.008 C 
ATOM      7  C   UNL     1     143.308 142.603 136.087  1.00  0.00     0.001 C 
ATOM      8  C   UNL     1     143.417 143.373 134.765  1.00  0.00     0.007 C 
ATOM      9  C   UNL     1     143.337 142.512 133.455  1.00  0.00    -0.029 C 
ATOM     10  C   UNL     1     143.629 140.974 133.751  1.00  0.00    -0.012 C 
ATOM     11  C   UNL     1     143.606 140.074 132.487  1.00  0.00     0.022 C 
ATOM     12  C   UNL     1     144.927 140.336 133.188  1.00  0.00     0.017 C 
ATOM     13  C   UNL     1     144.321 143.156 132.438  1.00  0.00     0.012 C 
ATOM     14  C   UNL     1     141.918 142.650 132.839  1.00  0.00     0.012 C 
ATOM     15  C   UNL     1     143.980 139.482 135.876  1.00  0.00     0.012 C 
ENDROOT
TORSDOF 0
ENDMDL
MODEL 6
REMARK VINA RESULT:    -5.169      1.528      4.134
REMARK INTER + INTRA:          -5.169
REMARK INTER:                  -5.169
REMARK INTRA:                   0.000
REMARK UNBOUND:                 0.000
REMARK SMILES CC1=CC[C@]2(C)CCCC(C)(C)[C@@]23C[C@@H]13
REMARK SMILES IDX 1 1 2 2 3 3 4 4 5 5 7 6 8 7 9 8 10 9 13 10 15 11 14 12 11 13
REMARK SMILES IDX 12 14 6 15
REMARK H PARENT
REMARK Flexibility Score: inf
ROOT
ATOM      1  C   UNL     1     137.558 138.685 131.776  1.00  0.00     0.039 C 
ATOM      2  C   UNL     1     138.595 139.163 132.750  1.00  0.00    -0.074 C 
ATOM      3  C   UNL     1     138.258 140.023 133.723  1.00  0.00    -0.027 C 
ATOM      4  C   UNL     1     139.274 140.473 134.731  1.00  0.00     0.034 C 
ATOM      5  C   UNL     1     140.175 139.295 135.195  1.00  0.00    -0.022 C 
ATOM      6  C   UNL     1     141.244 139.871 136.165  1.00  0.00     0.008 C 
ATOM      7  C   UNL     1     142.425 138.922 136.320  1.00  0.00     0.001 C 
ATOM      8  C   UNL     1     143.237 138.803 135.025  1.00  0.00     0.007 C 
ATOM      9  C   UNL     1     142.421 138.892 133.687  1.00  0.00    -0.029 C 
ATOM     10  C   UNL     1     140.871 138.619 133.931  1.00  0.00    -0.012 C 
ATOM     11  C   UNL     1     140.013 138.652 132.638  1.00  0.00     0.022 C 
ATOM     12  C   UNL     1     140.236 137.328 133.349  1.00  0.00     0.017 C 
ATOM     13  C   UNL     1     143.087 137.900 132.693  1.00  0.00     0.012 C 
ATOM     14  C   UNL     1     142.597 140.308 133.075  1.00  0.00     0.012 C 
ATOM     15  C   UNL     1     139.304 138.288 136.006  1.00  0.00     0.012 C 
ENDROOT
TORSDOF 0
ENDMDL
MODEL 7
REMARK VINA RESULT:    -5.167      3.549      4.562
REMARK INTER + INTRA:          -5.167
REMARK INTER:                  -5.167
REMARK INTRA:                   0.000
REMARK UNBOUND:                 0.000
REMARK SMILES CC1=CC[C@]2(C)CCCC(C)(C)[C@@]23C[C@@H]13
REMARK SMILES IDX 1 1 2 2 3 3 4 4 5 5 7 6 8 7 9 8 10 9 13 10 15 11 14 12 11 13
REMARK SMILES IDX 12 14 6 15
REMARK H PARENT
REMARK Flexibility Score: inf
ROOT
ATOM      1  C   UNL     1     144.575 143.606 131.782  1.00  0.00     0.039 C 
ATOM      2  C   UNL     1     143.540 143.121 132.754  1.00  0.00    -0.074 C 
ATOM      3  C   UNL     1     143.890 142.295 133.752  1.00  0.00    -0.027 C 
ATOM      4  C   UNL     1     142.874 141.840 134.759  1.00  0.00     0.034 C 
ATOM      5  C   UNL     1     141.933 143.001 135.182  1.00  0.00    -0.022 C 
ATOM      6  C   UNL     1     140.868 142.417 136.152  1.00  0.00     0.008 C 
ATOM      7  C   UNL     1     139.657 143.334 136.269  1.00  0.00     0.001 C 
ATOM      8  C   UNL     1     138.860 143.397 134.962  1.00  0.00     0.007 C 
ATOM      9  C   UNL     1     139.696 143.301 133.636  1.00  0.00    -0.029 C 
ATOM     10  C   UNL     1     141.233 143.626 133.894  1.00  0.00    -0.012 C 
ATOM     11  C   UNL     1     142.109 143.587 132.613  1.00  0.00     0.022 C 
ATOM     12  C   UNL     1     141.837 144.920 133.287  1.00  0.00     0.017 C 
ATOM     13  C   UNL     1     139.014 144.248 132.610  1.00  0.00     0.012 C 
ATOM     14  C   UNL     1     139.570 141.865 133.058  1.00  0.00     0.012 C 
ATOM     15  C   UNL     1     142.762 144.053 135.978  1.00  0.00     0.012 C 
ENDROOT
TORSDOF 0
ENDMDL
MODEL 8
REMARK VINA RESULT:    -5.163      2.109      4.211
REMARK INTER + INTRA:          -5.163
REMARK INTER:                  -5.163
REMARK INTRA:                   0.000
REMARK UNBOUND:                 0.000
REMARK SMILES CC1=CC[C@]2(C)CCCC(C)(C)[C@@]23C[C@@H]13
REMARK SMILES IDX 1 1 2 2 3 3 4 4 5 5 7 6 8 7 9 8 10 9 13 10 15 11 14 12 11 13
REMARK SMILES IDX 12 14 6 15
REMARK H PARENT
REMARK Flexibility Score: inf
ROOT
ATOM      1  C   UNL     1     138.675 144.628 131.766  1.00  0.00     0.039 C 
ATOM      2  C   UNL     1     139.147 143.547 132.693  1.00  0.00    -0.074 C 
ATOM      3  C   UNL     1     140.011 143.836 133.679  1.00  0.00    -0.027 C 
ATOM      4  C   UNL     1     140.454 142.775 134.642  1.00  0.00     0.034 C 
ATOM      5  C   UNL     1     139.270 141.864 135.068  1.00  0.00    -0.022 C 
ATOM      6  C   UNL     1     139.840 140.749 135.991  1.00  0.00     0.008 C 
ATOM      7  C   UNL     1     138.882 139.570 136.097  1.00  0.00     0.001 C 
ATOM      8  C   UNL     1     138.756 138.815 134.769  1.00  0.00     0.007 C 
ATOM      9  C   UNL     1     138.849 139.687 133.466  1.00  0.00    -0.029 C 
ATOM     10  C   UNL     1     138.588 141.227 133.777  1.00  0.00    -0.012 C 
ATOM     11  C   UNL     1     138.626 142.139 132.522  1.00  0.00     0.022 C 
ATOM     12  C   UNL     1     137.301 141.895 133.224  1.00  0.00     0.017 C 
ATOM     13  C   UNL     1     137.851 139.071 132.446  1.00  0.00     0.012 C 
ATOM     14  C   UNL     1     140.264 139.527 132.846  1.00  0.00     0.012 C 
ATOM     15  C   UNL     1     138.271 142.705 135.917  1.00  0.00     0.012 C 
ENDROOT
TORSDOF 0
ENDMDL
MODEL 9
REMARK VINA RESULT:    -5.089      3.190      5.043
REMARK INTER + INTRA:          -5.089
REMARK INTER:                  -5.089
REMARK INTRA:                   0.000
REMARK UNBOUND:                 0.000
REMARK SMILES CC1=CC[C@]2(C)CCCC(C)(C)[C@@]23C[C@@H]13
REMARK SMILES IDX 1 1 2 2 3 3 4 4 5 5 7 6 8 7 9 8 10 9 13 10 15 11 14 12 11 13
REMARK SMILES IDX 12 14 6 15
REMARK H PARENT
REMARK Flexibility Score: inf
ROOT
ATOM      1  C   UNL     1     142.044 138.229 134.729  1.00  0.00     0.039 C 
ATOM      2  C   UNL     1     142.704 139.497 134.272  1.00  0.00    -0.074 C 
ATOM      3  C   UNL     1     144.011 139.503 133.969  1.00  0.00    -0.027 C 
ATOM      4  C   UNL     1     144.673 140.752 133.466  1.00  0.00     0.034 C 
ATOM      5  C   UNL     1     143.771 141.503 132.448  1.00  0.00    -0.022 C 
ATOM      6  C   UNL     1     144.498 142.819 132.053  1.00  0.00     0.008 C 
ATOM      7  C   UNL     1     143.536 143.823 131.432  1.00  0.00     0.001 C 
ATOM      8  C   UNL     1     142.518 144.346 132.453  1.00  0.00     0.007 C 
ATOM      9  C   UNL     1     142.049 143.322 133.548  1.00  0.00    -0.029 C 
ATOM     10  C   UNL     1     142.358 141.822 133.112  1.00  0.00    -0.012 C 
ATOM     11  C   UNL     1     141.881 140.758 134.136  1.00  0.00     0.022 C 
ATOM     12  C   UNL     1     141.170 140.874 132.798  1.00  0.00     0.017 C 
ATOM     13  C   UNL     1     140.544 143.607 133.808  1.00  0.00     0.012 C 
ATOM     14  C   UNL     1     142.788 143.627 134.880  1.00  0.00     0.012 C 
ATOM     15  C   UNL     1     143.642 140.637 131.159  1.00  0.00     0.012 C 
ENDROOT
TORSDOF 0
ENDMDL
