MODEL 1
REMARK VINA RESULT:    -4.509      0.000      0.000
REMARK INTER + INTRA:          -6.506
REMARK INTER:                  -6.091
REMARK INTRA:                  -0.416
REMARK UNBOUND:                -0.416
REMARK SMILES CC(=O)CCC=C(C)CCC=C(C)C
REMARK SMILES IDX 7 1 6 2 8 3 9 4 10 5 11 6 13 7 12 8 14 9 5 10 4 11 2 12 3 13
REMARK SMILES IDX 1 14
REMARK H PARENT
REMARK Flexibility Score: inf
ROOT
ATOM      1  C   UNL     1      -2.314  12.434   0.624  1.00  0.00    -0.077 C 
ATOM      2  C   UNL     1      -2.216  12.861  -0.654  1.00  0.00    -0.028 C 
ATOM      3  C   UNL     1      -2.458  10.956   0.878  1.00  0.00     0.039 C 
ENDROOT
BRANCH   1   4
ATOM      4  C   UNL     1      -2.235  13.375   1.810  1.00  0.00     0.034 C 
BRANCH   4   5
ATOM      5  C   UNL     1      -0.987  13.083   2.651  1.00  0.00     0.032 C 
BRANCH   5   6
ATOM      6  C   UNL     1      -1.309  13.123   4.124  1.00  0.00    -0.028 C 
ATOM      7  C   UNL     1      -0.914  13.505   6.519  1.00  0.00     0.039 C 
ATOM      8  C   UNL     1      -0.440  13.497   5.089  1.00  0.00    -0.080 C 
ATOM      9  C   UNL     1       0.985  13.888   4.776  1.00  0.00     0.039 C 
ENDBRANCH   5   6
ENDBRANCH   4   5
ENDBRANCH   1   4
BRANCH   2  10
ATOM     10  C   UNL     1      -2.064  14.315  -1.041  1.00  0.00     0.035 C 
BRANCH  10  11
ATOM     11  C   UNL     1      -2.212  14.530  -2.552  1.00  0.00     0.079 C 
BRANCH  11  12
ATOM     12  C   UNL     1      -1.521  15.791  -3.004  1.00  0.00     0.130 C 
ATOM     13  O   UNL     1      -1.272  16.669  -2.193  1.00  0.00    -0.300 OA
ATOM     14  C   UNL     1      -1.160  15.999  -4.445  1.00  0.00     0.087 C 
ENDBRANCH  11  12
ENDBRANCH  10  11
ENDBRANCH   2  10
TORSDOF 6
ENDMDL
MODEL 2
REMARK VINA RESULT:    -4.488      2.924      4.835
REMARK INTER + INTRA:          -6.478
REMARK INTER:                  -5.150
REMARK INTRA:                  -1.328
REMARK UNBOUND:                -0.416
REMARK SMILES CC(=O)CCC=C(C)CCC=C(C)C
REMARK SMILES IDX 7 1 6 2 8 3 9 4 10 5 11 6 13 7 12 8 14 9 5 10 4 11 2 12 3 13
REMARK SMILES IDX 1 14
REMARK H PARENT
REMARK Flexibility Score: inf
ROOT
ATOM      1  C   UNL     1      -0.405  14.872   4.271  1.00  0.00    -0.077 C 
ATOM      2  C   UNL     1      -0.754  14.512   3.017  1.00  0.00    -0.028 C 
ATOM      3  C   UNL     1      -0.484  16.328   4.650  1.00  0.00     0.039 C 
ENDROOT
BRANCH   1   4
ATOM      4  C   UNL     1       0.013  13.864   5.323  1.00  0.00     0.034 C 
BRANCH   4   5
ATOM      5  C   UNL     1      -0.987  13.846   6.485  1.00  0.00     0.032 C 
BRANCH   5   6
ATOM      6  C   UNL     1      -1.909  12.657   6.384  1.00  0.00    -0.028 C 
ATOM      7  C   UNL     1      -3.955  11.420   5.820  1.00  0.00     0.039 C 
ATOM      8  C   UNL     1      -3.159  12.697   5.872  1.00  0.00    -0.080 C 
ATOM      9  C   UNL     1      -3.779  13.981   5.372  1.00  0.00     0.039 C 
ENDBRANCH   5   6
ENDBRANCH   4   5
ENDBRANCH   1   4
BRANCH   2  10
ATOM     10  C   UNL     1      -0.724  13.087   2.515  1.00  0.00     0.035 C 
BRANCH  10  11
ATOM     11  C   UNL     1      -2.126  12.557   2.189  1.00  0.00     0.079 C 
BRANCH  11  12
ATOM     12  C   UNL     1      -2.125  11.712   0.941  1.00  0.00     0.130 C 
ATOM     13  O   UNL     1      -2.228  10.498   1.033  1.00  0.00    -0.300 OA
ATOM     14  C   UNL     1      -1.969  12.335  -0.414  1.00  0.00     0.087 C 
ENDBRANCH  11  12
ENDBRANCH  10  11
ENDBRANCH   2  10
TORSDOF 6
ENDMDL
MODEL 3
REMARK VINA RESULT:    -4.378      2.949      4.523
REMARK INTER + INTRA:          -6.329
REMARK INTER:                  -4.959
REMARK INTRA:                  -1.370
REMARK UNBOUND:                -0.416
REMARK SMILES CC(=O)CCC=C(C)CCC=C(C)C
REMARK SMILES IDX 7 1 6 2 8 3 9 4 10 5 11 6 13 7 12 8 14 9 5 10 4 11 2 12 3 13
REMARK SMILES IDX 1 14
REMARK H PARENT
REMARK Flexibility Score: inf
ROOT
ATOM      1  C   UNL     1      -2.523  15.468   4.074  1.00  0.00    -0.077 C 
ATOM      2  C   UNL     1      -2.915  14.340   3.444  1.00  0.00    -0.028 C 
ATOM      3  C   UNL     1      -3.058  15.742   5.456  1.00  0.00     0.039 C 
ENDROOT
BRANCH   1   4
ATOM      4  C   UNL     1      -1.531  16.441   3.468  1.00  0.00     0.034 C 
BRANCH   4   5
ATOM      5  C   UNL     1      -0.191  16.381   4.209  1.00  0.00     0.032 C 
BRANCH   5   6
ATOM      6  C   UNL     1       0.694  15.304   3.635  1.00  0.00    -0.028 C 
ATOM      7  C   UNL     1       1.805  13.116   3.505  1.00  0.00     0.039 C 
ATOM      8  C   UNL     1       0.908  14.099   4.209  1.00  0.00    -0.080 C 
ATOM      9  C   UNL     1       0.289  13.723   5.535  1.00  0.00     0.039 C 
ENDBRANCH   5   6
ENDBRANCH   4   5
ENDBRANCH   1   4
BRANCH   2  10
ATOM     10  C   UNL     1      -2.447  13.948   2.060  1.00  0.00     0.035 C 
BRANCH  10  11
ATOM     11  C   UNL     1      -1.664  12.630   2.065  1.00  0.00     0.079 C 
BRANCH  11  12
ATOM     12  C   UNL     1      -2.026  11.763   0.886  1.00  0.00     0.130 C 
ATOM     13  O   UNL     1      -2.274  10.580   1.059  1.00  0.00    -0.300 OA
ATOM     14  C   UNL     1      -2.057  12.325  -0.504  1.00  0.00     0.087 C 
ENDBRANCH  11  12
ENDBRANCH  10  11
ENDBRANCH   2  10
TORSDOF 6
ENDMDL
MODEL 4
REMARK VINA RESULT:    -4.368      8.155     10.155
REMARK INTER + INTRA:          -6.316
REMARK INTER:                  -4.630
REMARK INTRA:                  -1.686
REMARK UNBOUND:                -0.416
REMARK SMILES CC(=O)CCC=C(C)CCC=C(C)C
REMARK SMILES IDX 7 1 6 2 8 3 9 4 10 5 11 6 13 7 12 8 14 9 5 10 4 11 2 12 3 13
REMARK SMILES IDX 1 14
REMARK H PARENT
REMARK Flexibility Score: inf
ROOT
ATOM      1  C   UNL     1      -0.899   4.816  -2.686  1.00  0.00    -0.077 C 
ATOM      2  C   UNL     1      -1.691   5.792  -3.182  1.00  0.00    -0.028 C 
ATOM      3  C   UNL     1      -1.439   3.411  -2.630  1.00  0.00     0.039 C 
ENDROOT
BRANCH   1   4
ATOM      4  C   UNL     1       0.525   5.071  -2.232  1.00  0.00     0.034 C 
BRANCH   4   5
ATOM      5  C   UNL     1       1.526   4.453  -3.214  1.00  0.00     0.032 C 
BRANCH   5   6
ATOM      6  C   UNL     1       1.821   5.399  -4.350  1.00  0.00    -0.028 C 
ATOM      7  C   UNL     1       1.689   6.316  -6.626  1.00  0.00     0.039 C 
ATOM      8  C   UNL     1       1.318   5.279  -5.599  1.00  0.00    -0.080 C 
ATOM      9  C   UNL     1       0.413   4.134  -5.992  1.00  0.00     0.039 C 
ENDBRANCH   5   6
ENDBRANCH   4   5
ENDBRANCH   1   4
BRANCH   2  10
ATOM     10  C   UNL     1      -1.267   7.238  -3.296  1.00  0.00     0.035 C 
BRANCH  10  11
ATOM     11  C   UNL     1      -1.328   7.748  -4.741  1.00  0.00     0.079 C 
BRANCH  11  12
ATOM     12  C   UNL     1      -0.469   8.971  -4.936  1.00  0.00     0.130 C 
ATOM     13  O   UNL     1      -0.868   9.883  -5.643  1.00  0.00    -0.300 OA
ATOM     14  C   UNL     1       0.885   9.074  -4.299  1.00  0.00     0.087 C 
ENDBRANCH  11  12
ENDBRANCH  10  11
ENDBRANCH   2  10
TORSDOF 6
ENDMDL
MODEL 5
REMARK VINA RESULT:    -4.294      2.880      5.029
REMARK INTER + INTRA:          -6.216
REMARK INTER:                  -4.830
REMARK INTRA:                  -1.386
REMARK UNBOUND:                -0.416
REMARK SMILES CC(=O)CCC=C(C)CCC=C(C)C
REMARK SMILES IDX 7 1 6 2 8 3 9 4 10 5 11 6 13 7 12 8 14 9 5 10 4 11 2 12 3 13
REMARK SMILES IDX 1 14
REMARK H PARENT
REMARK Flexibility Score: inf
ROOT
ATOM      1  C   UNL     1      -1.264  13.990   5.398  1.00  0.00    -0.077 C 
ATOM      2  C   UNL     1      -1.186  13.037   4.444  1.00  0.00    -0.028 C 
ATOM      3  C   UNL     1      -0.375  13.869   6.609  1.00  0.00     0.039 C 
ENDROOT
BRANCH   1   4
ATOM      4  C   UNL     1      -2.171  15.199   5.274  1.00  0.00     0.034 C 
BRANCH   4   5
ATOM      5  C   UNL     1      -1.362  16.448   4.908  1.00  0.00     0.032 C 
BRANCH   5   6
ATOM      6  C   UNL     1      -1.392  16.693   3.421  1.00  0.00    -0.028 C 
ATOM      7  C   UNL     1      -0.547  16.725   1.113  1.00  0.00     0.039 C 
ATOM      8  C   UNL     1      -0.361  16.448   2.582  1.00  0.00    -0.080 C 
ATOM      9  C   UNL     1       0.967  15.923   3.077  1.00  0.00     0.039 C 
ENDBRANCH   5   6
ENDBRANCH   4   5
ENDBRANCH   1   4
BRANCH   2  10
ATOM     10  C   UNL     1      -2.019  13.045   3.182  1.00  0.00     0.035 C 
BRANCH  10  11
ATOM     11  C   UNL     1      -1.160  12.893   1.921  1.00  0.00     0.079 C 
BRANCH  11  12
ATOM     12  C   UNL     1      -1.817  11.991   0.907  1.00  0.00     0.130 C 
ATOM     13  O   UNL     1      -2.132  10.855   1.222  1.00  0.00    -0.300 OA
ATOM     14  C   UNL     1      -2.063  12.459  -0.497  1.00  0.00     0.087 C 
ENDBRANCH  11  12
ENDBRANCH  10  11
ENDBRANCH   2  10
TORSDOF 6
ENDMDL
MODEL 6
REMARK VINA RESULT:    -4.291      8.109      9.284
REMARK INTER + INTRA:          -6.211
REMARK INTER:                  -4.658
REMARK INTRA:                  -1.553
REMARK UNBOUND:                -0.416
REMARK SMILES CC(=O)CCC=C(C)CCC=C(C)C
REMARK SMILES IDX 7 1 6 2 8 3 9 4 10 5 11 6 13 7 12 8 14 9 5 10 4 11 2 12 3 13
REMARK SMILES IDX 1 14
REMARK H PARENT
REMARK Flexibility Score: inf
ROOT
ATOM      1  C   UNL     1      -1.121   4.915  -3.287  1.00  0.00    -0.077 C 
ATOM      2  C   UNL     1      -1.718   6.126  -3.280  1.00  0.00    -0.028 C 
ATOM      3  C   UNL     1      -1.384   3.976  -2.138  1.00  0.00     0.039 C 
ENDROOT
BRANCH   1   4
ATOM      4  C   UNL     1      -0.239   4.445  -4.428  1.00  0.00     0.034 C 
BRANCH   4   5
ATOM      5  C   UNL     1       1.207   4.259  -3.954  1.00  0.00     0.032 C 
BRANCH   5   6
ATOM      6  C   UNL     1       1.921   5.584  -3.869  1.00  0.00    -0.028 C 
ATOM      7  C   UNL     1       3.022   7.499  -2.792  1.00  0.00     0.039 C 
ATOM      8  C   UNL     1       2.297   6.181  -2.716  1.00  0.00    -0.080 C 
ATOM      9  C   UNL     1       1.997   5.574  -1.365  1.00  0.00     0.039 C 
ENDBRANCH   5   6
ENDBRANCH   4   5
ENDBRANCH   1   4
BRANCH   2  10
ATOM     10  C   UNL     1      -1.540   7.155  -4.373  1.00  0.00     0.035 C 
BRANCH  10  11
ATOM     11  C   UNL     1      -0.572   8.272  -3.966  1.00  0.00     0.079 C 
BRANCH  11  12
ATOM     12  C   UNL     1      -0.131   9.086  -5.155  1.00  0.00     0.130 C 
ATOM     13  O   UNL     1      -0.883   9.926  -5.626  1.00  0.00    -0.300 OA
ATOM     14  C   UNL     1       1.209   8.862  -5.791  1.00  0.00     0.087 C 
ENDBRANCH  11  12
ENDBRANCH  10  11
ENDBRANCH   2  10
TORSDOF 6
ENDMDL
MODEL 7
REMARK VINA RESULT:    -4.272      8.090     10.271
REMARK INTER + INTRA:          -6.186
REMARK INTER:                  -5.669
REMARK INTRA:                  -0.518
REMARK UNBOUND:                -0.416
REMARK SMILES CC(=O)CCC=C(C)CCC=C(C)C
REMARK SMILES IDX 7 1 6 2 8 3 9 4 10 5 11 6 13 7 12 8 14 9 5 10 4 11 2 12 3 13
REMARK SMILES IDX 1 14
REMARK H PARENT
REMARK Flexibility Score: inf
ROOT
ATOM      1  C   UNL     1      -6.910   8.828   7.073  1.00  0.00    -0.077 C 
ATOM      2  C   UNL     1      -7.965   8.063   6.714  1.00  0.00    -0.028 C 
ATOM      3  C   UNL     1      -6.056   8.376   8.229  1.00  0.00     0.039 C 
ENDROOT
BRANCH   1   4
ATOM      4  C   UNL     1      -6.526  10.091   6.330  1.00  0.00     0.034 C 
BRANCH   4   5
ATOM      5  C   UNL     1      -5.370  10.807   7.038  1.00  0.00     0.032 C 
BRANCH   5   6
ATOM      6  C   UNL     1      -4.322  11.250   6.049  1.00  0.00    -0.028 C 
ATOM      7  C   UNL     1      -2.941  12.826   4.766  1.00  0.00     0.039 C 
ATOM      8  C   UNL     1      -4.031  12.539   5.766  1.00  0.00    -0.080 C 
ATOM      9  C   UNL     1      -4.773  13.688   6.408  1.00  0.00     0.039 C 
ENDBRANCH   5   6
ENDBRANCH   4   5
ENDBRANCH   1   4
BRANCH   2  10
ATOM     10  C   UNL     1      -8.895   8.403   5.571  1.00  0.00     0.035 C 
BRANCH  10  11
ATOM     11  C   UNL     1     -10.130   7.494   5.539  1.00  0.00     0.079 C 
BRANCH  11  12
ATOM     12  C   UNL     1      -9.759   6.062   5.253  1.00  0.00     0.130 C 
ATOM     13  O   UNL     1     -10.000   5.198   6.081  1.00  0.00    -0.300 OA
ATOM     14  C   UNL     1      -9.068   5.684   3.976  1.00  0.00     0.087 C 
ENDBRANCH  11  12
ENDBRANCH  10  11
ENDBRANCH   2  10
TORSDOF 6
ENDMDL
MODEL 8
REMARK VINA RESULT:    -4.265      8.322     10.164
REMARK INTER + INTRA:          -6.176
REMARK INTER:                  -4.667
REMARK INTRA:                  -1.509
REMARK UNBOUND:                -0.416
REMARK SMILES CC(=O)CCC=C(C)CCC=C(C)C
REMARK SMILES IDX 7 1 6 2 8 3 9 4 10 5 11 6 13 7 12 8 14 9 5 10 4 11 2 12 3 13
REMARK SMILES IDX 1 14
REMARK H PARENT
REMARK Flexibility Score: inf
ROOT
ATOM      1  C   UNL     1      -0.728   8.631  -5.075  1.00  0.00    -0.077 C 
ATOM      2  C   UNL     1      -1.470   7.526  -4.845  1.00  0.00    -0.028 C 
ATOM      3  C   UNL     1      -0.820   9.290  -6.426  1.00  0.00     0.039 C 
ENDROOT
BRANCH   1   4
ATOM      4  C   UNL     1       0.151   9.261  -4.013  1.00  0.00     0.034 C 
BRANCH   4   5
ATOM      5  C   UNL     1       1.630   8.965  -4.288  1.00  0.00     0.032 C 
BRANCH   5   6
ATOM      6  C   UNL     1       2.087   7.746  -3.527  1.00  0.00    -0.028 C 
ATOM      7  C   UNL     1       2.762   5.408  -3.191  1.00  0.00     0.039 C 
ATOM      8  C   UNL     1       2.284   6.527  -4.077  1.00  0.00    -0.080 C 
ATOM      9  C   UNL     1       2.024   6.257  -5.541  1.00  0.00     0.039 C 
ENDBRANCH   5   6
ENDBRANCH   4   5
ENDBRANCH   1   4
BRANCH   2  10
ATOM     10  C   UNL     1      -1.471   6.776  -3.532  1.00  0.00     0.035 C 
BRANCH  10  11
ATOM     11  C   UNL     1      -1.138   5.290  -3.714  1.00  0.00     0.079 C 
BRANCH  11  12
ATOM     12  C   UNL     1      -1.321   4.518  -2.432  1.00  0.00     0.130 C 
ATOM     13  O   UNL     1      -2.215   3.691  -2.347  1.00  0.00    -0.300 OA
ATOM     14  C   UNL     1      -0.440   4.773  -1.245  1.00  0.00     0.087 C 
ENDBRANCH  11  12
ENDBRANCH  10  11
ENDBRANCH   2  10
TORSDOF 6
ENDMDL
MODEL 9
REMARK VINA RESULT:    -4.209      8.443     10.343
REMARK INTER + INTRA:          -6.100
REMARK INTER:                  -4.776
REMARK INTRA:                  -1.324
REMARK UNBOUND:                -0.416
REMARK SMILES CC(=O)CCC=C(C)CCC=C(C)C
REMARK SMILES IDX 7 1 6 2 8 3 9 4 10 5 11 6 13 7 12 8 14 9 5 10 4 11 2 12 3 13
REMARK SMILES IDX 1 14
REMARK H PARENT
REMARK Flexibility Score: inf
ROOT
ATOM      1  C   UNL     1      -0.921   6.988  -6.066  1.00  0.00    -0.077 C 
ATOM      2  C   UNL     1      -0.228   5.831  -5.987  1.00  0.00    -0.028 C 
ATOM      3  C   UNL     1      -1.350   7.478  -7.424  1.00  0.00     0.039 C 
ENDROOT
BRANCH   1   4
ATOM      4  C   UNL     1      -1.324   7.784  -4.840  1.00  0.00     0.034 C 
BRANCH   4   5
ATOM      5  C   UNL     1      -0.627   9.150  -4.827  1.00  0.00     0.032 C 
BRANCH   5   6
ATOM      6  C   UNL     1       0.645   9.098  -4.019  1.00  0.00    -0.028 C 
ATOM      7  C   UNL     1       3.067   9.067  -3.608  1.00  0.00     0.039 C 
ATOM      8  C   UNL     1       1.889   9.103  -4.546  1.00  0.00    -0.080 C 
ATOM      9  C   UNL     1       2.128   9.127  -6.038  1.00  0.00     0.039 C 
ENDBRANCH   5   6
ENDBRANCH   4   5
ENDBRANCH   1   4
BRANCH   2  10
ATOM     10  C   UNL     1       0.255   5.231  -4.686  1.00  0.00     0.035 C 
BRANCH  10  11
ATOM     11  C   UNL     1      -0.658   4.100  -4.196  1.00  0.00     0.079 C 
BRANCH  11  12
ATOM     12  C   UNL     1      -1.284   4.428  -2.864  1.00  0.00     0.130 C 
ATOM     13  O   UNL     1      -2.268   3.809  -2.490  1.00  0.00    -0.300 OA
ATOM     14  C   UNL     1      -0.734   5.525  -2.002  1.00  0.00     0.087 C 
ENDBRANCH  11  12
ENDBRANCH  10  11
ENDBRANCH   2  10
TORSDOF 6
ENDMDL
