MODEL 1
REMARK VINA RESULT:     6.068      0.000      0.000
REMARK INTER + INTRA:           7.507
REMARK INTER:                   7.309
REMARK INTRA:                   0.198
REMARK UNBOUND:                 0.198
REMARK SMILES O=c1c(O)c(-c2ccc(O)c(O)c2)oc2cc(O)cc(O)c12
REMARK SMILES IDX 5 1 3 2 2 3 1 4 22 5 20 6 19 7 17 8 16 9 15 10 14 11 6 12
REMARK SMILES IDX 7 13 8 14 9 15 13 16 11 17 10 18 12 20 4 22 21 24 18 26
REMARK H PARENT 10 19 12 21 4 23 21 25 18 27
REMARK Flexibility Score: inf
ROOT
ATOM      1  C   UNL     1      13.305  21.599   0.823  1.00  0.00     0.180 A 
ATOM      2  C   UNL     1      14.165  22.511   0.182  1.00  0.00     0.208 A 
ATOM      3  C   UNL     1      14.213  22.529  -1.221  1.00  0.00     0.238 A 
ATOM      4  O   UNL     1      14.987  23.333  -1.806  1.00  0.00    -0.285 OA
ATOM      5  C   UNL     1      13.389  21.652  -1.957  1.00  0.00     0.111 A 
ATOM      6  C   UNL     1      13.374  21.608  -3.372  1.00  0.00     0.134 A 
ATOM      7  C   UNL     1      12.518  20.713  -4.031  1.00  0.00     0.093 A 
ATOM      8  C   UNL     1      11.679  19.863  -3.303  1.00  0.00     0.123 A 
ATOM      9  C   UNL     1      11.690  19.902  -1.908  1.00  0.00     0.094 A 
ATOM     10  C   UNL     1      12.537  20.786  -1.232  1.00  0.00     0.146 A 
ATOM     11  O   UNL     1      12.532  20.797   0.096  1.00  0.00    -0.452 OA
ENDROOT
BRANCH   1  12
ATOM     12  C   UNL     1      13.213  21.508   2.298  1.00  0.00     0.025 A 
ATOM     13  C   UNL     1      13.313  22.651   3.110  1.00  0.00     0.016 A 
ATOM     14  C   UNL     1      13.247  22.539   4.500  1.00  0.00     0.051 A 
ATOM     15  C   UNL     1      13.095  21.286   5.103  1.00  0.00     0.157 A 
ATOM     16  C   UNL     1      13.081  20.249   2.906  1.00  0.00     0.062 A 
ATOM     17  C   UNL     1      13.015  20.133   4.302  1.00  0.00     0.158 A 
BRANCH  15  18
ATOM     18  O   UNL     1      13.030  21.204   6.492  1.00  0.00    -0.504 OA
ATOM     19  H   UNL     1      13.077  22.025   7.083  1.00  0.00     0.293 HD
ENDBRANCH  15  18
BRANCH  17  20
ATOM     20  O   UNL     1      12.870  18.880   4.895  1.00  0.00    -0.504 OA
ATOM     21  H   UNL     1      12.935  18.757   5.899  1.00  0.00     0.293 HD
ENDBRANCH  17  20
ENDBRANCH   1  12
BRANCH   2  22
ATOM     22  O   UNL     1      14.935  23.403   0.934  1.00  0.00    -0.502 OA
ATOM     23  H   UNL     1      15.856  23.706   0.639  1.00  0.00     0.293 HD
ENDBRANCH   2  22
BRANCH   6  24
ATOM     24  O   UNL     1      14.200  22.445  -4.125  1.00  0.00    -0.507 OA
ATOM     25  H   UNL     1      14.291  23.432  -3.915  1.00  0.00     0.293 HD
ENDBRANCH   6  24
BRANCH   8  26
ATOM     26  O   UNL     1      10.828  18.974  -3.957  1.00  0.00    -0.508 OA
ATOM     27  H   UNL     1      11.034  18.634  -4.889  1.00  0.00     0.293 HD
ENDBRANCH   8  26
TORSDOF 6
ENDMDL
MODEL 2
REMARK VINA RESULT:     8.894      1.375      2.819
REMARK INTER + INTRA:          10.912
REMARK INTER:                  10.368
REMARK INTRA:                   0.544
REMARK UNBOUND:                 0.198
REMARK SMILES O=c1c(O)c(-c2ccc(O)c(O)c2)oc2cc(O)cc(O)c12
REMARK SMILES IDX 5 1 3 2 2 3 1 4 22 5 20 6 19 7 17 8 16 9 15 10 14 11 6 12
REMARK SMILES IDX 7 13 8 14 9 15 13 16 11 17 10 18 12 20 4 22 21 24 18 26
REMARK H PARENT 10 19 12 21 4 23 21 25 18 27
REMARK Flexibility Score: inf
ROOT
ATOM      1  C   UNL     1      13.191  21.480   0.936  1.00  0.00     0.180 A 
ATOM      2  C   UNL     1      13.025  20.326   0.147  1.00  0.00     0.208 A 
ATOM      3  C   UNL     1      13.057  20.449  -1.251  1.00  0.00     0.238 A 
ATOM      4  O   UNL     1      12.898  19.424  -1.968  1.00  0.00    -0.285 OA
ATOM      5  C   UNL     1      13.275  21.715  -1.834  1.00  0.00     0.111 A 
ATOM      6  C   UNL     1      13.327  21.924  -3.233  1.00  0.00     0.134 A 
ATOM      7  C   UNL     1      13.557  23.214  -3.736  1.00  0.00     0.093 A 
ATOM      8  C   UNL     1      13.738  24.295  -2.867  1.00  0.00     0.123 A 
ATOM      9  C   UNL     1      13.688  24.094  -1.486  1.00  0.00     0.094 A 
ATOM     10  C   UNL     1      13.458  22.816  -0.966  1.00  0.00     0.146 A 
ATOM     11  O   UNL     1      13.409  22.655   0.352  1.00  0.00    -0.452 OA
ENDROOT
BRANCH   1  12
ATOM     12  C   UNL     1      13.150  21.434   2.416  1.00  0.00     0.025 A 
ATOM     13  C   UNL     1      13.274  22.602   3.189  1.00  0.00     0.016 A 
ATOM     14  C   UNL     1      13.257  22.532   4.583  1.00  0.00     0.051 A 
ATOM     15  C   UNL     1      13.131  21.298   5.228  1.00  0.00     0.157 A 
ATOM     16  C   UNL     1      13.044  20.195   3.066  1.00  0.00     0.062 A 
ATOM     17  C   UNL     1      13.027  20.122   4.467  1.00  0.00     0.158 A 
BRANCH  15  18
ATOM     18  O   UNL     1      13.115  21.259   6.622  1.00  0.00    -0.504 OA
ATOM     19  H   UNL     1      12.287  21.491   7.158  1.00  0.00     0.293 HD
ENDBRANCH  15  18
BRANCH  17  20
ATOM     20  O   UNL     1      12.907  18.887   5.103  1.00  0.00    -0.504 OA
ATOM     21  H   UNL     1      12.313  18.763   5.915  1.00  0.00     0.293 HD
ENDBRANCH  17  20
ENDBRANCH   1  12
BRANCH   2  22
ATOM     22  O   UNL     1      12.859  19.076   0.750  1.00  0.00    -0.502 OA
ATOM     23  H   UNL     1      13.273  18.233   0.372  1.00  0.00     0.293 HD
ENDBRANCH   2  22
BRANCH   6  24
ATOM     24  O   UNL     1      13.151  20.864  -4.125  1.00  0.00    -0.507 OA
ATOM     25  H   UNL     1      13.823  20.668  -4.857  1.00  0.00     0.293 HD
ENDBRANCH   6  24
BRANCH   8  26
ATOM     26  O   UNL     1      13.968  25.576  -3.365  1.00  0.00    -0.508 OA
ATOM     27  H   UNL     1      14.370  26.304  -2.787  1.00  0.00     0.293 HD
ENDBRANCH   8  26
TORSDOF 6
ENDMDL
