MODEL 1
REMARK VINA RESULT:    -4.674      0.000      0.000
REMARK INTER + INTRA:         -10.286
REMARK INTER:                  -8.227
REMARK INTRA:                  -2.059
REMARK UNBOUND:                -2.059
REMARK SMILES CCCCCCCCCCCCCCC(=O)[O-]
REMARK SMILES IDX 9 1 10 2 11 3 12 4 13 5 14 6 15 7 16 8 17 9 8 10 7 11 6 12
REMARK SMILES IDX 5 13 4 14 3 15 2 16 1 17
REMARK H PARENT
REMARK Flexibility Score: inf
ROOT
ATOM      1  C   UNL     1      60.481  28.620  13.616  1.00  0.00     0.000 C 
ENDROOT
BRANCH   1   2
ATOM      2  C   UNL     1      61.892  28.280  13.110  1.00  0.00     0.000 C 
BRANCH   2   3
ATOM      3  C   UNL     1      62.865  29.466  13.231  1.00  0.00     0.000 C 
BRANCH   3   4
ATOM      4  C   UNL     1      62.231  30.681  13.927  1.00  0.00     0.000 C 
BRANCH   4   5
ATOM      5  C   UNL     1      62.063  31.886  12.984  1.00  0.00     0.006 C 
BRANCH   5   6
ATOM      6  C   UNL     1      60.603  32.346  12.890  1.00  0.00     0.053 C 
BRANCH   6   7
ATOM      7  C   UNL     1      59.987  32.532  14.243  1.00  0.00     0.041 C 
ATOM      8  O   UNL     1      60.382  33.461  14.996  1.00  0.00    -0.550 OA
ATOM      9  O   UNL     1      58.959  31.697  14.661  1.00  0.00    -0.550 OA
ENDBRANCH   6   7
ENDBRANCH   5   6
ENDBRANCH   4   5
ENDBRANCH   3   4
ENDBRANCH   2   3
ENDBRANCH   1   2
BRANCH   1  10
ATOM     10  C   UNL     1      59.390  28.322  12.575  1.00  0.00     0.000 C 
BRANCH  10  11
ATOM     11  C   UNL     1      59.558  29.210  11.336  1.00  0.00    -0.000 C 
BRANCH  11  12
ATOM     12  C   UNL     1      59.454  28.382  10.047  1.00  0.00    -0.000 C 
BRANCH  12  13
ATOM     13  C   UNL     1      60.821  28.130   9.383  1.00  0.00    -0.000 C 
BRANCH  13  14
ATOM     14  C   UNL     1      61.847  29.266   9.546  1.00  0.00    -0.000 C 
BRANCH  14  15
ATOM     15  C   UNL     1      63.302  28.768   9.525  1.00  0.00    -0.000 C 
BRANCH  15  16
ATOM     16  C   UNL     1      64.276  29.822   8.977  1.00  0.00    -0.003 C 
ATOM     17  C   UNL     1      64.567  30.940   9.979  1.00  0.00     0.004 C 
ENDBRANCH  15  16
ENDBRANCH  14  15
ENDBRANCH  13  14
ENDBRANCH  12  13
ENDBRANCH  11  12
ENDBRANCH  10  11
ENDBRANCH   1  10
TORSDOF 13
ENDMDL
MODEL 2
REMARK VINA RESULT:    -4.599     12.723     15.060
REMARK INTER + INTRA:         -10.153
REMARK INTER:                  -8.167
REMARK INTRA:                  -1.986
REMARK UNBOUND:                -2.059
REMARK SMILES CCCCCCCCCCCCCCC(=O)[O-]
REMARK SMILES IDX 9 1 10 2 11 3 12 4 13 5 14 6 15 7 16 8 17 9 8 10 7 11 6 12
REMARK SMILES IDX 5 13 4 14 3 15 2 16 1 17
REMARK H PARENT
REMARK Flexibility Score: inf
ROOT
ATOM      1  C   UNL     1      64.181  30.320  27.216  1.00  0.00     0.000 C 
ENDROOT
BRANCH   1   2
ATOM      2  C   UNL     1      65.542  29.705  26.854  1.00  0.00     0.000 C 
BRANCH   2   3
ATOM      3  C   UNL     1      65.826  29.746  25.342  1.00  0.00     0.000 C 
BRANCH   3   4
ATOM      4  C   UNL     1      65.882  28.344  24.713  1.00  0.00     0.000 C 
BRANCH   4   5
ATOM      5  C   UNL     1      64.852  27.377  25.324  1.00  0.00     0.006 C 
BRANCH   5   6
ATOM      6  C   UNL     1      64.877  26.002  24.645  1.00  0.00     0.053 C 
BRANCH   6   7
ATOM      7  C   UNL     1      63.785  25.861  23.629  1.00  0.00     0.041 C 
ATOM      8  O   UNL     1      62.987  24.889  23.686  1.00  0.00    -0.550 OA
ATOM      9  O   UNL     1      63.631  26.820  22.635  1.00  0.00    -0.550 OA
ENDBRANCH   6   7
ENDBRANCH   5   6
ENDBRANCH   4   5
ENDBRANCH   3   4
ENDBRANCH   2   3
ENDBRANCH   1   2
BRANCH   1  10
ATOM     10  C   UNL     1      63.562  29.691  28.475  1.00  0.00     0.000 C 
BRANCH  10  11
ATOM     11  C   UNL     1      62.106  30.139  28.652  1.00  0.00    -0.000 C 
BRANCH  11  12
ATOM     12  C   UNL     1      61.139  28.964  28.446  1.00  0.00    -0.000 C 
BRANCH  12  13
ATOM     13  C   UNL     1      61.860  27.608  28.325  1.00  0.00    -0.000 C 
BRANCH  13  14
ATOM     14  C   UNL     1      61.653  26.873  26.988  1.00  0.00    -0.000 C 
BRANCH  14  15
ATOM     15  C   UNL     1      60.520  27.476  26.141  1.00  0.00    -0.000 C 
BRANCH  15  16
ATOM     16  C   UNL     1      61.001  27.935  24.756  1.00  0.00    -0.003 C 
ATOM     17  C   UNL     1      61.711  29.288  24.792  1.00  0.00     0.004 C 
ENDBRANCH  15  16
ENDBRANCH  14  15
ENDBRANCH  13  14
ENDBRANCH  12  13
ENDBRANCH  11  12
ENDBRANCH  10  11
ENDBRANCH   1  10
TORSDOF 13
ENDMDL
MODEL 3
REMARK VINA RESULT:    -4.535      1.914      3.352
REMARK INTER + INTRA:         -10.041
REMARK INTER:                  -8.011
REMARK INTRA:                  -2.030
REMARK UNBOUND:                -2.059
REMARK SMILES CCCCCCCCCCCCCCC(=O)[O-]
REMARK SMILES IDX 9 1 10 2 11 3 12 4 13 5 14 6 15 7 16 8 17 9 8 10 7 11 6 12
REMARK SMILES IDX 5 13 4 14 3 15 2 16 1 17
REMARK H PARENT
REMARK Flexibility Score: inf
ROOT
ATOM      1  C   UNL     1      59.391  30.104  12.404  1.00  0.00     0.000 C 
ENDROOT
BRANCH   1   2
ATOM      2  C   UNL     1      59.479  31.279  13.392  1.00  0.00     0.000 C 
BRANCH   2   3
ATOM      3  C   UNL     1      60.507  32.339  12.959  1.00  0.00     0.000 C 
BRANCH   3   4
ATOM      4  C   UNL     1      61.541  32.642  14.054  1.00  0.00     0.000 C 
BRANCH   4   5
ATOM      5  C   UNL     1      61.008  32.357  15.470  1.00  0.00     0.006 C 
BRANCH   5   6
ATOM      6  C   UNL     1      60.733  33.646  16.255  1.00  0.00     0.053 C 
BRANCH   6   7
ATOM      7  C   UNL     1      61.425  33.648  17.584  1.00  0.00     0.041 C 
ATOM      8  O   UNL     1      62.618  33.255  17.678  1.00  0.00    -0.550 OA
ATOM      9  O   UNL     1      60.762  34.109  18.714  1.00  0.00    -0.550 OA
ENDBRANCH   6   7
ENDBRANCH   5   6
ENDBRANCH   4   5
ENDBRANCH   3   4
ENDBRANCH   2   3
ENDBRANCH   1   2
BRANCH   1  10
ATOM     10  C   UNL     1      59.683  28.749  13.067  1.00  0.00     0.000 C 
BRANCH  10  11
ATOM     11  C   UNL     1      60.950  28.821  13.928  1.00  0.00    -0.000 C 
BRANCH  11  12
ATOM     12  C   UNL     1      62.180  28.349  13.138  1.00  0.00    -0.000 C 
BRANCH  12  13
ATOM     13  C   UNL     1      63.111  29.505  12.727  1.00  0.00    -0.000 C 
BRANCH  13  14
ATOM     14  C   UNL     1      62.906  30.032  11.295  1.00  0.00    -0.000 C 
BRANCH  14  15
ATOM     15  C   UNL     1      63.061  28.939  10.225  1.00  0.00    -0.000 C 
BRANCH  15  16
ATOM     16  C   UNL     1      61.873  28.897   9.251  1.00  0.00    -0.003 C 
ATOM     17  C   UNL     1      60.796  27.897   9.670  1.00  0.00     0.004 C 
ENDBRANCH  15  16
ENDBRANCH  14  15
ENDBRANCH  13  14
ENDBRANCH  12  13
ENDBRANCH  11  12
ENDBRANCH  10  11
ENDBRANCH   1  10
TORSDOF 13
ENDMDL
MODEL 4
REMARK VINA RESULT:    -4.513      0.904      3.437
REMARK INTER + INTRA:         -10.001
REMARK INTER:                  -8.271
REMARK INTRA:                  -1.730
REMARK UNBOUND:                -2.059
REMARK SMILES CCCCCCCCCCCCCCC(=O)[O-]
REMARK SMILES IDX 9 1 10 2 11 3 12 4 13 5 14 6 15 7 16 8 17 9 8 10 7 11 6 12
REMARK SMILES IDX 5 13 4 14 3 15 2 16 1 17
REMARK H PARENT
REMARK Flexibility Score: inf
ROOT
ATOM      1  C   UNL     1      64.254  29.979   9.962  1.00  0.00     0.000 C 
ENDROOT
BRANCH   1   2
ATOM      2  C   UNL     1      63.947  31.378  10.522  1.00  0.00     0.000 C 
BRANCH   2   3
ATOM      3  C   UNL     1      63.045  31.332  11.768  1.00  0.00     0.000 C 
BRANCH   3   4
ATOM      4  C   UNL     1      63.629  32.123  12.949  1.00  0.00     0.000 C 
BRANCH   4   5
ATOM      5  C   UNL     1      62.544  32.653  13.903  1.00  0.00     0.006 C 
BRANCH   5   6
ATOM      6  C   UNL     1      61.131  32.459  13.336  1.00  0.00     0.053 C 
BRANCH   6   7
ATOM      7  C   UNL     1      60.081  32.603  14.395  1.00  0.00     0.041 C 
ATOM      8  O   UNL     1      60.138  33.554  15.219  1.00  0.00    -0.550 OA
ATOM      9  O   UNL     1      59.024  31.703  14.455  1.00  0.00    -0.550 OA
ENDBRANCH   6   7
ENDBRANCH   5   6
ENDBRANCH   4   5
ENDBRANCH   3   4
ENDBRANCH   2   3
ENDBRANCH   1   2
BRANCH   1  10
ATOM     10  C   UNL     1      63.124  28.973  10.229  1.00  0.00     0.000 C 
BRANCH  10  11
ATOM     11  C   UNL     1      62.045  29.060   9.142  1.00  0.00    -0.000 C 
BRANCH  11  12
ATOM     12  C   UNL     1      60.830  28.191   9.501  1.00  0.00    -0.000 C 
BRANCH  12  13
ATOM     13  C   UNL     1      59.615  29.017   9.961  1.00  0.00    -0.000 C 
BRANCH  13  14
ATOM     14  C   UNL     1      59.689  29.541  11.406  1.00  0.00    -0.000 C 
BRANCH  14  15
ATOM     15  C   UNL     1      59.068  28.574  12.428  1.00  0.00    -0.000 C 
BRANCH  15  16
ATOM     16  C   UNL     1      60.129  27.795  13.221  1.00  0.00    -0.003 C 
ATOM     17  C   UNL     1      61.362  28.636  13.547  1.00  0.00     0.004 C 
ENDBRANCH  15  16
ENDBRANCH  14  15
ENDBRANCH  13  14
ENDBRANCH  12  13
ENDBRANCH  11  12
ENDBRANCH  10  11
ENDBRANCH   1  10
TORSDOF 13
ENDMDL
MODEL 5
REMARK VINA RESULT:    -4.464      1.830      3.962
REMARK INTER + INTRA:          -9.916
REMARK INTER:                  -7.966
REMARK INTRA:                  -1.950
REMARK UNBOUND:                -2.059
REMARK SMILES CCCCCCCCCCCCCCC(=O)[O-]
REMARK SMILES IDX 9 1 10 2 11 3 12 4 13 5 14 6 15 7 16 8 17 9 8 10 7 11 6 12
REMARK SMILES IDX 5 13 4 14 3 15 2 16 1 17
REMARK H PARENT
REMARK Flexibility Score: inf
ROOT
ATOM      1  C   UNL     1      62.420  30.530  13.780  1.00  0.00     0.000 C 
ENDROOT
BRANCH   1   2
ATOM      2  C   UNL     1      62.226  31.855  13.025  1.00  0.00     0.000 C 
BRANCH   2   3
ATOM      3  C   UNL     1      60.760  32.322  13.017  1.00  0.00     0.000 C 
BRANCH   3   4
ATOM      4  C   UNL     1      60.071  32.130  14.378  1.00  0.00     0.000 C 
BRANCH   4   5
ATOM      5  C   UNL     1      60.347  33.288  15.352  1.00  0.00     0.006 C 
BRANCH   5   6
ATOM      6  C   UNL     1      61.146  32.834  16.580  1.00  0.00     0.053 C 
BRANCH   6   7
ATOM      7  C   UNL     1      62.016  33.930  17.116  1.00  0.00     0.041 C 
ATOM      8  O   UNL     1      61.631  34.624  18.094  1.00  0.00    -0.550 OA
ATOM      9  O   UNL     1      63.265  34.165  16.554  1.00  0.00    -0.550 OA
ENDBRANCH   6   7
ENDBRANCH   5   6
ENDBRANCH   4   5
ENDBRANCH   3   4
ENDBRANCH   2   3
ENDBRANCH   1   2
BRANCH   1  10
ATOM     10  C   UNL     1      63.016  29.425  12.895  1.00  0.00     0.000 C 
BRANCH  10  11
ATOM     11  C   UNL     1      63.340  29.960  11.494  1.00  0.00    -0.000 C 
BRANCH  11  12
ATOM     12  C   UNL     1      62.992  28.923  10.415  1.00  0.00    -0.000 C 
BRANCH  12  13
ATOM     13  C   UNL     1      61.604  29.151   9.789  1.00  0.00    -0.000 C 
BRANCH  13  14
ATOM     14  C   UNL     1      60.454  28.360  10.438  1.00  0.00    -0.000 C 
BRANCH  14  15
ATOM     15  C   UNL     1      59.413  29.264  11.118  1.00  0.00    -0.000 C 
BRANCH  15  16
ATOM     16  C   UNL     1      59.289  28.988  12.625  1.00  0.00    -0.003 C 
ATOM     17  C   UNL     1      59.830  27.616  13.024  1.00  0.00     0.004 C 
ENDBRANCH  15  16
ENDBRANCH  14  15
ENDBRANCH  13  14
ENDBRANCH  12  13
ENDBRANCH  11  12
ENDBRANCH  10  11
ENDBRANCH   1  10
TORSDOF 13
ENDMDL
MODEL 6
REMARK VINA RESULT:    -4.457      2.247      4.496
REMARK INTER + INTRA:          -9.904
REMARK INTER:                  -8.072
REMARK INTRA:                  -1.832
REMARK UNBOUND:                -2.059
REMARK SMILES CCCCCCCCCCCCCCC(=O)[O-]
REMARK SMILES IDX 9 1 10 2 11 3 12 4 13 5 14 6 15 7 16 8 17 9 8 10 7 11 6 12
REMARK SMILES IDX 5 13 4 14 3 15 2 16 1 17
REMARK H PARENT
REMARK Flexibility Score: inf
ROOT
ATOM      1  C   UNL     1      62.371  31.964  13.211  1.00  0.00     0.000 C 
ENDROOT
BRANCH   1   2
ATOM      2  C   UNL     1      60.897  32.243  12.875  1.00  0.00     0.000 C 
BRANCH   2   3
ATOM      3  C   UNL     1      59.996  32.242  14.123  1.00  0.00     0.000 C 
BRANCH   3   4
ATOM      4  C   UNL     1      60.241  33.459  15.029  1.00  0.00     0.000 C 
BRANCH   4   5
ATOM      5  C   UNL     1      60.833  33.072  16.396  1.00  0.00     0.006 C 
BRANCH   5   6
ATOM      6  C   UNL     1      62.276  33.566  16.562  1.00  0.00     0.053 C 
BRANCH   6   7
ATOM      7  C   UNL     1      62.439  34.410  17.789  1.00  0.00     0.041 C 
ATOM      8  O   UNL     1      63.393  35.228  17.874  1.00  0.00    -0.550 OA
ATOM      9  O   UNL     1      61.522  34.312  18.828  1.00  0.00    -0.550 OA
ENDBRANCH   6   7
ENDBRANCH   5   6
ENDBRANCH   4   5
ENDBRANCH   3   4
ENDBRANCH   2   3
ENDBRANCH   1   2
BRANCH   1  10
ATOM     10  C   UNL     1      63.201  31.589  11.973  1.00  0.00     0.000 C 
BRANCH  10  11
ATOM     11  C   UNL     1      63.292  30.066  11.816  1.00  0.00    -0.000 C 
BRANCH  11  12
ATOM     12  C   UNL     1      63.184  29.364  13.179  1.00  0.00    -0.000 C 
BRANCH  12  13
ATOM     13  C   UNL     1      62.108  28.263  13.204  1.00  0.00    -0.000 C 
BRANCH  13  14
ATOM     14  C   UNL     1      60.758  28.680  13.815  1.00  0.00    -0.000 C 
BRANCH  14  15
ATOM     15  C   UNL     1      59.587  28.552  12.828  1.00  0.00    -0.000 C 
BRANCH  15  16
ATOM     16  C   UNL     1      60.058  28.339  11.381  1.00  0.00    -0.003 C 
ATOM     17  C   UNL     1      59.802  29.553  10.488  1.00  0.00     0.004 C 
ENDBRANCH  15  16
ENDBRANCH  14  15
ENDBRANCH  13  14
ENDBRANCH  12  13
ENDBRANCH  11  12
ENDBRANCH  10  11
ENDBRANCH   1  10
TORSDOF 13
ENDMDL
MODEL 7
REMARK VINA RESULT:    -4.422      2.105      5.431
REMARK INTER + INTRA:          -9.842
REMARK INTER:                  -8.280
REMARK INTRA:                  -1.562
REMARK UNBOUND:                -2.059
REMARK SMILES CCCCCCCCCCCCCCC(=O)[O-]
REMARK SMILES IDX 9 1 10 2 11 3 12 4 13 5 14 6 15 7 16 8 17 9 8 10 7 11 6 12
REMARK SMILES IDX 5 13 4 14 3 15 2 16 1 17
REMARK H PARENT
REMARK Flexibility Score: inf
ROOT
ATOM      1  C   UNL     1      63.091  29.666  11.502  1.00  0.00     0.000 C 
ENDROOT
BRANCH   1   2
ATOM      2  C   UNL     1      63.033  28.946  10.144  1.00  0.00     0.000 C 
BRANCH   2   3
ATOM      3  C   UNL     1      61.717  29.208   9.391  1.00  0.00     0.000 C 
BRANCH   3   4
ATOM      4  C   UNL     1      60.755  28.011   9.449  1.00  0.00     0.000 C 
BRANCH   4   5
ATOM      5  C   UNL     1      59.343  28.406   9.918  1.00  0.00     0.006 C 
BRANCH   5   6
ATOM      6  C   UNL     1      59.370  29.181  11.242  1.00  0.00     0.053 C 
BRANCH   6   7
ATOM      7  C   UNL     1      59.286  28.267  12.426  1.00  0.00     0.041 C 
ATOM      8  O   UNL     1      58.170  27.827  12.809  1.00  0.00    -0.550 OA
ATOM      9  O   UNL     1      60.443  27.877  13.089  1.00  0.00    -0.550 OA
ENDBRANCH   6   7
ENDBRANCH   5   6
ENDBRANCH   4   5
ENDBRANCH   3   4
ENDBRANCH   2   3
ENDBRANCH   1   2
BRANCH   1  10
ATOM     10  C   UNL     1      63.671  31.084  11.396  1.00  0.00     0.000 C 
BRANCH  10  11
ATOM     11  C   UNL     1      62.953  32.043  12.355  1.00  0.00    -0.000 C 
BRANCH  11  12
ATOM     12  C   UNL     1      61.692  31.391  12.943  1.00  0.00    -0.000 C 
BRANCH  12  13
ATOM     13  C   UNL     1      60.461  32.315  12.894  1.00  0.00    -0.000 C 
BRANCH  13  14
ATOM     14  C   UNL     1      60.044  32.922  14.246  1.00  0.00    -0.000 C 
BRANCH  14  15
ATOM     15  C   UNL     1      60.839  32.350  15.431  1.00  0.00    -0.000 C 
BRANCH  15  16
ATOM     16  C   UNL     1      61.614  33.433  16.198  1.00  0.00    -0.003 C 
ATOM     17  C   UNL     1      63.043  33.616  15.687  1.00  0.00     0.004 C 
ENDBRANCH  15  16
ENDBRANCH  14  15
ENDBRANCH  13  14
ENDBRANCH  12  13
ENDBRANCH  11  12
ENDBRANCH  10  11
ENDBRANCH   1  10
TORSDOF 13
ENDMDL
MODEL 8
REMARK VINA RESULT:    -4.387      1.941      3.789
REMARK INTER + INTRA:          -9.781
REMARK INTER:                  -8.195
REMARK INTRA:                  -1.586
REMARK UNBOUND:                -2.059
REMARK SMILES CCCCCCCCCCCCCCC(=O)[O-]
REMARK SMILES IDX 9 1 10 2 11 3 12 4 13 5 14 6 15 7 16 8 17 9 8 10 7 11 6 12
REMARK SMILES IDX 5 13 4 14 3 15 2 16 1 17
REMARK H PARENT
REMARK Flexibility Score: inf
ROOT
ATOM      1  C   UNL     1      62.914  30.943  13.342  1.00  0.00     0.000 C 
ENDROOT
BRANCH   1   2
ATOM      2  C   UNL     1      62.338  32.365  13.436  1.00  0.00     0.000 C 
BRANCH   2   3
ATOM      3  C   UNL     1      60.802  32.388  13.344  1.00  0.00     0.000 C 
BRANCH   3   4
ATOM      4  C   UNL     1      60.152  33.157  14.506  1.00  0.00     0.000 C 
BRANCH   4   5
ATOM      5  C   UNL     1      60.653  32.688  15.883  1.00  0.00     0.006 C 
BRANCH   5   6
ATOM      6  C   UNL     1      60.950  33.864  16.822  1.00  0.00     0.053 C 
BRANCH   6   7
ATOM      7  C   UNL     1      62.348  33.810  17.359  1.00  0.00     0.041 C 
ATOM      8  O   UNL     1      63.058  32.787  17.175  1.00  0.00    -0.550 OA
ATOM      9  O   UNL     1      62.875  34.901  18.040  1.00  0.00    -0.550 OA
ENDBRANCH   6   7
ENDBRANCH   5   6
ENDBRANCH   4   5
ENDBRANCH   3   4
ENDBRANCH   2   3
ENDBRANCH   1   2
BRANCH   1  10
ATOM     10  C   UNL     1      62.062  29.908  14.093  1.00  0.00     0.000 C 
BRANCH  10  11
ATOM     11  C   UNL     1      61.908  28.624  13.268  1.00  0.00    -0.000 C 
BRANCH  11  12
ATOM     12  C   UNL     1      60.450  28.139  13.271  1.00  0.00    -0.000 C 
BRANCH  12  13
ATOM     13  C   UNL     1      59.489  29.120  12.573  1.00  0.00    -0.000 C 
BRANCH  13  14
ATOM     14  C   UNL     1      59.901  29.539  11.150  1.00  0.00    -0.000 C 
BRANCH  14  15
ATOM     15  C   UNL     1      59.464  28.528  10.077  1.00  0.00    -0.000 C 
BRANCH  15  16
ATOM     16  C   UNL     1      60.658  27.855   9.382  1.00  0.00    -0.003 C 
ATOM     17  C   UNL     1      61.958  28.642   9.541  1.00  0.00     0.004 C 
ENDBRANCH  15  16
ENDBRANCH  14  15
ENDBRANCH  13  14
ENDBRANCH  12  13
ENDBRANCH  11  12
ENDBRANCH  10  11
ENDBRANCH   1  10
TORSDOF 13
ENDMDL
MODEL 9
REMARK VINA RESULT:    -4.369      1.697      5.055
REMARK INTER + INTRA:          -9.748
REMARK INTER:                  -7.976
REMARK INTRA:                  -1.772
REMARK UNBOUND:                -2.059
REMARK SMILES CCCCCCCCCCCCCCC(=O)[O-]
REMARK SMILES IDX 9 1 10 2 11 3 12 4 13 5 14 6 15 7 16 8 17 9 8 10 7 11 6 12
REMARK SMILES IDX 5 13 4 14 3 15 2 16 1 17
REMARK H PARENT
REMARK Flexibility Score: inf
ROOT
ATOM      1  C   UNL     1      62.396  28.717   9.759  1.00  0.00     0.000 C 
ENDROOT
BRANCH   1   2
ATOM      2  C   UNL     1      61.175  28.266   8.940  1.00  0.00     0.000 C 
BRANCH   2   3
ATOM      3  C   UNL     1      59.857  28.859   9.469  1.00  0.00     0.000 C 
BRANCH   3   4
ATOM      4  C   UNL     1      60.045  29.644  10.777  1.00  0.00     0.000 C 
BRANCH   4   5
ATOM      5  C   UNL     1      59.240  29.050  11.947  1.00  0.00     0.006 C 
BRANCH   5   6
ATOM      6  C   UNL     1      59.995  27.915  12.650  1.00  0.00     0.053 C 
BRANCH   6   7
ATOM      7  C   UNL     1      61.060  28.436  13.566  1.00  0.00     0.041 C 
ATOM      8  O   UNL     1      60.746  29.062  14.612  1.00  0.00    -0.550 OA
ATOM      9  O   UNL     1      62.400  28.206  13.278  1.00  0.00    -0.550 OA
ENDBRANCH   6   7
ENDBRANCH   5   6
ENDBRANCH   4   5
ENDBRANCH   3   4
ENDBRANCH   2   3
ENDBRANCH   1   2
BRANCH   1  10
ATOM     10  C   UNL     1      63.363  29.592   8.947  1.00  0.00     0.000 C 
BRANCH  10  11
ATOM     11  C   UNL     1      63.724  30.870   9.715  1.00  0.00    -0.000 C 
BRANCH  11  12
ATOM     12  C   UNL     1      63.607  30.652  11.231  1.00  0.00    -0.000 C 
BRANCH  12  13
ATOM     13  C   UNL     1      63.305  31.950  12.003  1.00  0.00    -0.000 C 
BRANCH  13  14
ATOM     14  C   UNL     1      62.360  31.790  13.208  1.00  0.00    -0.000 C 
BRANCH  14  15
ATOM     15  C   UNL     1      60.960  32.374  12.954  1.00  0.00    -0.000 C 
BRANCH  15  16
ATOM     16  C   UNL     1      60.071  32.337  14.207  1.00  0.00    -0.003 C 
ATOM     17  C   UNL     1      60.372  33.475  15.182  1.00  0.00     0.004 C 
ENDBRANCH  15  16
ENDBRANCH  14  15
ENDBRANCH  13  14
ENDBRANCH  12  13
ENDBRANCH  11  12
ENDBRANCH  10  11
ENDBRANCH   1  10
TORSDOF 13
ENDMDL
