MODEL 1
REMARK VINA RESULT:    -4.608      0.000      0.000
REMARK INTER + INTRA:          -5.546
REMARK INTER:                  -5.282
REMARK INTRA:                  -0.264
REMARK UNBOUND:                -0.264
REMARK SMILES COc1ccc(C=O)c(O)c1
REMARK SMILES IDX 3 1 11 2 9 3 6 4 5 5 4 6 2 7 1 8 10 9 7 11 8 12
REMARK H PARENT 10 10
REMARK Flexibility Score: inf
ROOT
ATOM      1  C   UNL     1      21.767  22.301  20.845  1.00  0.00     0.122 A 
ATOM      2  C   UNL     1      22.192  22.385  19.515  1.00  0.00     0.093 A 
ATOM      3  C   UNL     1      21.491  23.167  18.585  1.00  0.00     0.129 A 
ATOM      4  C   UNL     1      20.345  23.879  18.987  1.00  0.00     0.056 A 
ATOM      5  C   UNL     1      19.919  23.794  20.324  1.00  0.00     0.019 A 
ATOM      6  C   UNL     1      20.622  23.014  21.246  1.00  0.00     0.047 A 
ENDROOT
BRANCH   1   7
ATOM      7  O   UNL     1      22.506  21.505  21.732  1.00  0.00    -0.497 OA
ATOM      8  C   UNL     1      22.860  20.147  21.491  1.00  0.00     0.278 C 
ENDBRANCH   1   7
BRANCH   3   9
ATOM      9  O   UNL     1      21.934  23.234  17.263  1.00  0.00    -0.507 OA
ATOM     10  H   UNL     1      22.521  22.512  16.862  1.00  0.00     0.293 HD
ENDBRANCH   3   9
BRANCH   4  11
ATOM     11  C   UNL     1      19.599  24.706  18.016  1.00  0.00     0.263 C 
ATOM     12  O   UNL     1      19.267  24.248  16.891  1.00  0.00    -0.298 OA
ENDBRANCH   4  11
TORSDOF 3
ENDMDL
MODEL 2
REMARK VINA RESULT:    -4.457      2.263      3.123
REMARK INTER + INTRA:          -5.373
REMARK INTER:                  -5.112
REMARK INTRA:                  -0.261
REMARK UNBOUND:                -0.264
REMARK SMILES COc1ccc(C=O)c(O)c1
REMARK SMILES IDX 3 1 11 2 9 3 6 4 5 5 4 6 2 7 1 8 10 9 7 11 8 12
REMARK H PARENT 10 10
REMARK Flexibility Score: inf
ROOT
ATOM      1  C   UNL     1      19.225  23.144  21.553  1.00  0.00     0.122 A 
ATOM      2  C   UNL     1      19.739  24.316  20.989  1.00  0.00     0.093 A 
ATOM      3  C   UNL     1      20.458  24.280  19.785  1.00  0.00     0.129 A 
ATOM      4  C   UNL     1      20.669  23.052  19.129  1.00  0.00     0.056 A 
ATOM      5  C   UNL     1      20.151  21.874  19.697  1.00  0.00     0.019 A 
ATOM      6  C   UNL     1      19.436  21.918  20.897  1.00  0.00     0.047 A 
ENDROOT
BRANCH   1   7
ATOM      7  O   UNL     1      18.514  23.240  22.758  1.00  0.00    -0.497 OA
ATOM      8  C   UNL     1      17.506  22.323  23.172  1.00  0.00     0.278 C 
ENDBRANCH   1   7
BRANCH   3   9
ATOM      9  O   UNL     1      20.961  25.462  19.242  1.00  0.00    -0.507 OA
ATOM     10  H   UNL     1      21.732  25.459  18.584  1.00  0.00     0.293 HD
ENDBRANCH   3   9
BRANCH   4  11
ATOM     11  C   UNL     1      21.424  23.000  17.860  1.00  0.00     0.263 C 
ATOM     12  O   UNL     1      21.210  23.835  16.942  1.00  0.00    -0.298 OA
ENDBRANCH   4  11
TORSDOF 3
ENDMDL
MODEL 3
REMARK VINA RESULT:    -4.305      1.156      4.242
REMARK INTER + INTRA:          -5.198
REMARK INTER:                  -4.932
REMARK INTRA:                  -0.266
REMARK UNBOUND:                -0.264
REMARK SMILES COc1ccc(C=O)c(O)c1
REMARK SMILES IDX 3 1 11 2 9 3 6 4 5 5 4 6 2 7 1 8 10 9 7 11 8 12
REMARK H PARENT 10 10
REMARK Flexibility Score: inf
ROOT
ATOM      1  C   UNL     1      20.328  24.095  19.156  1.00  0.00     0.122 A 
ATOM      2  C   UNL     1      21.410  23.342  18.687  1.00  0.00     0.093 A 
ATOM      3  C   UNL     1      22.126  22.498  19.550  1.00  0.00     0.129 A 
ATOM      4  C   UNL     1      21.757  22.403  20.906  1.00  0.00     0.056 A 
ATOM      5  C   UNL     1      20.669  23.161  21.375  1.00  0.00     0.019 A 
ATOM      6  C   UNL     1      19.960  23.998  20.510  1.00  0.00     0.047 A 
ENDROOT
BRANCH   1   7
ATOM      7  O   UNL     1      19.648  24.920  18.248  1.00  0.00    -0.497 OA
ATOM      8  C   UNL     1      19.440  24.606  16.875  1.00  0.00     0.278 C 
ENDBRANCH   1   7
BRANCH   3   9
ATOM      9  O   UNL     1      23.202  21.758  19.061  1.00  0.00    -0.507 OA
ATOM     10  H   UNL     1      23.907  22.176  18.465  1.00  0.00     0.293 HD
ENDBRANCH   3   9
BRANCH   4  11
ATOM     11  C   UNL     1      22.504  21.519  21.825  1.00  0.00     0.263 C 
ATOM     12  O   UNL     1      22.776  20.331  21.506  1.00  0.00    -0.298 OA
ENDBRANCH   4  11
TORSDOF 3
ENDMDL
MODEL 4
REMARK VINA RESULT:    -4.238      1.270      2.057
REMARK INTER + INTRA:          -5.121
REMARK INTER:                  -5.057
REMARK INTRA:                  -0.065
REMARK UNBOUND:                -0.264
REMARK SMILES COc1ccc(C=O)c(O)c1
REMARK SMILES IDX 3 1 11 2 9 3 6 4 5 5 4 6 2 7 1 8 10 9 7 11 8 12
REMARK H PARENT 10 10
REMARK Flexibility Score: inf
ROOT
ATOM      1  C   UNL     1      21.955  22.258  20.844  1.00  0.00     0.122 A 
ATOM      2  C   UNL     1      21.017  23.194  21.291  1.00  0.00     0.093 A 
ATOM      3  C   UNL     1      20.406  24.084  20.395  1.00  0.00     0.129 A 
ATOM      4  C   UNL     1      20.735  24.040  19.026  1.00  0.00     0.056 A 
ATOM      5  C   UNL     1      21.678  23.098  18.578  1.00  0.00     0.019 A 
ATOM      6  C   UNL     1      22.282  22.214  19.476  1.00  0.00     0.047 A 
ENDROOT
BRANCH   1   7
ATOM      7  O   UNL     1      22.534  21.392  21.784  1.00  0.00    -0.497 OA
ATOM      8  C   UNL     1      22.863  20.031  21.527  1.00  0.00     0.278 C 
ENDBRANCH   1   7
BRANCH   3   9
ATOM      9  O   UNL     1      19.474  25.010  20.865  1.00  0.00    -0.507 OA
ATOM     10  H   UNL     1      18.478  24.835  20.811  1.00  0.00     0.293 HD
ENDBRANCH   3   9
BRANCH   4  11
ATOM     11  C   UNL     1      20.098  24.973  18.073  1.00  0.00     0.263 C 
ATOM     12  O   UNL     1      19.389  24.548  17.124  1.00  0.00    -0.298 OA
ENDBRANCH   4  11
TORSDOF 3
ENDMDL
MODEL 5
REMARK VINA RESULT:    -4.025      2.860      3.462
REMARK INTER + INTRA:          -4.877
REMARK INTER:                  -4.613
REMARK INTRA:                  -0.264
REMARK UNBOUND:                -0.264
REMARK SMILES COc1ccc(C=O)c(O)c1
REMARK SMILES IDX 3 1 11 2 9 3 6 4 5 5 4 6 2 7 1 8 10 9 7 11 8 12
REMARK H PARENT 10 10
REMARK Flexibility Score: inf
ROOT
ATOM      1  C   UNL     1      18.218  22.229  20.724  1.00  0.00     0.122 A 
ATOM      2  C   UNL     1      18.801  23.500  20.764  1.00  0.00     0.093 A 
ATOM      3  C   UNL     1      19.213  24.140  19.585  1.00  0.00     0.129 A 
ATOM      4  C   UNL     1      19.041  23.501  18.342  1.00  0.00     0.056 A 
ATOM      5  C   UNL     1      18.454  22.224  18.303  1.00  0.00     0.019 A 
ATOM      6  C   UNL     1      18.046  21.593  19.481  1.00  0.00     0.047 A 
ENDROOT
BRANCH   1   7
ATOM      7  O   UNL     1      17.824  21.638  21.933  1.00  0.00    -0.497 OA
ATOM      8  C   UNL     1      17.635  22.349  23.152  1.00  0.00     0.278 C 
ENDBRANCH   1   7
BRANCH   3   9
ATOM      9  O   UNL     1      19.793  25.407  19.651  1.00  0.00    -0.507 OA
ATOM     10  H   UNL     1      19.287  26.238  19.366  1.00  0.00     0.293 HD
ENDBRANCH   3   9
BRANCH   4  11
ATOM     11  C   UNL     1      19.471  24.165  17.094  1.00  0.00     0.263 C 
ATOM     12  O   UNL     1      20.675  24.482  16.908  1.00  0.00    -0.298 OA
ENDBRANCH   4  11
TORSDOF 3
ENDMDL
MODEL 6
REMARK VINA RESULT:    -3.955      2.393      3.183
REMARK INTER + INTRA:          -4.797
REMARK INTER:                  -4.527
REMARK INTRA:                  -0.271
REMARK UNBOUND:                -0.264
REMARK SMILES COc1ccc(C=O)c(O)c1
REMARK SMILES IDX 3 1 11 2 9 3 6 4 5 5 4 6 2 7 1 8 10 9 7 11 8 12
REMARK H PARENT 10 10
REMARK Flexibility Score: inf
ROOT
ATOM      1  C   UNL     1      19.148  21.407  20.741  1.00  0.00     0.122 A 
ATOM      2  C   UNL     1      18.424  22.473  20.197  1.00  0.00     0.093 A 
ATOM      3  C   UNL     1      19.075  23.507  19.508  1.00  0.00     0.129 A 
ATOM      4  C   UNL     1      20.475  23.478  19.357  1.00  0.00     0.056 A 
ATOM      5  C   UNL     1      21.202  22.405  19.904  1.00  0.00     0.019 A 
ATOM      6  C   UNL     1      20.546  21.379  20.589  1.00  0.00     0.047 A 
ENDROOT
BRANCH   1   7
ATOM      7  O   UNL     1      18.445  20.401  21.420  1.00  0.00    -0.497 OA
ATOM      8  C   UNL     1      17.068  20.102  21.213  1.00  0.00     0.278 C 
ENDBRANCH   1   7
BRANCH   3   9
ATOM      9  O   UNL     1      18.332  24.560  18.975  1.00  0.00    -0.507 OA
ATOM     10  H   UNL     1      18.765  25.285  18.414  1.00  0.00     0.293 HD
ENDBRANCH   3   9
BRANCH   4  11
ATOM     11  C   UNL     1      21.173  24.561  18.633  1.00  0.00     0.263 C 
ATOM     12  O   UNL     1      20.809  24.911  17.479  1.00  0.00    -0.298 OA
ENDBRANCH   4  11
TORSDOF 3
ENDMDL
MODEL 7
REMARK VINA RESULT:    -3.836      2.447      3.226
REMARK INTER + INTRA:          -4.661
REMARK INTER:                  -4.588
REMARK INTRA:                  -0.073
REMARK UNBOUND:                -0.264
REMARK SMILES COc1ccc(C=O)c(O)c1
REMARK SMILES IDX 3 1 11 2 9 3 6 4 5 5 4 6 2 7 1 8 10 9 7 11 8 12
REMARK H PARENT 10 10
REMARK Flexibility Score: inf
ROOT
ATOM      1  C   UNL     1      19.133  23.083  21.676  1.00  0.00     0.122 A 
ATOM      2  C   UNL     1      18.953  21.976  20.840  1.00  0.00     0.093 A 
ATOM      3  C   UNL     1      19.673  21.856  19.642  1.00  0.00     0.129 A 
ATOM      4  C   UNL     1      20.591  22.856  19.269  1.00  0.00     0.056 A 
ATOM      5  C   UNL     1      20.771  23.969  20.111  1.00  0.00     0.019 A 
ATOM      6  C   UNL     1      20.051  24.082  21.303  1.00  0.00     0.047 A 
ENDROOT
BRANCH   1   7
ATOM      7  O   UNL     1      18.388  23.152  22.862  1.00  0.00    -0.497 OA
ATOM      8  C   UNL     1      17.360  22.233  23.220  1.00  0.00     0.278 C 
ENDBRANCH   1   7
BRANCH   3   9
ATOM      9  O   UNL     1      19.475  20.743  18.824  1.00  0.00    -0.507 OA
ATOM     10  H   UNL     1      19.975  20.631  17.950  1.00  0.00     0.293 HD
ENDBRANCH   3   9
BRANCH   4  11
ATOM     11  C   UNL     1      21.355  22.740  18.010  1.00  0.00     0.263 C 
ATOM     12  O   UNL     1      21.138  23.519  17.044  1.00  0.00    -0.298 OA
ENDBRANCH   4  11
TORSDOF 3
ENDMDL
MODEL 8
REMARK VINA RESULT:    -3.828      4.508      7.218
REMARK INTER + INTRA:          -4.652
REMARK INTER:                  -4.387
REMARK INTRA:                  -0.265
REMARK UNBOUND:                -0.264
REMARK SMILES COc1ccc(C=O)c(O)c1
REMARK SMILES IDX 3 1 11 2 9 3 6 4 5 5 4 6 2 7 1 8 10 9 7 11 8 12
REMARK H PARENT 10 10
REMARK Flexibility Score: inf
ROOT
ATOM      1  C   UNL     1      23.600  18.339  20.958  1.00  0.00     0.122 A 
ATOM      2  C   UNL     1      24.922  18.669  20.645  1.00  0.00     0.093 A 
ATOM      3  C   UNL     1      25.689  17.847  19.806  1.00  0.00     0.129 A 
ATOM      4  C   UNL     1      25.128  16.673  19.268  1.00  0.00     0.056 A 
ATOM      5  C   UNL     1      23.797  16.343  19.583  1.00  0.00     0.019 A 
ATOM      6  C   UNL     1      23.039  17.167  20.419  1.00  0.00     0.047 A 
ENDROOT
BRANCH   1   7
ATOM      7  O   UNL     1      22.880  19.199  21.801  1.00  0.00    -0.497 OA
ATOM      8  C   UNL     1      22.576  20.556  21.496  1.00  0.00     0.278 C 
ENDBRANCH   1   7
BRANCH   3   9
ATOM      9  O   UNL     1      27.007  18.196  19.509  1.00  0.00    -0.507 OA
ATOM     10  H   UNL     1      27.792  17.705  19.919  1.00  0.00     0.293 HD
ENDBRANCH   3   9
BRANCH   4  11
ATOM     11  C   UNL     1      25.925  15.799  18.383  1.00  0.00     0.263 C 
ATOM     12  O   UNL     1      26.471  16.251  17.343  1.00  0.00    -0.298 OA
ENDBRANCH   4  11
TORSDOF 3
ENDMDL
MODEL 9
REMARK VINA RESULT:    -3.780      2.759      4.650
REMARK INTER + INTRA:          -4.597
REMARK INTER:                  -4.369
REMARK INTRA:                  -0.228
REMARK UNBOUND:                -0.264
REMARK SMILES COc1ccc(C=O)c(O)c1
REMARK SMILES IDX 3 1 11 2 9 3 6 4 5 5 4 6 2 7 1 8 10 9 7 11 8 12
REMARK H PARENT 10 10
REMARK Flexibility Score: inf
ROOT
ATOM      1  C   UNL     1      19.879  23.813  19.221  1.00  0.00     0.122 A 
ATOM      2  C   UNL     1      19.974  24.223  20.554  1.00  0.00     0.093 A 
ATOM      3  C   UNL     1      19.244  23.572  21.561  1.00  0.00     0.129 A 
ATOM      4  C   UNL     1      18.404  22.490  21.232  1.00  0.00     0.056 A 
ATOM      5  C   UNL     1      18.310  22.078  19.891  1.00  0.00     0.019 A 
ATOM      6  C   UNL     1      19.040  22.732  18.894  1.00  0.00     0.047 A 
ENDROOT
BRANCH   1   7
ATOM      7  O   UNL     1      20.631  24.500  18.257  1.00  0.00    -0.497 OA
ATOM      8  C   UNL     1      20.952  23.983  16.969  1.00  0.00     0.278 C 
ENDBRANCH   1   7
BRANCH   3   9
ATOM      9  O   UNL     1      19.354  24.000  22.884  1.00  0.00    -0.507 OA
ATOM     10  H   UNL     1      18.599  23.873  23.548  1.00  0.00     0.293 HD
ENDBRANCH   3   9
BRANCH   4  11
ATOM     11  C   UNL     1      17.631  21.796  22.283  1.00  0.00     0.263 C 
ATOM     12  O   UNL     1      17.203  22.417  23.291  1.00  0.00    -0.298 OA
ENDBRANCH   4  11
TORSDOF 3
ENDMDL
