MODEL 1
REMARK VINA RESULT:    -3.856      0.000      0.000
REMARK INTER + INTRA:          -4.611
REMARK INTER:                  -4.533
REMARK INTRA:                  -0.078
REMARK UNBOUND:                -0.078
REMARK SMILES O=C([O-])CCC(=O)[O-]
REMARK SMILES IDX 4 1 2 2 1 3 3 4 5 5 6 6 7 7 8 8
REMARK H PARENT
REMARK Flexibility Score: inf
ROOT
ATOM      1  C   UNL     1       2.124  -6.376  -0.462  1.00  0.00     0.059 C 
ENDROOT
BRANCH   1   2
ATOM      2  C   UNL     1       2.020  -5.487  -1.664  1.00  0.00     0.042 C 
ATOM      3  O   UNL     1       1.414  -4.386  -1.586  1.00  0.00    -0.550 OA
ATOM      4  O   UNL     1       2.558  -5.892  -2.879  1.00  0.00    -0.550 OA
ENDBRANCH   1   2
BRANCH   1   5
ATOM      5  C   UNL     1       1.305  -7.661  -0.638  1.00  0.00     0.059 C 
BRANCH   5   6
ATOM      6  C   UNL     1       2.144  -8.884  -0.430  1.00  0.00     0.042 C 
ATOM      7  O   UNL     1       1.606 -10.022  -0.399  1.00  0.00    -0.550 OA
ATOM      8  O   UNL     1       3.514  -8.764  -0.231  1.00  0.00    -0.550 OA
ENDBRANCH   5   6
ENDBRANCH   1   5
TORSDOF 3
ENDMDL
MODEL 2
REMARK VINA RESULT:    -3.828      0.104      4.017
REMARK INTER + INTRA:          -4.577
REMARK INTER:                  -4.504
REMARK INTRA:                  -0.073
REMARK UNBOUND:                -0.078
REMARK SMILES O=C([O-])CCC(=O)[O-]
REMARK SMILES IDX 4 1 2 2 1 3 3 4 5 5 6 6 7 7 8 8
REMARK H PARENT
REMARK Flexibility Score: inf
ROOT
ATOM      1  C   UNL     1       1.370  -7.564  -0.477  1.00  0.00     0.059 C 
ENDROOT
BRANCH   1   2
ATOM      2  C   UNL     1       2.177  -8.824  -0.394  1.00  0.00     0.042 C 
ATOM      3  O   UNL     1       1.603  -9.945  -0.423  1.00  0.00    -0.550 OA
ATOM      4  O   UNL     1       3.556  -8.760  -0.246  1.00  0.00    -0.550 OA
ENDBRANCH   1   2
BRANCH   1   5
ATOM      5  C   UNL     1       2.264  -6.318  -0.458  1.00  0.00     0.059 C 
BRANCH   5   6
ATOM      6  C   UNL     1       2.032  -5.454  -1.658  1.00  0.00     0.042 C 
ATOM      7  O   UNL     1       1.381  -4.381  -1.549  1.00  0.00    -0.550 OA
ATOM      8  O   UNL     1       2.501  -5.850  -2.904  1.00  0.00    -0.550 OA
ENDBRANCH   5   6
ENDBRANCH   1   5
TORSDOF 3
ENDMDL
MODEL 3
REMARK VINA RESULT:    -3.782      7.732      8.414
REMARK INTER + INTRA:          -4.523
REMARK INTER:                  -4.410
REMARK INTRA:                  -0.113
REMARK UNBOUND:                -0.078
REMARK SMILES O=C([O-])CCC(=O)[O-]
REMARK SMILES IDX 4 1 2 2 1 3 3 4 5 5 6 6 7 7 8 8
REMARK H PARENT
REMARK Flexibility Score: inf
ROOT
ATOM      1  C   UNL     1      -4.016  -5.371   3.906  1.00  0.00     0.059 C 
ENDROOT
BRANCH   1   2
ATOM      2  C   UNL     1      -5.456  -5.397   4.317  1.00  0.00     0.042 C 
ATOM      3  O   UNL     1      -5.777  -5.773   5.476  1.00  0.00    -0.550 OA
ATOM      4  O   UNL     1      -6.447  -5.044   3.410  1.00  0.00    -0.550 OA
ENDBRANCH   1   2
BRANCH   1   5
ATOM      5  C   UNL     1      -3.813  -5.994   2.519  1.00  0.00     0.059 C 
BRANCH   5   6
ATOM      6  C   UNL     1      -3.684  -7.484   2.596  1.00  0.00     0.042 C 
ATOM      7  O   UNL     1      -2.545  -8.018   2.649  1.00  0.00    -0.550 OA
ATOM      8  O   UNL     1      -4.819  -8.284   2.570  1.00  0.00    -0.550 OA
ENDBRANCH   5   6
ENDBRANCH   1   5
TORSDOF 3
ENDMDL
MODEL 4
REMARK VINA RESULT:    -3.776      7.749      8.788
REMARK INTER + INTRA:          -4.516
REMARK INTER:                  -4.405
REMARK INTRA:                  -0.111
REMARK UNBOUND:                -0.078
REMARK SMILES O=C([O-])CCC(=O)[O-]
REMARK SMILES IDX 4 1 2 2 1 3 3 4 5 5 6 6 7 7 8 8
REMARK H PARENT
REMARK Flexibility Score: inf
ROOT
ATOM      1  C   UNL     1      -3.848  -5.965   2.494  1.00  0.00     0.059 C 
ENDROOT
BRANCH   1   2
ATOM      2  C   UNL     1      -3.709  -7.453   2.593  1.00  0.00     0.042 C 
ATOM      3  O   UNL     1      -2.565  -7.980   2.630  1.00  0.00    -0.550 OA
ATOM      4  O   UNL     1      -4.839  -8.260   2.605  1.00  0.00    -0.550 OA
ENDBRANCH   1   2
BRANCH   1   5
ATOM      5  C   UNL     1      -4.038  -5.322   3.873  1.00  0.00     0.059 C 
BRANCH   5   6
ATOM      6  C   UNL     1      -5.469  -5.370   4.313  1.00  0.00     0.042 C 
ATOM      7  O   UNL     1      -5.758  -5.734   5.483  1.00  0.00    -0.550 OA
ATOM      8  O   UNL     1      -6.484  -5.051   3.420  1.00  0.00    -0.550 OA
ENDBRANCH   5   6
ENDBRANCH   1   5
TORSDOF 3
ENDMDL
MODEL 5
REMARK VINA RESULT:    -3.773      7.492      8.104
REMARK INTER + INTRA:          -4.512
REMARK INTER:                  -4.394
REMARK INTRA:                  -0.118
REMARK UNBOUND:                -0.078
REMARK SMILES O=C([O-])CCC(=O)[O-]
REMARK SMILES IDX 4 1 2 2 1 3 3 4 5 5 6 6 7 7 8 8
REMARK H PARENT
REMARK Flexibility Score: inf
ROOT
ATOM      1  C   UNL     1      -3.806  -5.482   3.622  1.00  0.00     0.059 C 
ENDROOT
BRANCH   1   2
ATOM      2  C   UNL     1      -5.187  -5.388   4.194  1.00  0.00     0.042 C 
ATOM      3  O   UNL     1      -5.376  -5.570   5.426  1.00  0.00    -0.550 OA
ATOM      4  O   UNL     1      -6.271  -5.139   3.362  1.00  0.00    -0.550 OA
ENDBRANCH   1   2
BRANCH   1   5
ATOM      5  C   UNL     1      -3.797  -6.239   2.288  1.00  0.00     0.059 C 
BRANCH   5   6
ATOM      6  C   UNL     1      -3.615  -7.712   2.491  1.00  0.00     0.042 C 
ATOM      7  O   UNL     1      -4.618  -8.472   2.544  1.00  0.00    -0.550 OA
ATOM      8  O   UNL     1      -2.342  -8.241   2.660  1.00  0.00    -0.550 OA
ENDBRANCH   5   6
ENDBRANCH   1   5
TORSDOF 3
ENDMDL
MODEL 6
REMARK VINA RESULT:    -3.766      1.528      3.498
REMARK INTER + INTRA:          -4.505
REMARK INTER:                  -4.431
REMARK INTRA:                  -0.073
REMARK UNBOUND:                -0.078
REMARK SMILES O=C([O-])CCC(=O)[O-]
REMARK SMILES IDX 4 1 2 2 1 3 3 4 5 5 6 6 7 7 8 8
REMARK H PARENT
REMARK Flexibility Score: inf
ROOT
ATOM      1  C   UNL     1       1.664  -6.930  -0.269  1.00  0.00     0.059 C 
ENDROOT
BRANCH   1   2
ATOM      2  C   UNL     1       0.984  -8.246  -0.494  1.00  0.00     0.042 C 
ATOM      3  O   UNL     1      -0.262  -8.291  -0.676  1.00  0.00    -0.550 OA
ATOM      4  O   UNL     1       1.717  -9.424  -0.463  1.00  0.00    -0.550 OA
ENDBRANCH   1   2
BRANCH   1   5
ATOM      5  C   UNL     1       1.715  -6.094  -1.553  1.00  0.00     0.059 C 
BRANCH   5   6
ATOM      6  C   UNL     1       3.066  -6.151  -2.196  1.00  0.00     0.042 C 
ATOM      7  O   UNL     1       3.170  -6.383  -3.430  1.00  0.00    -0.550 OA
ATOM      8  O   UNL     1       4.212  -5.987  -1.428  1.00  0.00    -0.550 OA
ENDBRANCH   5   6
ENDBRANCH   1   5
TORSDOF 3
ENDMDL
MODEL 7
REMARK VINA RESULT:    -3.753      1.499      1.933
REMARK INTER + INTRA:          -4.489
REMARK INTER:                  -4.402
REMARK INTRA:                  -0.087
REMARK UNBOUND:                -0.078
REMARK SMILES O=C([O-])CCC(=O)[O-]
REMARK SMILES IDX 4 1 2 2 1 3 3 4 5 5 6 6 7 7 8 8
REMARK H PARENT
REMARK Flexibility Score: inf
ROOT
ATOM      1  C   UNL     1       1.737  -6.113  -1.564  1.00  0.00     0.059 C 
ENDROOT
BRANCH   1   2
ATOM      2  C   UNL     1       3.109  -6.159  -2.166  1.00  0.00     0.042 C 
ATOM      3  O   UNL     1       3.252  -6.373  -3.399  1.00  0.00    -0.550 OA
ATOM      4  O   UNL     1       4.229  -6.007  -1.359  1.00  0.00    -0.550 OA
ENDBRANCH   1   2
BRANCH   1   5
ATOM      5  C   UNL     1       1.669  -6.906  -0.253  1.00  0.00     0.059 C 
BRANCH   5   6
ATOM      6  C   UNL     1       1.101  -8.275  -0.465  1.00  0.00     0.042 C 
ATOM      7  O   UNL     1      -0.145  -8.434  -0.568  1.00  0.00    -0.550 OA
ATOM      8  O   UNL     1       1.941  -9.380  -0.508  1.00  0.00    -0.550 OA
ENDBRANCH   5   6
ENDBRANCH   1   5
TORSDOF 3
ENDMDL
MODEL 8
REMARK VINA RESULT:    -3.726      2.502      4.224
REMARK INTER + INTRA:          -4.458
REMARK INTER:                  -4.363
REMARK INTRA:                  -0.095
REMARK UNBOUND:                -0.078
REMARK SMILES O=C([O-])CCC(=O)[O-]
REMARK SMILES IDX 4 1 2 2 1 3 3 4 5 5 6 6 7 7 8 8
REMARK H PARENT
REMARK Flexibility Score: inf
ROOT
ATOM      1  C   UNL     1       3.168  -8.837  -0.104  1.00  0.00     0.059 C 
ENDROOT
BRANCH   1   2
ATOM      2  C   UNL     1       3.766  -9.192   1.223  1.00  0.00     0.042 C 
ATOM      3  O   UNL     1       3.023  -9.547   2.177  1.00  0.00    -0.550 OA
ATOM      4  O   UNL     1       5.137  -9.093   1.419  1.00  0.00    -0.550 OA
ENDBRANCH   1   2
BRANCH   1   5
ATOM      5  C   UNL     1       1.754  -9.409  -0.258  1.00  0.00     0.059 C 
BRANCH   5   6
ATOM      6  C   UNL     1       0.731  -8.324  -0.397  1.00  0.00     0.042 C 
ATOM      7  O   UNL     1       1.076  -7.115  -0.314  1.00  0.00    -0.550 OA
ATOM      8  O   UNL     1      -0.607  -8.647  -0.579  1.00  0.00    -0.550 OA
ENDBRANCH   5   6
ENDBRANCH   1   5
TORSDOF 3
ENDMDL
MODEL 9
REMARK VINA RESULT:    -3.637      7.212      8.484
REMARK INTER + INTRA:          -4.353
REMARK INTER:                  -4.301
REMARK INTRA:                  -0.052
REMARK UNBOUND:                -0.078
REMARK SMILES O=C([O-])CCC(=O)[O-]
REMARK SMILES IDX 4 1 2 2 1 3 3 4 5 5 6 6 7 7 8 8
REMARK H PARENT
REMARK Flexibility Score: inf
ROOT
ATOM      1  C   UNL     1      -3.945  -6.632   2.057  1.00  0.00     0.059 C 
ENDROOT
BRANCH   1   2
ATOM      2  C   UNL     1      -3.640  -8.067   2.358  1.00  0.00     0.042 C 
ATOM      3  O   UNL     1      -4.575  -8.905   2.460  1.00  0.00    -0.550 OA
ATOM      4  O   UNL     1      -2.328  -8.472   2.566  1.00  0.00    -0.550 OA
ENDBRANCH   1   2
BRANCH   1   5
ATOM      5  C   UNL     1      -3.797  -5.750   3.303  1.00  0.00     0.059 C 
BRANCH   5   6
ATOM      6  C   UNL     1      -5.080  -5.058   3.647  1.00  0.00     0.042 C 
ATOM      7  O   UNL     1      -5.870  -4.700   2.733  1.00  0.00    -0.550 OA
ATOM      8  O   UNL     1      -5.386  -4.775   4.972  1.00  0.00    -0.550 OA
ENDBRANCH   5   6
ENDBRANCH   1   5
TORSDOF 3
ENDMDL
