MODEL 1
REMARK VINA RESULT:    -5.274      0.000      0.000
REMARK INTER + INTRA:          -7.132
REMARK INTER:                  -6.815
REMARK INTRA:                  -0.317
REMARK UNBOUND:                -0.317
REMARK SMILES CCO[C@@H]1O[C@H](CO)[C@H](O)[C@@H](O)[C@@H]1O
REMARK SMILES IDX 4 1 13 2 11 3 9 4 6 5 5 6 3 7 2 8 1 9 14 10 12 12 7 14 8 15
REMARK SMILES IDX 10 17
REMARK H PARENT 14 11 12 13 8 16 10 18
REMARK Flexibility Score: inf
ROOT
ATOM      1  C   UNL     1      35.548   5.385  43.926  1.00  0.00     0.281 C 
ATOM      2  C   UNL     1      36.868   5.318  43.134  1.00  0.00     0.202 C 
ATOM      3  C   UNL     1      38.004   5.995  43.933  1.00  0.00     0.179 C 
ATOM      4  C   UNL     1      37.570   7.385  44.434  1.00  0.00     0.177 C 
ATOM      5  C   UNL     1      36.184   7.283  45.123  1.00  0.00     0.178 C 
ATOM      6  O   UNL     1      35.230   6.736  44.228  1.00  0.00    -0.341 OA
ENDROOT
BRANCH   1   7
ATOM      7  O   UNL     1      34.520   4.829  43.129  1.00  0.00    -0.350 OA
BRANCH   7   8
ATOM      8  C   UNL     1      34.125   3.575  43.646  1.00  0.00     0.160 C 
ATOM      9  C   UNL     1      33.012   3.007  42.779  1.00  0.00     0.035 C 
ENDBRANCH   7   8
ENDBRANCH   1   7
BRANCH   2  10
ATOM     10  O   UNL     1      36.701   5.954  41.893  1.00  0.00    -0.385 OA
ATOM     11  H   UNL     1      36.210   5.319  41.309  1.00  0.00     0.211 HD
ENDBRANCH   2  10
BRANCH   3  12
ATOM     12  O   UNL     1      38.359   5.197  45.035  1.00  0.00    -0.387 OA
ATOM     13  H   UNL     1      37.680   4.475  45.098  1.00  0.00     0.211 HD
ENDBRANCH   3  12
BRANCH   5  14
ATOM     14  C   UNL     1      35.679   8.650  45.602  1.00  0.00     0.191 C 
BRANCH  14  15
ATOM     15  O   UNL     1      36.738   9.398  46.133  1.00  0.00    -0.394 OA
ATOM     16  H   UNL     1      36.406  10.332  46.201  1.00  0.00     0.210 HD
ENDBRANCH  14  15
ENDBRANCH   5  14
BRANCH   4  17
ATOM     17  O   UNL     1      37.513   8.270  43.343  1.00  0.00    -0.387 OA
ATOM     18  H   UNL     1      37.709   9.179  43.692  1.00  0.00     0.211 HD
ENDBRANCH   4  17
TORSDOF 7
ENDMDL
MODEL 2
REMARK VINA RESULT:    -5.200      1.775      4.337
REMARK INTER + INTRA:          -7.037
REMARK INTER:                  -6.719
REMARK INTRA:                  -0.318
REMARK UNBOUND:                -0.317
REMARK SMILES CCO[C@@H]1O[C@H](CO)[C@H](O)[C@@H](O)[C@@H]1O
REMARK SMILES IDX 4 1 13 2 11 3 9 4 6 5 5 6 3 7 2 8 1 9 14 10 12 12 7 14 8 15
REMARK SMILES IDX 10 17
REMARK H PARENT 14 11 12 13 8 16 10 18
REMARK Flexibility Score: inf
ROOT
ATOM      1  C   UNL     1      36.459   7.948  44.130  1.00  0.00     0.281 C 
ATOM      2  C   UNL     1      37.836   7.398  43.711  1.00  0.00     0.202 C 
ATOM      3  C   UNL     1      37.694   5.951  43.187  1.00  0.00     0.179 C 
ATOM      4  C   UNL     1      36.877   5.090  44.169  1.00  0.00     0.177 C 
ATOM      5  C   UNL     1      35.572   5.834  44.555  1.00  0.00     0.178 C 
ATOM      6  O   UNL     1      35.876   7.102  45.110  1.00  0.00    -0.341 OA
ENDROOT
BRANCH   1   7
ATOM      7  O   UNL     1      36.642   9.241  44.675  1.00  0.00    -0.350 OA
BRANCH   7   8
ATOM      8  C   UNL     1      35.436   9.973  44.616  1.00  0.00     0.160 C 
ATOM      9  C   UNL     1      35.717  11.354  44.044  1.00  0.00     0.035 C 
ENDBRANCH   7   8
ENDBRANCH   1   7
BRANCH   2  10
ATOM     10  O   UNL     1      38.709   7.435  44.810  1.00  0.00    -0.385 OA
ATOM     11  H   UNL     1      38.881   8.392  45.008  1.00  0.00     0.211 HD
ENDBRANCH   2  10
BRANCH   3  12
ATOM     12  O   UNL     1      37.058   5.951  41.934  1.00  0.00    -0.387 OA
ATOM     13  H   UNL     1      37.536   6.614  41.369  1.00  0.00     0.211 HD
ENDBRANCH   3  12
BRANCH   5  14
ATOM     14  C   UNL     1      34.739   5.041  45.570  1.00  0.00     0.191 C 
BRANCH  14  15
ATOM     15  O   UNL     1      35.183   3.714  45.630  1.00  0.00    -0.394 OA
ATOM     16  H   UNL     1      34.454   3.163  45.241  1.00  0.00     0.210 HD
ENDBRANCH  14  15
ENDBRANCH   5  14
BRANCH   4  17
ATOM     17  O   UNL     1      37.654   4.835  45.314  1.00  0.00    -0.387 OA
ATOM     18  H   UNL     1      37.339   5.451  46.026  1.00  0.00     0.211 HD
ENDBRANCH   4  17
TORSDOF 7
ENDMDL
MODEL 3
REMARK VINA RESULT:    -5.083      4.066      6.093
REMARK INTER + INTRA:          -6.885
REMARK INTER:                  -6.541
REMARK INTRA:                  -0.344
REMARK UNBOUND:                -0.317
REMARK SMILES CCO[C@@H]1O[C@H](CO)[C@H](O)[C@@H](O)[C@@H]1O
REMARK SMILES IDX 4 1 13 2 11 3 9 4 6 5 5 6 3 7 2 8 1 9 14 10 12 12 7 14 8 15
REMARK SMILES IDX 10 17
REMARK H PARENT 14 11 12 13 8 16 10 18
REMARK Flexibility Score: inf
ROOT
ATOM      1  C   UNL     1      35.418   0.538  44.616  1.00  0.00     0.281 C 
ATOM      2  C   UNL     1      36.286   1.793  44.399  1.00  0.00     0.202 C 
ATOM      3  C   UNL     1      35.481   3.064  44.752  1.00  0.00     0.179 C 
ATOM      4  C   UNL     1      34.104   3.050  44.062  1.00  0.00     0.177 C 
ATOM      5  C   UNL     1      33.411   1.684  44.306  1.00  0.00     0.178 C 
ATOM      6  O   UNL     1      34.233   0.627  43.839  1.00  0.00    -0.341 OA
ENDROOT
BRANCH   1   7
ATOM      7  O   UNL     1      36.162  -0.594  44.208  1.00  0.00    -0.350 OA
BRANCH   7   8
ATOM      8  C   UNL     1      36.088  -1.607  45.190  1.00  0.00     0.160 C 
ATOM      9  C   UNL     1      36.478  -2.938  44.564  1.00  0.00     0.035 C 
ENDBRANCH   7   8
ENDBRANCH   1   7
BRANCH   2  10
ATOM     10  O   UNL     1      36.712   1.841  43.062  1.00  0.00    -0.385 OA
ATOM     11  H   UNL     1      37.652   1.522  43.049  1.00  0.00     0.211 HD
ENDBRANCH   2  10
BRANCH   3  12
ATOM     12  O   UNL     1      35.300   3.150  46.143  1.00  0.00    -0.387 OA
ATOM     13  H   UNL     1      34.988   4.073  46.336  1.00  0.00     0.211 HD
ENDBRANCH   3  12
BRANCH   5  14
ATOM     14  C   UNL     1      32.052   1.597  43.601  1.00  0.00     0.191 C 
BRANCH  14  15
ATOM     15  O   UNL     1      32.213   1.111  42.296  1.00  0.00    -0.394 OA
ATOM     16  H   UNL     1      32.379   0.136  42.385  1.00  0.00     0.210 HD
ENDBRANCH  14  15
ENDBRANCH   5  14
BRANCH   4  17
ATOM     17  O   UNL     1      34.277   3.275  42.684  1.00  0.00    -0.387 OA
ATOM     18  H   UNL     1      33.749   4.083  42.450  1.00  0.00     0.211 HD
ENDBRANCH   4  17
TORSDOF 7
ENDMDL
MODEL 4
REMARK VINA RESULT:    -5.015     12.983     14.529
REMARK INTER + INTRA:          -6.798
REMARK INTER:                  -6.619
REMARK INTRA:                  -0.179
REMARK UNBOUND:                -0.317
REMARK SMILES CCO[C@@H]1O[C@H](CO)[C@H](O)[C@@H](O)[C@@H]1O
REMARK SMILES IDX 4 1 13 2 11 3 9 4 6 5 5 6 3 7 2 8 1 9 14 10 12 12 7 14 8 15
REMARK SMILES IDX 10 17
REMARK H PARENT 14 11 12 13 8 16 10 18
REMARK Flexibility Score: inf
ROOT
ATOM      1  C   UNL     1      22.310   3.907  38.824  1.00  0.00     0.281 C 
ATOM      2  C   UNL     1      23.749   3.820  39.368  1.00  0.00     0.202 C 
ATOM      3  C   UNL     1      24.359   5.235  39.490  1.00  0.00     0.179 C 
ATOM      4  C   UNL     1      24.160   6.031  38.186  1.00  0.00     0.177 C 
ATOM      5  C   UNL     1      22.679   5.935  37.736  1.00  0.00     0.178 C 
ATOM      6  O   UNL     1      22.303   4.578  37.573  1.00  0.00    -0.341 OA
ENDROOT
BRANCH   1   7
ATOM      7  O   UNL     1      21.818   2.591  38.653  1.00  0.00    -0.350 OA
BRANCH   7   8
ATOM      8  C   UNL     1      20.994   2.232  39.743  1.00  0.00     0.160 C 
ATOM      9  C   UNL     1      21.578   1.005  40.427  1.00  0.00     0.035 C 
ENDBRANCH   7   8
ENDBRANCH   1   7
BRANCH   2  10
ATOM     10  O   UNL     1      24.527   3.027  38.509  1.00  0.00    -0.385 OA
ATOM     11  H   UNL     1      25.476   3.187  38.752  1.00  0.00     0.211 HD
ENDBRANCH   2  10
BRANCH   3  12
ATOM     12  O   UNL     1      23.755   5.930  40.552  1.00  0.00    -0.387 OA
ATOM     13  H   UNL     1      22.838   5.562  40.653  1.00  0.00     0.211 HD
ENDBRANCH   3  12
BRANCH   5  14
ATOM     14  C   UNL     1      22.433   6.674  36.414  1.00  0.00     0.191 C 
BRANCH  14  15
ATOM     15  O   UNL     1      22.404   8.058  36.630  1.00  0.00    -0.394 OA
ATOM     16  H   UNL     1      23.211   8.423  36.180  1.00  0.00     0.210 HD
ENDBRANCH  14  15
ENDBRANCH   5  14
BRANCH   4  17
ATOM     17  O   UNL     1      25.011   5.511  37.195  1.00  0.00    -0.387 OA
ATOM     18  H   UNL     1      24.435   5.205  36.446  1.00  0.00     0.211 HD
ENDBRANCH   4  17
TORSDOF 7
ENDMDL
MODEL 5
REMARK VINA RESULT:    -4.970      2.519      4.101
REMARK INTER + INTRA:          -6.739
REMARK INTER:                  -6.368
REMARK INTRA:                  -0.371
REMARK UNBOUND:                -0.317
REMARK SMILES CCO[C@@H]1O[C@H](CO)[C@H](O)[C@@H](O)[C@@H]1O
REMARK SMILES IDX 4 1 13 2 11 3 9 4 6 5 5 6 3 7 2 8 1 9 14 10 12 12 7 14 8 15
REMARK SMILES IDX 10 17
REMARK H PARENT 14 11 12 13 8 16 10 18
REMARK Flexibility Score: inf
ROOT
ATOM      1  C   UNL     1      37.439   8.164  43.191  1.00  0.00     0.281 C 
ATOM      2  C   UNL     1      37.586   7.235  44.411  1.00  0.00     0.202 C 
ATOM      3  C   UNL     1      36.255   7.168  45.193  1.00  0.00     0.179 C 
ATOM      4  C   UNL     1      35.706   8.581  45.463  1.00  0.00     0.177 C 
ATOM      5  C   UNL     1      35.714   9.405  44.149  1.00  0.00     0.178 C 
ATOM      6  O   UNL     1      37.024   9.455  43.610  1.00  0.00    -0.341 OA
ENDROOT
BRANCH   1   7
ATOM      7  O   UNL     1      38.697   8.260  42.550  1.00  0.00    -0.350 OA
BRANCH   7   8
ATOM      8  C   UNL     1      38.806   7.282  41.537  1.00  0.00     0.160 C 
ATOM      9  C   UNL     1      40.124   6.540  41.699  1.00  0.00     0.035 C 
ENDBRANCH   7   8
ENDBRANCH   1   7
BRANCH   2  10
ATOM     10  O   UNL     1      38.614   7.712  45.241  1.00  0.00    -0.385 OA
ATOM     11  H   UNL     1      38.189   8.312  45.908  1.00  0.00     0.211 HD
ENDBRANCH   2  10
BRANCH   3  12
ATOM     12  O   UNL     1      35.304   6.435  44.463  1.00  0.00    -0.387 OA
ATOM     13  H   UNL     1      35.316   6.790  43.536  1.00  0.00     0.211 HD
ENDBRANCH   3  12
BRANCH   5  14
ATOM     14  C   UNL     1      35.220  10.840  44.369  1.00  0.00     0.191 C 
BRANCH  14  15
ATOM     15  O   UNL     1      36.307  11.709  44.531  1.00  0.00    -0.394 OA
ATOM     16  H   UNL     1      36.234  12.380  43.803  1.00  0.00     0.210 HD
ENDBRANCH  14  15
ENDBRANCH   5  14
BRANCH   4  17
ATOM     17  O   UNL     1      36.502   9.206  46.440  1.00  0.00    -0.387 OA
ATOM     18  H   UNL     1      36.547  10.170  46.210  1.00  0.00     0.211 HD
ENDBRANCH   4  17
TORSDOF 7
ENDMDL
MODEL 6
REMARK VINA RESULT:    -4.969     12.899     14.189
REMARK INTER + INTRA:          -6.738
REMARK INTER:                  -6.391
REMARK INTRA:                  -0.347
REMARK UNBOUND:                -0.317
REMARK SMILES CCO[C@@H]1O[C@H](CO)[C@H](O)[C@@H](O)[C@@H]1O
REMARK SMILES IDX 4 1 13 2 11 3 9 4 6 5 5 6 3 7 2 8 1 9 14 10 12 12 7 14 8 15
REMARK SMILES IDX 10 17
REMARK H PARENT 14 11 12 13 8 16 10 18
REMARK Flexibility Score: inf
ROOT
ATOM      1  C   UNL     1      23.125   3.269  38.729  1.00  0.00     0.281 C 
ATOM      2  C   UNL     1      23.338   4.612  39.452  1.00  0.00     0.202 C 
ATOM      3  C   UNL     1      23.616   5.732  38.425  1.00  0.00     0.179 C 
ATOM      4  C   UNL     1      24.711   5.303  37.430  1.00  0.00     0.177 C 
ATOM      5  C   UNL     1      24.386   3.894  36.870  1.00  0.00     0.178 C 
ATOM      6  O   UNL     1      24.259   2.962  37.931  1.00  0.00    -0.341 OA
ENDROOT
BRANCH   1   7
ATOM      7  O   UNL     1      22.953   2.259  39.705  1.00  0.00    -0.350 OA
BRANCH   7   8
ATOM      8  C   UNL     1      21.580   1.981  39.884  1.00  0.00     0.160 C 
ATOM      9  C   UNL     1      21.431   0.724  40.727  1.00  0.00     0.035 C 
ENDBRANCH   7   8
ENDBRANCH   1   7
BRANCH   2  10
ATOM     10  O   UNL     1      24.412   4.496  40.349  1.00  0.00    -0.385 OA
ATOM     11  H   UNL     1      25.062   5.208  40.112  1.00  0.00     0.211 HD
ENDBRANCH   2  10
BRANCH   3  12
ATOM     12  O   UNL     1      22.442   6.038  37.715  1.00  0.00    -0.387 OA
ATOM     13  H   UNL     1      21.765   5.360  37.974  1.00  0.00     0.211 HD
ENDBRANCH   3  12
BRANCH   5  14
ATOM     14  C   UNL     1      25.470   3.395  35.907  1.00  0.00     0.191 C 
BRANCH  14  15
ATOM     15  O   UNL     1      26.043   4.475  35.221  1.00  0.00    -0.394 OA
ATOM     16  H   UNL     1      25.297   4.923  34.742  1.00  0.00     0.210 HD
ENDBRANCH  14  15
ENDBRANCH   5  14
BRANCH   4  17
ATOM     17  O   UNL     1      25.954   5.296  38.089  1.00  0.00    -0.387 OA
ATOM     18  H   UNL     1      26.197   4.346  38.247  1.00  0.00     0.211 HD
ENDBRANCH   4  17
TORSDOF 7
ENDMDL
MODEL 7
REMARK VINA RESULT:    -4.904      2.020      3.265
REMARK INTER + INTRA:          -6.655
REMARK INTER:                  -6.261
REMARK INTRA:                  -0.394
REMARK UNBOUND:                -0.317
REMARK SMILES CCO[C@@H]1O[C@H](CO)[C@H](O)[C@@H](O)[C@@H]1O
REMARK SMILES IDX 4 1 13 2 11 3 9 4 6 5 5 6 3 7 2 8 1 9 14 10 12 12 7 14 8 15
REMARK SMILES IDX 10 17
REMARK H PARENT 14 11 12 13 8 16 10 18
REMARK Flexibility Score: inf
ROOT
ATOM      1  C   UNL     1      37.621   4.203  44.350  1.00  0.00     0.281 C 
ATOM      2  C   UNL     1      36.279   4.954  44.241  1.00  0.00     0.202 C 
ATOM      3  C   UNL     1      36.455   6.239  43.400  1.00  0.00     0.179 C 
ATOM      4  C   UNL     1      37.664   7.055  43.893  1.00  0.00     0.177 C 
ATOM      5  C   UNL     1      38.899   6.127  44.033  1.00  0.00     0.178 C 
ATOM      6  O   UNL     1      38.609   5.054  44.912  1.00  0.00    -0.341 OA
ENDROOT
BRANCH   1   7
ATOM      7  O   UNL     1      37.436   3.080  45.191  1.00  0.00    -0.350 OA
BRANCH   7   8
ATOM      8  C   UNL     1      37.082   1.948  44.423  1.00  0.00     0.160 C 
ATOM      9  C   UNL     1      35.758   1.397  44.928  1.00  0.00     0.035 C 
ENDBRANCH   7   8
ENDBRANCH   1   7
BRANCH   2  10
ATOM     10  O   UNL     1      35.816   5.274  45.528  1.00  0.00    -0.385 OA
ATOM     11  H   UNL     1      34.982   5.798  45.410  1.00  0.00     0.211 HD
ENDBRANCH   2  10
BRANCH   3  12
ATOM     12  O   UNL     1      36.641   5.908  42.047  1.00  0.00    -0.387 OA
ATOM     13  H   UNL     1      36.138   6.578  41.515  1.00  0.00     0.211 HD
ENDBRANCH   3  12
BRANCH   5  14
ATOM     14  C   UNL     1      40.125   6.879  44.566  1.00  0.00     0.191 C 
BRANCH  14  15
ATOM     15  O   UNL     1      40.064   6.978  45.962  1.00  0.00    -0.394 OA
ATOM     16  H   UNL     1      40.086   6.046  46.305  1.00  0.00     0.210 HD
ENDBRANCH  14  15
ENDBRANCH   5  14
BRANCH   4  17
ATOM     17  O   UNL     1      37.349   7.644  45.131  1.00  0.00    -0.387 OA
ATOM     18  H   UNL     1      37.780   8.539  45.148  1.00  0.00     0.211 HD
ENDBRANCH   4  17
TORSDOF 7
ENDMDL
MODEL 8
REMARK VINA RESULT:    -4.834      1.891      3.621
REMARK INTER + INTRA:          -6.563
REMARK INTER:                  -6.170
REMARK INTRA:                  -0.393
REMARK UNBOUND:                -0.317
REMARK SMILES CCO[C@@H]1O[C@H](CO)[C@H](O)[C@@H](O)[C@@H]1O
REMARK SMILES IDX 4 1 13 2 11 3 9 4 6 5 5 6 3 7 2 8 1 9 14 10 12 12 7 14 8 15
REMARK SMILES IDX 10 17
REMARK H PARENT 14 11 12 13 8 16 10 18
REMARK Flexibility Score: inf
ROOT
ATOM      1  C   UNL     1      35.546   4.056  44.138  1.00  0.00     0.281 C 
ATOM      2  C   UNL     1      35.695   5.589  44.197  1.00  0.00     0.202 C 
ATOM      3  C   UNL     1      36.940   6.034  43.396  1.00  0.00     0.179 C 
ATOM      4  C   UNL     1      38.174   5.204  43.796  1.00  0.00     0.177 C 
ATOM      5  C   UNL     1      37.820   3.694  43.771  1.00  0.00     0.178 C 
ATOM      6  O   UNL     1      36.723   3.434  44.631  1.00  0.00    -0.341 OA
ENDROOT
BRANCH   1   7
ATOM      7  O   UNL     1      34.445   3.684  44.946  1.00  0.00    -0.350 OA
BRANCH   7   8
ATOM      8  C   UNL     1      33.773   2.580  44.377  1.00  0.00     0.160 C 
ATOM      9  C   UNL     1      33.186   2.989  43.035  1.00  0.00     0.035 C 
ENDBRANCH   7   8
ENDBRANCH   1   7
BRANCH   2  10
ATOM     10  O   UNL     1      35.807   5.997  45.536  1.00  0.00    -0.385 OA
ATOM     11  H   UNL     1      36.200   6.908  45.527  1.00  0.00     0.211 HD
ENDBRANCH   2  10
BRANCH   3  12
ATOM     12  O   UNL     1      36.707   5.881  42.019  1.00  0.00    -0.387 OA
ATOM     13  H   UNL     1      35.782   5.533  41.921  1.00  0.00     0.211 HD
ENDBRANCH   3  12
BRANCH   5  14
ATOM     14  C   UNL     1      39.002   2.820  44.207  1.00  0.00     0.191 C 
BRANCH  14  15
ATOM     15  O   UNL     1      39.020   2.689  45.602  1.00  0.00    -0.394 OA
ATOM     16  H   UNL     1      39.800   3.217  45.917  1.00  0.00     0.210 HD
ENDBRANCH  14  15
ENDBRANCH   5  14
BRANCH   4  17
ATOM     17  O   UNL     1      38.592   5.590  45.082  1.00  0.00    -0.387 OA
ATOM     18  H   UNL     1      39.558   5.811  45.023  1.00  0.00     0.211 HD
ENDBRANCH   4  17
TORSDOF 7
ENDMDL
MODEL 9
REMARK VINA RESULT:    -3.891      1.598      3.870
REMARK INTER + INTRA:          -5.345
REMARK INTER:                  -4.989
REMARK INTRA:                  -0.357
REMARK UNBOUND:                -0.317
REMARK SMILES CCO[C@@H]1O[C@H](CO)[C@H](O)[C@@H](O)[C@@H]1O
REMARK SMILES IDX 4 1 13 2 11 3 9 4 6 5 5 6 3 7 2 8 1 9 14 10 12 12 7 14 8 15
REMARK SMILES IDX 10 17
REMARK H PARENT 14 11 12 13 8 16 10 18
REMARK Flexibility Score: inf
ROOT
ATOM      1  C   UNL     1      37.895   6.197  43.719  1.00  0.00     0.281 C 
ATOM      2  C   UNL     1      36.965   4.998  43.987  1.00  0.00     0.202 C 
ATOM      3  C   UNL     1      35.487   5.444  43.914  1.00  0.00     0.179 C 
ATOM      4  C   UNL     1      35.251   6.704  44.768  1.00  0.00     0.177 C 
ATOM      5  C   UNL     1      36.328   7.769  44.435  1.00  0.00     0.178 C 
ATOM      6  O   UNL     1      37.626   7.238  44.647  1.00  0.00    -0.341 OA
ENDROOT
BRANCH   1   7
ATOM      7  O   UNL     1      39.234   5.766  43.874  1.00  0.00    -0.350 OA
BRANCH   7   8
ATOM      8  C   UNL     1      40.125   6.788  43.476  1.00  0.00     0.160 C 
ATOM      9  C   UNL     1      40.014   6.988  41.972  1.00  0.00     0.035 C 
ENDBRANCH   7   8
ENDBRANCH   1   7
BRANCH   2  10
ATOM     10  O   UNL     1      37.249   4.460  45.253  1.00  0.00    -0.385 OA
ATOM     11  H   UNL     1      37.994   4.994  45.632  1.00  0.00     0.211 HD
ENDBRANCH   2  10
BRANCH   3  12
ATOM     12  O   UNL     1      35.131   5.715  42.582  1.00  0.00    -0.387 OA
ATOM     13  H   UNL     1      34.363   6.344  42.612  1.00  0.00     0.211 HD
ENDBRANCH   3  12
BRANCH   5  14
ATOM     14  C   UNL     1      36.170   9.032  45.292  1.00  0.00     0.191 C 
BRANCH  14  15
ATOM     15  O   UNL     1      37.065   9.002  46.370  1.00  0.00    -0.394 OA
ATOM     16  H   UNL     1      37.179   9.945  46.658  1.00  0.00     0.210 HD
ENDBRANCH  14  15
ENDBRANCH   5  14
BRANCH   4  17
ATOM     17  O   UNL     1      35.308   6.355  46.129  1.00  0.00    -0.387 OA
ATOM     18  H   UNL     1      35.929   6.992  46.569  1.00  0.00     0.211 HD
ENDBRANCH   4  17
TORSDOF 7
ENDMDL
