MODEL 1
REMARK VINA RESULT:    -6.198      0.000      0.000
REMARK INTER + INTRA:          -7.533
REMARK INTER:                  -7.285
REMARK INTRA:                  -0.249
REMARK UNBOUND:                -0.249
REMARK SMILES O=C([O-])C=Cc1ccc(O)c(O)c1
REMARK SMILES IDX 6 1 13 2 7 3 11 4 8 5 9 6 5 7 4 8 2 9 1 10 3 11 12 12 10 14
REMARK H PARENT 12 13 10 15
REMARK Flexibility Score: inf
ROOT
ATOM      1  C   UNL     1       7.150 -55.014 -31.044  1.00  0.00    -0.022 A 
ATOM      2  C   UNL     1       7.127 -55.712 -29.824  1.00  0.00     0.058 A 
ATOM      3  C   UNL     1       6.008 -55.015 -31.856  1.00  0.00     0.012 A 
ATOM      4  C   UNL     1       5.993 -56.445 -29.446  1.00  0.00     0.157 A 
ATOM      5  C   UNL     1       4.877 -55.746 -31.482  1.00  0.00     0.051 A 
ATOM      6  C   UNL     1       4.864 -56.465 -30.283  1.00  0.00     0.157 A 
ENDROOT
BRANCH   1   7
ATOM      7  C   UNL     1       8.316 -54.194 -31.435  1.00  0.00     0.010 C 
ATOM      8  C   UNL     1       9.272 -54.564 -32.300  1.00  0.00     0.025 C 
BRANCH   8   9
ATOM      9  C   UNL     1       9.247 -55.770 -33.150  1.00  0.00     0.064 C 
ATOM     10  O   UNL     1       9.683 -56.877 -32.738  1.00  0.00    -0.545 OA
ATOM     11  O   UNL     1       8.666 -55.698 -34.409  1.00  0.00    -0.545 OA
ENDBRANCH   8   9
ENDBRANCH   1   7
BRANCH   4  12
ATOM     12  O   UNL     1       5.983 -57.148 -28.242  1.00  0.00    -0.504 OA
ATOM     13  H   UNL     1       5.503 -56.792 -27.423  1.00  0.00     0.293 HD
ENDBRANCH   4  12
BRANCH   6  14
ATOM     14  O   UNL     1       3.723 -57.187 -29.938  1.00  0.00    -0.504 OA
ATOM     15  H   UNL     1       2.823 -57.012 -30.371  1.00  0.00     0.293 HD
ENDBRANCH   6  14
TORSDOF 4
ENDMDL
MODEL 2
REMARK VINA RESULT:    -5.993      2.138      2.481
REMARK INTER + INTRA:          -7.293
REMARK INTER:                  -7.243
REMARK INTRA:                  -0.050
REMARK UNBOUND:                -0.249
REMARK SMILES O=C([O-])C=Cc1ccc(O)c(O)c1
REMARK SMILES IDX 6 1 13 2 7 3 11 4 8 5 9 6 5 7 4 8 2 9 1 10 3 11 12 12 10 14
REMARK H PARENT 12 13 10 15
REMARK Flexibility Score: inf
ROOT
ATOM      1  C   UNL     1       7.573 -55.698 -31.230  1.00  0.00    -0.022 A 
ATOM      2  C   UNL     1       7.327 -56.387 -30.030  1.00  0.00     0.058 A 
ATOM      3  C   UNL     1       6.527 -54.995 -31.844  1.00  0.00     0.012 A 
ATOM      4  C   UNL     1       6.039 -56.417 -29.479  1.00  0.00     0.157 A 
ATOM      5  C   UNL     1       5.242 -55.024 -31.297  1.00  0.00     0.051 A 
ATOM      6  C   UNL     1       4.990 -55.735 -30.119  1.00  0.00     0.157 A 
ENDROOT
BRANCH   1   7
ATOM      7  C   UNL     1       8.935 -55.612 -31.798  1.00  0.00     0.010 C 
ATOM      8  C   UNL     1       9.990 -55.033 -31.207  1.00  0.00     0.025 C 
BRANCH   8   9
ATOM      9  C   UNL     1      10.035 -54.538 -29.817  1.00  0.00     0.064 C 
ATOM     10  O   UNL     1       9.555 -53.418 -29.500  1.00  0.00    -0.545 OA
ATOM     11  O   UNL     1      10.558 -55.356 -28.824  1.00  0.00    -0.545 OA
ENDBRANCH   8   9
ENDBRANCH   1   7
BRANCH   4  12
ATOM     12  O   UNL     1       5.798 -57.117 -28.297  1.00  0.00    -0.504 OA
ATOM     13  H   UNL     1       6.154 -56.791 -27.405  1.00  0.00     0.293 HD
ENDBRANCH   4  12
BRANCH   6  14
ATOM     14  O   UNL     1       3.696 -55.748 -29.599  1.00  0.00    -0.504 OA
ATOM     15  H   UNL     1       3.507 -55.994 -28.634  1.00  0.00     0.293 HD
ENDBRANCH   6  14
TORSDOF 4
ENDMDL
MODEL 3
REMARK VINA RESULT:    -5.951      0.972      2.016
REMARK INTER + INTRA:          -7.243
REMARK INTER:                  -7.115
REMARK INTRA:                  -0.128
REMARK UNBOUND:                -0.249
REMARK SMILES O=C([O-])C=Cc1ccc(O)c(O)c1
REMARK SMILES IDX 6 1 13 2 7 3 11 4 8 5 9 6 5 7 4 8 2 9 1 10 3 11 12 12 10 14
REMARK H PARENT 12 13 10 15
REMARK Flexibility Score: inf
ROOT
ATOM      1  C   UNL     1       8.146 -54.883 -30.457  1.00  0.00    -0.022 A 
ATOM      2  C   UNL     1       6.862 -55.068 -30.998  1.00  0.00     0.058 A 
ATOM      3  C   UNL     1       8.477 -55.509 -29.248  1.00  0.00     0.012 A 
ATOM      4  C   UNL     1       5.904 -55.827 -30.311  1.00  0.00     0.157 A 
ATOM      5  C   UNL     1       7.524 -56.266 -28.561  1.00  0.00     0.051 A 
ATOM      6  C   UNL     1       6.236 -56.425 -29.084  1.00  0.00     0.157 A 
ENDROOT
BRANCH   1   7
ATOM      7  C   UNL     1       9.184 -54.130 -31.191  1.00  0.00     0.010 C 
ATOM      8  C   UNL     1       9.778 -54.528 -32.327  1.00  0.00     0.025 C 
BRANCH   8   9
ATOM      9  C   UNL     1       9.381 -55.690 -33.145  1.00  0.00     0.064 C 
ATOM     10  O   UNL     1       9.840 -56.841 -32.922  1.00  0.00    -0.545 OA
ATOM     11  O   UNL     1       8.429 -55.522 -34.142  1.00  0.00    -0.545 OA
ENDBRANCH   8   9
ENDBRANCH   1   7
BRANCH   4  12
ATOM     12  O   UNL     1       4.626 -55.992 -30.846  1.00  0.00    -0.504 OA
ATOM     13  H   UNL     1       3.799 -55.682 -30.349  1.00  0.00     0.293 HD
ENDBRANCH   4  12
BRANCH   6  14
ATOM     14  O   UNL     1       5.305 -57.182 -28.374  1.00  0.00    -0.504 OA
ATOM     15  H   UNL     1       5.566 -58.026 -27.875  1.00  0.00     0.293 HD
ENDBRANCH   6  14
TORSDOF 4
ENDMDL
MODEL 4
REMARK VINA RESULT:    -5.902      2.575      4.465
REMARK INTER + INTRA:          -7.186
REMARK INTER:                  -7.481
REMARK INTRA:                   0.295
REMARK UNBOUND:                -0.249
REMARK SMILES O=C([O-])C=Cc1ccc(O)c(O)c1
REMARK SMILES IDX 6 1 13 2 7 3 11 4 8 5 9 6 5 7 4 8 2 9 1 10 3 11 12 12 10 14
REMARK H PARENT 12 13 10 15
REMARK Flexibility Score: inf
ROOT
ATOM      1  C   UNL     1       7.513 -55.061 -30.808  1.00  0.00    -0.022 A 
ATOM      2  C   UNL     1       7.430 -56.060 -29.823  1.00  0.00     0.058 A 
ATOM      3  C   UNL     1       8.613 -54.193 -30.813  1.00  0.00     0.012 A 
ATOM      4  C   UNL     1       8.410 -56.157 -28.825  1.00  0.00     0.157 A 
ATOM      5  C   UNL     1       9.591 -54.287 -29.818  1.00  0.00     0.051 A 
ATOM      6  C   UNL     1       9.493 -55.262 -28.821  1.00  0.00     0.157 A 
ENDROOT
BRANCH   1   7
ATOM      7  C   UNL     1       6.519 -54.975 -31.898  1.00  0.00     0.010 C 
ATOM      8  C   UNL     1       5.226 -55.323 -31.802  1.00  0.00     0.025 C 
BRANCH   8   9
ATOM      9  C   UNL     1       4.520 -55.681 -30.556  1.00  0.00     0.064 C 
ATOM     10  O   UNL     1       4.161 -54.804 -29.726  1.00  0.00    -0.545 OA
ATOM     11  O   UNL     1       4.184 -57.008 -30.326  1.00  0.00    -0.545 OA
ENDBRANCH   8   9
ENDBRANCH   1   7
BRANCH   4  12
ATOM     12  O   UNL     1       8.313 -57.141 -27.841  1.00  0.00    -0.504 OA
ATOM     13  H   UNL     1       7.890 -58.043 -28.032  1.00  0.00     0.293 HD
ENDBRANCH   4  12
BRANCH   6  14
ATOM     14  O   UNL     1      10.481 -55.329 -27.839  1.00  0.00    -0.504 OA
ATOM     15  H   UNL     1      11.163 -54.589 -27.710  1.00  0.00     0.293 HD
ENDBRANCH   6  14
TORSDOF 4
ENDMDL
MODEL 5
REMARK VINA RESULT:    -5.862      2.609      4.712
REMARK INTER + INTRA:          -7.139
REMARK INTER:                  -6.975
REMARK INTRA:                  -0.164
REMARK UNBOUND:                -0.249
REMARK SMILES O=C([O-])C=Cc1ccc(O)c(O)c1
REMARK SMILES IDX 6 1 13 2 7 3 11 4 8 5 9 6 5 7 4 8 2 9 1 10 3 11 12 12 10 14
REMARK H PARENT 12 13 10 15
REMARK Flexibility Score: inf
ROOT
ATOM      1  C   UNL     1       9.453 -54.338 -30.840  1.00  0.00    -0.022 A 
ATOM      2  C   UNL     1       8.134 -54.312 -31.323  1.00  0.00     0.058 A 
ATOM      3  C   UNL     1      10.473 -54.844 -31.658  1.00  0.00     0.012 A 
ATOM      4  C   UNL     1       7.830 -54.834 -32.588  1.00  0.00     0.157 A 
ATOM      5  C   UNL     1      10.173 -55.365 -32.919  1.00  0.00     0.051 A 
ATOM      6  C   UNL     1       8.855 -55.368 -33.388  1.00  0.00     0.157 A 
ENDROOT
BRANCH   1   7
ATOM      7  C   UNL     1       9.801 -53.745 -29.532  1.00  0.00     0.010 C 
ATOM      8  C   UNL     1       9.808 -54.397 -28.359  1.00  0.00     0.025 C 
BRANCH   8   9
ATOM      9  C   UNL     1       9.648 -55.853 -28.182  1.00  0.00     0.064 C 
ATOM     10  O   UNL     1      10.542 -56.555 -27.638  1.00  0.00    -0.545 OA
ATOM     11  O   UNL     1       8.454 -56.454 -28.561  1.00  0.00    -0.545 OA
ENDBRANCH   8   9
ENDBRANCH   1   7
BRANCH   4  12
ATOM     12  O   UNL     1       6.516 -54.821 -33.055  1.00  0.00    -0.504 OA
ATOM     13  H   UNL     1       5.881 -55.590 -32.875  1.00  0.00     0.293 HD
ENDBRANCH   4  12
BRANCH   6  14
ATOM     14  O   UNL     1       8.585 -55.899 -34.649  1.00  0.00    -0.504 OA
ATOM     15  H   UNL     1       8.689 -56.887 -34.850  1.00  0.00     0.293 HD
ENDBRANCH   6  14
TORSDOF 4
ENDMDL
MODEL 6
REMARK VINA RESULT:    -5.818      2.088      5.251
REMARK INTER + INTRA:          -7.087
REMARK INTER:                  -6.923
REMARK INTRA:                  -0.164
REMARK UNBOUND:                -0.249
REMARK SMILES O=C([O-])C=Cc1ccc(O)c(O)c1
REMARK SMILES IDX 6 1 13 2 7 3 11 4 8 5 9 6 5 7 4 8 2 9 1 10 3 11 12 12 10 14
REMARK H PARENT 12 13 10 15
REMARK Flexibility Score: inf
ROOT
ATOM      1  C   UNL     1       5.606 -56.060 -30.314  1.00  0.00    -0.022 A 
ATOM      2  C   UNL     1       6.753 -56.074 -29.501  1.00  0.00     0.058 A 
ATOM      3  C   UNL     1       5.631 -55.351 -31.523  1.00  0.00     0.012 A 
ATOM      4  C   UNL     1       7.892 -55.344 -29.867  1.00  0.00     0.157 A 
ATOM      5  C   UNL     1       6.765 -54.622 -31.890  1.00  0.00     0.051 A 
ATOM      6  C   UNL     1       7.896 -54.610 -31.066  1.00  0.00     0.157 A 
ENDROOT
BRANCH   1   7
ATOM      7  C   UNL     1       4.415 -56.864 -29.971  1.00  0.00     0.010 C 
ATOM      8  C   UNL     1       3.631 -56.675 -28.899  1.00  0.00     0.025 C 
BRANCH   8   9
ATOM      9  C   UNL     1       3.702 -55.532 -27.969  1.00  0.00     0.064 C 
ATOM     10  O   UNL     1       3.028 -54.485 -28.158  1.00  0.00    -0.545 OA
ATOM     11  O   UNL     1       4.480 -55.638 -26.824  1.00  0.00    -0.545 OA
ENDBRANCH   8   9
ENDBRANCH   1   7
BRANCH   4  12
ATOM     12  O   UNL     1       9.020 -55.348 -29.048  1.00  0.00    -0.504 OA
ATOM     13  H   UNL     1       9.147 -54.660 -28.315  1.00  0.00     0.293 HD
ENDBRANCH   4  12
BRANCH   6  14
ATOM     14  O   UNL     1       9.011 -53.871 -31.457  1.00  0.00    -0.504 OA
ATOM     15  H   UNL     1       8.966 -52.871 -31.615  1.00  0.00     0.293 HD
ENDBRANCH   6  14
TORSDOF 4
ENDMDL
MODEL 7
REMARK VINA RESULT:    -5.800      2.386      3.226
REMARK INTER + INTRA:          -7.066
REMARK INTER:                  -6.959
REMARK INTRA:                  -0.107
REMARK UNBOUND:                -0.249
REMARK SMILES O=C([O-])C=Cc1ccc(O)c(O)c1
REMARK SMILES IDX 6 1 13 2 7 3 11 4 8 5 9 6 5 7 4 8 2 9 1 10 3 11 12 12 10 14
REMARK H PARENT 12 13 10 15
REMARK Flexibility Score: inf
ROOT
ATOM      1  C   UNL     1       8.873 -54.981 -30.175  1.00  0.00    -0.022 A 
ATOM      2  C   UNL     1       9.952 -55.250 -29.317  1.00  0.00     0.058 A 
ATOM      3  C   UNL     1       7.629 -55.576 -29.920  1.00  0.00     0.012 A 
ATOM      4  C   UNL     1       9.804 -56.143 -28.246  1.00  0.00     0.157 A 
ATOM      5  C   UNL     1       7.479 -56.468 -28.855  1.00  0.00     0.051 A 
ATOM      6  C   UNL     1       8.561 -56.759 -28.018  1.00  0.00     0.157 A 
ENDROOT
BRANCH   1   7
ATOM      7  C   UNL     1       8.995 -54.004 -31.276  1.00  0.00     0.010 C 
ATOM      8  C   UNL     1       9.646 -54.210 -32.431  1.00  0.00     0.025 C 
BRANCH   8   9
ATOM      9  C   UNL     1      10.203 -55.497 -32.890  1.00  0.00     0.064 C 
ATOM     10  O   UNL     1       9.502 -56.543 -32.926  1.00  0.00    -0.545 OA
ATOM     11  O   UNL     1      11.510 -55.542 -33.356  1.00  0.00    -0.545 OA
ENDBRANCH   8   9
ENDBRANCH   1   7
BRANCH   4  12
ATOM     12  O   UNL     1      10.884 -56.418 -27.408  1.00  0.00    -0.504 OA
ATOM     13  H   UNL     1      11.149 -57.369 -27.177  1.00  0.00     0.293 HD
ENDBRANCH   4  12
BRANCH   6  14
ATOM     14  O   UNL     1       8.382 -57.655 -26.965  1.00  0.00    -0.504 OA
ATOM     15  H   UNL     1       8.636 -57.422 -26.011  1.00  0.00     0.293 HD
ENDBRANCH   6  14
TORSDOF 4
ENDMDL
MODEL 8
REMARK VINA RESULT:    -5.763      2.147      5.509
REMARK INTER + INTRA:          -7.022
REMARK INTER:                  -6.861
REMARK INTRA:                  -0.162
REMARK UNBOUND:                -0.249
REMARK SMILES O=C([O-])C=Cc1ccc(O)c(O)c1
REMARK SMILES IDX 6 1 13 2 7 3 11 4 8 5 9 6 5 7 4 8 2 9 1 10 3 11 12 12 10 14
REMARK H PARENT 12 13 10 15
REMARK Flexibility Score: inf
ROOT
ATOM      1  C   UNL     1       6.443 -56.117 -30.017  1.00  0.00    -0.022 A 
ATOM      2  C   UNL     1       6.741 -55.164 -31.006  1.00  0.00     0.058 A 
ATOM      3  C   UNL     1       7.311 -56.269 -28.927  1.00  0.00     0.012 A 
ATOM      4  C   UNL     1       7.919 -54.408 -30.932  1.00  0.00     0.157 A 
ATOM      5  C   UNL     1       8.487 -55.518 -28.852  1.00  0.00     0.051 A 
ATOM      6  C   UNL     1       8.799 -54.591 -29.851  1.00  0.00     0.157 A 
ENDROOT
BRANCH   1   7
ATOM      7  C   UNL     1       5.181 -56.885 -30.050  1.00  0.00     0.010 C 
ATOM      8  C   UNL     1       4.136 -56.701 -29.228  1.00  0.00     0.025 C 
BRANCH   8   9
ATOM      9  C   UNL     1       3.980 -55.591 -28.268  1.00  0.00     0.064 C 
ATOM     10  O   UNL     1       3.307 -54.565 -28.550  1.00  0.00    -0.545 OA
ATOM     11  O   UNL     1       4.531 -55.712 -26.999  1.00  0.00    -0.545 OA
ENDBRANCH   8   9
ENDBRANCH   1   7
BRANCH   4  12
ATOM     12  O   UNL     1       8.217 -53.476 -31.925  1.00  0.00    -0.504 OA
ATOM     13  H   UNL     1       8.514 -52.534 -31.697  1.00  0.00     0.293 HD
ENDBRANCH   4  12
BRANCH   6  14
ATOM     14  O   UNL     1       9.981 -53.858 -29.751  1.00  0.00    -0.504 OA
ATOM     15  H   UNL     1      10.730 -54.128 -29.122  1.00  0.00     0.293 HD
ENDBRANCH   6  14
TORSDOF 4
ENDMDL
MODEL 9
REMARK VINA RESULT:    -5.747      1.478      4.818
REMARK INTER + INTRA:          -7.003
REMARK INTER:                  -7.020
REMARK INTRA:                   0.017
REMARK UNBOUND:                -0.249
REMARK SMILES O=C([O-])C=Cc1ccc(O)c(O)c1
REMARK SMILES IDX 6 1 13 2 7 3 11 4 8 5 9 6 5 7 4 8 2 9 1 10 3 11 12 12 10 14
REMARK H PARENT 12 13 10 15
REMARK Flexibility Score: inf
ROOT
ATOM      1  C   UNL     1       7.991 -55.537 -30.181  1.00  0.00    -0.022 A 
ATOM      2  C   UNL     1       8.408 -56.537 -31.076  1.00  0.00     0.058 A 
ATOM      3  C   UNL     1       8.472 -54.230 -30.341  1.00  0.00     0.012 A 
ATOM      4  C   UNL     1       9.335 -56.246 -32.086  1.00  0.00     0.157 A 
ATOM      5  C   UNL     1       9.397 -53.937 -31.347  1.00  0.00     0.051 A 
ATOM      6  C   UNL     1       9.836 -54.939 -32.218  1.00  0.00     0.157 A 
ENDROOT
BRANCH   1   7
ATOM      7  C   UNL     1       6.975 -55.812 -29.144  1.00  0.00     0.010 C 
ATOM      8  C   UNL     1       5.656 -55.929 -29.358  1.00  0.00     0.025 C 
BRANCH   8   9
ATOM      9  C   UNL     1       4.998 -55.983 -30.677  1.00  0.00     0.064 C 
ATOM     10  O   UNL     1       4.151 -56.872 -30.956  1.00  0.00    -0.545 OA
ATOM     11  O   UNL     1       5.269 -54.991 -31.610  1.00  0.00    -0.545 OA
ENDBRANCH   8   9
ENDBRANCH   1   7
BRANCH   4  12
ATOM     12  O   UNL     1       9.757 -57.247 -32.960  1.00  0.00    -0.504 OA
ATOM     13  H   UNL     1       9.445 -58.206 -32.859  1.00  0.00     0.293 HD
ENDBRANCH   4  12
BRANCH   6  14
ATOM     14  O   UNL     1      10.762 -54.617 -33.209  1.00  0.00    -0.504 OA
ATOM     15  H   UNL     1      11.445 -53.878 -33.089  1.00  0.00     0.293 HD
ENDBRANCH   6  14
TORSDOF 4
ENDMDL
