MODEL 1
REMARK VINA RESULT:    -5.012      0.000      0.000
REMARK INTER + INTRA:          -6.493
REMARK INTER:                  -6.184
REMARK INTRA:                  -0.309
REMARK UNBOUND:                -0.309
REMARK SMILES C=CC[C@@H](C)C(=O)CC
REMARK SMILES IDX 4 1 5 2 6 3 7 4 8 5 9 6 3 7 2 8 1 9
REMARK H PARENT
REMARK Flexibility Score: inf
ROOT
ATOM      1  C   UNL     1     -33.451 -24.027  22.314  1.00  0.00     0.057 C 
ATOM      2  C   UNL     1     -34.115 -24.014  20.932  1.00  0.00     0.016 C 
ENDROOT
BRANCH   1   3
ATOM      3  C   UNL     1     -32.253 -24.955  22.304  1.00  0.00     0.135 C 
ATOM      4  O   UNL     1     -32.377 -26.103  21.900  1.00  0.00    -0.299 OA
BRANCH   3   5
ATOM      5  C   UNL     1     -30.900 -24.483  22.768  1.00  0.00     0.072 C 
ATOM      6  C   UNL     1     -29.887 -25.621  22.723  1.00  0.00     0.012 C 
ENDBRANCH   3   5
ENDBRANCH   1   3
BRANCH   1   7
ATOM      7  C   UNL     1     -33.047 -22.600  22.735  1.00  0.00     0.038 C 
BRANCH   7   8
ATOM      8  C   UNL     1     -32.919 -21.674  21.554  1.00  0.00    -0.034 C 
ATOM      9  C   UNL     1     -31.748 -21.132  21.207  1.00  0.00     0.004 C 
ENDBRANCH   7   8
ENDBRANCH   1   7
TORSDOF 4
ENDMDL
MODEL 2
REMARK VINA RESULT:    -4.851      1.557      3.874
REMARK INTER + INTRA:          -6.295
REMARK INTER:                  -6.093
REMARK INTRA:                  -0.202
REMARK UNBOUND:                -0.309
REMARK SMILES C=CC[C@@H](C)C(=O)CC
REMARK SMILES IDX 4 1 5 2 6 3 7 4 8 5 9 6 3 7 2 8 1 9
REMARK H PARENT
REMARK Flexibility Score: inf
ROOT
ATOM      1  C   UNL     1     -32.128 -24.983  22.078  1.00  0.00     0.057 C 
ATOM      2  C   UNL     1     -33.532 -25.573  21.898  1.00  0.00     0.016 C 
ENDROOT
BRANCH   1   3
ATOM      3  C   UNL     1     -32.223 -23.594  22.673  1.00  0.00     0.135 C 
ATOM      4  O   UNL     1     -31.385 -23.221  23.483  1.00  0.00    -0.299 OA
BRANCH   3   5
ATOM      5  C   UNL     1     -33.327 -22.649  22.274  1.00  0.00     0.072 C 
ATOM      6  C   UNL     1     -32.822 -21.627  21.261  1.00  0.00     0.012 C 
ENDBRANCH   3   5
ENDBRANCH   1   3
BRANCH   1   7
ATOM      7  C   UNL     1     -31.260 -25.907  22.955  1.00  0.00     0.038 C 
BRANCH   7   8
ATOM      8  C   UNL     1     -29.906 -26.160  22.346  1.00  0.00    -0.034 C 
ATOM      9  C   UNL     1     -28.776 -25.887  23.004  1.00  0.00     0.004 C 
ENDBRANCH   7   8
ENDBRANCH   1   7
TORSDOF 4
ENDMDL
MODEL 3
REMARK VINA RESULT:    -4.612      2.333      4.252
REMARK INTER + INTRA:          -6.000
REMARK INTER:                  -5.734
REMARK INTRA:                  -0.266
REMARK UNBOUND:                -0.309
REMARK SMILES C=CC[C@@H](C)C(=O)CC
REMARK SMILES IDX 4 1 5 2 6 3 7 4 8 5 9 6 3 7 2 8 1 9
REMARK H PARENT
REMARK Flexibility Score: inf
ROOT
ATOM      1  C   UNL     1     -32.518 -22.594  22.994  1.00  0.00     0.057 C 
ATOM      2  C   UNL     1     -31.238 -23.420  22.822  1.00  0.00     0.016 C 
ENDROOT
BRANCH   1   3
ATOM      3  C   UNL     1     -32.402 -21.295  22.223  1.00  0.00     0.135 C 
ATOM      4  O   UNL     1     -32.089 -20.267  22.808  1.00  0.00    -0.299 OA
BRANCH   3   5
ATOM      5  C   UNL     1     -32.650 -21.247  20.738  1.00  0.00     0.072 C 
ATOM      6  C   UNL     1     -32.415 -19.841  20.196  1.00  0.00     0.012 C 
ENDBRANCH   3   5
ENDBRANCH   1   3
BRANCH   1   7
ATOM      7  C   UNL     1     -33.750 -23.402  22.541  1.00  0.00     0.038 C 
BRANCH   7   8
ATOM      8  C   UNL     1     -33.375 -24.758  22.003  1.00  0.00    -0.034 C 
ATOM      9  C   UNL     1     -34.125 -25.388  21.095  1.00  0.00     0.004 C 
ENDBRANCH   7   8
ENDBRANCH   1   7
TORSDOF 4
ENDMDL
MODEL 4
REMARK VINA RESULT:    -4.443      1.623      3.863
REMARK INTER + INTRA:          -5.791
REMARK INTER:                  -5.606
REMARK INTRA:                  -0.185
REMARK UNBOUND:                -0.309
REMARK SMILES C=CC[C@@H](C)C(=O)CC
REMARK SMILES IDX 4 1 5 2 6 3 7 4 8 5 9 6 3 7 2 8 1 9
REMARK H PARENT
REMARK Flexibility Score: inf
ROOT
ATOM      1  C   UNL     1     -32.328 -24.081  21.942  1.00  0.00     0.057 C 
ATOM      2  C   UNL     1     -33.337 -25.212  22.174  1.00  0.00     0.016 C 
ENDROOT
BRANCH   1   3
ATOM      3  C   UNL     1     -32.994 -22.739  22.169  1.00  0.00     0.135 C 
ATOM      4  O   UNL     1     -33.571 -22.519  23.225  1.00  0.00    -0.299 OA
BRANCH   3   5
ATOM      5  C   UNL     1     -32.944 -21.658  21.121  1.00  0.00     0.072 C 
ATOM      6  C   UNL     1     -32.069 -20.498  21.584  1.00  0.00     0.012 C 
ENDBRANCH   3   5
ENDBRANCH   1   3
BRANCH   1   7
ATOM      7  C   UNL     1     -31.099 -24.255  22.855  1.00  0.00     0.038 C 
BRANCH   7   8
ATOM      8  C   UNL     1     -30.646 -25.689  22.933  1.00  0.00    -0.034 C 
ATOM      9  C   UNL     1     -29.538 -26.113  22.320  1.00  0.00     0.004 C 
ENDBRANCH   7   8
ENDBRANCH   1   7
TORSDOF 4
ENDMDL
MODEL 5
REMARK VINA RESULT:    -4.411      2.065      4.203
REMARK INTER + INTRA:          -5.752
REMARK INTER:                  -5.561
REMARK INTRA:                  -0.191
REMARK UNBOUND:                -0.309
REMARK SMILES C=CC[C@@H](C)C(=O)CC
REMARK SMILES IDX 4 1 5 2 6 3 7 4 8 5 9 6 3 7 2 8 1 9
REMARK H PARENT
REMARK Flexibility Score: inf
ROOT
ATOM      1  C   UNL     1     -32.734 -22.535  22.940  1.00  0.00     0.057 C 
ATOM      2  C   UNL     1     -31.383 -23.257  23.011  1.00  0.00     0.016 C 
ENDROOT
BRANCH   1   3
ATOM      3  C   UNL     1     -32.653 -21.380  21.964  1.00  0.00     0.135 C 
ATOM      4  O   UNL     1     -32.965 -21.551  20.793  1.00  0.00    -0.299 OA
BRANCH   3   5
ATOM      5  C   UNL     1     -32.209 -20.012  22.412  1.00  0.00     0.072 C 
ATOM      6  C   UNL     1     -31.899 -19.125  21.211  1.00  0.00     0.012 C 
ENDBRANCH   3   5
ENDBRANCH   1   3
BRANCH   1   7
ATOM      7  C   UNL     1     -33.854 -23.519  22.548  1.00  0.00     0.038 C 
BRANCH   7   8
ATOM      8  C   UNL     1     -33.312 -24.863  22.135  1.00  0.00    -0.034 C 
ATOM      9  C   UNL     1     -33.981 -25.667  21.305  1.00  0.00     0.004 C 
ENDBRANCH   7   8
ENDBRANCH   1   7
TORSDOF 4
ENDMDL
MODEL 6
REMARK VINA RESULT:    -4.408      8.206     10.124
REMARK INTER + INTRA:          -5.748
REMARK INTER:                  -5.602
REMARK INTRA:                  -0.146
REMARK UNBOUND:                -0.309
REMARK SMILES C=CC[C@@H](C)C(=O)CC
REMARK SMILES IDX 4 1 5 2 6 3 7 4 8 5 9 6 3 7 2 8 1 9
REMARK H PARENT
REMARK Flexibility Score: inf
ROOT
ATOM      1  C   UNL     1     -26.381 -29.785  26.538  1.00  0.00     0.057 C 
ATOM      2  C   UNL     1     -26.702 -30.566  25.259  1.00  0.00     0.016 C 
ENDROOT
BRANCH   1   3
ATOM      3  C   UNL     1     -25.575 -30.650  27.485  1.00  0.00     0.135 C 
ATOM      4  O   UNL     1     -24.668 -31.346  27.049  1.00  0.00    -0.299 OA
BRANCH   3   5
ATOM      5  C   UNL     1     -25.859 -30.658  28.964  1.00  0.00     0.072 C 
ATOM      6  C   UNL     1     -24.884 -31.574  29.696  1.00  0.00     0.012 C 
ENDBRANCH   3   5
ENDBRANCH   1   3
BRANCH   1   7
ATOM      7  C   UNL     1     -25.633 -28.479  26.203  1.00  0.00     0.038 C 
BRANCH   7   8
ATOM      8  C   UNL     1     -25.971 -27.968  24.827  1.00  0.00    -0.034 C 
ATOM      9  C   UNL     1     -25.846 -26.678  24.504  1.00  0.00     0.004 C 
ENDBRANCH   7   8
ENDBRANCH   1   7
TORSDOF 4
ENDMDL
MODEL 7
REMARK VINA RESULT:    -4.386      1.615      2.643
REMARK INTER + INTRA:          -5.722
REMARK INTER:                  -5.544
REMARK INTRA:                  -0.178
REMARK UNBOUND:                -0.309
REMARK SMILES C=CC[C@@H](C)C(=O)CC
REMARK SMILES IDX 4 1 5 2 6 3 7 4 8 5 9 6 3 7 2 8 1 9
REMARK H PARENT
REMARK Flexibility Score: inf
ROOT
ATOM      1  C   UNL     1     -31.989 -22.209  22.078  1.00  0.00     0.057 C 
ATOM      2  C   UNL     1     -32.236 -21.498  23.413  1.00  0.00     0.016 C 
ENDROOT
BRANCH   1   3
ATOM      3  C   UNL     1     -32.348 -23.676  22.198  1.00  0.00     0.135 C 
ATOM      4  O   UNL     1     -31.489 -24.487  22.516  1.00  0.00    -0.299 OA
BRANCH   3   5
ATOM      5  C   UNL     1     -33.753 -24.157  21.949  1.00  0.00     0.072 C 
ATOM      6  C   UNL     1     -33.763 -25.642  21.604  1.00  0.00     0.012 C 
ENDBRANCH   3   5
ENDBRANCH   1   3
BRANCH   1   7
ATOM      7  C   UNL     1     -32.789 -21.532  20.947  1.00  0.00     0.038 C 
BRANCH   7   8
ATOM      8  C   UNL     1     -32.420 -20.080  20.781  1.00  0.00    -0.034 C 
ATOM      9  C   UNL     1     -31.187 -19.702  20.435  1.00  0.00     0.004 C 
ENDBRANCH   7   8
ENDBRANCH   1   7
TORSDOF 4
ENDMDL
MODEL 8
REMARK VINA RESULT:    -4.230      7.919     10.504
REMARK INTER + INTRA:          -5.528
REMARK INTER:                  -5.397
REMARK INTRA:                  -0.131
REMARK UNBOUND:                -0.309
REMARK SMILES C=CC[C@@H](C)C(=O)CC
REMARK SMILES IDX 4 1 5 2 6 3 7 4 8 5 9 6 3 7 2 8 1 9
REMARK H PARENT
REMARK Flexibility Score: inf
ROOT
ATOM      1  C   UNL     1     -25.639 -29.897  26.405  1.00  0.00     0.057 C 
ATOM      2  C   UNL     1     -26.633 -30.663  25.525  1.00  0.00     0.016 C 
ENDROOT
BRANCH   1   3
ATOM      3  C   UNL     1     -25.613 -28.436  26.006  1.00  0.00     0.135 C 
ATOM      4  O   UNL     1     -25.110 -27.611  26.755  1.00  0.00    -0.299 OA
BRANCH   3   5
ATOM      5  C   UNL     1     -26.183 -27.980  24.688  1.00  0.00     0.072 C 
ATOM      6  C   UNL     1     -25.808 -26.528  24.412  1.00  0.00     0.012 C 
ENDBRANCH   3   5
ENDBRANCH   1   3
BRANCH   1   7
ATOM      7  C   UNL     1     -25.997 -30.061  27.896  1.00  0.00     0.038 C 
BRANCH   7   8
ATOM      8  C   UNL     1     -25.533 -31.383  28.450  1.00  0.00    -0.034 C 
ATOM      9  C   UNL     1     -25.087 -31.504  29.703  1.00  0.00     0.004 C 
ENDBRANCH   7   8
ENDBRANCH   1   7
TORSDOF 4
ENDMDL
MODEL 9
REMARK VINA RESULT:    -4.171      1.835      2.704
REMARK INTER + INTRA:          -5.455
REMARK INTER:                  -5.302
REMARK INTRA:                  -0.153
REMARK UNBOUND:                -0.309
REMARK SMILES C=CC[C@@H](C)C(=O)CC
REMARK SMILES IDX 4 1 5 2 6 3 7 4 8 5 9 6 3 7 2 8 1 9
REMARK H PARENT
REMARK Flexibility Score: inf
ROOT
ATOM      1  C   UNL     1     -33.081 -21.739  22.157  1.00  0.00     0.057 C 
ATOM      2  C   UNL     1     -32.822 -21.385  20.688  1.00  0.00     0.016 C 
ENDROOT
BRANCH   1   3
ATOM      3  C   UNL     1     -32.746 -23.195  22.406  1.00  0.00     0.135 C 
ATOM      4  O   UNL     1     -31.655 -23.496  22.872  1.00  0.00    -0.299 OA
BRANCH   3   5
ATOM      5  C   UNL     1     -33.741 -24.285  22.104  1.00  0.00     0.072 C 
ATOM      6  C   UNL     1     -33.066 -25.652  22.119  1.00  0.00     0.012 C 
ENDBRANCH   3   5
ENDBRANCH   1   3
BRANCH   1   7
ATOM      7  C   UNL     1     -32.272 -20.814  23.088  1.00  0.00     0.038 C 
BRANCH   7   8
ATOM      8  C   UNL     1     -32.126 -19.425  22.523  1.00  0.00    -0.034 C 
ATOM      9  C   UNL     1     -31.333 -18.513  23.092  1.00  0.00     0.004 C 
ENDBRANCH   7   8
ENDBRANCH   1   7
TORSDOF 4
ENDMDL
