MODEL 1
REMARK VINA RESULT:    11.144      0.000      0.000
REMARK INTER + INTRA:          12.484
REMARK INTER:                  12.773
REMARK INTRA:                  -0.289
REMARK UNBOUND:                -0.289
REMARK SMILES O=C1C[C@@H](c2ccc(O)cc2)Oc2cc(O)cc(O)c21
REMARK SMILES IDX 3 1 4 2 12 3 13 4 14 5 15 6 17 7 18 8 20 9 2 10 1 11 5 12
REMARK SMILES IDX 6 13 11 14 7 15 10 16 8 17 9 18 19 20 16 22
REMARK H PARENT 9 19 19 21 16 23
REMARK Flexibility Score: inf
ROOT
ATOM      1  C   UNL     1     -20.247  -7.415  13.070  1.00  0.00     0.131 C 
ATOM      2  C   UNL     1     -20.048  -6.525  11.832  1.00  0.00     0.211 C 
ATOM      3  O   UNL     1     -19.178  -7.159  10.891  1.00  0.00    -0.484 OA
ATOM      4  C   UNL     1     -19.280  -8.522  10.587  1.00  0.00     0.138 A 
ATOM      5  C   UNL     1     -18.637  -9.021   9.450  1.00  0.00     0.093 A 
ATOM      6  C   UNL     1     -18.750 -10.376   9.116  1.00  0.00     0.123 A 
ATOM      7  C   UNL     1     -19.501 -11.232   9.927  1.00  0.00     0.093 A 
ATOM      8  C   UNL     1     -20.134 -10.747  11.080  1.00  0.00     0.133 A 
ATOM      9  C   UNL     1     -20.019  -9.382  11.421  1.00  0.00     0.102 A 
ATOM     10  C   UNL     1     -20.618  -8.808  12.649  1.00  0.00     0.174 C 
ATOM     11  O   UNL     1     -21.391  -9.487  13.379  1.00  0.00    -0.294 OA
ENDROOT
BRANCH   2  12
ATOM     12  C   UNL     1     -19.493  -5.178  12.225  1.00  0.00    -0.007 A 
ATOM     13  C   UNL     1     -20.283  -4.023  12.097  1.00  0.00     0.011 A 
ATOM     14  C   UNL     1     -18.204  -5.068  12.775  1.00  0.00     0.011 A 
ATOM     15  C   UNL     1     -19.782  -2.777  12.489  1.00  0.00     0.046 A 
ATOM     16  C   UNL     1     -17.705  -3.821  13.166  1.00  0.00     0.046 A 
ATOM     17  C   UNL     1     -18.491  -2.673  13.023  1.00  0.00     0.115 A 
BRANCH  17  18
ATOM     18  O   UNL     1     -17.982  -1.438  13.415  1.00  0.00    -0.508 OA
ATOM     19  H   UNL     1     -17.227  -0.992  12.907  1.00  0.00     0.293 HD
ENDBRANCH  17  18
ENDBRANCH   2  12
BRANCH   8  20
ATOM     20  O   UNL     1     -20.864 -11.622  11.885  1.00  0.00    -0.507 OA
ATOM     21  H   UNL     1     -20.416 -12.368  12.403  1.00  0.00     0.293 HD
ENDBRANCH   8  20
BRANCH   6  22
ATOM     22  O   UNL     1     -18.120 -10.881   7.981  1.00  0.00    -0.508 OA
ATOM     23  H   UNL     1     -17.209 -10.547   7.687  1.00  0.00     0.293 HD
ENDBRANCH   6  22
TORSDOF 4
ENDMDL
MODEL 2
REMARK VINA RESULT:    12.177      1.175      2.963
REMARK INTER + INTRA:          13.668
REMARK INTER:                  13.960
REMARK INTRA:                  -0.292
REMARK UNBOUND:                -0.289
REMARK SMILES O=C1C[C@@H](c2ccc(O)cc2)Oc2cc(O)cc(O)c21
REMARK SMILES IDX 3 1 4 2 12 3 13 4 14 5 15 6 17 7 18 8 20 9 2 10 1 11 5 12
REMARK SMILES IDX 6 13 11 14 7 15 10 16 8 17 9 18 19 20 16 22
REMARK H PARENT 9 19 19 21 16 23
REMARK Flexibility Score: inf
ROOT
ATOM      1  C   UNL     1     -17.943  -6.902  10.344  1.00  0.00     0.131 C 
ATOM      2  C   UNL     1     -18.182  -6.891  11.862  1.00  0.00     0.211 C 
ATOM      3  O   UNL     1     -19.344  -7.656  12.194  1.00  0.00    -0.484 OA
ATOM      4  C   UNL     1     -19.613  -8.894  11.596  1.00  0.00     0.138 A 
ATOM      5  C   UNL     1     -20.567  -9.739  12.171  1.00  0.00     0.093 A 
ATOM      6  C   UNL     1     -20.830 -10.991  11.602  1.00  0.00     0.123 A 
ATOM      7  C   UNL     1     -20.142 -11.391  10.452  1.00  0.00     0.093 A 
ATOM      8  C   UNL     1     -19.197 -10.544   9.856  1.00  0.00     0.133 A 
ATOM      9  C   UNL     1     -18.933  -9.280  10.426  1.00  0.00     0.102 A 
ATOM     10  C   UNL     1     -17.985  -8.311   9.826  1.00  0.00     0.174 C 
ATOM     11  O   UNL     1     -17.253  -8.632   8.850  1.00  0.00    -0.294 OA
ENDROOT
BRANCH   2  12
ATOM     12  C   UNL     1     -18.331  -5.478  12.369  1.00  0.00    -0.007 A 
ATOM     13  C   UNL     1     -17.284  -4.868  13.082  1.00  0.00     0.011 A 
ATOM     14  C   UNL     1     -19.491  -4.735  12.089  1.00  0.00     0.011 A 
ATOM     15  C   UNL     1     -17.407  -3.548  13.527  1.00  0.00     0.046 A 
ATOM     16  C   UNL     1     -19.612  -3.415  12.536  1.00  0.00     0.046 A 
ATOM     17  C   UNL     1     -18.572  -2.819  13.257  1.00  0.00     0.115 A 
BRANCH  17  18
ATOM     18  O   UNL     1     -18.706  -1.504  13.696  1.00  0.00    -0.508 OA
ATOM     19  H   UNL     1     -18.424  -0.722  13.117  1.00  0.00     0.293 HD
ENDBRANCH  17  18
ENDBRANCH   2  12
BRANCH   8  20
ATOM     20  O   UNL     1     -18.535 -10.956   8.700  1.00  0.00    -0.507 OA
ATOM     21  H   UNL     1     -19.036 -11.161   7.844  1.00  0.00     0.293 HD
ENDBRANCH   8  20
BRANCH   6  22
ATOM     22  O   UNL     1     -21.774 -11.845  12.170  1.00  0.00    -0.508 OA
ATOM     23  H   UNL     1     -21.892 -12.796  11.842  1.00  0.00     0.293 HD
ENDBRANCH   6  22
TORSDOF 4
ENDMDL
MODEL 3
REMARK VINA RESULT:    13.162     10.908     15.012
REMARK INTER + INTRA:          14.797
REMARK INTER:                  15.083
REMARK INTRA:                  -0.286
REMARK UNBOUND:                -0.289
REMARK SMILES O=C1C[C@@H](c2ccc(O)cc2)Oc2cc(O)cc(O)c21
REMARK SMILES IDX 3 1 4 2 12 3 13 4 14 5 15 6 17 7 18 8 20 9 2 10 1 11 5 12
REMARK SMILES IDX 6 13 11 14 7 15 10 16 8 17 9 18 19 20 16 22
REMARK H PARENT 9 19 19 21 16 23
REMARK Flexibility Score: inf
ROOT
ATOM      1  C   UNL     1     -16.817   5.369  18.616  1.00  0.00     0.131 C 
ATOM      2  C   UNL     1     -17.633   4.195  18.052  1.00  0.00     0.211 C 
ATOM      3  O   UNL     1     -18.118   3.364  19.110  1.00  0.00    -0.484 OA
ATOM      4  C   UNL     1     -18.654   3.900  20.287  1.00  0.00     0.138 A 
ATOM      5  C   UNL     1     -19.396   3.076  21.140  1.00  0.00     0.093 A 
ATOM      6  C   UNL     1     -19.962   3.601  22.308  1.00  0.00     0.123 A 
ATOM      7  C   UNL     1     -19.776   4.950  22.625  1.00  0.00     0.093 A 
ATOM      8  C   UNL     1     -19.017   5.781  21.789  1.00  0.00     0.133 A 
ATOM      9  C   UNL     1     -18.444   5.253  20.612  1.00  0.00     0.102 A 
ATOM     10  C   UNL     1     -17.590   6.057  19.705  1.00  0.00     0.174 C 
ATOM     11  O   UNL     1     -17.455   7.301  19.865  1.00  0.00    -0.294 OA
ENDROOT
BRANCH   2  12
ATOM     12  C   UNL     1     -16.802   3.378  17.093  1.00  0.00    -0.007 A 
ATOM     13  C   UNL     1     -15.465   3.071  17.400  1.00  0.00     0.011 A 
ATOM     14  C   UNL     1     -17.367   2.869  15.911  1.00  0.00     0.011 A 
ATOM     15  C   UNL     1     -14.702   2.289  16.528  1.00  0.00     0.046 A 
ATOM     16  C   UNL     1     -16.601   2.087  15.040  1.00  0.00     0.046 A 
ATOM     17  C   UNL     1     -15.267   1.797  15.344  1.00  0.00     0.115 A 
BRANCH  17  18
ATOM     18  O   UNL     1     -14.515   1.018  14.468  1.00  0.00    -0.508 OA
ATOM     19  H   UNL     1     -13.507   0.953  14.549  1.00  0.00     0.293 HD
ENDBRANCH  17  18
ENDBRANCH   2  12
BRANCH   8  20
ATOM     20  O   UNL     1     -18.830   7.120  22.133  1.00  0.00    -0.507 OA
ATOM     21  H   UNL     1     -17.938   7.464  22.467  1.00  0.00     0.293 HD
ENDBRANCH   8  20
BRANCH   6  22
ATOM     22  O   UNL     1     -20.709   2.792  23.160  1.00  0.00    -0.508 OA
ATOM     23  H   UNL     1     -20.647   1.781  23.120  1.00  0.00     0.293 HD
ENDBRANCH   6  22
TORSDOF 4
ENDMDL
MODEL 4
REMARK VINA RESULT:    13.929      8.264     11.113
REMARK INTER + INTRA:          15.676
REMARK INTER:                  15.958
REMARK INTRA:                  -0.282
REMARK UNBOUND:                -0.289
REMARK SMILES O=C1C[C@@H](c2ccc(O)cc2)Oc2cc(O)cc(O)c21
REMARK SMILES IDX 3 1 4 2 12 3 13 4 14 5 15 6 17 7 18 8 20 9 2 10 1 11 5 12
REMARK SMILES IDX 6 13 11 14 7 15 10 16 8 17 9 18 19 20 16 22
REMARK H PARENT 9 19 19 21 16 23
REMARK Flexibility Score: inf
ROOT
ATOM      1  C   UNL     1     -20.171   4.098  13.661  1.00  0.00     0.131 C 
ATOM      2  C   UNL     1     -21.114   2.885  13.618  1.00  0.00     0.211 C 
ATOM      3  O   UNL     1     -20.403   1.709  13.222  1.00  0.00    -0.484 OA
ATOM      4  C   UNL     1     -19.131   1.407  13.722  1.00  0.00     0.138 A 
ATOM      5  C   UNL     1     -18.619   0.116  13.561  1.00  0.00     0.093 A 
ATOM      6  C   UNL     1     -17.359  -0.210  14.077  1.00  0.00     0.123 A 
ATOM      7  C   UNL     1     -16.609   0.761  14.747  1.00  0.00     0.093 A 
ATOM      8  C   UNL     1     -17.103   2.064  14.897  1.00  0.00     0.133 A 
ATOM      9  C   UNL     1     -18.372   2.397  14.375  1.00  0.00     0.102 A 
ATOM     10  C   UNL     1     -18.938   3.765  14.452  1.00  0.00     0.174 C 
ATOM     11  O   UNL     1     -18.373   4.669  15.124  1.00  0.00    -0.294 OA
ENDROOT
BRANCH   2  12
ATOM     12  C   UNL     1     -22.265   3.136  12.675  1.00  0.00    -0.007 A 
ATOM     13  C   UNL     1     -22.105   4.002  11.579  1.00  0.00     0.011 A 
ATOM     14  C   UNL     1     -23.490   2.468  12.847  1.00  0.00     0.011 A 
ATOM     15  C   UNL     1     -23.161   4.213  10.686  1.00  0.00     0.046 A 
ATOM     16  C   UNL     1     -24.544   2.682  11.953  1.00  0.00     0.046 A 
ATOM     17  C   UNL     1     -24.384   3.555  10.872  1.00  0.00     0.115 A 
BRANCH  17  18
ATOM     18  O   UNL     1     -25.442   3.759   9.990  1.00  0.00    -0.508 OA
ATOM     19  H   UNL     1     -26.348   3.333  10.144  1.00  0.00     0.293 HD
ENDBRANCH  17  18
ENDBRANCH   2  12
BRANCH   8  20
ATOM     20  O   UNL     1     -16.330   3.023  15.555  1.00  0.00    -0.507 OA
ATOM     21  H   UNL     1     -16.576   3.363  16.476  1.00  0.00     0.293 HD
ENDBRANCH   8  20
BRANCH   6  22
ATOM     22  O   UNL     1     -16.844  -1.496  13.929  1.00  0.00    -0.508 OA
ATOM     23  H   UNL     1     -16.263  -1.746  13.137  1.00  0.00     0.293 HD
ENDBRANCH   6  22
TORSDOF 4
ENDMDL
