MODEL 1
REMARK VINA RESULT:    -5.237      0.000      0.000
REMARK INTER + INTRA:          -9.283
REMARK INTER:                  -7.993
REMARK INTRA:                  -1.290
REMARK UNBOUND:                -1.290
REMARK SMILES OC[C@@H]1O[C@@H](O[C@@]2(CO)O[C@H](CO)[C@H](O)[C@@H]2O)[C@@H](O)[C@H](O)[C@@H]1O
REMARK SMILES IDX 6 1 5 2 3 3 22 4 4 5 20 6 18 7 2 8 1 9 23 11 21 13 19 15
REMARK SMILES IDX 7 17 16 18 10 19 14 20 11 21 8 22 9 23 17 25 15 27 12 29
REMARK SMILES IDX 13 30
REMARK H PARENT 1 10 23 12 21 14 19 16 9 24 17 26 15 28 13 31
REMARK Flexibility Score: inf
ROOT
ATOM      1  O   UNL     1       4.313   7.178  13.172  1.00  0.00    -0.313 OA
ENDROOT
BRANCH   1   2
ATOM      2  C   UNL     1       5.074   7.932  14.114  1.00  0.00     0.285 C 
ATOM      3  C   UNL     1       6.480   6.102  14.571  1.00  0.00     0.178 C 
ATOM      4  C   UNL     1       5.928   5.913  16.007  1.00  0.00     0.177 C 
ATOM      5  O   UNL     1       6.415   7.466  14.179  1.00  0.00    -0.341 OA
ATOM      6  C   UNL     1       4.490   6.456  16.093  1.00  0.00     0.179 C 
ATOM      7  C   UNL     1       4.404   7.878  15.502  1.00  0.00     0.202 C 
BRANCH   3   8
ATOM      8  C   UNL     1       7.937   5.629  14.454  1.00  0.00     0.191 C 
BRANCH   8   9
ATOM      9  O   UNL     1       8.414   5.783  13.144  1.00  0.00    -0.394 OA
ATOM     10  H   UNL     1       8.666   6.738  13.045  1.00  0.00     0.210 HD
ENDBRANCH   8   9
ENDBRANCH   3   8
BRANCH   4  11
ATOM     11  O   UNL     1       6.759   6.510  16.976  1.00  0.00    -0.387 OA
ATOM     12  H   UNL     1       6.828   7.478  16.773  1.00  0.00     0.211 HD
ENDBRANCH   4  11
BRANCH   6  13
ATOM     13  O   UNL     1       4.071   6.457  17.433  1.00  0.00    -0.387 OA
ATOM     14  H   UNL     1       3.615   7.324  17.594  1.00  0.00     0.211 HD
ENDBRANCH   6  13
BRANCH   7  15
ATOM     15  O   UNL     1       3.060   8.270  15.384  1.00  0.00    -0.385 OA
ATOM     16  H   UNL     1       2.653   7.704  14.677  1.00  0.00     0.211 HD
ENDBRANCH   7  15
ENDBRANCH   1   2
BRANCH   1  17
ATOM     17  C   UNL     1       4.148   7.810  11.903  1.00  0.00     0.224 C 
ATOM     18  C   UNL     1       4.003   6.752  10.767  1.00  0.00     0.208 C 
ATOM     19  O   UNL     1       5.336   8.542  11.654  1.00  0.00    -0.337 OA
ATOM     20  C   UNL     1       5.114   7.096   9.797  1.00  0.00     0.180 C 
ATOM     21  C   UNL     1       6.092   7.832  10.703  1.00  0.00     0.179 C 
BRANCH  17  22
ATOM     22  C   UNL     1       2.991   8.848  11.923  1.00  0.00     0.225 C 
BRANCH  22  23
ATOM     23  O   UNL     1       1.881   8.343  12.617  1.00  0.00    -0.391 OA
ATOM     24  H   UNL     1       1.633   9.020  13.299  1.00  0.00     0.210 HD
ENDBRANCH  22  23
ENDBRANCH  17  22
BRANCH  18  25
ATOM     25  O   UNL     1       2.738   6.776  10.152  1.00  0.00    -0.385 OA
ATOM     26  H   UNL     1       2.767   7.501   9.474  1.00  0.00     0.211 HD
ENDBRANCH  18  25
BRANCH  20  27
ATOM     27  O   UNL     1       4.658   7.892   8.725  1.00  0.00    -0.387 OA
ATOM     28  H   UNL     1       5.404   8.479   8.433  1.00  0.00     0.211 HD
ENDBRANCH  20  27
BRANCH  21  29
ATOM     29  C   UNL     1       7.040   8.787   9.961  1.00  0.00     0.191 C 
BRANCH  29  30
ATOM     30  O   UNL     1       6.410  10.012   9.701  1.00  0.00    -0.394 OA
ATOM     31  H   UNL     1       5.919  10.260  10.529  1.00  0.00     0.210 HD
ENDBRANCH  29  30
ENDBRANCH  21  29
ENDBRANCH   1  17
TORSDOF 13
ENDMDL
MODEL 2
REMARK VINA RESULT:    -5.013      1.514      3.895
REMARK INTER + INTRA:          -8.940
REMARK INTER:                  -7.750
REMARK INTRA:                  -1.190
REMARK UNBOUND:                -1.290
REMARK SMILES OC[C@@H]1O[C@@H](O[C@@]2(CO)O[C@H](CO)[C@H](O)[C@@H]2O)[C@@H](O)[C@H](O)[C@@H]1O
REMARK SMILES IDX 6 1 5 2 3 3 22 4 4 5 20 6 18 7 2 8 1 9 23 11 21 13 19 15
REMARK SMILES IDX 7 17 16 18 10 19 14 20 11 21 8 22 9 23 17 25 15 27 12 29
REMARK SMILES IDX 13 30
REMARK H PARENT 1 10 23 12 21 14 19 16 9 24 17 26 15 28 13 31
REMARK Flexibility Score: inf
ROOT
ATOM      1  O   UNL     1       6.533   7.735  12.575  1.00  0.00    -0.313 OA
ENDROOT
BRANCH   1   2
ATOM      2  C   UNL     1       5.633   6.702  12.971  1.00  0.00     0.285 C 
ATOM      3  C   UNL     1       4.249   8.229  14.107  1.00  0.00     0.178 C 
ATOM      4  C   UNL     1       4.623   7.674  15.506  1.00  0.00     0.177 C 
ATOM      5  O   UNL     1       4.313   7.205  13.124  1.00  0.00    -0.341 OA
ATOM      6  C   UNL     1       6.018   7.025  15.458  1.00  0.00     0.179 C 
ATOM      7  C   UNL     1       6.125   6.041  14.275  1.00  0.00     0.202 C 
BRANCH   3   8
ATOM      8  C   UNL     1       2.837   8.833  14.094  1.00  0.00     0.191 C 
BRANCH   8   9
ATOM      9  O   UNL     1       1.876   7.860  13.782  1.00  0.00    -0.394 OA
ATOM     10  H   UNL     1       1.444   8.148  12.936  1.00  0.00     0.210 HD
ENDBRANCH   8   9
ENDBRANCH   3   8
BRANCH   4  11
ATOM     11  O   UNL     1       3.656   6.774  15.994  1.00  0.00    -0.387 OA
ATOM     12  H   UNL     1       4.124   5.964  16.326  1.00  0.00     0.211 HD
ENDBRANCH   4  11
BRANCH   6  13
ATOM     13  O   UNL     1       6.265   6.360  16.670  1.00  0.00    -0.387 OA
ATOM     14  H   UNL     1       5.403   6.322  17.161  1.00  0.00     0.211 HD
ENDBRANCH   6  13
BRANCH   7  15
ATOM     15  O   UNL     1       7.458   5.628  14.111  1.00  0.00    -0.385 OA
ATOM     16  H   UNL     1       7.832   6.148  13.352  1.00  0.00     0.211 HD
ENDBRANCH   7  15
ENDBRANCH   1   2
BRANCH   1  17
ATOM     17  C   UNL     1       6.643   7.915  11.163  1.00  0.00     0.224 C 
ATOM     18  C   UNL     1       7.133   9.355  10.820  1.00  0.00     0.208 C 
ATOM     19  O   UNL     1       5.336   7.773  10.632  1.00  0.00    -0.337 OA
ATOM     20  C   UNL     1       6.054   9.907   9.911  1.00  0.00     0.180 C 
ATOM     21  C   UNL     1       4.856   9.055  10.309  1.00  0.00     0.179 C 
BRANCH  17  22
ATOM     22  C   UNL     1       7.506   6.802  10.505  1.00  0.00     0.225 C 
BRANCH  22  23
ATOM     23  O   UNL     1       8.624   6.506  11.299  1.00  0.00    -0.391 OA
ATOM     24  H   UNL     1       8.910   5.585  11.064  1.00  0.00     0.210 HD
ENDBRANCH  22  23
ENDBRANCH  17  22
BRANCH  18  25
ATOM     25  O   UNL     1       8.399   9.374  10.209  1.00  0.00    -0.385 OA
ATOM     26  H   UNL     1       9.044   9.668  10.904  1.00  0.00     0.211 HD
ENDBRANCH  18  25
BRANCH  20  27
ATOM     27  O   UNL     1       6.388   9.775   8.547  1.00  0.00    -0.387 OA
ATOM     28  H   UNL     1       5.546   9.700   8.026  1.00  0.00     0.211 HD
ENDBRANCH  20  27
BRANCH  21  29
ATOM     29  C   UNL     1       3.767   8.958   9.230  1.00  0.00     0.191 C 
BRANCH  29  30
ATOM     30  O   UNL     1       4.234   8.244   8.116  1.00  0.00    -0.394 OA
ATOM     31  H   UNL     1       4.915   8.818   7.676  1.00  0.00     0.210 HD
ENDBRANCH  29  30
ENDBRANCH  21  29
ENDBRANCH   1  17
TORSDOF 13
ENDMDL
MODEL 3
REMARK VINA RESULT:    -4.815      1.139      2.734
REMARK INTER + INTRA:          -8.638
REMARK INTER:                  -7.457
REMARK INTRA:                  -1.180
REMARK UNBOUND:                -1.290
REMARK SMILES OC[C@@H]1O[C@@H](O[C@@]2(CO)O[C@H](CO)[C@H](O)[C@@H]2O)[C@@H](O)[C@H](O)[C@@H]1O
REMARK SMILES IDX 6 1 5 2 3 3 22 4 4 5 20 6 18 7 2 8 1 9 23 11 21 13 19 15
REMARK SMILES IDX 7 17 16 18 10 19 14 20 11 21 8 22 9 23 17 25 15 27 12 29
REMARK SMILES IDX 13 30
REMARK H PARENT 1 10 23 12 21 14 19 16 9 24 17 26 15 28 13 31
REMARK Flexibility Score: inf
ROOT
ATOM      1  O   UNL     1       4.945   8.187  13.019  1.00  0.00    -0.313 OA
ENDROOT
BRANCH   1   2
ATOM      2  C   UNL     1       4.724   6.852  13.470  1.00  0.00     0.285 C 
ATOM      3  C   UNL     1       3.887   7.600  15.538  1.00  0.00     0.178 C 
ATOM      4  C   UNL     1       5.110   7.074  16.332  1.00  0.00     0.177 C 
ATOM      5  O   UNL     1       3.645   6.796  14.392  1.00  0.00    -0.341 OA
ATOM      6  C   UNL     1       6.346   7.013  15.415  1.00  0.00     0.179 C 
ATOM      7  C   UNL     1       6.014   6.284  14.097  1.00  0.00     0.202 C 
BRANCH   3   8
ATOM      8  C   UNL     1       2.616   7.620  16.399  1.00  0.00     0.191 C 
BRANCH   8   9
ATOM      9  O   UNL     1       2.081   6.331  16.538  1.00  0.00    -0.394 OA
ATOM     10  H   UNL     1       2.579   5.895  17.279  1.00  0.00     0.210 HD
ENDBRANCH   8   9
ENDBRANCH   3   8
BRANCH   4  11
ATOM     11  O   UNL     1       4.855   5.825  16.931  1.00  0.00    -0.387 OA
ATOM     12  H   UNL     1       5.098   5.114  16.283  1.00  0.00     0.211 HD
ENDBRANCH   4  11
BRANCH   6  13
ATOM     13  O   UNL     1       7.392   6.359  16.085  1.00  0.00    -0.387 OA
ATOM     14  H   UNL     1       7.504   6.813  16.962  1.00  0.00     0.211 HD
ENDBRANCH   6  13
BRANCH   7  15
ATOM     15  O   UNL     1       7.075   6.430  13.186  1.00  0.00    -0.385 OA
ATOM     16  H   UNL     1       7.871   6.709  13.710  1.00  0.00     0.211 HD
ENDBRANCH   7  15
ENDBRANCH   1   2
BRANCH   1  17
ATOM     17  C   UNL     1       4.452   8.458  11.707  1.00  0.00     0.224 C 
ATOM     18  C   UNL     1       4.478   7.172  10.824  1.00  0.00     0.208 C 
ATOM     19  O   UNL     1       5.343   9.393  11.122  1.00  0.00    -0.337 OA
ATOM     20  C   UNL     1       5.317   7.562   9.626  1.00  0.00     0.180 C 
ATOM     21  C   UNL     1       6.147   8.705  10.194  1.00  0.00     0.179 C 
BRANCH  17  22
ATOM     22  C   UNL     1       3.059   9.145  11.745  1.00  0.00     0.225 C 
BRANCH  22  23
ATOM     23  O   UNL     1       2.126   8.341  12.417  1.00  0.00    -0.391 OA
ATOM     24  H   UNL     1       2.474   8.202  13.336  1.00  0.00     0.210 HD
ENDBRANCH  22  23
ENDBRANCH  17  22
BRANCH  18  25
ATOM     25  O   UNL     1       3.194   6.736  10.451  1.00  0.00    -0.385 OA
ATOM     26  H   UNL     1       2.686   6.597  11.293  1.00  0.00     0.211 HD
ENDBRANCH  18  25
BRANCH  20  27
ATOM     27  O   UNL     1       4.526   7.957   8.526  1.00  0.00    -0.387 OA
ATOM     28  H   UNL     1       3.610   7.598   8.657  1.00  0.00     0.211 HD
ENDBRANCH  20  27
BRANCH  21  29
ATOM     29  C   UNL     1       6.686   9.679   9.135  1.00  0.00     0.191 C 
BRANCH  29  30
ATOM     30  O   UNL     1       5.652  10.125   8.298  1.00  0.00    -0.394 OA
ATOM     31  H   UNL     1       4.802   9.812   8.705  1.00  0.00     0.210 HD
ENDBRANCH  29  30
ENDBRANCH  21  29
ENDBRANCH   1  17
TORSDOF 13
ENDMDL
MODEL 4
REMARK VINA RESULT:    -4.794      1.769      5.433
REMARK INTER + INTRA:          -8.606
REMARK INTER:                  -7.275
REMARK INTRA:                  -1.332
REMARK UNBOUND:                -1.290
REMARK SMILES OC[C@@H]1O[C@@H](O[C@@]2(CO)O[C@H](CO)[C@H](O)[C@@H]2O)[C@@H](O)[C@H](O)[C@@H]1O
REMARK SMILES IDX 6 1 5 2 3 3 22 4 4 5 20 6 18 7 2 8 1 9 23 11 21 13 19 15
REMARK SMILES IDX 7 17 16 18 10 19 14 20 11 21 8 22 9 23 17 25 15 27 12 29
REMARK SMILES IDX 13 30
REMARK H PARENT 1 10 23 12 21 14 19 16 9 24 17 26 15 28 13 31
REMARK Flexibility Score: inf
ROOT
ATOM      1  O   UNL     1       4.424   8.218  13.157  1.00  0.00    -0.313 OA
ENDROOT
BRANCH   1   2
ATOM      2  C   UNL     1       4.738   6.967  12.547  1.00  0.00     0.285 C 
ATOM      3  C   UNL     1       6.828   7.756  11.808  1.00  0.00     0.178 C 
ATOM      4  C   UNL     1       6.411   7.748  10.315  1.00  0.00     0.177 C 
ATOM      5  O   UNL     1       6.141   6.744  12.530  1.00  0.00    -0.341 OA
ATOM      6  C   UNL     1       4.884   7.907  10.194  1.00  0.00     0.179 C 
ATOM      7  C   UNL     1       4.154   6.912  11.120  1.00  0.00     0.202 C 
BRANCH   3   8
ATOM      8  C   UNL     1       8.339   7.538  11.978  1.00  0.00     0.191 C 
BRANCH   8   9
ATOM      9  O   UNL     1       8.689   6.206  11.712  1.00  0.00    -0.394 OA
ATOM     10  H   UNL     1       9.514   6.235  11.160  1.00  0.00     0.210 HD
ENDBRANCH   8   9
ENDBRANCH   3   8
BRANCH   4  11
ATOM     11  O   UNL     1       6.859   6.591   9.647  1.00  0.00    -0.387 OA
ATOM     12  H   UNL     1       6.099   6.215   9.132  1.00  0.00     0.211 HD
ENDBRANCH   4  11
BRANCH   6  13
ATOM     13  O   UNL     1       4.498   7.706   8.859  1.00  0.00    -0.387 OA
ATOM     14  H   UNL     1       5.300   7.874   8.297  1.00  0.00     0.211 HD
ENDBRANCH   6  13
BRANCH   7  15
ATOM     15  O   UNL     1       2.783   7.216  11.168  1.00  0.00    -0.385 OA
ATOM     16  H   UNL     1       2.320   6.561  10.583  1.00  0.00     0.211 HD
ENDBRANCH   7  15
ENDBRANCH   1   2
BRANCH   1  17
ATOM     17  C   UNL     1       3.638   8.118  14.343  1.00  0.00     0.224 C 
ATOM     18  C   UNL     1       4.129   9.127  15.426  1.00  0.00     0.208 C 
ATOM     19  O   UNL     1       3.840   6.812  14.857  1.00  0.00    -0.337 OA
ATOM     20  C   UNL     1       4.444   8.258  16.626  1.00  0.00     0.180 C 
ATOM     21  C   UNL     1       4.698   6.909  15.967  1.00  0.00     0.179 C 
BRANCH  17  22
ATOM     22  C   UNL     1       2.118   8.238  14.040  1.00  0.00     0.225 C 
BRANCH  22  23
ATOM     23  O   UNL     1       1.878   9.249  13.097  1.00  0.00    -0.391 OA
ATOM     24  H   UNL     1       1.375   8.833  12.349  1.00  0.00     0.210 HD
ENDBRANCH  22  23
ENDBRANCH  17  22
BRANCH  18  25
ATOM     25  O   UNL     1       3.177  10.117  15.727  1.00  0.00    -0.385 OA
ATOM     26  H   UNL     1       3.237  10.795  15.003  1.00  0.00     0.211 HD
ENDBRANCH  18  25
BRANCH  20  27
ATOM     27  O   UNL     1       3.380   8.221  17.552  1.00  0.00    -0.387 OA
ATOM     28  H   UNL     1       2.551   7.974  17.065  1.00  0.00     0.211 HD
ENDBRANCH  20  27
BRANCH  21  29
ATOM     29  C   UNL     1       4.496   5.705  16.900  1.00  0.00     0.191 C 
BRANCH  29  30
ATOM     30  O   UNL     1       3.131   5.432  17.072  1.00  0.00    -0.394 OA
ATOM     31  H   UNL     1       3.047   4.929  17.924  1.00  0.00     0.210 HD
ENDBRANCH  29  30
ENDBRANCH  21  29
ENDBRANCH   1  17
TORSDOF 13
ENDMDL
MODEL 5
REMARK VINA RESULT:    -4.752      1.677      5.738
REMARK INTER + INTRA:          -8.543
REMARK INTER:                  -6.841
REMARK INTRA:                  -1.702
REMARK UNBOUND:                -1.290
REMARK SMILES OC[C@@H]1O[C@@H](O[C@@]2(CO)O[C@H](CO)[C@H](O)[C@@H]2O)[C@@H](O)[C@H](O)[C@@H]1O
REMARK SMILES IDX 6 1 5 2 3 3 22 4 4 5 20 6 18 7 2 8 1 9 23 11 21 13 19 15
REMARK SMILES IDX 7 17 16 18 10 19 14 20 11 21 8 22 9 23 17 25 15 27 12 29
REMARK SMILES IDX 13 30
REMARK H PARENT 1 10 23 12 21 14 19 16 9 24 17 26 15 28 13 31
REMARK Flexibility Score: inf
ROOT
ATOM      1  O   UNL     1       4.524   7.311  13.610  1.00  0.00    -0.313 OA
ENDROOT
BRANCH   1   2
ATOM      2  C   UNL     1       5.459   8.313  13.216  1.00  0.00     0.285 C 
ATOM      3  C   UNL     1       4.969   7.995  10.937  1.00  0.00     0.178 C 
ATOM      4  C   UNL     1       6.353   7.370  10.628  1.00  0.00     0.177 C 
ATOM      5  O   UNL     1       5.064   8.933  12.000  1.00  0.00    -0.341 OA
ATOM      6  C   UNL     1       6.935   6.723  11.899  1.00  0.00     0.179 C 
ATOM      7  C   UNL     1       6.870   7.701  13.090  1.00  0.00     0.202 C 
BRANCH   3   8
ATOM      8  C   UNL     1       4.379   8.705   9.710  1.00  0.00     0.191 C 
BRANCH   8   9
ATOM      9  O   UNL     1       4.728   8.039   8.525  1.00  0.00    -0.394 OA
ATOM     10  H   UNL     1       4.198   8.458   7.798  1.00  0.00     0.210 HD
ENDBRANCH   8   9
ENDBRANCH   3   8
BRANCH   4  11
ATOM     11  O   UNL     1       7.247   8.309  10.077  1.00  0.00    -0.387 OA
ATOM     12  H   UNL     1       7.343   8.117   9.109  1.00  0.00     0.211 HD
ENDBRANCH   4  11
BRANCH   6  13
ATOM     13  O   UNL     1       8.261   6.332  11.659  1.00  0.00    -0.387 OA
ATOM     14  H   UNL     1       8.696   7.073  11.159  1.00  0.00     0.211 HD
ENDBRANCH   6  13
BRANCH   7  15
ATOM     15  O   UNL     1       7.193   7.031  14.281  1.00  0.00    -0.385 OA
ATOM     16  H   UNL     1       7.485   7.721  14.933  1.00  0.00     0.211 HD
ENDBRANCH   7  15
ENDBRANCH   1   2
BRANCH   1  17
ATOM     17  C   UNL     1       3.630   7.710  14.648  1.00  0.00     0.224 C 
ATOM     18  C   UNL     1       4.194   8.936  15.430  1.00  0.00     0.208 C 
ATOM     19  O   UNL     1       3.550   6.626  15.557  1.00  0.00    -0.337 OA
ATOM     20  C   UNL     1       4.241   8.467  16.869  1.00  0.00     0.180 C 
ATOM     21  C   UNL     1       4.310   6.956  16.695  1.00  0.00     0.179 C 
BRANCH  17  22
ATOM     22  C   UNL     1       2.189   7.938  14.111  1.00  0.00     0.225 C 
BRANCH  22  23
ATOM     23  O   UNL     1       2.198   8.823  13.023  1.00  0.00    -0.391 OA
ATOM     24  H   UNL     1       2.536   9.693  13.360  1.00  0.00     0.210 HD
ENDBRANCH  22  23
ENDBRANCH  17  22
BRANCH  18  25
ATOM     25  O   UNL     1       3.410  10.094  15.277  1.00  0.00    -0.385 OA
ATOM     26  H   UNL     1       3.993  10.775  14.850  1.00  0.00     0.211 HD
ENDBRANCH  18  25
BRANCH  20  27
ATOM     27  O   UNL     1       3.110   8.881  17.602  1.00  0.00    -0.387 OA
ATOM     28  H   UNL     1       3.043   8.319  18.417  1.00  0.00     0.211 HD
ENDBRANCH  20  27
BRANCH  21  29
ATOM     29  C   UNL     1       3.815   6.160  17.912  1.00  0.00     0.191 C 
BRANCH  29  30
ATOM     30  O   UNL     1       2.424   5.984  17.859  1.00  0.00    -0.394 OA
ATOM     31  H   UNL     1       2.267   5.060  17.532  1.00  0.00     0.210 HD
ENDBRANCH  29  30
ENDBRANCH  21  29
ENDBRANCH   1  17
TORSDOF 13
ENDMDL
MODEL 6
REMARK VINA RESULT:    -4.606      1.618      5.363
REMARK INTER + INTRA:          -8.320
REMARK INTER:                  -6.982
REMARK INTRA:                  -1.338
REMARK UNBOUND:                -1.290
REMARK SMILES OC[C@@H]1O[C@@H](O[C@@]2(CO)O[C@H](CO)[C@H](O)[C@@H]2O)[C@@H](O)[C@H](O)[C@@H]1O
REMARK SMILES IDX 6 1 5 2 3 3 22 4 4 5 20 6 18 7 2 8 1 9 23 11 21 13 19 15
REMARK SMILES IDX 7 17 16 18 10 19 14 20 11 21 8 22 9 23 17 25 15 27 12 29
REMARK SMILES IDX 13 30
REMARK H PARENT 1 10 23 12 21 14 19 16 9 24 17 26 15 28 13 31
REMARK Flexibility Score: inf
ROOT
ATOM      1  O   UNL     1       4.584   8.319  13.409  1.00  0.00    -0.313 OA
ENDROOT
BRANCH   1   2
ATOM      2  C   UNL     1       4.703   7.176  12.564  1.00  0.00     0.285 C 
ATOM      3  C   UNL     1       7.050   7.195  12.728  1.00  0.00     0.178 C 
ATOM      4  C   UNL     1       7.246   7.617  11.250  1.00  0.00     0.177 C 
ATOM      5  O   UNL     1       5.866   6.424  12.881  1.00  0.00    -0.341 OA
ATOM      6  C   UNL     1       6.006   8.384  10.753  1.00  0.00     0.179 C 
ATOM      7  C   UNL     1       4.714   7.610  11.084  1.00  0.00     0.202 C 
BRANCH   3   8
ATOM      8  C   UNL     1       8.239   6.373  13.247  1.00  0.00     0.191 C 
BRANCH   8   9
ATOM      9  O   UNL     1       7.846   5.520  14.289  1.00  0.00    -0.394 OA
ATOM     10  H   UNL     1       8.440   4.726  14.246  1.00  0.00     0.210 HD
ENDBRANCH   8   9
ENDBRANCH   3   8
BRANCH   4  11
ATOM     11  O   UNL     1       7.534   6.517  10.418  1.00  0.00    -0.387 OA
ATOM     12  H   UNL     1       7.389   5.686  10.940  1.00  0.00     0.211 HD
ENDBRANCH   4  11
BRANCH   6  13
ATOM     13  O   UNL     1       6.111   8.593   9.368  1.00  0.00    -0.387 OA
ATOM     14  H   UNL     1       6.117   7.697   8.939  1.00  0.00     0.211 HD
ENDBRANCH   6  13
BRANCH   7  15
ATOM     15  O   UNL     1       3.592   8.416  10.828  1.00  0.00    -0.385 OA
ATOM     16  H   UNL     1       3.017   8.378  11.637  1.00  0.00     0.211 HD
ENDBRANCH   7  15
ENDBRANCH   1   2
BRANCH   1  17
ATOM     17  C   UNL     1       3.674   8.158  14.496  1.00  0.00     0.224 C 
ATOM     18  C   UNL     1       3.919   9.238  15.594  1.00  0.00     0.208 C 
ATOM     19  O   UNL     1       3.949   6.894  15.075  1.00  0.00    -0.337 OA
ATOM     20  C   UNL     1       4.175   8.435  16.853  1.00  0.00     0.180 C 
ATOM     21  C   UNL     1       4.650   7.108  16.276  1.00  0.00     0.179 C 
BRANCH  17  22
ATOM     22  C   UNL     1       2.198   8.105  14.010  1.00  0.00     0.225 C 
BRANCH  22  23
ATOM     23  O   UNL     1       1.892   9.229  13.228  1.00  0.00    -0.391 OA
ATOM     24  H   UNL     1       2.615   9.318  12.554  1.00  0.00     0.210 HD
ENDBRANCH  22  23
ENDBRANCH  17  22
BRANCH  18  25
ATOM     25  O   UNL     1       2.838  10.125  15.745  1.00  0.00    -0.385 OA
ATOM     26  H   UNL     1       2.122   9.805  15.134  1.00  0.00     0.211 HD
ENDBRANCH  18  25
BRANCH  20  27
ATOM     27  O   UNL     1       3.016   8.302  17.646  1.00  0.00    -0.387 OA
ATOM     28  H   UNL     1       2.255   8.712  17.158  1.00  0.00     0.211 HD
ENDBRANCH  20  27
BRANCH  21  29
ATOM     29  C   UNL     1       4.464   5.910  17.219  1.00  0.00     0.191 C 
BRANCH  29  30
ATOM     30  O   UNL     1       3.155   5.412  17.139  1.00  0.00    -0.394 OA
ATOM     31  H   UNL     1       2.829   5.317  18.073  1.00  0.00     0.210 HD
ENDBRANCH  29  30
ENDBRANCH  21  29
ENDBRANCH   1  17
TORSDOF 13
ENDMDL
MODEL 7
REMARK VINA RESULT:    -4.558      1.438      2.816
REMARK INTER + INTRA:          -8.246
REMARK INTER:                  -7.097
REMARK INTRA:                  -1.150
REMARK UNBOUND:                -1.290
REMARK SMILES OC[C@@H]1O[C@@H](O[C@@]2(CO)O[C@H](CO)[C@H](O)[C@@H]2O)[C@@H](O)[C@H](O)[C@@H]1O
REMARK SMILES IDX 6 1 5 2 3 3 22 4 4 5 20 6 18 7 2 8 1 9 23 11 21 13 19 15
REMARK SMILES IDX 7 17 16 18 10 19 14 20 11 21 8 22 9 23 17 25 15 27 12 29
REMARK SMILES IDX 13 30
REMARK H PARENT 1 10 23 12 21 14 19 16 9 24 17 26 15 28 13 31
REMARK Flexibility Score: inf
ROOT
ATOM      1  O   UNL     1       5.702   6.948  12.239  1.00  0.00    -0.313 OA
ENDROOT
BRANCH   1   2
ATOM      2  C   UNL     1       5.989   7.827  13.325  1.00  0.00     0.285 C 
ATOM      3  C   UNL     1       6.950   6.090  14.588  1.00  0.00     0.178 C 
ATOM      4  C   UNL     1       5.800   6.079  15.627  1.00  0.00     0.177 C 
ATOM      5  O   UNL     1       7.132   7.391  14.049  1.00  0.00    -0.341 OA
ATOM      6  C   UNL     1       4.505   6.609  14.984  1.00  0.00     0.179 C 
ATOM      7  C   UNL     1       4.762   7.942  14.253  1.00  0.00     0.202 C 
BRANCH   3   8
ATOM      8  C   UNL     1       8.278   5.625  15.205  1.00  0.00     0.191 C 
BRANCH   8   9
ATOM      9  O   UNL     1       8.932   4.713  14.364  1.00  0.00    -0.394 OA
ATOM     10  H   UNL     1       8.225   4.249  13.844  1.00  0.00     0.210 HD
ENDBRANCH   8   9
ENDBRANCH   3   8
BRANCH   4  11
ATOM     11  O   UNL     1       6.129   6.806  16.788  1.00  0.00    -0.387 OA
ATOM     12  H   UNL     1       6.410   6.164  17.489  1.00  0.00     0.211 HD
ENDBRANCH   4  11
BRANCH   6  13
ATOM     13  O   UNL     1       3.526   6.776  15.976  1.00  0.00    -0.387 OA
ATOM     14  H   UNL     1       3.230   5.868  16.248  1.00  0.00     0.211 HD
ENDBRANCH   6  13
BRANCH   7  15
ATOM     15  O   UNL     1       3.637   8.298  13.490  1.00  0.00    -0.385 OA
ATOM     16  H   UNL     1       3.594   7.668  12.724  1.00  0.00     0.211 HD
ENDBRANCH   7  15
ENDBRANCH   1   2
BRANCH   1  17
ATOM     17  C   UNL     1       6.025   7.474  10.952  1.00  0.00     0.224 C 
ATOM     18  C   UNL     1       6.347   8.997  11.035  1.00  0.00     0.208 C 
ATOM     19  O   UNL     1       4.866   7.327  10.150  1.00  0.00    -0.337 OA
ATOM     20  C   UNL     1       5.371   9.635  10.069  1.00  0.00     0.180 C 
ATOM     21  C   UNL     1       4.262   8.592  10.022  1.00  0.00     0.179 C 
BRANCH  17  22
ATOM     22  C   UNL     1       7.145   6.649  10.257  1.00  0.00     0.225 C 
BRANCH  22  23
ATOM     23  O   UNL     1       8.207   6.409  11.142  1.00  0.00    -0.391 OA
ATOM     24  H   UNL     1       7.810   6.059  11.982  1.00  0.00     0.210 HD
ENDBRANCH  22  23
ENDBRANCH  17  22
BRANCH  18  25
ATOM     25  O   UNL     1       7.682   9.296  10.711  1.00  0.00    -0.385 OA
ATOM     26  H   UNL     1       7.812  10.261  10.906  1.00  0.00     0.211 HD
ENDBRANCH  18  25
BRANCH  20  27
ATOM     27  O   UNL     1       5.950   9.872   8.804  1.00  0.00    -0.387 OA
ATOM     28  H   UNL     1       6.658   9.192   8.653  1.00  0.00     0.211 HD
ENDBRANCH  20  27
BRANCH  21  29
ATOM     29  C   UNL     1       3.403   8.643   8.750  1.00  0.00     0.191 C 
BRANCH  29  30
ATOM     30  O   UNL     1       4.207   8.572   7.603  1.00  0.00    -0.394 OA
ATOM     31  H   UNL     1       3.796   9.175   6.930  1.00  0.00     0.210 HD
ENDBRANCH  29  30
ENDBRANCH  21  29
ENDBRANCH   1  17
TORSDOF 13
ENDMDL
MODEL 8
REMARK VINA RESULT:    -4.518      1.570      3.373
REMARK INTER + INTRA:          -8.186
REMARK INTER:                  -6.751
REMARK INTRA:                  -1.435
REMARK UNBOUND:                -1.290
REMARK SMILES OC[C@@H]1O[C@@H](O[C@@]2(CO)O[C@H](CO)[C@H](O)[C@@H]2O)[C@@H](O)[C@H](O)[C@@H]1O
REMARK SMILES IDX 6 1 5 2 3 3 22 4 4 5 20 6 18 7 2 8 1 9 23 11 21 13 19 15
REMARK SMILES IDX 7 17 16 18 10 19 14 20 11 21 8 22 9 23 17 25 15 27 12 29
REMARK SMILES IDX 13 30
REMARK H PARENT 1 10 23 12 21 14 19 16 9 24 17 26 15 28 13 31
REMARK Flexibility Score: inf
ROOT
ATOM      1  O   UNL     1       5.054   8.483  13.399  1.00  0.00    -0.313 OA
ENDROOT
BRANCH   1   2
ATOM      2  C   UNL     1       4.232   7.411  13.858  1.00  0.00     0.285 C 
ATOM      3  C   UNL     1       3.314   8.738  15.570  1.00  0.00     0.178 C 
ATOM      4  C   UNL     1       4.021   7.943  16.697  1.00  0.00     0.177 C 
ATOM      5  O   UNL     1       3.040   7.901  14.456  1.00  0.00    -0.341 OA
ATOM      6  C   UNL     1       5.305   7.289  16.154  1.00  0.00     0.179 C 
ATOM      7  C   UNL     1       5.020   6.525  14.845  1.00  0.00     0.202 C 
BRANCH   3   8
ATOM      8  C   UNL     1       1.994   9.358  16.053  1.00  0.00     0.191 C 
BRANCH   8   9
ATOM      9  O   UNL     1       2.045   9.646  17.425  1.00  0.00    -0.394 OA
ATOM     10  H   UNL     1       2.260  10.612  17.504  1.00  0.00     0.210 HD
ENDBRANCH   8   9
ENDBRANCH   3   8
BRANCH   4  11
ATOM     11  O   UNL     1       3.169   6.986  17.284  1.00  0.00    -0.387 OA
ATOM     12  H   UNL     1       2.263   7.382  17.362  1.00  0.00     0.211 HD
ENDBRANCH   4  11
BRANCH   6  13
ATOM     13  O   UNL     1       5.832   6.420  17.123  1.00  0.00    -0.387 OA
ATOM     14  H   UNL     1       6.817   6.544  17.119  1.00  0.00     0.211 HD
ENDBRANCH   6  13
BRANCH   7  15
ATOM     15  O   UNL     1       6.227   6.126  14.248  1.00  0.00    -0.385 OA
ATOM     16  H   UNL     1       6.946   6.282  14.914  1.00  0.00     0.211 HD
ENDBRANCH   7  15
ENDBRANCH   1   2
BRANCH   1  17
ATOM     17  C   UNL     1       5.167   8.575  11.979  1.00  0.00     0.224 C 
ATOM     18  C   UNL     1       4.438   7.386  11.282  1.00  0.00     0.208 C 
ATOM     19  O   UNL     1       6.547   8.467  11.671  1.00  0.00    -0.337 OA
ATOM     20  C   UNL     1       5.512   6.738  10.435  1.00  0.00     0.180 C 
ATOM     21  C   UNL     1       6.778   7.177  11.159  1.00  0.00     0.179 C 
BRANCH  17  22
ATOM     22  C   UNL     1       4.710   9.965  11.453  1.00  0.00     0.225 C 
BRANCH  22  23
ATOM     23  O   UNL     1       5.059  10.125  10.104  1.00  0.00    -0.391 OA
ATOM     24  H   UNL     1       4.852   9.268   9.648  1.00  0.00     0.210 HD
ENDBRANCH  22  23
ENDBRANCH  17  22
BRANCH  18  25
ATOM     25  O   UNL     1       3.333   7.793  10.513  1.00  0.00    -0.385 OA
ATOM     26  H   UNL     1       2.851   8.477  11.049  1.00  0.00     0.211 HD
ENDBRANCH  18  25
BRANCH  20  27
ATOM     27  O   UNL     1       5.472   7.176   9.094  1.00  0.00    -0.387 OA
ATOM     28  H   UNL     1       5.063   6.459   8.544  1.00  0.00     0.211 HD
ENDBRANCH  20  27
BRANCH  21  29
ATOM     29  C   UNL     1       8.039   7.173  10.282  1.00  0.00     0.191 C 
BRANCH  29  30
ATOM     30  O   UNL     1       8.688   5.931  10.349  1.00  0.00    -0.394 OA
ATOM     31  H   UNL     1       8.486   5.553  11.245  1.00  0.00     0.210 HD
ENDBRANCH  29  30
ENDBRANCH  21  29
ENDBRANCH   1  17
TORSDOF 13
ENDMDL
MODEL 9
REMARK VINA RESULT:    -4.383      1.587      5.897
REMARK INTER + INTRA:          -7.979
REMARK INTER:                  -6.714
REMARK INTRA:                  -1.265
REMARK UNBOUND:                -1.290
REMARK SMILES OC[C@@H]1O[C@@H](O[C@@]2(CO)O[C@H](CO)[C@H](O)[C@@H]2O)[C@@H](O)[C@H](O)[C@@H]1O
REMARK SMILES IDX 6 1 5 2 3 3 22 4 4 5 20 6 18 7 2 8 1 9 23 11 21 13 19 15
REMARK SMILES IDX 7 17 16 18 10 19 14 20 11 21 8 22 9 23 17 25 15 27 12 29
REMARK SMILES IDX 13 30
REMARK H PARENT 1 10 23 12 21 14 19 16 9 24 17 26 15 28 13 31
REMARK Flexibility Score: inf
ROOT
ATOM      1  O   UNL     1       5.164   6.768  13.525  1.00  0.00    -0.313 OA
ENDROOT
BRANCH   1   2
ATOM      2  C   UNL     1       5.468   7.934  12.762  1.00  0.00     0.285 C 
ATOM      3  C   UNL     1       4.241   7.148  10.915  1.00  0.00     0.178 C 
ATOM      4  C   UNL     1       5.506   6.927  10.046  1.00  0.00     0.177 C 
ATOM      5  O   UNL     1       4.435   8.218  11.828  1.00  0.00    -0.341 OA
ATOM      6  C   UNL     1       6.729   6.682  10.950  1.00  0.00     0.179 C 
ATOM      7  C   UNL     1       6.824   7.761  12.048  1.00  0.00     0.202 C 
BRANCH   3   8
ATOM      8  C   UNL     1       3.007   7.457  10.054  1.00  0.00     0.191 C 
BRANCH   8   9
ATOM      9  O   UNL     1       3.138   8.699   9.414  1.00  0.00    -0.394 OA
ATOM     10  H   UNL     1       3.843   9.198   9.904  1.00  0.00     0.210 HD
ENDBRANCH   8   9
ENDBRANCH   3   8
BRANCH   4  11
ATOM     11  O   UNL     1       5.733   7.998   9.160  1.00  0.00    -0.387 OA
ATOM     12  H   UNL     1       6.630   8.376   9.350  1.00  0.00     0.211 HD
ENDBRANCH   4  11
BRANCH   6  13
ATOM     13  O   UNL     1       7.894   6.675  10.167  1.00  0.00    -0.387 OA
ATOM     14  H   UNL     1       8.404   7.496  10.399  1.00  0.00     0.211 HD
ENDBRANCH   6  13
BRANCH   7  15
ATOM     15  O   UNL     1       7.803   7.404  12.990  1.00  0.00    -0.385 OA
ATOM     16  H   UNL     1       8.624   7.913  12.764  1.00  0.00     0.211 HD
ENDBRANCH   7  15
ENDBRANCH   1   2
BRANCH   1  17
ATOM     17  C   UNL     1       5.026   6.997  14.927  1.00  0.00     0.224 C 
ATOM     18  C   UNL     1       3.729   6.329  15.477  1.00  0.00     0.208 C 
ATOM     19  O   UNL     1       4.889   8.398  15.099  1.00  0.00    -0.337 OA
ATOM     20  C   UNL     1       2.967   7.470  16.117  1.00  0.00     0.180 C 
ATOM     21  C   UNL     1       3.536   8.671  15.373  1.00  0.00     0.179 C 
BRANCH  17  22
ATOM     22  C   UNL     1       6.305   6.584  15.708  1.00  0.00     0.225 C 
BRANCH  22  23
ATOM     23  O   UNL     1       6.135   6.792  17.085  1.00  0.00    -0.391 OA
ATOM     24  H   UNL     1       6.998   6.567  17.520  1.00  0.00     0.210 HD
ENDBRANCH  22  23
ENDBRANCH  17  22
BRANCH  18  25
ATOM     25  O   UNL     1       3.990   5.291  16.390  1.00  0.00    -0.385 OA
ATOM     26  H   UNL     1       3.820   5.662  17.296  1.00  0.00     0.211 HD
ENDBRANCH  18  25
BRANCH  20  27
ATOM     27  O   UNL     1       3.181   7.540  17.509  1.00  0.00    -0.387 OA
ATOM     28  H   UNL     1       2.995   6.646  17.899  1.00  0.00     0.211 HD
ENDBRANCH  20  27
BRANCH  21  29
ATOM     29  C   UNL     1       3.407  10.000  16.132  1.00  0.00     0.191 C 
BRANCH  29  30
ATOM     30  O   UNL     1       4.422  10.125  17.093  1.00  0.00    -0.394 OA
ATOM     31  H   UNL     1       4.011   9.900  17.969  1.00  0.00     0.210 HD
ENDBRANCH  29  30
ENDBRANCH  21  29
ENDBRANCH   1  17
TORSDOF 13
ENDMDL
