MODEL 1
REMARK VINA RESULT:    -7.072      0.000      0.000
REMARK INTER + INTRA:          -8.419
REMARK INTER:                  -8.106
REMARK INTRA:                  -0.313
REMARK UNBOUND:                -0.313
REMARK SMILES O=C1C[C@@H](c2ccc(O)cc2)Oc2cc(O)cc(O)c21
REMARK SMILES IDX 3 1 4 2 12 3 13 4 14 5 15 6 17 7 18 8 20 9 2 10 1 11 5 12
REMARK SMILES IDX 6 13 11 14 7 15 10 16 8 17 9 18 19 20 16 22
REMARK H PARENT 9 19 19 21 16 23
REMARK Flexibility Score: inf
ROOT
ATOM      1  C   UNL     1      -8.579   7.140 -24.066  1.00  0.00     0.131 C 
ATOM      2  C   UNL     1      -8.197   8.609 -23.792  1.00  0.00     0.211 C 
ATOM      3  O   UNL     1      -7.273   9.082 -24.784  1.00  0.00    -0.484 OA
ATOM      4  C   UNL     1      -7.459   8.823 -26.145  1.00  0.00     0.138 A 
ATOM      5  C   UNL     1      -6.757   9.577 -27.100  1.00  0.00     0.093 A 
ATOM      6  C   UNL     1      -6.962   9.356 -28.469  1.00  0.00     0.123 A 
ATOM      7  C   UNL     1      -7.851   8.353 -28.879  1.00  0.00     0.093 A 
ATOM      8  C   UNL     1      -8.547   7.572 -27.933  1.00  0.00     0.133 A 
ATOM      9  C   UNL     1      -8.347   7.802 -26.553  1.00  0.00     0.102 A 
ATOM     10  C   UNL     1      -9.017   6.996 -25.498  1.00  0.00     0.174 C 
ATOM     11  O   UNL     1      -9.919   6.168 -25.784  1.00  0.00    -0.294 OA
ENDROOT
BRANCH   2  12
ATOM     12  C   UNL     1      -7.587   8.783 -22.424  1.00  0.00    -0.007 A 
ATOM     13  C   UNL     1      -6.276   9.303 -22.284  1.00  0.00     0.011 A 
ATOM     14  C   UNL     1      -8.281   8.340 -21.279  1.00  0.00     0.011 A 
ATOM     15  C   UNL     1      -5.691   9.413 -21.017  1.00  0.00     0.046 A 
ATOM     16  C   UNL     1      -7.701   8.467 -20.010  1.00  0.00     0.046 A 
ATOM     17  C   UNL     1      -6.404   9.000 -19.878  1.00  0.00     0.115 A 
BRANCH  17  18
ATOM     18  O   UNL     1      -5.811   9.116 -18.620  1.00  0.00    -0.508 OA
ATOM     19  H   UNL     1      -6.195   9.748 -17.910  1.00  0.00     0.293 HD
ENDBRANCH  17  18
ENDBRANCH   2  12
BRANCH   8  20
ATOM     20  O   UNL     1      -9.424   6.573 -28.365  1.00  0.00    -0.507 OA
ATOM     21  H   UNL     1      -9.480   6.308 -29.338  1.00  0.00     0.293 HD
ENDBRANCH   8  20
BRANCH   6  22
ATOM     22  O   UNL     1      -6.288  10.123 -29.428  1.00  0.00    -0.508 OA
ATOM     23  H   UNL     1      -5.634  10.861 -29.168  1.00  0.00     0.293 HD
ENDBRANCH   6  22
TORSDOF 4
ENDMDL
MODEL 2
REMARK VINA RESULT:    -6.934     12.742     15.314
REMARK INTER + INTRA:          -8.261
REMARK INTER:                  -7.951
REMARK INTRA:                  -0.310
REMARK UNBOUND:                -0.313
REMARK SMILES O=C1C[C@@H](c2ccc(O)cc2)Oc2cc(O)cc(O)c21
REMARK SMILES IDX 3 1 4 2 12 3 13 4 14 5 15 6 17 7 18 8 20 9 2 10 1 11 5 12
REMARK SMILES IDX 6 13 11 14 7 15 10 16 8 17 9 18 19 20 16 22
REMARK H PARENT 9 19 19 21 16 23
REMARK Flexibility Score: inf
ROOT
ATOM      1  C   UNL     1      -0.752  -0.216 -33.756  1.00  0.00     0.131 C 
ATOM      2  C   UNL     1      -1.698  -0.452 -32.561  1.00  0.00     0.211 C 
ATOM      3  O   UNL     1      -1.673  -1.832 -32.165  1.00  0.00    -0.484 OA
ATOM      4  C   UNL     1      -0.474  -2.541 -32.046  1.00  0.00     0.138 A 
ATOM      5  C   UNL     1      -0.448  -3.751 -31.332  1.00  0.00     0.093 A 
ATOM      6  C   UNL     1       0.754  -4.454 -31.172  1.00  0.00     0.123 A 
ATOM      7  C   UNL     1       1.926  -3.955 -31.756  1.00  0.00     0.093 A 
ATOM      8  C   UNL     1       1.913  -2.754 -32.495  1.00  0.00     0.133 A 
ATOM      9  C   UNL     1       0.702  -2.041 -32.648  1.00  0.00     0.102 A 
ATOM     10  C   UNL     1       0.603  -0.787 -33.442  1.00  0.00     0.174 C 
ATOM     11  O   UNL     1       1.630  -0.214 -33.888  1.00  0.00    -0.294 OA
ENDROOT
BRANCH   2  12
ATOM     12  C   UNL     1      -3.117  -0.055 -32.883  1.00  0.00    -0.007 A 
ATOM     13  C   UNL     1      -3.378   1.079 -33.694  1.00  0.00     0.011 A 
ATOM     14  C   UNL     1      -4.195  -0.753 -32.301  1.00  0.00     0.011 A 
ATOM     15  C   UNL     1      -4.696   1.478 -33.947  1.00  0.00     0.046 A 
ATOM     16  C   UNL     1      -5.514  -0.362 -32.569  1.00  0.00     0.046 A 
ATOM     17  C   UNL     1      -5.765   0.755 -33.390  1.00  0.00     0.115 A 
BRANCH  17  18
ATOM     18  O   UNL     1      -7.075   1.161 -33.650  1.00  0.00    -0.508 OA
ATOM     19  H   UNL     1      -7.873   0.576 -33.386  1.00  0.00     0.293 HD
ENDBRANCH  17  18
ENDBRANCH   2  12
BRANCH   8  20
ATOM     20  O   UNL     1       3.094  -2.280 -33.074  1.00  0.00    -0.507 OA
ATOM     21  H   UNL     1       3.267  -1.291 -33.181  1.00  0.00     0.293 HD
ENDBRANCH   8  20
BRANCH   6  22
ATOM     22  O   UNL     1       0.795  -5.646 -30.437  1.00  0.00    -0.508 OA
ATOM     23  H   UNL     1       1.556  -5.859 -29.793  1.00  0.00     0.293 HD
ENDBRANCH   6  22
TORSDOF 4
ENDMDL
MODEL 3
REMARK VINA RESULT:    -6.648     12.949     15.238
REMARK INTER + INTRA:          -7.933
REMARK INTER:                  -7.623
REMARK INTRA:                  -0.310
REMARK UNBOUND:                -0.313
REMARK SMILES O=C1C[C@@H](c2ccc(O)cc2)Oc2cc(O)cc(O)c21
REMARK SMILES IDX 3 1 4 2 12 3 13 4 14 5 15 6 17 7 18 8 20 9 2 10 1 11 5 12
REMARK SMILES IDX 6 13 11 14 7 15 10 16 8 17 9 18 19 20 16 22
REMARK H PARENT 9 19 19 21 16 23
REMARK Flexibility Score: inf
ROOT
ATOM      1  C   UNL     1      -2.600  -2.008 -30.355  1.00  0.00     0.131 C 
ATOM      2  C   UNL     1      -2.924  -2.288 -31.836  1.00  0.00     0.211 C 
ATOM      3  O   UNL     1      -1.719  -2.529 -32.578  1.00  0.00    -0.484 OA
ATOM      4  C   UNL     1      -0.706  -3.357 -32.086  1.00  0.00     0.138 A 
ATOM      5  C   UNL     1       0.278  -3.849 -32.961  1.00  0.00     0.093 A 
ATOM      6  C   UNL     1       1.277  -4.712 -32.491  1.00  0.00     0.123 A 
ATOM      7  C   UNL     1       1.306  -5.058 -31.133  1.00  0.00     0.093 A 
ATOM      8  C   UNL     1       0.339  -4.555 -30.238  1.00  0.00     0.133 A 
ATOM      9  C   UNL     1      -0.674  -3.692 -30.714  1.00  0.00     0.102 A 
ATOM     10  C   UNL     1      -1.705  -3.095 -29.825  1.00  0.00     0.174 C 
ATOM     11  O   UNL     1      -1.820  -3.455 -28.626  1.00  0.00    -0.294 OA
ENDROOT
BRANCH   2  12
ATOM     12  C   UNL     1      -3.676  -1.144 -32.471  1.00  0.00    -0.007 A 
ATOM     13  C   UNL     1      -3.048  -0.324 -33.441  1.00  0.00     0.011 A 
ATOM     14  C   UNL     1      -4.978  -0.826 -32.032  1.00  0.00     0.011 A 
ATOM     15  C   UNL     1      -3.730   0.769 -33.989  1.00  0.00     0.046 A 
ATOM     16  C   UNL     1      -5.665   0.259 -32.594  1.00  0.00     0.046 A 
ATOM     17  C   UNL     1      -5.040   1.059 -33.571  1.00  0.00     0.115 A 
BRANCH  17  18
ATOM     18  O   UNL     1      -5.710   2.151 -34.125  1.00  0.00    -0.508 OA
ATOM     19  H   UNL     1      -6.636   2.431 -33.787  1.00  0.00     0.293 HD
ENDBRANCH  17  18
ENDBRANCH   2  12
BRANCH   8  20
ATOM     20  O   UNL     1       0.392  -4.908 -28.886  1.00  0.00    -0.507 OA
ATOM     21  H   UNL     1      -0.135  -4.401 -28.190  1.00  0.00     0.293 HD
ENDBRANCH   8  20
BRANCH   6  22
ATOM     22  O   UNL     1       2.245  -5.230 -33.362  1.00  0.00    -0.508 OA
ATOM     23  H   UNL     1       2.142  -6.144 -33.803  1.00  0.00     0.293 HD
ENDBRANCH   6  22
TORSDOF 4
ENDMDL
MODEL 4
REMARK VINA RESULT:    -6.628     12.154     14.641
REMARK INTER + INTRA:          -7.910
REMARK INTER:                  -7.636
REMARK INTRA:                  -0.273
REMARK UNBOUND:                -0.313
REMARK SMILES O=C1C[C@@H](c2ccc(O)cc2)Oc2cc(O)cc(O)c21
REMARK SMILES IDX 3 1 4 2 12 3 13 4 14 5 15 6 17 7 18 8 20 9 2 10 1 11 5 12
REMARK SMILES IDX 6 13 11 14 7 15 10 16 8 17 9 18 19 20 16 22
REMARK H PARENT 9 19 19 21 16 23
REMARK Flexibility Score: inf
ROOT
ATOM      1  C   UNL     1      -2.187  -0.069 -31.252  1.00  0.00     0.131 C 
ATOM      2  C   UNL     1      -3.179  -1.224 -31.499  1.00  0.00     0.211 C 
ATOM      3  O   UNL     1      -2.610  -2.195 -32.390  1.00  0.00    -0.484 OA
ATOM      4  C   UNL     1      -1.294  -2.643 -32.245  1.00  0.00     0.138 A 
ATOM      5  C   UNL     1      -0.884  -3.822 -32.890  1.00  0.00     0.093 A 
ATOM      6  C   UNL     1       0.421  -4.305 -32.724  1.00  0.00     0.123 A 
ATOM      7  C   UNL     1       1.325  -3.585 -31.931  1.00  0.00     0.093 A 
ATOM      8  C   UNL     1       0.937  -2.388 -31.296  1.00  0.00     0.133 A 
ATOM      9  C   UNL     1      -0.382  -1.906 -31.456  1.00  0.00     0.102 A 
ATOM     10  C   UNL     1      -0.854  -0.635 -30.846  1.00  0.00     0.174 C 
ATOM     11  O   UNL     1      -0.142  -0.002 -30.025  1.00  0.00    -0.294 OA
ENDROOT
BRANCH   2  12
ATOM     12  C   UNL     1      -4.483  -0.728 -32.073  1.00  0.00    -0.007 A 
ATOM     13  C   UNL     1      -4.528   0.481 -32.811  1.00  0.00     0.011 A 
ATOM     14  C   UNL     1      -5.683  -1.417 -31.799  1.00  0.00     0.011 A 
ATOM     15  C   UNL     1      -5.747   0.967 -33.297  1.00  0.00     0.046 A 
ATOM     16  C   UNL     1      -6.901  -0.937 -32.301  1.00  0.00     0.046 A 
ATOM     17  C   UNL     1      -6.934   0.256 -33.048  1.00  0.00     0.115 A 
BRANCH  17  18
ATOM     18  O   UNL     1      -8.144   0.750 -33.539  1.00  0.00    -0.508 OA
ATOM     19  H   UNL     1      -8.451   1.704 -33.328  1.00  0.00     0.293 HD
ENDBRANCH  17  18
ENDBRANCH   2  12
BRANCH   8  20
ATOM     20  O   UNL     1       1.859  -1.683 -30.516  1.00  0.00    -0.507 OA
ATOM     21  H   UNL     1       2.422  -2.148 -29.818  1.00  0.00     0.293 HD
ENDBRANCH   8  20
BRANCH   6  22
ATOM     22  O   UNL     1       0.829  -5.495 -33.340  1.00  0.00    -0.508 OA
ATOM     23  H   UNL     1       0.278  -5.941 -34.073  1.00  0.00     0.293 HD
ENDBRANCH   6  22
TORSDOF 4
ENDMDL
MODEL 5
REMARK VINA RESULT:    -6.596     11.954     14.403
REMARK INTER + INTRA:          -7.873
REMARK INTER:                  -7.554
REMARK INTRA:                  -0.319
REMARK UNBOUND:                -0.313
REMARK SMILES O=C1C[C@@H](c2ccc(O)cc2)Oc2cc(O)cc(O)c21
REMARK SMILES IDX 3 1 4 2 12 3 13 4 14 5 15 6 17 7 18 8 20 9 2 10 1 11 5 12
REMARK SMILES IDX 6 13 11 14 7 15 10 16 8 17 9 18 19 20 16 22
REMARK H PARENT 9 19 19 21 16 23
REMARK Flexibility Score: inf
ROOT
ATOM      1  C   UNL     1      -1.973  -0.144 -33.622  1.00  0.00     0.131 C 
ATOM      2  C   UNL     1      -2.751   0.055 -32.305  1.00  0.00     0.211 C 
ATOM      3  O   UNL     1      -2.594  -1.087 -31.450  1.00  0.00    -0.484 OA
ATOM      4  C   UNL     1      -1.348  -1.689 -31.249  1.00  0.00     0.138 A 
ATOM      5  C   UNL     1      -1.162  -2.558 -30.161  1.00  0.00     0.093 A 
ATOM      6  C   UNL     1       0.091  -3.139 -29.923  1.00  0.00     0.123 A 
ATOM      7  C   UNL     1       1.152  -2.868 -30.798  1.00  0.00     0.093 A 
ATOM      8  C   UNL     1       0.976  -2.016 -31.908  1.00  0.00     0.133 A 
ATOM      9  C   UNL     1      -0.286  -1.424 -32.142  1.00  0.00     0.102 A 
ATOM     10  C   UNL     1      -0.557  -0.543 -33.309  1.00  0.00     0.174 C 
ATOM     11  O   UNL     1       0.372  -0.156 -34.063  1.00  0.00    -0.294 OA
ENDROOT
BRANCH   2  12
ATOM     12  C   UNL     1      -4.221   0.289 -32.554  1.00  0.00    -0.007 A 
ATOM     13  C   UNL     1      -5.195  -0.457 -31.845  1.00  0.00     0.011 A 
ATOM     14  C   UNL     1      -4.633   1.184 -33.563  1.00  0.00     0.011 A 
ATOM     15  C   UNL     1      -6.557  -0.277 -32.116  1.00  0.00     0.046 A 
ATOM     16  C   UNL     1      -5.997   1.375 -33.820  1.00  0.00     0.046 A 
ATOM     17  C   UNL     1      -6.960   0.643 -33.100  1.00  0.00     0.115 A 
BRANCH  17  18
ATOM     18  O   UNL     1      -8.321   0.815 -33.360  1.00  0.00    -0.508 OA
ATOM     19  H   UNL     1      -8.663   0.955 -34.315  1.00  0.00     0.293 HD
ENDBRANCH  17  18
ENDBRANCH   2  12
BRANCH   8  20
ATOM     20  O   UNL     1       2.047  -1.767 -32.771  1.00  0.00    -0.507 OA
ATOM     21  H   UNL     1       2.508  -2.516 -33.267  1.00  0.00     0.293 HD
ENDBRANCH   8  20
BRANCH   6  22
ATOM     22  O   UNL     1       0.293  -3.984 -28.824  1.00  0.00    -0.508 OA
ATOM     23  H   UNL     1      -0.025  -4.952 -28.820  1.00  0.00     0.293 HD
ENDBRANCH   6  22
TORSDOF 4
ENDMDL
MODEL 6
REMARK VINA RESULT:    -6.581     14.509     15.920
REMARK INTER + INTRA:          -7.857
REMARK INTER:                  -7.547
REMARK INTRA:                  -0.309
REMARK UNBOUND:                -0.313
REMARK SMILES O=C1C[C@@H](c2ccc(O)cc2)Oc2cc(O)cc(O)c21
REMARK SMILES IDX 3 1 4 2 12 3 13 4 14 5 15 6 17 7 18 8 20 9 2 10 1 11 5 12
REMARK SMILES IDX 6 13 11 14 7 15 10 16 8 17 9 18 19 20 16 22
REMARK H PARENT 9 19 19 21 16 23
REMARK Flexibility Score: inf
ROOT
ATOM      1  C   UNL     1      -2.550  -3.517 -31.204  1.00  0.00     0.131 C 
ATOM      2  C   UNL     1      -1.550  -3.928 -30.105  1.00  0.00     0.211 C 
ATOM      3  O   UNL     1      -0.242  -4.125 -30.662  1.00  0.00    -0.484 OA
ATOM      4  C   UNL     1       0.310  -3.224 -31.578  1.00  0.00     0.138 A 
ATOM      5  C   UNL     1       1.693  -3.246 -31.830  1.00  0.00     0.093 A 
ATOM      6  C   UNL     1       2.267  -2.324 -32.715  1.00  0.00     0.123 A 
ATOM      7  C   UNL     1       1.446  -1.397 -33.372  1.00  0.00     0.093 A 
ATOM      8  C   UNL     1       0.054  -1.377 -33.148  1.00  0.00     0.133 A 
ATOM      9  C   UNL     1      -0.524  -2.301 -32.247  1.00  0.00     0.102 A 
ATOM     10  C   UNL     1      -1.986  -2.363 -31.986  1.00  0.00     0.174 C 
ATOM     11  O   UNL     1      -2.767  -1.488 -32.439  1.00  0.00    -0.294 OA
ENDROOT
BRANCH   2  12
ATOM     12  C   UNL     1      -1.982  -5.189 -29.398  1.00  0.00    -0.007 A 
ATOM     13  C   UNL     1      -1.048  -5.945 -28.646  1.00  0.00     0.011 A 
ATOM     14  C   UNL     1      -3.296  -5.674 -29.558  1.00  0.00     0.011 A 
ATOM     15  C   UNL     1      -1.438  -7.144 -28.036  1.00  0.00     0.046 A 
ATOM     16  C   UNL     1      -3.689  -6.865 -28.932  1.00  0.00     0.046 A 
ATOM     17  C   UNL     1      -2.760  -7.602 -28.173  1.00  0.00     0.115 A 
BRANCH  17  18
ATOM     18  O   UNL     1      -3.137  -8.797 -27.559  1.00  0.00    -0.508 OA
ATOM     19  H   UNL     1      -4.125  -9.050 -27.456  1.00  0.00     0.293 HD
ENDBRANCH  17  18
ENDBRANCH   2  12
BRANCH   8  20
ATOM     20  O   UNL     1      -0.746  -0.448 -33.820  1.00  0.00    -0.507 OA
ATOM     21  H   UNL     1      -1.603  -0.101 -33.414  1.00  0.00     0.293 HD
ENDBRANCH   8  20
BRANCH   6  22
ATOM     22  O   UNL     1       3.648  -2.320 -32.950  1.00  0.00    -0.508 OA
ATOM     23  H   UNL     1       4.062  -2.798 -33.750  1.00  0.00     0.293 HD
ENDBRANCH   6  22
TORSDOF 4
ENDMDL
MODEL 7
REMARK VINA RESULT:    -6.575     12.622     14.867
REMARK INTER + INTRA:          -7.850
REMARK INTER:                  -7.564
REMARK INTRA:                  -0.286
REMARK UNBOUND:                -0.313
REMARK SMILES O=C1C[C@@H](c2ccc(O)cc2)Oc2cc(O)cc(O)c21
REMARK SMILES IDX 3 1 4 2 12 3 13 4 14 5 15 6 17 7 18 8 20 9 2 10 1 11 5 12
REMARK SMILES IDX 6 13 11 14 7 15 10 16 8 17 9 18 19 20 16 22
REMARK H PARENT 9 19 19 21 16 23
REMARK Flexibility Score: inf
ROOT
ATOM      1  C   UNL     1      -1.764  -2.558 -31.953  1.00  0.00     0.131 C 
ATOM      2  C   UNL     1      -2.099  -1.455 -32.977  1.00  0.00     0.211 C 
ATOM      3  O   UNL     1      -1.033  -0.496 -33.051  1.00  0.00    -0.484 OA
ATOM      4  C   UNL     1       0.307  -0.891 -33.110  1.00  0.00     0.138 A 
ATOM      5  C   UNL     1       1.285   0.026 -33.531  1.00  0.00     0.093 A 
ATOM      6  C   UNL     1       2.627  -0.365 -33.632  1.00  0.00     0.123 A 
ATOM      7  C   UNL     1       2.992  -1.672 -33.280  1.00  0.00     0.093 A 
ATOM      8  C   UNL     1       2.026  -2.597 -32.833  1.00  0.00     0.133 A 
ATOM      9  C   UNL     1       0.671  -2.205 -32.741  1.00  0.00     0.102 A 
ATOM     10  C   UNL     1      -0.397  -3.113 -32.246  1.00  0.00     0.174 C 
ATOM     11  O   UNL     1      -0.170  -4.331 -32.032  1.00  0.00    -0.294 OA
ENDROOT
BRANCH   2  12
ATOM     12  C   UNL     1      -3.383  -0.741 -32.631  1.00  0.00    -0.007 A 
ATOM     13  C   UNL     1      -4.061  -1.032 -31.421  1.00  0.00     0.011 A 
ATOM     14  C   UNL     1      -3.967   0.150 -33.555  1.00  0.00     0.011 A 
ATOM     15  C   UNL     1      -5.280  -0.409 -31.127  1.00  0.00     0.046 A 
ATOM     16  C   UNL     1      -5.178   0.785 -33.252  1.00  0.00     0.046 A 
ATOM     17  C   UNL     1      -5.837   0.504 -32.039  1.00  0.00     0.115 A 
BRANCH  17  18
ATOM     18  O   UNL     1      -7.052   1.120 -31.735  1.00  0.00    -0.508 OA
ATOM     19  H   UNL     1      -7.717   0.687 -31.087  1.00  0.00     0.293 HD
ENDBRANCH  17  18
ENDBRANCH   2  12
BRANCH   8  20
ATOM     20  O   UNL     1       2.414  -3.894 -32.481  1.00  0.00    -0.507 OA
ATOM     21  H   UNL     1       2.862  -4.507 -33.146  1.00  0.00     0.293 HD
ENDBRANCH   8  20
BRANCH   6  22
ATOM     22  O   UNL     1       3.605   0.534 -34.079  1.00  0.00    -0.508 OA
ATOM     23  H   UNL     1       4.573   0.251 -34.225  1.00  0.00     0.293 HD
ENDBRANCH   6  22
TORSDOF 4
ENDMDL
MODEL 8
REMARK VINA RESULT:    -6.570      1.366      3.031
REMARK INTER + INTRA:          -7.843
REMARK INTER:                  -7.540
REMARK INTRA:                  -0.304
REMARK UNBOUND:                -0.313
REMARK SMILES O=C1C[C@@H](c2ccc(O)cc2)Oc2cc(O)cc(O)c21
REMARK SMILES IDX 3 1 4 2 12 3 13 4 14 5 15 6 17 7 18 8 20 9 2 10 1 11 5 12
REMARK SMILES IDX 6 13 11 14 7 15 10 16 8 17 9 18 19 20 16 22
REMARK H PARENT 9 19 19 21 16 23
REMARK Flexibility Score: inf
ROOT
ATOM      1  C   UNL     1      -7.026   9.751 -24.864  1.00  0.00     0.131 C 
ATOM      2  C   UNL     1      -6.852   8.499 -23.981  1.00  0.00     0.211 C 
ATOM      3  O   UNL     1      -7.862   7.525 -24.283  1.00  0.00    -0.484 OA
ATOM      4  C   UNL     1      -8.205   7.207 -25.601  1.00  0.00     0.138 A 
ATOM      5  C   UNL     1      -8.922   6.028 -25.868  1.00  0.00     0.093 A 
ATOM      6  C   UNL     1      -9.239   5.675 -27.187  1.00  0.00     0.123 A 
ATOM      7  C   UNL     1      -8.862   6.524 -28.237  1.00  0.00     0.093 A 
ATOM      8  C   UNL     1      -8.162   7.722 -27.983  1.00  0.00     0.133 A 
ATOM      9  C   UNL     1      -7.834   8.072 -26.654  1.00  0.00     0.102 A 
ATOM     10  C   UNL     1      -7.129   9.335 -26.306  1.00  0.00     0.174 C 
ATOM     11  O   UNL     1      -6.651  10.082 -27.197  1.00  0.00    -0.294 OA
ENDROOT
BRANCH   2  12
ATOM     12  C   UNL     1      -6.914   8.837 -22.512  1.00  0.00    -0.007 A 
ATOM     13  C   UNL     1      -8.123   8.676 -21.790  1.00  0.00     0.011 A 
ATOM     14  C   UNL     1      -5.795   9.406 -21.870  1.00  0.00     0.011 A 
ATOM     15  C   UNL     1      -8.193   9.042 -20.440  1.00  0.00     0.046 A 
ATOM     16  C   UNL     1      -5.862   9.756 -20.514  1.00  0.00     0.046 A 
ATOM     17  C   UNL     1      -7.062   9.577 -19.799  1.00  0.00     0.115 A 
BRANCH  17  18
ATOM     18  O   UNL     1      -7.144   9.936 -18.453  1.00  0.00    -0.508 OA
ATOM     19  H   UNL     1      -7.908  10.524 -18.108  1.00  0.00     0.293 HD
ENDBRANCH  17  18
ENDBRANCH   2  12
BRANCH   8  20
ATOM     20  O   UNL     1      -7.802   8.556 -29.046  1.00  0.00    -0.507 OA
ATOM     21  H   UNL     1      -8.239   9.457 -29.178  1.00  0.00     0.293 HD
ENDBRANCH   8  20
BRANCH   6  22
ATOM     22  O   UNL     1      -9.928   4.487 -27.465  1.00  0.00    -0.508 OA
ATOM     23  H   UNL     1     -10.793   4.477 -28.005  1.00  0.00     0.293 HD
ENDBRANCH   6  22
TORSDOF 4
ENDMDL
MODEL 9
REMARK VINA RESULT:    -6.467     11.924     13.900
REMARK INTER + INTRA:          -7.726
REMARK INTER:                  -7.414
REMARK INTRA:                  -0.312
REMARK UNBOUND:                -0.313
REMARK SMILES O=C1C[C@@H](c2ccc(O)cc2)Oc2cc(O)cc(O)c21
REMARK SMILES IDX 3 1 4 2 12 3 13 4 14 5 15 6 17 7 18 8 20 9 2 10 1 11 5 12
REMARK SMILES IDX 6 13 11 14 7 15 10 16 8 17 9 18 19 20 16 22
REMARK H PARENT 9 19 19 21 16 23
REMARK Flexibility Score: inf
ROOT
ATOM      1  C   UNL     1      -3.408  -1.522 -30.393  1.00  0.00     0.131 C 
ATOM      2  C   UNL     1      -3.504  -1.424 -31.929  1.00  0.00     0.211 C 
ATOM      3  O   UNL     1      -2.388  -0.690 -32.457  1.00  0.00    -0.484 OA
ATOM      4  C   UNL     1      -1.082  -0.921 -32.016  1.00  0.00     0.138 A 
ATOM      5  C   UNL     1       0.003  -0.458 -32.779  1.00  0.00     0.093 A 
ATOM      6  C   UNL     1       1.319  -0.715 -32.371  1.00  0.00     0.123 A 
ATOM      7  C   UNL     1       1.545  -1.413 -31.177  1.00  0.00     0.093 A 
ATOM      8  C   UNL     1       0.467  -1.865 -30.387  1.00  0.00     0.133 A 
ATOM      9  C   UNL     1      -0.860  -1.613 -30.805  1.00  0.00     0.102 A 
ATOM     10  C   UNL     1      -2.045  -2.028 -30.008  1.00  0.00     0.174 C 
ATOM     11  O   UNL     1      -1.926  -2.763 -28.996  1.00  0.00    -0.294 OA
ENDROOT
BRANCH   2  12
ATOM     12  C   UNL     1      -4.786  -0.761 -32.369  1.00  0.00    -0.007 A 
ATOM     13  C   UNL     1      -4.752   0.474 -33.064  1.00  0.00     0.011 A 
ATOM     14  C   UNL     1      -6.030  -1.319 -32.009  1.00  0.00     0.011 A 
ATOM     15  C   UNL     1      -5.944   1.115 -33.424  1.00  0.00     0.046 A 
ATOM     16  C   UNL     1      -7.221  -0.685 -32.385  1.00  0.00     0.046 A 
ATOM     17  C   UNL     1      -7.180   0.534 -33.090  1.00  0.00     0.115 A 
BRANCH  17  18
ATOM     18  O   UNL     1      -8.361   1.181 -33.456  1.00  0.00    -0.508 OA
ATOM     19  H   UNL     1      -8.966   1.615 -32.752  1.00  0.00     0.293 HD
ENDBRANCH  17  18
ENDBRANCH   2  12
BRANCH   8  20
ATOM     20  O   UNL     1       0.717  -2.553 -29.196  1.00  0.00    -0.507 OA
ATOM     21  H   UNL     1       1.403  -3.292 -29.150  1.00  0.00     0.293 HD
ENDBRANCH   8  20
BRANCH   6  22
ATOM     22  O   UNL     1       2.406  -0.282 -33.141  1.00  0.00    -0.508 OA
ATOM     23  H   UNL     1       3.115   0.350 -32.770  1.00  0.00     0.293 HD
ENDBRANCH   6  22
TORSDOF 4
ENDMDL
