MODEL 1
REMARK VINA RESULT:    -5.305      0.000      0.000
REMARK INTER + INTRA:          -6.736
REMARK INTER:                  -6.390
REMARK INTRA:                  -0.346
REMARK UNBOUND:                -0.346
REMARK SMILES Oc1cc(O)c2cc(O)c(-c3ccc(O)c(O)c3)[o+]c2c1
REMARK SMILES IDX 10 1 19 2 20 3 21 4 2 5 3 6 4 7 6 8 7 9 8 10 11 11 12 12
REMARK SMILES IDX 13 13 14 14 18 15 16 16 15 17 17 19 9 21 1 23 5 25
REMARK H PARENT 15 18 17 20 9 22 1 24 5 26
REMARK Flexibility Score: inf
ROOT
ATOM      1  C   UNL     1      53.287   7.755 -48.410  1.00  0.00     0.402 A 
ATOM      2  O   UNL     1      54.300   8.008 -47.586  1.00  0.00    -0.202 OA
ATOM      3  C   UNL     1      54.222   7.864 -46.267  1.00  0.00     0.368 A 
ATOM      4  C   UNL     1      55.343   8.152 -45.483  1.00  0.00     0.162 A 
ATOM      5  C   UNL     1      55.290   8.007 -44.098  1.00  0.00     0.128 A 
ATOM      6  C   UNL     1      54.110   7.568 -43.486  1.00  0.00     0.093 A 
ATOM      7  C   UNL     1      52.973   7.272 -44.249  1.00  0.00     0.136 A 
ATOM      8  C   UNL     1      53.021   7.422 -45.660  1.00  0.00     0.125 A 
ATOM      9  C   UNL     1      51.929   7.161 -46.502  1.00  0.00     0.078 A 
ATOM     10  C   UNL     1      52.051   7.336 -47.884  1.00  0.00     0.223 A 
ENDROOT
BRANCH   1  11
ATOM     11  C   UNL     1      53.502   7.944 -49.863  1.00  0.00     0.087 A 
ATOM     12  C   UNL     1      53.298   9.192 -50.478  1.00  0.00     0.022 A 
ATOM     13  C   UNL     1      53.485   9.339 -51.854  1.00  0.00     0.051 A 
ATOM     14  C   UNL     1      53.864   8.246 -52.639  1.00  0.00     0.157 A 
ATOM     15  C   UNL     1      53.863   6.842 -50.657  1.00  0.00     0.068 A 
ATOM     16  C   UNL     1      54.051   6.990 -52.038  1.00  0.00     0.158 A 
BRANCH  14  17
ATOM     17  O   UNL     1      54.045   8.425 -54.010  1.00  0.00    -0.504 OA
ATOM     18  H   UNL     1      54.645   7.820 -54.557  1.00  0.00     0.293 HD
ENDBRANCH  14  17
BRANCH  16  19
ATOM     19  O   UNL     1      54.422   5.893 -52.816  1.00  0.00    -0.504 OA
ATOM     20  H   UNL     1      53.877   5.604 -53.620  1.00  0.00     0.293 HD
ENDBRANCH  16  19
ENDBRANCH   1  11
BRANCH  10  21
ATOM     21  O   UNL     1      50.951   7.125 -48.716  1.00  0.00    -0.500 OA
ATOM     22  H   UNL     1      50.209   7.810 -48.802  1.00  0.00     0.294 HD
ENDBRANCH  10  21
BRANCH   5  23
ATOM     23  O   UNL     1      56.417   8.300 -43.333  1.00  0.00    -0.507 OA
ATOM     24  H   UNL     1      56.921   9.172 -43.444  1.00  0.00     0.293 HD
ENDBRANCH   5  23
BRANCH   7  25
ATOM     25  O   UNL     1      51.834   6.836 -43.565  1.00  0.00    -0.507 OA
ATOM     26  H   UNL     1      51.061   7.432 -43.308  1.00  0.00     0.293 HD
ENDBRANCH   7  25
TORSDOF 6
ENDMDL
MODEL 2
REMARK VINA RESULT:    -5.200      1.423      7.118
REMARK INTER + INTRA:          -6.610
REMARK INTER:                  -6.270
REMARK INTRA:                  -0.340
REMARK UNBOUND:                -0.346
REMARK SMILES Oc1cc(O)c2cc(O)c(-c3ccc(O)c(O)c3)[o+]c2c1
REMARK SMILES IDX 10 1 19 2 20 3 21 4 2 5 3 6 4 7 6 8 7 9 8 10 11 11 12 12
REMARK SMILES IDX 13 13 14 14 18 15 16 16 15 17 17 19 9 21 1 23 5 25
REMARK H PARENT 15 18 17 20 9 22 1 24 5 26
REMARK Flexibility Score: inf
ROOT
ATOM      1  C   UNL     1      54.659   7.258 -47.534  1.00  0.00     0.402 A 
ATOM      2  O   UNL     1      54.110   8.156 -48.348  1.00  0.00    -0.202 OA
ATOM      3  C   UNL     1      54.024   7.992 -49.664  1.00  0.00     0.368 A 
ATOM      4  C   UNL     1      53.426   8.992 -50.437  1.00  0.00     0.162 A 
ATOM      5  C   UNL     1      53.319   8.845 -51.819  1.00  0.00     0.128 A 
ATOM      6  C   UNL     1      53.812   7.691 -52.439  1.00  0.00     0.093 A 
ATOM      7  C   UNL     1      54.415   6.674 -51.687  1.00  0.00     0.136 A 
ATOM      8  C   UNL     1      54.529   6.821 -50.280  1.00  0.00     0.125 A 
ATOM      9  C   UNL     1      55.128   5.861 -49.450  1.00  0.00     0.078 A 
ATOM     10  C   UNL     1      55.207   6.078 -48.070  1.00  0.00     0.223 A 
ENDROOT
BRANCH   1  11
ATOM     11  C   UNL     1      54.686   7.552 -46.084  1.00  0.00     0.087 A 
ATOM     12  C   UNL     1      55.715   8.318 -45.509  1.00  0.00     0.022 A 
ATOM     13  C   UNL     1      55.731   8.561 -44.134  1.00  0.00     0.051 A 
ATOM     14  C   UNL     1      54.731   8.036 -43.310  1.00  0.00     0.157 A 
ATOM     15  C   UNL     1      53.693   7.008 -45.251  1.00  0.00     0.068 A 
ATOM     16  C   UNL     1      53.708   7.253 -43.870  1.00  0.00     0.158 A 
BRANCH  14  17
ATOM     17  O   UNL     1      54.772   8.298 -41.941  1.00  0.00    -0.504 OA
ATOM     18  H   UNL     1      53.954   8.208 -41.351  1.00  0.00     0.293 HD
ENDBRANCH  14  17
BRANCH  16  19
ATOM     19  O   UNL     1      52.711   6.719 -43.054  1.00  0.00    -0.504 OA
ATOM     20  H   UNL     1      51.774   6.551 -43.401  1.00  0.00     0.293 HD
ENDBRANCH  16  19
ENDBRANCH   1  11
BRANCH  10  21
ATOM     21  O   UNL     1      55.848   5.148 -47.251  1.00  0.00    -0.500 OA
ATOM     22  H   UNL     1      55.559   4.177 -47.219  1.00  0.00     0.294 HD
ENDBRANCH  10  21
BRANCH   5  23
ATOM     23  O   UNL     1      52.720   9.853 -52.572  1.00  0.00    -0.507 OA
ATOM     24  H   UNL     1      51.758  10.129 -52.418  1.00  0.00     0.293 HD
ENDBRANCH   5  23
BRANCH   7  25
ATOM     25  O   UNL     1      54.879   5.551 -52.378  1.00  0.00    -0.507 OA
ATOM     26  H   UNL     1      54.288   4.811 -52.727  1.00  0.00     0.293 HD
ENDBRANCH   7  25
TORSDOF 6
ENDMDL
MODEL 3
REMARK VINA RESULT:    -5.115      1.828      2.816
REMARK INTER + INTRA:          -6.508
REMARK INTER:                  -6.168
REMARK INTRA:                  -0.340
REMARK UNBOUND:                -0.346
REMARK SMILES Oc1cc(O)c2cc(O)c(-c3ccc(O)c(O)c3)[o+]c2c1
REMARK SMILES IDX 10 1 19 2 20 3 21 4 2 5 3 6 4 7 6 8 7 9 8 10 11 11 12 12
REMARK SMILES IDX 13 13 14 14 18 15 16 16 15 17 17 19 9 21 1 23 5 25
REMARK H PARENT 15 18 17 20 9 22 1 24 5 26
REMARK Flexibility Score: inf
ROOT
ATOM      1  C   UNL     1      54.080   7.354 -46.133  1.00  0.00     0.402 A 
ATOM      2  O   UNL     1      55.012   7.957 -45.401  1.00  0.00    -0.202 OA
ATOM      3  C   UNL     1      55.034   7.923 -44.073  1.00  0.00     0.368 A 
ATOM      4  C   UNL     1      56.059   8.586 -43.392  1.00  0.00     0.162 A 
ATOM      5  C   UNL     1      56.108   8.564 -41.998  1.00  0.00     0.128 A 
ATOM      6  C   UNL     1      55.127   7.875 -41.276  1.00  0.00     0.093 A 
ATOM      7  C   UNL     1      54.090   7.201 -41.935  1.00  0.00     0.136 A 
ATOM      8  C   UNL     1      54.035   7.224 -43.353  1.00  0.00     0.125 A 
ATOM      9  C   UNL     1      53.027   6.589 -44.096  1.00  0.00     0.078 A 
ATOM     10  C   UNL     1      53.036   6.659 -45.493  1.00  0.00     0.223 A 
ENDROOT
BRANCH   1  11
ATOM     11  C   UNL     1      54.171   7.456 -47.607  1.00  0.00     0.087 A 
ATOM     12  C   UNL     1      54.977   6.579 -48.354  1.00  0.00     0.022 A 
ATOM     13  C   UNL     1      55.064   6.711 -49.743  1.00  0.00     0.051 A 
ATOM     14  C   UNL     1      54.362   7.723 -50.404  1.00  0.00     0.157 A 
ATOM     15  C   UNL     1      53.482   8.484 -48.272  1.00  0.00     0.068 A 
ATOM     16  C   UNL     1      53.569   8.617 -49.665  1.00  0.00     0.158 A 
BRANCH  14  17
ATOM     17  O   UNL     1      54.467   7.827 -51.791  1.00  0.00    -0.504 OA
ATOM     18  H   UNL     1      53.857   7.316 -52.416  1.00  0.00     0.293 HD
ENDBRANCH  14  17
BRANCH  16  19
ATOM     19  O   UNL     1      52.871   9.633 -50.317  1.00  0.00    -0.504 OA
ATOM     20  H   UNL     1      53.339  10.285 -50.936  1.00  0.00     0.293 HD
ENDBRANCH  16  19
ENDBRANCH   1  11
BRANCH  10  21
ATOM     21  O   UNL     1      52.008   6.072 -46.230  1.00  0.00    -0.500 OA
ATOM     22  H   UNL     1      51.109   5.856 -45.813  1.00  0.00     0.294 HD
ENDBRANCH  10  21
BRANCH   5  23
ATOM     23  O   UNL     1      57.137   9.232 -41.337  1.00  0.00    -0.507 OA
ATOM     24  H   UNL     1      56.993  10.140 -40.913  1.00  0.00     0.293 HD
ENDBRANCH   5  23
BRANCH   7  25
ATOM     25  O   UNL     1      53.151   6.533 -41.144  1.00  0.00    -0.507 OA
ATOM     26  H   UNL     1      52.618   6.966 -40.403  1.00  0.00     0.293 HD
ENDBRANCH   7  25
TORSDOF 6
ENDMDL
MODEL 4
REMARK VINA RESULT:    -5.070      2.009      7.438
REMARK INTER + INTRA:          -6.453
REMARK INTER:                  -6.111
REMARK INTRA:                  -0.342
REMARK UNBOUND:                -0.346
REMARK SMILES Oc1cc(O)c2cc(O)c(-c3ccc(O)c(O)c3)[o+]c2c1
REMARK SMILES IDX 10 1 19 2 20 3 21 4 2 5 3 6 4 7 6 8 7 9 8 10 11 11 12 12
REMARK SMILES IDX 13 13 14 14 18 15 16 16 15 17 17 19 9 21 1 23 5 25
REMARK H PARENT 15 18 17 20 9 22 1 24 5 26
REMARK Flexibility Score: inf
ROOT
ATOM      1  C   UNL     1      54.956   7.014 -46.083  1.00  0.00     0.402 A 
ATOM      2  O   UNL     1      54.259   7.791 -46.907  1.00  0.00    -0.202 OA
ATOM      3  C   UNL     1      54.287   7.663 -48.230  1.00  0.00     0.368 A 
ATOM      4  C   UNL     1      53.515   8.526 -49.013  1.00  0.00     0.162 A 
ATOM      5  C   UNL     1      53.523   8.413 -50.403  1.00  0.00     0.128 A 
ATOM      6  C   UNL     1      54.307   7.430 -51.019  1.00  0.00     0.093 A 
ATOM      7  C   UNL     1      55.088   6.552 -50.256  1.00  0.00     0.136 A 
ATOM      8  C   UNL     1      55.085   6.666 -48.841  1.00  0.00     0.125 A 
ATOM      9  C   UNL     1      55.845   5.840 -47.999  1.00  0.00     0.078 A 
ATOM     10  C   UNL     1      55.794   6.015 -46.612  1.00  0.00     0.223 A 
ENDROOT
BRANCH   1  11
ATOM     11  C   UNL     1      54.832   7.248 -44.627  1.00  0.00     0.087 A 
ATOM     12  C   UNL     1      53.792   6.672 -43.877  1.00  0.00     0.022 A 
ATOM     13  C   UNL     1      53.683   6.927 -42.508  1.00  0.00     0.051 A 
ATOM     14  C   UNL     1      54.599   7.768 -41.869  1.00  0.00     0.157 A 
ATOM     15  C   UNL     1      55.739   8.109 -43.986  1.00  0.00     0.068 A 
ATOM     16  C   UNL     1      55.631   8.365 -42.612  1.00  0.00     0.158 A 
BRANCH  14  17
ATOM     17  O   UNL     1      54.465   8.002 -40.500  1.00  0.00    -0.504 OA
ATOM     18  H   UNL     1      54.553   8.929 -40.102  1.00  0.00     0.293 HD
ENDBRANCH  14  17
BRANCH  16  19
ATOM     19  O   UNL     1      56.543   9.212 -41.983  1.00  0.00    -0.504 OA
ATOM     20  H   UNL     1      57.260   8.853 -41.362  1.00  0.00     0.293 HD
ENDBRANCH  16  19
ENDBRANCH   1  11
BRANCH  10  21
ATOM     21  O   UNL     1      56.588   5.228 -45.778  1.00  0.00    -0.500 OA
ATOM     22  H   UNL     1      57.578   5.410 -45.656  1.00  0.00     0.294 HD
ENDBRANCH  10  21
BRANCH   5  23
ATOM     23  O   UNL     1      52.748   9.283 -51.167  1.00  0.00    -0.507 OA
ATOM     24  H   UNL     1      51.748   9.156 -51.264  1.00  0.00     0.293 HD
ENDBRANCH   5  23
BRANCH   7  25
ATOM     25  O   UNL     1      55.840   5.596 -50.945  1.00  0.00    -0.507 OA
ATOM     26  H   UNL     1      56.618   5.811 -51.552  1.00  0.00     0.293 HD
ENDBRANCH   7  25
TORSDOF 6
ENDMDL
MODEL 5
REMARK VINA RESULT:    -4.970     10.026     11.739
REMARK INTER + INTRA:          -6.333
REMARK INTER:                  -5.985
REMARK INTRA:                  -0.349
REMARK UNBOUND:                -0.346
REMARK SMILES Oc1cc(O)c2cc(O)c(-c3ccc(O)c(O)c3)[o+]c2c1
REMARK SMILES IDX 10 1 19 2 20 3 21 4 2 5 3 6 4 7 6 8 7 9 8 10 11 11 12 12
REMARK SMILES IDX 13 13 14 14 18 15 16 16 15 17 17 19 9 21 1 23 5 25
REMARK H PARENT 15 18 17 20 9 22 1 24 5 26
REMARK Flexibility Score: inf
ROOT
ATOM      1  C   UNL     1      56.345  -2.158 -51.996  1.00  0.00     0.402 A 
ATOM      2  O   UNL     1      57.460  -2.883 -51.975  1.00  0.00    -0.202 OA
ATOM      3  C   UNL     1      58.446  -2.680 -51.109  1.00  0.00     0.368 A 
ATOM      4  C   UNL     1      59.579  -3.498 -51.164  1.00  0.00     0.162 A 
ATOM      5  C   UNL     1      60.628  -3.309 -50.265  1.00  0.00     0.128 A 
ATOM      6  C   UNL     1      60.549  -2.297 -49.301  1.00  0.00     0.093 A 
ATOM      7  C   UNL     1      59.424  -1.465 -49.225  1.00  0.00     0.136 A 
ATOM      8  C   UNL     1      58.356  -1.651 -50.140  1.00  0.00     0.125 A 
ATOM      9  C   UNL     1      57.198  -0.858 -50.146  1.00  0.00     0.078 A 
ATOM     10  C   UNL     1      56.187  -1.099 -51.082  1.00  0.00     0.223 A 
ENDROOT
BRANCH   1  11
ATOM     11  C   UNL     1      55.312  -2.489 -53.004  1.00  0.00     0.087 A 
ATOM     12  C   UNL     1      54.322  -3.454 -52.750  1.00  0.00     0.022 A 
ATOM     13  C   UNL     1      53.372  -3.765 -53.727  1.00  0.00     0.051 A 
ATOM     14  C   UNL     1      53.403  -3.131 -54.972  1.00  0.00     0.157 A 
ATOM     15  C   UNL     1      55.353  -1.867 -54.264  1.00  0.00     0.068 A 
ATOM     16  C   UNL     1      54.400  -2.179 -55.244  1.00  0.00     0.158 A 
BRANCH  14  17
ATOM     17  O   UNL     1      52.441  -3.461 -55.926  1.00  0.00    -0.504 OA
ATOM     18  H   UNL     1      52.685  -3.885 -56.812  1.00  0.00     0.293 HD
ENDBRANCH  14  17
BRANCH  16  19
ATOM     19  O   UNL     1      54.441  -1.547 -56.487  1.00  0.00    -0.504 OA
ATOM     20  H   UNL     1      54.251  -2.052 -57.346  1.00  0.00     0.293 HD
ENDBRANCH  16  19
ENDBRANCH   1  11
BRANCH  10  21
ATOM     21  O   UNL     1      55.059  -0.279 -51.121  1.00  0.00    -0.500 OA
ATOM     22  H   UNL     1      54.126  -0.661 -51.229  1.00  0.00     0.294 HD
ENDBRANCH  10  21
BRANCH   5  23
ATOM     23  O   UNL     1      61.749  -4.134 -50.336  1.00  0.00    -0.507 OA
ATOM     24  H   UNL     1      62.166  -4.535 -49.504  1.00  0.00     0.293 HD
ENDBRANCH   5  23
BRANCH   7  25
ATOM     25  O   UNL     1      59.419  -0.480 -48.233  1.00  0.00    -0.507 OA
ATOM     26  H   UNL     1      58.596   0.020 -47.930  1.00  0.00     0.293 HD
ENDBRANCH   7  25
TORSDOF 6
ENDMDL
MODEL 6
REMARK VINA RESULT:    -4.960      2.854      7.516
REMARK INTER + INTRA:          -6.321
REMARK INTER:                  -5.969
REMARK INTRA:                  -0.352
REMARK UNBOUND:                -0.346
REMARK SMILES Oc1cc(O)c2cc(O)c(-c3ccc(O)c(O)c3)[o+]c2c1
REMARK SMILES IDX 10 1 19 2 20 3 21 4 2 5 3 6 4 7 6 8 7 9 8 10 11 11 12 12
REMARK SMILES IDX 13 13 14 14 18 15 16 16 15 17 17 19 9 21 1 23 5 25
REMARK H PARENT 15 18 17 20 9 22 1 24 5 26
REMARK Flexibility Score: inf
ROOT
ATOM      1  C   UNL     1      53.355   7.792 -50.763  1.00  0.00     0.402 A 
ATOM      2  O   UNL     1      52.262   7.103 -51.079  1.00  0.00    -0.202 OA
ATOM      3  C   UNL     1      51.484   7.403 -52.114  1.00  0.00     0.368 A 
ATOM      4  C   UNL     1      50.357   6.616 -52.368  1.00  0.00     0.162 A 
ATOM      5  C   UNL     1      49.524   6.905 -53.448  1.00  0.00     0.128 A 
ATOM      6  C   UNL     1      49.818   7.988 -54.286  1.00  0.00     0.093 A 
ATOM      7  C   UNL     1      50.943   8.791 -54.054  1.00  0.00     0.136 A 
ATOM      8  C   UNL     1      51.791   8.502 -52.953  1.00  0.00     0.125 A 
ATOM      9  C   UNL     1      52.930   9.258 -52.637  1.00  0.00     0.078 A 
ATOM     10  C   UNL     1      53.716   8.914 -51.532  1.00  0.00     0.223 A 
ENDROOT
BRANCH   1  11
ATOM     11  C   UNL     1      54.146   7.352 -49.591  1.00  0.00     0.087 A 
ATOM     12  C   UNL     1      55.236   6.475 -49.730  1.00  0.00     0.022 A 
ATOM     13  C   UNL     1      55.952   6.056 -48.605  1.00  0.00     0.051 A 
ATOM     14  C   UNL     1      55.586   6.494 -47.329  1.00  0.00     0.157 A 
ATOM     15  C   UNL     1      53.768   7.775 -48.306  1.00  0.00     0.068 A 
ATOM     16  C   UNL     1      54.487   7.356 -47.177  1.00  0.00     0.158 A 
BRANCH  14  17
ATOM     17  O   UNL     1      56.322   6.061 -46.226  1.00  0.00    -0.504 OA
ATOM     18  H   UNL     1      56.918   6.686 -45.698  1.00  0.00     0.293 HD
ENDBRANCH  14  17
BRANCH  16  19
ATOM     19  O   UNL     1      54.112   7.791 -45.906  1.00  0.00    -0.504 OA
ATOM     20  H   UNL     1      54.011   7.144 -45.132  1.00  0.00     0.293 HD
ENDBRANCH  16  19
ENDBRANCH   1  11
BRANCH  10  21
ATOM     21  O   UNL     1      54.819   9.696 -51.188  1.00  0.00    -0.500 OA
ATOM     22  H   UNL     1      54.713  10.632 -50.815  1.00  0.00     0.294 HD
ENDBRANCH  10  21
BRANCH   5  23
ATOM     23  O   UNL     1      48.405   6.110 -53.685  1.00  0.00    -0.507 OA
ATOM     24  H   UNL     1      47.482   6.387 -53.371  1.00  0.00     0.293 HD
ENDBRANCH   5  23
BRANCH   7  25
ATOM     25  O   UNL     1      51.170   9.851 -54.936  1.00  0.00    -0.507 OA
ATOM     26  H   UNL     1      52.032  10.373 -54.990  1.00  0.00     0.293 HD
ENDBRANCH   7  25
TORSDOF 6
ENDMDL
MODEL 7
REMARK VINA RESULT:    -4.954      1.983      4.109
REMARK INTER + INTRA:          -6.313
REMARK INTER:                  -6.027
REMARK INTRA:                  -0.286
REMARK UNBOUND:                -0.346
REMARK SMILES Oc1cc(O)c2cc(O)c(-c3ccc(O)c(O)c3)[o+]c2c1
REMARK SMILES IDX 10 1 19 2 20 3 21 4 2 5 3 6 4 7 6 8 7 9 8 10 11 11 12 12
REMARK SMILES IDX 13 13 14 14 18 15 16 16 15 17 17 19 9 21 1 23 5 25
REMARK H PARENT 15 18 17 20 9 22 1 24 5 26
REMARK Flexibility Score: inf
ROOT
ATOM      1  C   UNL     1      54.516   7.383 -45.553  1.00  0.00     0.402 A 
ATOM      2  O   UNL     1      53.551   6.761 -44.881  1.00  0.00    -0.202 OA
ATOM      3  C   UNL     1      53.442   6.798 -43.558  1.00  0.00     0.368 A 
ATOM      4  C   UNL     1      52.389   6.113 -42.943  1.00  0.00     0.162 A 
ATOM      5  C   UNL     1      52.249   6.137 -41.555  1.00  0.00     0.128 A 
ATOM      6  C   UNL     1      53.165   6.849 -40.773  1.00  0.00     0.093 A 
ATOM      7  C   UNL     1      54.228   7.544 -41.365  1.00  0.00     0.136 A 
ATOM      8  C   UNL     1      54.377   7.520 -42.777  1.00  0.00     0.125 A 
ATOM      9  C   UNL     1      55.417   8.175 -43.454  1.00  0.00     0.078 A 
ATOM     10  C   UNL     1      55.500   8.102 -44.849  1.00  0.00     0.223 A 
ENDROOT
BRANCH   1  11
ATOM     11  C   UNL     1      54.524   7.276 -47.029  1.00  0.00     0.087 A 
ATOM     12  C   UNL     1      55.445   6.452 -47.700  1.00  0.00     0.022 A 
ATOM     13  C   UNL     1      55.447   6.386 -49.095  1.00  0.00     0.051 A 
ATOM     14  C   UNL     1      54.544   7.148 -49.842  1.00  0.00     0.157 A 
ATOM     15  C   UNL     1      53.631   8.056 -47.783  1.00  0.00     0.068 A 
ATOM     16  C   UNL     1      53.632   7.990 -49.184  1.00  0.00     0.158 A 
BRANCH  14  17
ATOM     17  O   UNL     1      54.569   7.059 -51.234  1.00  0.00    -0.504 OA
ATOM     18  H   UNL     1      55.413   6.826 -51.743  1.00  0.00     0.293 HD
ENDBRANCH  14  17
BRANCH  16  19
ATOM     19  O   UNL     1      52.733   8.759 -49.922  1.00  0.00    -0.504 OA
ATOM     20  H   UNL     1      52.513   8.538 -50.887  1.00  0.00     0.293 HD
ENDBRANCH  16  19
ENDBRANCH   1  11
BRANCH  10  21
ATOM     21  O   UNL     1      56.562   8.711 -45.518  1.00  0.00    -0.500 OA
ATOM     22  H   UNL     1      57.422   8.212 -45.718  1.00  0.00     0.294 HD
ENDBRANCH  10  21
BRANCH   5  23
ATOM     23  O   UNL     1      51.194   5.448 -40.961  1.00  0.00    -0.507 OA
ATOM     24  H   UNL     1      50.706   5.819 -40.154  1.00  0.00     0.293 HD
ENDBRANCH   5  23
BRANCH   7  25
ATOM     25  O   UNL     1      55.098   8.234 -40.516  1.00  0.00    -0.507 OA
ATOM     26  H   UNL     1      55.024   9.217 -40.300  1.00  0.00     0.293 HD
ENDBRANCH   7  25
TORSDOF 6
ENDMDL
MODEL 8
REMARK VINA RESULT:    -4.909      2.103      2.876
REMARK INTER + INTRA:          -6.260
REMARK INTER:                  -5.907
REMARK INTRA:                  -0.353
REMARK UNBOUND:                -0.346
REMARK SMILES Oc1cc(O)c2cc(O)c(-c3ccc(O)c(O)c3)[o+]c2c1
REMARK SMILES IDX 10 1 19 2 20 3 21 4 2 5 3 6 4 7 6 8 7 9 8 10 11 11 12 12
REMARK SMILES IDX 13 13 14 14 18 15 16 16 15 17 17 19 9 21 1 23 5 25
REMARK H PARENT 15 18 17 20 9 22 1 24 5 26
REMARK Flexibility Score: inf
ROOT
ATOM      1  C   UNL     1      54.265   7.311 -49.474  1.00  0.00     0.402 A 
ATOM      2  O   UNL     1      53.891   7.777 -48.286  1.00  0.00    -0.202 OA
ATOM      3  C   UNL     1      54.396   7.338 -47.138  1.00  0.00     0.368 A 
ATOM      4  C   UNL     1      53.941   7.894 -45.939  1.00  0.00     0.162 A 
ATOM      5  C   UNL     1      54.455   7.455 -44.719  1.00  0.00     0.128 A 
ATOM      6  C   UNL     1      55.434   6.455 -44.693  1.00  0.00     0.093 A 
ATOM      7  C   UNL     1      55.908   5.883 -45.881  1.00  0.00     0.136 A 
ATOM      8  C   UNL     1      55.384   6.324 -47.125  1.00  0.00     0.125 A 
ATOM      9  C   UNL     1      55.790   5.800 -48.362  1.00  0.00     0.078 A 
ATOM     10  C   UNL     1      55.225   6.283 -49.547  1.00  0.00     0.223 A 
ENDROOT
BRANCH   1  11
ATOM     11  C   UNL     1      53.636   7.888 -50.684  1.00  0.00     0.087 A 
ATOM     12  C   UNL     1      54.196   8.995 -51.344  1.00  0.00     0.022 A 
ATOM     13  C   UNL     1      53.571   9.536 -52.471  1.00  0.00     0.051 A 
ATOM     14  C   UNL     1      52.374   8.992 -52.946  1.00  0.00     0.157 A 
ATOM     15  C   UNL     1      52.423   7.356 -51.152  1.00  0.00     0.068 A 
ATOM     16  C   UNL     1      51.795   7.897 -52.282  1.00  0.00     0.158 A 
BRANCH  14  17
ATOM     17  O   UNL     1      51.774   9.552 -54.074  1.00  0.00    -0.504 OA
ATOM     18  H   UNL     1      52.214   9.528 -54.985  1.00  0.00     0.293 HD
ENDBRANCH  14  17
BRANCH  16  19
ATOM     19  O   UNL     1      50.597   7.354 -52.746  1.00  0.00    -0.504 OA
ATOM     20  H   UNL     1      50.420   6.356 -52.717  1.00  0.00     0.293 HD
ENDBRANCH  16  19
ENDBRANCH   1  11
BRANCH  10  21
ATOM     21  O   UNL     1      55.590   5.728 -50.774  1.00  0.00    -0.500 OA
ATOM     22  H   UNL     1      55.967   6.295 -51.525  1.00  0.00     0.294 HD
ENDBRANCH  10  21
BRANCH   5  23
ATOM     23  O   UNL     1      53.988   8.020 -43.534  1.00  0.00    -0.507 OA
ATOM     24  H   UNL     1      54.615   8.469 -42.877  1.00  0.00     0.293 HD
ENDBRANCH   5  23
BRANCH   7  25
ATOM     25  O   UNL     1      56.888   4.892 -45.773  1.00  0.00    -0.507 OA
ATOM     26  H   UNL     1      56.699   3.900 -45.775  1.00  0.00     0.293 HD
ENDBRANCH   7  25
TORSDOF 6
ENDMDL
