MODEL 1
REMARK VINA RESULT:    -3.942      0.000      0.000
REMARK INTER + INTRA:          -9.203
REMARK INTER:                  -7.168
REMARK INTRA:                  -2.035
REMARK UNBOUND:                -2.035
REMARK SMILES CCCCCC=CCC=CCCCCCCCC(=O)[O-]
REMARK SMILES IDX 11 1 12 2 13 3 14 4 15 5 16 6 17 7 18 8 19 9 20 10 10 11
REMARK SMILES IDX 9 12 8 13 7 14 6 15 5 16 4 17 3 18 2 19 1 20
REMARK H PARENT
REMARK Flexibility Score: inf
ROOT
ATOM      1  C   UNL     1      12.036   0.515   4.874  1.00  0.00     0.027 C 
ENDROOT
BRANCH   1   2
ATOM      2  C   UNL     1      10.891   1.526   4.718  1.00  0.00     0.004 C 
BRANCH   2   3
ATOM      3  C   UNL     1       9.521   0.851   4.528  1.00  0.00     0.000 C 
BRANCH   3   4
ATOM      4  C   UNL     1       8.538   1.618   3.621  1.00  0.00     0.000 C 
BRANCH   4   5
ATOM      5  C   UNL     1       7.045   1.384   3.927  1.00  0.00     0.000 C 
BRANCH   5   6
ATOM      6  C   UNL     1       6.680   1.372   5.425  1.00  0.00     0.006 C 
BRANCH   6   7
ATOM      7  C   UNL     1       5.660   0.293   5.821  1.00  0.00     0.053 C 
BRANCH   7   8
ATOM      8  C   UNL     1       6.043  -1.059   5.301  1.00  0.00     0.041 C 
ATOM      9  O   UNL     1       5.331  -1.628   4.433  1.00  0.00    -0.550 OA
ATOM     10  O   UNL     1       7.166  -1.705   5.802  1.00  0.00    -0.550 OA
ENDBRANCH   7   8
ENDBRANCH   6   7
ENDBRANCH   5   6
ENDBRANCH   4   5
ENDBRANCH   3   4
ENDBRANCH   2   3
ENDBRANCH   1   2
BRANCH   1  11
ATOM     11  C   UNL     1      12.811   0.374   3.593  1.00  0.00    -0.031 C 
ATOM     12  C   UNL     1      14.107   0.027   3.592  1.00  0.00    -0.027 C 
BRANCH  12  13
ATOM     13  C   UNL     1      14.884  -0.117   2.313  1.00  0.00     0.054 C 
BRANCH  13  14
ATOM     14  C   UNL     1      13.987  -0.531   1.172  1.00  0.00    -0.027 C 
ATOM     15  C   UNL     1      13.741   0.221   0.082  1.00  0.00    -0.031 C 
BRANCH  15  16
ATOM     16  C   UNL     1      14.270   1.616  -0.131  1.00  0.00     0.027 C 
BRANCH  16  17
ATOM     17  C   UNL     1      13.202   2.662   0.209  1.00  0.00     0.004 C 
BRANCH  17  18
ATOM     18  C   UNL     1      13.595   3.461   1.457  1.00  0.00     0.000 C 
BRANCH  18  19
ATOM     19  C   UNL     1      12.364   3.795   2.306  1.00  0.00    -0.003 C 
ATOM     20  C   UNL     1      11.074   3.522   1.538  1.00  0.00     0.004 C 
ENDBRANCH  18  19
ENDBRANCH  17  18
ENDBRANCH  16  17
ENDBRANCH  15  16
ENDBRANCH  13  14
ENDBRANCH  12  13
ENDBRANCH   1  11
TORSDOF 14
ENDMDL
MODEL 2
REMARK VINA RESULT:    -3.914      2.203      3.573
REMARK INTER + INTRA:          -9.153
REMARK INTER:                  -6.342
REMARK INTRA:                  -2.811
REMARK UNBOUND:                -2.035
REMARK SMILES CCCCCC=CCC=CCCCCCCCC(=O)[O-]
REMARK SMILES IDX 11 1 12 2 13 3 14 4 15 5 16 6 17 7 18 8 19 9 20 10 10 11
REMARK SMILES IDX 9 12 8 13 7 14 6 15 5 16 4 17 3 18 2 19 1 20
REMARK H PARENT
REMARK Flexibility Score: inf
ROOT
ATOM      1  C   UNL     1      11.501   0.553   4.480  1.00  0.00     0.027 C 
ENDROOT
BRANCH   1   2
ATOM      2  C   UNL     1      10.711   0.774   5.778  1.00  0.00     0.004 C 
BRANCH   2   3
ATOM      3  C   UNL     1       9.539  -0.212   5.938  1.00  0.00     0.000 C 
BRANCH   3   4
ATOM      4  C   UNL     1       8.140   0.404   5.745  1.00  0.00     0.000 C 
BRANCH   4   5
ATOM      5  C   UNL     1       7.551   0.260   4.328  1.00  0.00     0.000 C 
BRANCH   5   6
ATOM      6  C   UNL     1       7.534   1.557   3.493  1.00  0.00     0.006 C 
BRANCH   6   7
ATOM      7  C   UNL     1       7.676   2.845   4.320  1.00  0.00     0.053 C 
BRANCH   7   8
ATOM      8  C   UNL     1       6.377   3.581   4.440  1.00  0.00     0.041 C 
ATOM      9  O   UNL     1       6.334   4.825   4.249  1.00  0.00    -0.550 OA
ATOM     10  O   UNL     1       5.220   2.899   4.796  1.00  0.00    -0.550 OA
ENDBRANCH   7   8
ENDBRANCH   6   7
ENDBRANCH   5   6
ENDBRANCH   4   5
ENDBRANCH   3   4
ENDBRANCH   2   3
ENDBRANCH   1   2
BRANCH   1  11
ATOM     11  C   UNL     1      11.258   1.671   3.503  1.00  0.00    -0.031 C 
ATOM     12  C   UNL     1      11.473   2.953   3.838  1.00  0.00    -0.027 C 
BRANCH  12  13
ATOM     13  C   UNL     1      11.233   4.072   2.863  1.00  0.00     0.054 C 
BRANCH  13  14
ATOM     14  C   UNL     1      10.823   3.542   1.511  1.00  0.00    -0.027 C 
ATOM     15  C   UNL     1      11.610   3.547   0.418  1.00  0.00    -0.031 C 
BRANCH  15  16
ATOM     16  C   UNL     1      12.993   4.143   0.363  1.00  0.00     0.027 C 
BRANCH  16  17
ATOM     17  C   UNL     1      14.059   3.044   0.282  1.00  0.00     0.004 C 
BRANCH  17  18
ATOM     18  C   UNL     1      14.456   2.562   1.682  1.00  0.00     0.000 C 
BRANCH  18  19
ATOM     19  C   UNL     1      14.620   1.038   1.713  1.00  0.00    -0.003 C 
ATOM     20  C   UNL     1      13.564   0.352   0.850  1.00  0.00     0.004 C 
ENDBRANCH  18  19
ENDBRANCH  17  18
ENDBRANCH  16  17
ENDBRANCH  15  16
ENDBRANCH  13  14
ENDBRANCH  12  13
ENDBRANCH   1  11
TORSDOF 14
ENDMDL
MODEL 3
REMARK VINA RESULT:    -3.893      1.195      3.079
REMARK INTER + INTRA:          -9.115
REMARK INTER:                  -7.287
REMARK INTRA:                  -1.828
REMARK UNBOUND:                -2.035
REMARK SMILES CCCCCC=CCC=CCCCCCCCC(=O)[O-]
REMARK SMILES IDX 11 1 12 2 13 3 14 4 15 5 16 6 17 7 18 8 19 9 20 10 10 11
REMARK SMILES IDX 9 12 8 13 7 14 6 15 5 16 4 17 3 18 2 19 1 20
REMARK H PARENT
REMARK Flexibility Score: inf
ROOT
ATOM      1  C   UNL     1      11.279   4.023   0.878  1.00  0.00     0.027 C 
ENDROOT
BRANCH   1   2
ATOM      2  C   UNL     1      10.851   4.344   2.317  1.00  0.00     0.004 C 
BRANCH   2   3
ATOM      3  C   UNL     1      10.652   3.082   3.176  1.00  0.00     0.000 C 
BRANCH   3   4
ATOM      4  C   UNL     1       9.257   2.436   3.069  1.00  0.00     0.000 C 
BRANCH   4   5
ATOM      5  C   UNL     1       8.998   1.270   4.043  1.00  0.00     0.000 C 
BRANCH   5   6
ATOM      6  C   UNL     1       7.559   0.716   4.030  1.00  0.00     0.006 C 
BRANCH   6   7
ATOM      7  C   UNL     1       7.298  -0.396   5.059  1.00  0.00     0.053 C 
BRANCH   7   8
ATOM      8  C   UNL     1       5.849  -0.770   5.125  1.00  0.00     0.041 C 
ATOM      9  O   UNL     1       5.414  -1.739   4.449  1.00  0.00    -0.550 OA
ATOM     10  O   UNL     1       4.973  -0.027   5.907  1.00  0.00    -0.550 OA
ENDBRANCH   7   8
ENDBRANCH   6   7
ENDBRANCH   5   6
ENDBRANCH   4   5
ENDBRANCH   3   4
ENDBRANCH   2   3
ENDBRANCH   1   2
BRANCH   1  11
ATOM     11  C   UNL     1      12.273   2.895   0.848  1.00  0.00    -0.031 C 
ATOM     12  C   UNL     1      13.342   2.924   0.037  1.00  0.00    -0.027 C 
BRANCH  12  13
ATOM     13  C   UNL     1      14.339   1.799   0.008  1.00  0.00     0.054 C 
BRANCH  13  14
ATOM     14  C   UNL     1      13.651   0.462  -0.125  1.00  0.00    -0.027 C 
ATOM     15  C   UNL     1      13.882  -0.598   0.673  1.00  0.00    -0.031 C 
BRANCH  15  16
ATOM     16  C   UNL     1      14.910  -0.632   1.775  1.00  0.00     0.027 C 
BRANCH  16  17
ATOM     17  C   UNL     1      14.235  -0.624   3.151  1.00  0.00     0.004 C 
BRANCH  17  18
ATOM     18  C   UNL     1      13.573   0.731   3.429  1.00  0.00     0.000 C 
BRANCH  18  19
ATOM     19  C   UNL     1      14.494   1.633   4.258  1.00  0.00    -0.003 C 
ATOM     20  C   UNL     1      14.281   3.105   3.912  1.00  0.00     0.004 C 
ENDBRANCH  18  19
ENDBRANCH  17  18
ENDBRANCH  16  17
ENDBRANCH  15  16
ENDBRANCH  13  14
ENDBRANCH  12  13
ENDBRANCH   1  11
TORSDOF 14
ENDMDL
MODEL 4
REMARK VINA RESULT:    -3.888      1.085      3.161
REMARK INTER + INTRA:          -9.105
REMARK INTER:                  -7.448
REMARK INTRA:                  -1.657
REMARK UNBOUND:                -2.035
REMARK SMILES CCCCCC=CCC=CCCCCCCCC(=O)[O-]
REMARK SMILES IDX 11 1 12 2 13 3 14 4 15 5 16 6 17 7 18 8 19 9 20 10 10 11
REMARK SMILES IDX 9 12 8 13 7 14 6 15 5 16 4 17 3 18 2 19 1 20
REMARK H PARENT
REMARK Flexibility Score: inf
ROOT
ATOM      1  C   UNL     1       9.230   1.301   4.132  1.00  0.00     0.027 C 
ENDROOT
BRANCH   1   2
ATOM      2  C   UNL     1       7.994   1.657   3.294  1.00  0.00     0.004 C 
BRANCH   2   3
ATOM      3  C   UNL     1       6.897   2.358   4.117  1.00  0.00     0.000 C 
BRANCH   3   4
ATOM      4  C   UNL     1       6.874   1.992   5.614  1.00  0.00     0.000 C 
BRANCH   4   5
ATOM      5  C   UNL     1       5.483   2.041   6.278  1.00  0.00     0.000 C 
BRANCH   5   6
ATOM      6  C   UNL     1       4.883   0.667   6.636  1.00  0.00     0.006 C 
BRANCH   6   7
ATOM      7  C   UNL     1       5.839  -0.518   6.422  1.00  0.00     0.053 C 
BRANCH   7   8
ATOM      8  C   UNL     1       5.231  -1.582   5.560  1.00  0.00     0.041 C 
ATOM      9  O   UNL     1       5.385  -1.549   4.311  1.00  0.00    -0.550 OA
ATOM     10  O   UNL     1       4.465  -2.589   6.133  1.00  0.00    -0.550 OA
ENDBRANCH   7   8
ENDBRANCH   6   7
ENDBRANCH   5   6
ENDBRANCH   4   5
ENDBRANCH   3   4
ENDBRANCH   2   3
ENDBRANCH   1   2
BRANCH   1  11
ATOM     11  C   UNL     1      10.460   1.984   3.597  1.00  0.00    -0.031 C 
ATOM     12  C   UNL     1      10.380   2.922   2.641  1.00  0.00    -0.027 C 
BRANCH  12  13
ATOM     13  C   UNL     1      11.606   3.608   2.106  1.00  0.00     0.054 C 
BRANCH  13  14
ATOM     14  C   UNL     1      11.607   3.629   0.597  1.00  0.00    -0.027 C 
ATOM     15  C   UNL     1      12.524   3.015  -0.175  1.00  0.00    -0.031 C 
BRANCH  15  16
ATOM     16  C   UNL     1      13.726   2.273   0.351  1.00  0.00     0.027 C 
BRANCH  16  17
ATOM     17  C   UNL     1      13.618   0.774   0.043  1.00  0.00     0.004 C 
BRANCH  17  18
ATOM     18  C   UNL     1      13.948  -0.065   1.283  1.00  0.00     0.000 C 
BRANCH  18  19
ATOM     19  C   UNL     1      14.056   0.818   2.531  1.00  0.00    -0.003 C 
ATOM     20  C   UNL     1      13.516   0.098   3.764  1.00  0.00     0.004 C 
ENDBRANCH  18  19
ENDBRANCH  17  18
ENDBRANCH  16  17
ENDBRANCH  15  16
ENDBRANCH  13  14
ENDBRANCH  12  13
ENDBRANCH   1  11
TORSDOF 14
ENDMDL
MODEL 5
REMARK VINA RESULT:    -3.876      1.137      2.122
REMARK INTER + INTRA:          -9.084
REMARK INTER:                  -7.058
REMARK INTRA:                  -2.026
REMARK UNBOUND:                -2.035
REMARK SMILES CCCCCC=CCC=CCCCCCCCC(=O)[O-]
REMARK SMILES IDX 11 1 12 2 13 3 14 4 15 5 16 6 17 7 18 8 19 9 20 10 10 11
REMARK SMILES IDX 9 12 8 13 7 14 6 15 5 16 4 17 3 18 2 19 1 20
REMARK H PARENT
REMARK Flexibility Score: inf
ROOT
ATOM      1  C   UNL     1      13.170   0.106   4.017  1.00  0.00     0.027 C 
ENDROOT
BRANCH   1   2
ATOM      2  C   UNL     1      12.877   1.175   5.081  1.00  0.00     0.004 C 
BRANCH   2   3
ATOM      3  C   UNL     1      11.643   0.840   5.938  1.00  0.00     0.000 C 
BRANCH   3   4
ATOM      4  C   UNL     1      10.487   0.162   5.177  1.00  0.00     0.000 C 
BRANCH   4   5
ATOM      5  C   UNL     1       9.089   0.357   5.799  1.00  0.00     0.000 C 
BRANCH   5   6
ATOM      6  C   UNL     1       7.909   0.147   4.829  1.00  0.00     0.006 C 
BRANCH   6   7
ATOM      7  C   UNL     1       6.555  -0.086   5.520  1.00  0.00     0.053 C 
BRANCH   7   8
ATOM      8  C   UNL     1       5.997  -1.443   5.218  1.00  0.00     0.041 C 
ATOM      9  O   UNL     1       5.116  -1.582   4.331  1.00  0.00    -0.550 OA
ATOM     10  O   UNL     1       6.426  -2.549   5.943  1.00  0.00    -0.550 OA
ENDBRANCH   7   8
ENDBRANCH   6   7
ENDBRANCH   5   6
ENDBRANCH   4   5
ENDBRANCH   3   4
ENDBRANCH   2   3
ENDBRANCH   1   2
BRANCH   1  11
ATOM     11  C   UNL     1      13.093   0.688   2.632  1.00  0.00    -0.031 C 
ATOM     12  C   UNL     1      13.887   0.251   1.643  1.00  0.00    -0.027 C 
BRANCH  12  13
ATOM     13  C   UNL     1      13.810   0.829   0.257  1.00  0.00     0.054 C 
BRANCH  13  14
ATOM     14  C   UNL     1      14.348   2.238   0.221  1.00  0.00    -0.027 C 
ATOM     15  C   UNL     1      13.589   3.343   0.090  1.00  0.00    -0.031 C 
BRANCH  15  16
ATOM     16  C   UNL     1      12.095   3.335  -0.108  1.00  0.00     0.027 C 
BRANCH  16  17
ATOM     17  C   UNL     1      11.406   4.269   0.894  1.00  0.00     0.004 C 
BRANCH  17  18
ATOM     18  C   UNL     1      11.999   4.099   2.298  1.00  0.00     0.000 C 
BRANCH  18  19
ATOM     19  C   UNL     1      10.900   3.824   3.329  1.00  0.00    -0.003 C 
ATOM     20  C   UNL     1       9.969   2.709   2.859  1.00  0.00     0.004 C 
ENDBRANCH  18  19
ENDBRANCH  17  18
ENDBRANCH  16  17
ENDBRANCH  15  16
ENDBRANCH  13  14
ENDBRANCH  12  13
ENDBRANCH   1  11
TORSDOF 14
ENDMDL
MODEL 6
REMARK VINA RESULT:    -3.871      2.960      6.793
REMARK INTER + INTRA:          -9.074
REMARK INTER:                  -7.125
REMARK INTRA:                  -1.949
REMARK UNBOUND:                -2.035
REMARK SMILES CCCCCC=CCC=CCCCCCCCC(=O)[O-]
REMARK SMILES IDX 11 1 12 2 13 3 14 4 15 5 16 6 17 7 18 8 19 9 20 10 10 11
REMARK SMILES IDX 9 12 8 13 7 14 6 15 5 16 4 17 3 18 2 19 1 20
REMARK H PARENT
REMARK Flexibility Score: inf
ROOT
ATOM      1  C   UNL     1      11.385   3.866   2.071  1.00  0.00     0.027 C 
ENDROOT
BRANCH   1   2
ATOM      2  C   UNL     1      11.065   3.753   0.573  1.00  0.00     0.004 C 
BRANCH   2   3
ATOM      3  C   UNL     1      12.304   3.951  -0.319  1.00  0.00     0.000 C 
BRANCH   3   4
ATOM      4  C   UNL     1      13.653   3.663   0.369  1.00  0.00     0.000 C 
BRANCH   4   5
ATOM      5  C   UNL     1      14.294   2.307   0.011  1.00  0.00     0.000 C 
BRANCH   5   6
ATOM      6  C   UNL     1      13.832   1.118   0.878  1.00  0.00     0.006 C 
BRANCH   6   7
ATOM      7  C   UNL     1      13.730  -0.216   0.121  1.00  0.00     0.053 C 
BRANCH   7   8
ATOM      8  C   UNL     1      13.675  -1.388   1.053  1.00  0.00     0.041 C 
ATOM      9  O   UNL     1      14.105  -1.279   2.231  1.00  0.00    -0.550 OA
ATOM     10  O   UNL     1      13.182  -2.608   0.608  1.00  0.00    -0.550 OA
ENDBRANCH   7   8
ENDBRANCH   6   7
ENDBRANCH   5   6
ENDBRANCH   4   5
ENDBRANCH   3   4
ENDBRANCH   2   3
ENDBRANCH   1   2
BRANCH   1  11
ATOM     11  C   UNL     1      10.981   2.617   2.805  1.00  0.00    -0.031 C 
ATOM     12  C   UNL     1      11.853   1.941   3.569  1.00  0.00    -0.027 C 
BRANCH  12  13
ATOM     13  C   UNL     1      11.452   0.693   4.306  1.00  0.00     0.054 C 
BRANCH  13  14
ATOM     14  C   UNL     1      10.712   1.024   5.578  1.00  0.00    -0.027 C 
ATOM     15  C   UNL     1       9.442   0.659   5.840  1.00  0.00    -0.031 C 
BRANCH  15  16
ATOM     16  C   UNL     1       8.547  -0.075   4.875  1.00  0.00     0.027 C 
BRANCH  16  17
ATOM     17  C   UNL     1       7.282   0.739   4.578  1.00  0.00     0.004 C 
BRANCH  17  18
ATOM     18  C   UNL     1       7.584   1.886   3.607  1.00  0.00     0.000 C 
BRANCH  18  19
ATOM     19  C   UNL     1       7.642   3.229   4.344  1.00  0.00    -0.003 C 
ATOM     20  C   UNL     1       6.266   3.887   4.401  1.00  0.00     0.004 C 
ENDBRANCH  18  19
ENDBRANCH  17  18
ENDBRANCH  16  17
ENDBRANCH  15  16
ENDBRANCH  13  14
ENDBRANCH  12  13
ENDBRANCH   1  11
TORSDOF 14
ENDMDL
MODEL 7
REMARK VINA RESULT:    -3.837      4.993      8.018
REMARK INTER + INTRA:          -9.012
REMARK INTER:                  -7.771
REMARK INTRA:                  -1.241
REMARK UNBOUND:                -2.035
REMARK SMILES CCCCCC=CCC=CCCCCCCCC(=O)[O-]
REMARK SMILES IDX 11 1 12 2 13 3 14 4 15 5 16 6 17 7 18 8 19 9 20 10 10 11
REMARK SMILES IDX 9 12 8 13 7 14 6 15 5 16 4 17 3 18 2 19 1 20
REMARK H PARENT
REMARK Flexibility Score: inf
ROOT
ATOM      1  C   UNL     1       6.386  -4.059   7.168  1.00  0.00     0.027 C 
ENDROOT
BRANCH   1   2
ATOM      2  C   UNL     1       7.366  -5.240   7.157  1.00  0.00     0.004 C 
BRANCH   2   3
ATOM      3  C   UNL     1       6.659  -6.604   7.256  1.00  0.00     0.000 C 
BRANCH   3   4
ATOM      4  C   UNL     1       5.154  -6.581   6.926  1.00  0.00     0.000 C 
BRANCH   4   5
ATOM      5  C   UNL     1       4.417  -7.919   7.136  1.00  0.00     0.000 C 
BRANCH   5   6
ATOM      6  C   UNL     1       3.073  -8.047   6.390  1.00  0.00     0.006 C 
BRANCH   6   7
ATOM      7  C   UNL     1       3.000  -9.232   5.414  1.00  0.00     0.053 C 
BRANCH   7   8
ATOM      8  C   UNL     1       3.178  -8.799   3.991  1.00  0.00     0.041 C 
ATOM      9  O   UNL     1       2.215  -8.867   3.184  1.00  0.00    -0.550 OA
ATOM     10  O   UNL     1       4.418  -8.355   3.549  1.00  0.00    -0.550 OA
ENDBRANCH   7   8
ENDBRANCH   6   7
ENDBRANCH   5   6
ENDBRANCH   4   5
ENDBRANCH   3   4
ENDBRANCH   2   3
ENDBRANCH   1   2
BRANCH   1  11
ATOM     11  C   UNL     1       6.946  -2.885   6.412  1.00  0.00    -0.031 C 
ATOM     12  C   UNL     1       6.179  -1.836   6.078  1.00  0.00    -0.027 C 
BRANCH  12  13
ATOM     13  C   UNL     1       6.736  -0.661   5.324  1.00  0.00     0.054 C 
BRANCH  13  14
ATOM     14  C   UNL     1       8.211  -0.489   5.592  1.00  0.00    -0.027 C 
ATOM     15  C   UNL     1       9.017   0.352   4.916  1.00  0.00    -0.031 C 
BRANCH  15  16
ATOM     16  C   UNL     1       8.583   1.198   3.747  1.00  0.00     0.027 C 
BRANCH  16  17
ATOM     17  C   UNL     1       8.992   2.662   3.951  1.00  0.00     0.004 C 
BRANCH  17  18
ATOM     18  C   UNL     1       8.011   3.380   4.884  1.00  0.00     0.000 C 
BRANCH  18  19
ATOM     19  C   UNL     1       6.560   3.086   4.488  1.00  0.00    -0.003 C 
ATOM     20  C   UNL     1       5.675   2.918   5.720  1.00  0.00     0.004 C 
ENDBRANCH  18  19
ENDBRANCH  17  18
ENDBRANCH  16  17
ENDBRANCH  15  16
ENDBRANCH  13  14
ENDBRANCH  12  13
ENDBRANCH   1  11
TORSDOF 14
ENDMDL
MODEL 8
REMARK VINA RESULT:    -3.810      5.689      8.784
REMARK INTER + INTRA:          -8.964
REMARK INTER:                  -7.923
REMARK INTRA:                  -1.041
REMARK UNBOUND:                -2.035
REMARK SMILES CCCCCC=CCC=CCCCCCCCC(=O)[O-]
REMARK SMILES IDX 11 1 12 2 13 3 14 4 15 5 16 6 17 7 18 8 19 9 20 10 10 11
REMARK SMILES IDX 9 12 8 13 7 14 6 15 5 16 4 17 3 18 2 19 1 20
REMARK H PARENT
REMARK Flexibility Score: inf
ROOT
ATOM      1  C   UNL     1       7.261  -6.226   6.567  1.00  0.00     0.027 C 
ENDROOT
BRANCH   1   2
ATOM      2  C   UNL     1       7.109  -7.200   7.745  1.00  0.00     0.004 C 
BRANCH   2   3
ATOM      3  C   UNL     1       5.885  -8.123   7.602  1.00  0.00     0.000 C 
BRANCH   3   4
ATOM      4  C   UNL     1       4.525  -7.443   7.857  1.00  0.00     0.000 C 
BRANCH   4   5
ATOM      5  C   UNL     1       3.495  -7.591   6.719  1.00  0.00     0.000 C 
BRANCH   5   6
ATOM      6  C   UNL     1       3.282  -9.033   6.215  1.00  0.00     0.006 C 
BRANCH   6   7
ATOM      7  C   UNL     1       2.344  -9.149   5.003  1.00  0.00     0.053 C 
BRANCH   7   8
ATOM      8  C   UNL     1       3.102  -9.256   3.715  1.00  0.00     0.041 C 
ATOM      9  O   UNL     1       2.698 -10.028   2.806  1.00  0.00    -0.550 OA
ATOM     10  O   UNL     1       4.272  -8.530   3.533  1.00  0.00    -0.550 OA
ENDBRANCH   7   8
ENDBRANCH   6   7
ENDBRANCH   5   6
ENDBRANCH   4   5
ENDBRANCH   3   4
ENDBRANCH   2   3
ENDBRANCH   1   2
BRANCH   1  11
ATOM     11  C   UNL     1       7.606  -4.844   7.051  1.00  0.00    -0.031 C 
ATOM     12  C   UNL     1       6.717  -3.841   6.999  1.00  0.00    -0.027 C 
BRANCH  12  13
ATOM     13  C   UNL     1       7.058  -2.459   7.484  1.00  0.00     0.054 C 
BRANCH  13  14
ATOM     14  C   UNL     1       8.344  -1.966   6.868  1.00  0.00    -0.027 C 
ATOM     15  C   UNL     1       8.419  -1.034   5.898  1.00  0.00    -0.031 C 
BRANCH  15  16
ATOM     16  C   UNL     1       7.227  -0.394   5.234  1.00  0.00     0.027 C 
BRANCH  16  17
ATOM     17  C   UNL     1       7.153   1.100   5.569  1.00  0.00     0.004 C 
BRANCH  17  18
ATOM     18  C   UNL     1       6.859   1.929   4.313  1.00  0.00     0.000 C 
BRANCH  18  19
ATOM     19  C   UNL     1       7.850   1.598   3.191  1.00  0.00    -0.003 C 
ATOM     20  C   UNL     1       9.251   2.103   3.526  1.00  0.00     0.004 C 
ENDBRANCH  18  19
ENDBRANCH  17  18
ENDBRANCH  16  17
ENDBRANCH  15  16
ENDBRANCH  13  14
ENDBRANCH  12  13
ENDBRANCH   1  11
TORSDOF 14
ENDMDL
MODEL 9
REMARK VINA RESULT:    -3.782      3.447      6.839
REMARK INTER + INTRA:          -8.912
REMARK INTER:                  -6.387
REMARK INTRA:                  -2.524
REMARK UNBOUND:                -2.035
REMARK SMILES CCCCCC=CCC=CCCCCCCCC(=O)[O-]
REMARK SMILES IDX 11 1 12 2 13 3 14 4 15 5 16 6 17 7 18 8 19 9 20 10 10 11
REMARK SMILES IDX 9 12 8 13 7 14 6 15 5 16 4 17 3 18 2 19 1 20
REMARK H PARENT
REMARK Flexibility Score: inf
ROOT
ATOM      1  C   UNL     1      14.345  -0.603   3.189  1.00  0.00     0.027 C 
ENDROOT
BRANCH   1   2
ATOM      2  C   UNL     1      14.866  -0.576   1.744  1.00  0.00     0.004 C 
BRANCH   2   3
ATOM      3  C   UNL     1      13.734  -0.580   0.701  1.00  0.00     0.000 C 
BRANCH   3   4
ATOM      4  C   UNL     1      13.597   0.721  -0.114  1.00  0.00     0.000 C 
BRANCH   4   5
ATOM      5  C   UNL     1      14.591   1.838   0.262  1.00  0.00     0.000 C 
BRANCH   5   6
ATOM      6  C   UNL     1      13.965   3.236   0.437  1.00  0.00     0.006 C 
BRANCH   6   7
ATOM      7  C   UNL     1      12.633   3.432  -0.305  1.00  0.00     0.053 C 
BRANCH   7   8
ATOM      8  C   UNL     1      11.933   4.687   0.119  1.00  0.00     0.041 C 
ATOM      9  O   UNL     1      12.252   5.257   1.195  1.00  0.00    -0.550 OA
ATOM     10  O   UNL     1      10.906   5.207  -0.658  1.00  0.00    -0.550 OA
ENDBRANCH   7   8
ENDBRANCH   6   7
ENDBRANCH   5   6
ENDBRANCH   4   5
ENDBRANCH   3   4
ENDBRANCH   2   3
ENDBRANCH   1   2
BRANCH   1  11
ATOM     11  C   UNL     1      13.171   0.323   3.356  1.00  0.00    -0.031 C 
ATOM     12  C   UNL     1      13.331   1.588   3.775  1.00  0.00    -0.027 C 
BRANCH  12  13
ATOM     13  C   UNL     1      12.160   2.516   3.941  1.00  0.00     0.054 C 
BRANCH  13  14
ATOM     14  C   UNL     1      11.144   2.317   2.844  1.00  0.00    -0.027 C 
ATOM     15  C   UNL     1       9.875   2.768   2.886  1.00  0.00    -0.031 C 
BRANCH  15  16
ATOM     16  C   UNL     1       9.260   3.480   4.063  1.00  0.00     0.027 C 
BRANCH  16  17
ATOM     17  C   UNL     1       8.209   2.597   4.746  1.00  0.00     0.004 C 
BRANCH  17  18
ATOM     18  C   UNL     1       7.980   1.305   3.954  1.00  0.00     0.000 C 
BRANCH  18  19
ATOM     19  C   UNL     1       8.155   0.073   4.849  1.00  0.00    -0.003 C 
ATOM     20  C   UNL     1       9.577  -0.012   5.398  1.00  0.00     0.004 C 
ENDBRANCH  18  19
ENDBRANCH  17  18
ENDBRANCH  16  17
ENDBRANCH  15  16
ENDBRANCH  13  14
ENDBRANCH  12  13
ENDBRANCH   1  11
TORSDOF 14
ENDMDL
