MODEL 1
REMARK VINA RESULT:    13.076      0.000      0.000
REMARK INTER + INTRA:          14.568
REMARK INTER:                  14.605
REMARK INTRA:                  -0.037
REMARK UNBOUND:                -0.037
REMARK SMILES O=C([O-])c1ccc(O)c(O)c1
REMARK SMILES IDX 4 1 11 2 5 3 9 4 6 5 7 6 2 7 1 8 3 9 10 10 8 12
REMARK H PARENT 10 11 8 13
REMARK Flexibility Score: inf
ROOT
ATOM      1  C   UNL     1      29.137   9.300   0.068  1.00  0.00     0.001 A 
ATOM      2  C   UNL     1      28.669  10.623  -0.021  1.00  0.00     0.060 A 
ATOM      3  C   UNL     1      30.438   9.006  -0.378  1.00  0.00     0.014 A 
ATOM      4  C   UNL     1      29.486  11.635  -0.545  1.00  0.00     0.158 A 
ATOM      5  C   UNL     1      31.252  10.014  -0.900  1.00  0.00     0.051 A 
ATOM      6  C   UNL     1      30.784  11.328  -0.986  1.00  0.00     0.157 A 
ENDROOT
BRANCH   1   7
ATOM      7  C   UNL     1      28.271   8.236   0.622  1.00  0.00     0.072 C 
ATOM      8  O   UNL     1      27.875   7.287  -0.106  1.00  0.00    -0.545 OA
ATOM      9  O   UNL     1      27.881   8.268   1.956  1.00  0.00    -0.545 OA
ENDBRANCH   1   7
BRANCH   4  10
ATOM     10  O   UNL     1      29.012  12.944  -0.628  1.00  0.00    -0.504 OA
ATOM     11  H   UNL     1      29.495  13.651  -1.171  1.00  0.00     0.293 HD
ENDBRANCH   4  10
BRANCH   6  12
ATOM     12  O   UNL     1      31.619  12.313  -1.512  1.00  0.00    -0.504 OA
ATOM     13  H   UNL     1      32.583  12.124  -1.761  1.00  0.00     0.293 HD
ENDBRANCH   6  12
TORSDOF 3
ENDMDL
MODEL 2
REMARK VINA RESULT:    14.055      0.995      2.131
REMARK INTER + INTRA:          15.661
REMARK INTER:                  15.699
REMARK INTRA:                  -0.038
REMARK UNBOUND:                -0.037
REMARK SMILES O=C([O-])c1ccc(O)c(O)c1
REMARK SMILES IDX 4 1 11 2 5 3 9 4 6 5 7 6 2 7 1 8 3 9 10 10 8 12
REMARK H PARENT 10 11 8 13
REMARK Flexibility Score: inf
ROOT
ATOM      1  C   UNL     1      29.252   9.441   0.031  1.00  0.00     0.001 A 
ATOM      2  C   UNL     1      30.499   9.009  -0.456  1.00  0.00     0.060 A 
ATOM      3  C   UNL     1      28.922  10.805  -0.059  1.00  0.00     0.014 A 
ATOM      4  C   UNL     1      31.400   9.922  -1.022  1.00  0.00     0.158 A 
ATOM      5  C   UNL     1      29.819  11.715  -0.624  1.00  0.00     0.051 A 
ATOM      6  C   UNL     1      31.057  11.282  -1.106  1.00  0.00     0.157 A 
ENDROOT
BRANCH   1   7
ATOM      7  C   UNL     1      28.305   8.473   0.627  1.00  0.00     0.072 C 
ATOM      8  O   UNL     1      27.876   7.498  -0.046  1.00  0.00    -0.545 OA
ATOM      9  O   UNL     1      27.875   8.625   1.940  1.00  0.00    -0.545 OA
ENDBRANCH   1   7
BRANCH   4  10
ATOM     10  O   UNL     1      32.634   9.483  -1.501  1.00  0.00    -0.504 OA
ATOM     11  H   UNL     1      33.223   8.861  -0.960  1.00  0.00     0.293 HD
ENDBRANCH   4  10
BRANCH   6  12
ATOM     12  O   UNL     1      31.931  12.214  -1.664  1.00  0.00    -0.504 OA
ATOM     13  H   UNL     1      31.701  12.734  -2.502  1.00  0.00     0.293 HD
ENDBRANCH   6  12
TORSDOF 3
ENDMDL
MODEL 3
REMARK VINA RESULT:    14.133      1.875      5.119
REMARK INTER + INTRA:          15.748
REMARK INTER:                  15.789
REMARK INTRA:                  -0.041
REMARK UNBOUND:                -0.037
REMARK SMILES O=C([O-])c1ccc(O)c(O)c1
REMARK SMILES IDX 4 1 11 2 5 3 9 4 6 5 7 6 2 7 1 8 3 9 10 10 8 12
REMARK H PARENT 10 11 8 13
REMARK Flexibility Score: inf
ROOT
ATOM      1  C   UNL     1      31.644  11.615  -1.547  1.00  0.00     0.001 A 
ATOM      2  C   UNL     1      32.066  10.280  -1.415  1.00  0.00     0.060 A 
ATOM      3  C   UNL     1      30.380  11.982  -1.051  1.00  0.00     0.014 A 
ATOM      4  C   UNL     1      31.241   9.328  -0.798  1.00  0.00     0.158 A 
ATOM      5  C   UNL     1      29.558  11.034  -0.436  1.00  0.00     0.051 A 
ATOM      6  C   UNL     1      29.981   9.708  -0.307  1.00  0.00     0.157 A 
ENDROOT
BRANCH   1   7
ATOM      7  C   UNL     1      32.518  12.615  -2.198  1.00  0.00     0.072 C 
ATOM      8  O   UNL     1      33.769  12.565  -2.051  1.00  0.00    -0.545 OA
ATOM      9  O   UNL     1      31.972  13.626  -2.980  1.00  0.00    -0.545 OA
ENDBRANCH   1   7
BRANCH   4  10
ATOM     10  O   UNL     1      31.669   8.007  -0.673  1.00  0.00    -0.504 OA
ATOM     11  H   UNL     1      31.316   7.274  -1.277  1.00  0.00     0.293 HD
ENDBRANCH   4  10
BRANCH   6  12
ATOM     12  O   UNL     1      29.139   8.784   0.310  1.00  0.00    -0.504 OA
ATOM     13  H   UNL     1      28.899   7.901  -0.123  1.00  0.00     0.293 HD
ENDBRANCH   6  12
TORSDOF 3
ENDMDL
MODEL 4
REMARK VINA RESULT:    14.431      1.454      4.448
REMARK INTER + INTRA:          16.081
REMARK INTER:                  16.118
REMARK INTRA:                  -0.036
REMARK UNBOUND:                -0.037
REMARK SMILES O=C([O-])c1ccc(O)c(O)c1
REMARK SMILES IDX 4 1 11 2 5 3 9 4 6 5 7 6 2 7 1 8 3 9 10 10 8 12
REMARK H PARENT 10 11 8 13
REMARK Flexibility Score: inf
ROOT
ATOM      1  C   UNL     1      31.718  11.423  -1.173  1.00  0.00     0.001 A 
ATOM      2  C   UNL     1      30.475  12.011  -0.878  1.00  0.00     0.060 A 
ATOM      3  C   UNL     1      31.861  10.031  -1.037  1.00  0.00     0.014 A 
ATOM      4  C   UNL     1      29.394  11.224  -0.456  1.00  0.00     0.158 A 
ATOM      5  C   UNL     1      30.784   9.245  -0.618  1.00  0.00     0.051 A 
ATOM      6  C   UNL     1      29.550   9.834  -0.326  1.00  0.00     0.157 A 
ENDROOT
BRANCH   1   7
ATOM      7  C   UNL     1      32.854  12.259  -1.617  1.00  0.00     0.072 C 
ATOM      8  O   UNL     1      33.239  12.232  -2.817  1.00  0.00    -0.545 OA
ATOM      9  O   UNL     1      33.516  13.085  -0.716  1.00  0.00    -0.545 OA
ENDBRANCH   1   7
BRANCH   4  10
ATOM     10  O   UNL     1      28.166  11.817  -0.166  1.00  0.00    -0.504 OA
ATOM     11  H   UNL     1      27.293  11.420  -0.493  1.00  0.00     0.293 HD
ENDBRANCH   4  10
BRANCH   6  12
ATOM     12  O   UNL     1      28.495   9.024   0.091  1.00  0.00    -0.504 OA
ATOM     13  H   UNL     1      28.013   9.177   0.969  1.00  0.00     0.293 HD
ENDBRANCH   6  12
TORSDOF 3
ENDMDL
MODEL 5
REMARK VINA RESULT:    14.489      2.470      3.782
REMARK INTER + INTRA:          16.146
REMARK INTER:                  16.189
REMARK INTRA:                  -0.043
REMARK UNBOUND:                -0.037
REMARK SMILES O=C([O-])c1ccc(O)c(O)c1
REMARK SMILES IDX 4 1 11 2 5 3 9 4 6 5 7 6 2 7 1 8 3 9 10 10 8 12
REMARK H PARENT 10 11 8 13
REMARK Flexibility Score: inf
ROOT
ATOM      1  C   UNL     1      31.491  10.639  -1.337  1.00  0.00     0.001 A 
ATOM      2  C   UNL     1      32.780  10.757  -1.886  1.00  0.00     0.060 A 
ATOM      3  C   UNL     1      30.635  11.754  -1.366  1.00  0.00     0.014 A 
ATOM      4  C   UNL     1      33.207  11.965  -2.454  1.00  0.00     0.158 A 
ATOM      5  C   UNL     1      31.059  12.959  -1.932  1.00  0.00     0.051 A 
ATOM      6  C   UNL     1      32.341  13.072  -2.477  1.00  0.00     0.157 A 
ENDROOT
BRANCH   1   7
ATOM      7  C   UNL     1      31.046   9.361  -0.739  1.00  0.00     0.072 C 
ATOM      8  O   UNL     1      29.819   9.115  -0.592  1.00  0.00    -0.545 OA
ATOM      9  O   UNL     1      31.976   8.413  -0.330  1.00  0.00    -0.545 OA
ENDBRANCH   1   7
BRANCH   4  10
ATOM     10  O   UNL     1      34.488  12.071  -2.995  1.00  0.00    -0.504 OA
ATOM     11  H   UNL     1      34.848  12.953  -3.339  1.00  0.00     0.293 HD
ENDBRANCH   4  10
BRANCH   6  12
ATOM     12  O   UNL     1      32.737  14.287  -3.034  1.00  0.00    -0.504 OA
ATOM     13  H   UNL     1      32.066  14.977  -3.352  1.00  0.00     0.293 HD
ENDBRANCH   6  12
TORSDOF 3
ENDMDL
