MODEL 1
REMARK VINA RESULT:    -4.865      0.000      0.000
REMARK INTER + INTRA:          -6.537
REMARK INTER:                  -5.860
REMARK INTRA:                  -0.677
REMARK UNBOUND:                -0.677
REMARK SMILES O=c1ccn([C@H]2O[C@H](CO)[C@@H](O)[C@@H]2O)c(=O)[nH]1
REMARK SMILES IDX 6 1 13 2 11 3 8 4 7 5 5 6 3 7 4 8 2 9 17 10 1 11 15 12 16 14
REMARK SMILES IDX 14 15 12 17 9 19 10 20
REMARK H PARENT 17 13 14 16 12 18 10 21
REMARK Flexibility Score: inf
ROOT
ATOM      1  C   UNL     1      30.164   3.624   7.439  1.00  0.00     0.255 C 
ATOM      2  C   UNL     1      29.274   3.804   8.662  1.00  0.00     0.196 C 
ATOM      3  C   UNL     1      29.473   2.501   9.387  1.00  0.00     0.179 C 
ATOM      4  C   UNL     1      30.897   2.114   8.986  1.00  0.00     0.178 C 
ATOM      5  O   UNL     1      31.220   2.742   7.761  1.00  0.00    -0.347 OA
ENDROOT
BRANCH   1   6
ATOM      6  N   UNL     1      30.689   4.920   6.962  1.00  0.00    -0.271 N 
ATOM      7  C   UNL     1      32.412   6.587   7.043  1.00  0.00     0.090 A 
ATOM      8  C   UNL     1      31.870   5.380   7.476  1.00  0.00     0.099 A 
ATOM      9  C   UNL     1      31.734   7.310   6.069  1.00  0.00     0.253 A 
ATOM     10  N   UNL     1      30.571   6.831   5.558  1.00  0.00    -0.274 N 
ATOM     11  O   UNL     1      32.201   8.407   5.659  1.00  0.00    -0.269 OA
ATOM     12  C   UNL     1      30.048   5.648   5.986  1.00  0.00     0.330 A 
ATOM     13  H   UNL     1      30.070   7.377   4.819  1.00  0.00     0.175 HD
ATOM     14  O   UNL     1      28.975   5.230   5.471  1.00  0.00    -0.248 OA
ENDBRANCH   1   6
BRANCH   2  15
ATOM     15  O   UNL     1      27.936   3.983   8.280  1.00  0.00    -0.386 OA
ATOM     16  H   UNL     1      27.559   3.075   8.143  1.00  0.00     0.211 HD
ENDBRANCH   2  15
BRANCH   3  17
ATOM     17  O   UNL     1      29.375   2.668  10.778  1.00  0.00    -0.387 OA
ATOM     18  H   UNL     1      30.281   2.499  11.147  1.00  0.00     0.211 HD
ENDBRANCH   3  17
BRANCH   4  19
ATOM     19  C   UNL     1      31.074   0.596   8.847  1.00  0.00     0.191 C 
BRANCH  19  20
ATOM     20  O   UNL     1      30.062  -0.089   9.535  1.00  0.00    -0.394 OA
ATOM     21  H   UNL     1      30.377  -1.023   9.647  1.00  0.00     0.210 HD
ENDBRANCH  19  20
ENDBRANCH   4  19
TORSDOF 5
ENDMDL
MODEL 2
REMARK VINA RESULT:    -4.771      4.209      6.027
REMARK INTER + INTRA:          -6.424
REMARK INTER:                  -5.926
REMARK INTRA:                  -0.498
REMARK UNBOUND:                -0.677
REMARK SMILES O=c1ccn([C@H]2O[C@H](CO)[C@@H](O)[C@@H]2O)c(=O)[nH]1
REMARK SMILES IDX 6 1 13 2 11 3 8 4 7 5 5 6 3 7 4 8 2 9 17 10 1 11 15 12 16 14
REMARK SMILES IDX 14 15 12 17 9 19 10 20
REMARK H PARENT 17 13 14 16 12 18 10 21
REMARK Flexibility Score: inf
ROOT
ATOM      1  C   UNL     1      32.149   6.571   5.935  1.00  0.00     0.255 C 
ATOM      2  C   UNL     1      33.175   6.847   4.844  1.00  0.00     0.196 C 
ATOM      3  C   UNL     1      32.338   6.750   3.597  1.00  0.00     0.179 C 
ATOM      4  C   UNL     1      30.961   7.196   4.090  1.00  0.00     0.178 C 
ATOM      5  O   UNL     1      30.873   6.974   5.483  1.00  0.00    -0.347 OA
ENDROOT
BRANCH   1   6
ATOM      6  N   UNL     1      32.505   7.261   7.192  1.00  0.00    -0.271 N 
ATOM      7  C   UNL     1      32.194   9.133   8.659  1.00  0.00     0.090 A 
ATOM      8  C   UNL     1      31.904   8.456   7.478  1.00  0.00     0.099 A 
ATOM      9  C   UNL     1      33.098   8.565   9.549  1.00  0.00     0.253 A 
ATOM     10  N   UNL     1      33.673   7.370   9.256  1.00  0.00    -0.274 N 
ATOM     11  O   UNL     1      33.380   9.156  10.625  1.00  0.00    -0.269 OA
ATOM     12  C   UNL     1      33.383   6.713   8.098  1.00  0.00     0.330 A 
ATOM     13  H   UNL     1      34.347   6.945   9.934  1.00  0.00     0.175 HD
ATOM     14  O   UNL     1      33.926   5.596   7.875  1.00  0.00    -0.248 OA
ENDBRANCH   1   6
BRANCH   2  15
ATOM     15  O   UNL     1      34.191   5.878   4.860  1.00  0.00    -0.386 OA
ATOM     16  H   UNL     1      35.051   6.372   4.819  1.00  0.00     0.211 HD
ENDBRANCH   2  15
BRANCH   3  17
ATOM     17  O   UNL     1      32.811   7.611   2.594  1.00  0.00    -0.387 OA
ATOM     18  H   UNL     1      33.432   8.246   3.037  1.00  0.00     0.211 HD
ENDBRANCH   3  17
BRANCH   4  19
ATOM     19  C   UNL     1      29.818   6.457   3.379  1.00  0.00     0.191 C 
BRANCH  19  20
ATOM     20  O   UNL     1      28.830   6.069   4.295  1.00  0.00    -0.394 OA
ATOM     21  H   UNL     1      28.843   5.076   4.322  1.00  0.00     0.210 HD
ENDBRANCH  19  20
ENDBRANCH   4  19
TORSDOF 5
ENDMDL
MODEL 3
REMARK VINA RESULT:    -4.724      4.134      5.998
REMARK INTER + INTRA:          -6.368
REMARK INTER:                  -5.796
REMARK INTRA:                  -0.572
REMARK UNBOUND:                -0.677
REMARK SMILES O=c1ccn([C@H]2O[C@H](CO)[C@@H](O)[C@@H]2O)c(=O)[nH]1
REMARK SMILES IDX 6 1 13 2 11 3 8 4 7 5 5 6 3 7 4 8 2 9 17 10 1 11 15 12 16 14
REMARK SMILES IDX 14 15 12 17 9 19 10 20
REMARK H PARENT 17 13 14 16 12 18 10 21
REMARK Flexibility Score: inf
ROOT
ATOM      1  C   UNL     1      28.287   1.209   7.216  1.00  0.00     0.255 C 
ATOM      2  C   UNL     1      27.145   0.209   7.100  1.00  0.00     0.196 C 
ATOM      3  C   UNL     1      27.119  -0.065   5.620  1.00  0.00     0.179 C 
ATOM      4  C   UNL     1      28.581   0.139   5.222  1.00  0.00     0.178 C 
ATOM      5  O   UNL     1      29.203   0.989   6.164  1.00  0.00    -0.347 OA
ENDROOT
BRANCH   1   6
ATOM      6  N   UNL     1      28.958   1.107   8.528  1.00  0.00    -0.271 N 
ATOM      7  C   UNL     1      30.110  -0.246  10.140  1.00  0.00     0.090 A 
ATOM      8  C   UNL     1      29.453  -0.106   8.920  1.00  0.00     0.099 A 
ATOM      9  C   UNL     1      30.261   0.875  10.948  1.00  0.00     0.253 A 
ATOM     10  N   UNL     1      29.776   2.075  10.536  1.00  0.00    -0.274 N 
ATOM     11  O   UNL     1      30.850   0.777  12.058  1.00  0.00    -0.269 OA
ATOM     12  C   UNL     1      29.137   2.203   9.340  1.00  0.00     0.330 A 
ATOM     13  H   UNL     1      29.901   2.916  11.145  1.00  0.00     0.175 HD
ATOM     14  O   UNL     1      28.719   3.341   8.987  1.00  0.00    -0.248 OA
ENDBRANCH   1   6
BRANCH   2  15
ATOM     15  O   UNL     1      25.939   0.777   7.541  1.00  0.00    -0.386 OA
ATOM     16  H   UNL     1      26.088   1.054   8.482  1.00  0.00     0.211 HD
ENDBRANCH   2  15
BRANCH   3  17
ATOM     17  O   UNL     1      26.706  -1.379   5.349  1.00  0.00    -0.387 OA
ATOM     18  H   UNL     1      25.739  -1.422   5.568  1.00  0.00     0.211 HD
ENDBRANCH   3  17
BRANCH   4  19
ATOM     19  C   UNL     1      28.727   0.736   3.815  1.00  0.00     0.191 C 
BRANCH  19  20
ATOM     20  O   UNL     1      27.510   0.676   3.120  1.00  0.00    -0.394 OA
ATOM     21  H   UNL     1      27.540  -0.147   2.566  1.00  0.00     0.210 HD
ENDBRANCH  19  20
ENDBRANCH   4  19
TORSDOF 5
ENDMDL
MODEL 4
REMARK VINA RESULT:    -4.606      4.668      6.534
REMARK INTER + INTRA:          -6.226
REMARK INTER:                  -5.722
REMARK INTRA:                  -0.504
REMARK UNBOUND:                -0.677
REMARK SMILES O=c1ccn([C@H]2O[C@H](CO)[C@@H](O)[C@@H]2O)c(=O)[nH]1
REMARK SMILES IDX 6 1 13 2 11 3 8 4 7 5 5 6 3 7 4 8 2 9 17 10 1 11 15 12 16 14
REMARK SMILES IDX 14 15 12 17 9 19 10 20
REMARK H PARENT 17 13 14 16 12 18 10 21
REMARK Flexibility Score: inf
ROOT
ATOM      1  C   UNL     1      28.279   1.541   6.050  1.00  0.00     0.255 C 
ATOM      2  C   UNL     1      29.421   0.686   6.584  1.00  0.00     0.196 C 
ATOM      3  C   UNL     1      29.981   1.561   7.673  1.00  0.00     0.179 C 
ATOM      4  C   UNL     1      28.751   2.343   8.133  1.00  0.00     0.178 C 
ATOM      5  O   UNL     1      27.805   2.378   7.084  1.00  0.00    -0.347 OA
ENDROOT
BRANCH   1   6
ATOM      6  N   UNL     1      27.188   0.702   5.511  1.00  0.00    -0.271 N 
ATOM      7  C   UNL     1      25.112  -0.442   5.878  1.00  0.00     0.090 A 
ATOM      8  C   UNL     1      26.170   0.332   6.346  1.00  0.00     0.099 A 
ATOM      9  C   UNL     1      25.105  -0.823   4.541  1.00  0.00     0.253 A 
ATOM     10  N   UNL     1      26.116  -0.434   3.723  1.00  0.00    -0.274 N 
ATOM     11  O   UNL     1      24.160  -1.525   4.090  1.00  0.00    -0.269 OA
ATOM     12  C   UNL     1      27.147   0.326   4.188  1.00  0.00     0.330 A 
ATOM     13  H   UNL     1      26.100  -0.717   2.716  1.00  0.00     0.175 HD
ATOM     14  O   UNL     1      28.056   0.681   3.389  1.00  0.00    -0.248 OA
ENDBRANCH   1   6
BRANCH   2  15
ATOM     15  O   UNL     1      30.370   0.441   5.579  1.00  0.00    -0.386 OA
ATOM     16  H   UNL     1      31.162   0.048   6.031  1.00  0.00     0.211 HD
ENDBRANCH   2  15
BRANCH   3  17
ATOM     17  O   UNL     1      30.508   0.795   8.725  1.00  0.00    -0.387 OA
ATOM     18  H   UNL     1      30.617  -0.128   8.375  1.00  0.00     0.211 HD
ENDBRANCH   3  17
BRANCH   4  19
ATOM     19  C   UNL     1      29.096   3.775   8.563  1.00  0.00     0.191 C 
BRANCH  19  20
ATOM     20  O   UNL     1      29.423   3.821   9.926  1.00  0.00    -0.394 OA
ATOM     21  H   UNL     1      28.693   3.351  10.409  1.00  0.00     0.210 HD
ENDBRANCH  19  20
ENDBRANCH   4  19
TORSDOF 5
ENDMDL
MODEL 5
REMARK VINA RESULT:    -4.601      1.924      3.510
REMARK INTER + INTRA:          -6.219
REMARK INTER:                  -5.760
REMARK INTRA:                  -0.459
REMARK UNBOUND:                -0.677
REMARK SMILES O=c1ccn([C@H]2O[C@H](CO)[C@@H](O)[C@@H]2O)c(=O)[nH]1
REMARK SMILES IDX 6 1 13 2 11 3 8 4 7 5 5 6 3 7 4 8 2 9 17 10 1 11 15 12 16 14
REMARK SMILES IDX 14 15 12 17 9 19 10 20
REMARK H PARENT 17 13 14 16 12 18 10 21
REMARK Flexibility Score: inf
ROOT
ATOM      1  C   UNL     1      31.029   6.163   7.234  1.00  0.00     0.255 C 
ATOM      2  C   UNL     1      32.128   5.110   7.290  1.00  0.00     0.196 C 
ATOM      3  C   UNL     1      31.420   3.956   7.947  1.00  0.00     0.179 C 
ATOM      4  C   UNL     1      29.973   4.158   7.498  1.00  0.00     0.178 C 
ATOM      5  O   UNL     1      29.774   5.519   7.176  1.00  0.00    -0.347 OA
ENDROOT
BRANCH   1   6
ATOM      6  N   UNL     1      31.211   7.068   6.080  1.00  0.00    -0.271 N 
ATOM      7  C   UNL     1      31.082   7.415   3.710  1.00  0.00     0.090 A 
ATOM      8  C   UNL     1      30.944   6.593   4.825  1.00  0.00     0.099 A 
ATOM      9  C   UNL     1      31.489   8.730   3.897  1.00  0.00     0.253 A 
ATOM     10  N   UNL     1      31.735   9.189   5.152  1.00  0.00    -0.274 N 
ATOM     11  O   UNL     1      31.624   9.496   2.905  1.00  0.00    -0.269 OA
ATOM     12  C   UNL     1      31.595   8.379   6.238  1.00  0.00     0.330 A 
ATOM     13  H   UNL     1      32.033  10.183   5.286  1.00  0.00     0.175 HD
ATOM     14  O   UNL     1      31.816   8.852   7.387  1.00  0.00    -0.248 OA
ENDBRANCH   1   6
BRANCH   2  15
ATOM     15  O   UNL     1      33.210   5.560   8.062  1.00  0.00    -0.386 OA
ATOM     16  H   UNL     1      32.821   6.062   8.825  1.00  0.00     0.211 HD
ENDBRANCH   2  15
BRANCH   3  17
ATOM     17  O   UNL     1      31.916   2.724   7.492  1.00  0.00    -0.387 OA
ATOM     18  H   UNL     1      31.304   2.026   7.842  1.00  0.00     0.211 HD
ENDBRANCH   3  17
BRANCH   4  19
ATOM     19  C   UNL     1      28.962   3.731   8.572  1.00  0.00     0.191 C 
BRANCH  19  20
ATOM     20  O   UNL     1      29.479   3.948   9.857  1.00  0.00    -0.394 OA
ATOM     21  H   UNL     1      29.260   4.887  10.096  1.00  0.00     0.210 HD
ENDBRANCH  19  20
ENDBRANCH   4  19
TORSDOF 5
ENDMDL
MODEL 6
REMARK VINA RESULT:    -4.557      3.785      5.912
REMARK INTER + INTRA:          -6.167
REMARK INTER:                  -5.599
REMARK INTRA:                  -0.568
REMARK UNBOUND:                -0.677
REMARK SMILES O=c1ccn([C@H]2O[C@H](CO)[C@@H](O)[C@@H]2O)c(=O)[nH]1
REMARK SMILES IDX 6 1 13 2 11 3 8 4 7 5 5 6 3 7 4 8 2 9 17 10 1 11 15 12 16 14
REMARK SMILES IDX 14 15 12 17 9 19 10 20
REMARK H PARENT 17 13 14 16 12 18 10 21
REMARK Flexibility Score: inf
ROOT
ATOM      1  C   UNL     1      29.437   2.083   6.861  1.00  0.00     0.255 C 
ATOM      2  C   UNL     1      29.521   1.954   8.376  1.00  0.00     0.196 C 
ATOM      3  C   UNL     1      29.929   3.343   8.785  1.00  0.00     0.179 C 
ATOM      4  C   UNL     1      29.307   4.206   7.687  1.00  0.00     0.178 C 
ATOM      5  O   UNL     1      29.125   3.420   6.527  1.00  0.00    -0.347 OA
ENDROOT
BRANCH   1   6
ATOM      6  N   UNL     1      28.436   1.153   6.297  1.00  0.00    -0.271 N 
ATOM      7  C   UNL     1      26.151   0.435   6.170  1.00  0.00     0.090 A 
ATOM      8  C   UNL     1      27.131   1.276   6.689  1.00  0.00     0.099 A 
ATOM      9  C   UNL     1      26.523  -0.527   5.239  1.00  0.00     0.253 A 
ATOM     10  N   UNL     1      27.821  -0.625   4.850  1.00  0.00    -0.274 N 
ATOM     11  O   UNL     1      25.657  -1.304   4.754  1.00  0.00    -0.269 OA
ATOM     12  C   UNL     1      28.774   0.204   5.361  1.00  0.00     0.330 A 
ATOM     13  H   UNL     1      28.092  -1.347   4.143  1.00  0.00     0.175 HD
ATOM     14  O   UNL     1      29.964   0.091   4.958  1.00  0.00    -0.248 OA
ENDBRANCH   1   6
BRANCH   2  15
ATOM     15  O   UNL     1      30.487   1.003   8.741  1.00  0.00    -0.386 OA
ATOM     16  H   UNL     1      31.147   0.976   8.000  1.00  0.00     0.211 HD
ENDBRANCH   2  15
BRANCH   3  17
ATOM     17  O   UNL     1      29.405   3.682  10.043  1.00  0.00    -0.387 OA
ATOM     18  H   UNL     1      30.167   3.674  10.678  1.00  0.00     0.211 HD
ENDBRANCH   3  17
BRANCH   4  19
ATOM     19  C   UNL     1      30.168   5.431   7.348  1.00  0.00     0.191 C 
BRANCH  19  20
ATOM     20  O   UNL     1      30.542   6.115   8.513  1.00  0.00    -0.394 OA
ATOM     21  H   UNL     1      30.490   5.459   9.256  1.00  0.00     0.210 HD
ENDBRANCH  19  20
ENDBRANCH   4  19
TORSDOF 5
ENDMDL
MODEL 7
REMARK VINA RESULT:    -4.535      9.768     10.962
REMARK INTER + INTRA:          -6.140
REMARK INTER:                  -5.477
REMARK INTRA:                  -0.663
REMARK UNBOUND:                -0.677
REMARK SMILES O=c1ccn([C@H]2O[C@H](CO)[C@@H](O)[C@@H]2O)c(=O)[nH]1
REMARK SMILES IDX 6 1 13 2 11 3 8 4 7 5 5 6 3 7 4 8 2 9 17 10 1 11 15 12 16 14
REMARK SMILES IDX 14 15 12 17 9 19 10 20
REMARK H PARENT 17 13 14 16 12 18 10 21
REMARK Flexibility Score: inf
ROOT
ATOM      1  C   UNL     1      21.082   2.666   6.959  1.00  0.00     0.255 C 
ATOM      2  C   UNL     1      20.329   2.601   5.637  1.00  0.00     0.196 C 
ATOM      3  C   UNL     1      20.862   1.328   5.037  1.00  0.00     0.179 C 
ATOM      4  C   UNL     1      21.188   0.491   6.275  1.00  0.00     0.178 C 
ATOM      5  O   UNL     1      21.404   1.354   7.373  1.00  0.00    -0.347 OA
ENDROOT
BRANCH   1   6
ATOM      6  N   UNL     1      20.291   3.364   7.993  1.00  0.00    -0.271 N 
ATOM      7  C   UNL     1      18.716   3.240   9.798  1.00  0.00     0.090 A 
ATOM      8  C   UNL     1      19.465   2.628   8.798  1.00  0.00     0.099 A 
ATOM      9  C   UNL     1      18.830   4.615   9.970  1.00  0.00     0.253 A 
ATOM     10  N   UNL     1      19.666   5.328   9.172  1.00  0.00    -0.274 N 
ATOM     11  O   UNL     1      18.161   5.196  10.866  1.00  0.00    -0.269 OA
ATOM     12  C   UNL     1      20.398   4.721   8.197  1.00  0.00     0.330 A 
ATOM     13  H   UNL     1      19.753   6.361   9.312  1.00  0.00     0.175 HD
ATOM     14  O   UNL     1      21.177   5.419   7.491  1.00  0.00    -0.248 OA
ENDBRANCH   1   6
BRANCH   2  15
ATOM     15  O   UNL     1      20.631   3.715   4.838  1.00  0.00    -0.386 OA
ATOM     16  H   UNL     1      20.008   4.436   5.115  1.00  0.00     0.211 HD
ENDBRANCH   2  15
BRANCH   3  17
ATOM     17  O   UNL     1      19.894   0.690   4.245  1.00  0.00    -0.387 OA
ATOM     18  H   UNL     1      20.204  -0.244   4.118  1.00  0.00     0.211 HD
ENDBRANCH   3  17
BRANCH   4  19
ATOM     19  C   UNL     1      22.421  -0.400   6.070  1.00  0.00     0.191 C 
BRANCH  19  20
ATOM     20  O   UNL     1      22.252  -1.237   4.958  1.00  0.00    -0.394 OA
ATOM     21  H   UNL     1      21.284  -1.450   4.908  1.00  0.00     0.210 HD
ENDBRANCH  19  20
ENDBRANCH   4  19
TORSDOF 5
ENDMDL
MODEL 8
REMARK VINA RESULT:    -4.499      8.561     10.151
REMARK INTER + INTRA:          -6.096
REMARK INTER:                  -5.451
REMARK INTRA:                  -0.645
REMARK UNBOUND:                -0.677
REMARK SMILES O=c1ccn([C@H]2O[C@H](CO)[C@@H](O)[C@@H]2O)c(=O)[nH]1
REMARK SMILES IDX 6 1 13 2 11 3 8 4 7 5 5 6 3 7 4 8 2 9 17 10 1 11 15 12 16 14
REMARK SMILES IDX 14 15 12 17 9 19 10 20
REMARK H PARENT 17 13 14 16 12 18 10 21
REMARK Flexibility Score: inf
ROOT
ATOM      1  C   UNL     1      21.752   2.250   7.147  1.00  0.00     0.255 C 
ATOM      2  C   UNL     1      20.346   2.458   6.602  1.00  0.00     0.196 C 
ATOM      3  C   UNL     1      20.078   3.893   6.970  1.00  0.00     0.179 C 
ATOM      4  C   UNL     1      21.479   4.506   6.943  1.00  0.00     0.178 C 
ATOM      5  O   UNL     1      22.435   3.486   7.152  1.00  0.00    -0.347 OA
ENDROOT
BRANCH   1   6
ATOM      6  N   UNL     1      22.490   1.243   6.356  1.00  0.00    -0.271 N 
ATOM      7  C   UNL     1      23.995   0.758   4.552  1.00  0.00     0.090 A 
ATOM      8  C   UNL     1      23.267   1.668   5.313  1.00  0.00     0.099 A 
ATOM      9  C   UNL     1      23.925  -0.591   4.879  1.00  0.00     0.253 A 
ATOM     10  N   UNL     1      23.161  -0.993   5.927  1.00  0.00    -0.274 N 
ATOM     11  O   UNL     1      24.572  -1.437   4.206  1.00  0.00    -0.269 OA
ATOM     12  C   UNL     1      22.453  -0.096   6.669  1.00  0.00     0.330 A 
ATOM     13  H   UNL     1      23.120  -2.009   6.172  1.00  0.00     0.175 HD
ATOM     14  O   UNL     1      21.771  -0.511   7.646  1.00  0.00    -0.248 OA
ENDBRANCH   1   6
BRANCH   2  15
ATOM     15  O   UNL     1      19.437   1.588   7.225  1.00  0.00    -0.386 OA
ATOM     16  H   UNL     1      18.889   2.146   7.837  1.00  0.00     0.211 HD
ENDBRANCH   2  15
BRANCH   3  17
ATOM     17  O   UNL     1      19.244   4.516   6.029  1.00  0.00    -0.387 OA
ATOM     18  H   UNL     1      19.300   5.492   6.204  1.00  0.00     0.211 HD
ENDBRANCH   3  17
BRANCH   4  19
ATOM     19  C   UNL     1      21.658   5.602   8.003  1.00  0.00     0.191 C 
BRANCH  19  20
ATOM     20  O   UNL     1      20.812   6.690   7.743  1.00  0.00    -0.394 OA
ATOM     21  H   UNL     1      21.326   7.318   7.172  1.00  0.00     0.210 HD
ENDBRANCH  19  20
ENDBRANCH   4  19
TORSDOF 5
ENDMDL
MODEL 9
REMARK VINA RESULT:    -4.422      3.934      5.965
REMARK INTER + INTRA:          -6.004
REMARK INTER:                  -5.451
REMARK INTRA:                  -0.552
REMARK UNBOUND:                -0.677
REMARK SMILES O=c1ccn([C@H]2O[C@H](CO)[C@@H](O)[C@@H]2O)c(=O)[nH]1
REMARK SMILES IDX 6 1 13 2 11 3 8 4 7 5 5 6 3 7 4 8 2 9 17 10 1 11 15 12 16 14
REMARK SMILES IDX 14 15 12 17 9 19 10 20
REMARK H PARENT 17 13 14 16 12 18 10 21
REMARK Flexibility Score: inf
ROOT
ATOM      1  C   UNL     1      31.622   8.682   7.336  1.00  0.00     0.255 C 
ATOM      2  C   UNL     1      31.457   7.242   7.805  1.00  0.00     0.196 C 
ATOM      3  C   UNL     1      31.118   6.533   6.521  1.00  0.00     0.179 C 
ATOM      4  C   UNL     1      31.845   7.379   5.476  1.00  0.00     0.178 C 
ATOM      5  O   UNL     1      32.033   8.684   5.984  1.00  0.00    -0.347 OA
ENDROOT
BRANCH   1   6
ATOM      6  N   UNL     1      32.588   9.414   8.181  1.00  0.00    -0.271 N 
ATOM      7  C   UNL     1      34.749   9.499   9.218  1.00  0.00     0.090 A 
ATOM      8  C   UNL     1      33.801   8.838   8.442  1.00  0.00     0.099 A 
ATOM      9  C   UNL     1      34.443  10.761   9.713  1.00  0.00     0.253 A 
ATOM     10  N   UNL     1      33.240  11.323   9.431  1.00  0.00    -0.274 N 
ATOM     11  O   UNL     1      35.283  11.381  10.420  1.00  0.00    -0.269 OA
ATOM     12  C   UNL     1      32.318  10.671   8.670  1.00  0.00     0.330 A 
ATOM     13  H   UNL     1      33.020  12.277   9.801  1.00  0.00     0.175 HD
ATOM     14  O   UNL     1      31.220  11.239   8.416  1.00  0.00    -0.248 OA
ENDBRANCH   1   6
BRANCH   2  15
ATOM     15  O   UNL     1      30.417   7.140   8.742  1.00  0.00    -0.386 OA
ATOM     16  H   UNL     1      29.632   6.780   8.252  1.00  0.00     0.211 HD
ENDBRANCH   2  15
BRANCH   3  17
ATOM     17  O   UNL     1      31.601   5.215   6.521  1.00  0.00    -0.387 OA
ATOM     18  H   UNL     1      31.570   4.902   7.462  1.00  0.00     0.211 HD
ENDBRANCH   3  17
BRANCH   4  19
ATOM     19  C   UNL     1      31.080   7.451   4.147  1.00  0.00     0.191 C 
BRANCH  19  20
ATOM     20  O   UNL     1      29.944   6.629   4.181  1.00  0.00    -0.394 OA
ATOM     21  H   UNL     1      30.233   5.762   4.570  1.00  0.00     0.210 HD
ENDBRANCH  19  20
ENDBRANCH   4  19
TORSDOF 5
ENDMDL
