MODEL 1
REMARK VINA RESULT:    -3.045      0.000      0.000
REMARK INTER + INTRA:          -2.766
REMARK INTER:                  -3.490
REMARK INTRA:                   0.724
REMARK UNBOUND:                 0.724
REMARK SMILES O=C([O-])C=Cc1ccc(O)cc1
REMARK SMILES IDX 6 1 7 2 12 3 8 4 11 5 9 6 5 7 4 8 2 9 1 10 3 11 10 12
REMARK H PARENT 10 13
REMARK Flexibility Score: inf
ROOT
ATOM      1  C   UNL     1      -9.487  22.610   8.658  1.00  0.00    -0.025 A 
ATOM      2  C   UNL     1      -9.570  22.853  10.037  1.00  0.00     0.012 A 
ATOM      3  C   UNL     1      -8.607  21.619   8.187  1.00  0.00     0.012 A 
ATOM      4  C   UNL     1      -8.827  22.082  10.936  1.00  0.00     0.047 A 
ATOM      5  C   UNL     1      -7.865  20.849   9.088  1.00  0.00     0.047 A 
ATOM      6  C   UNL     1      -7.976  21.075  10.463  1.00  0.00     0.115 A 
ENDROOT
BRANCH   1   7
ATOM      7  C   UNL     1     -10.240  23.473   7.724  1.00  0.00     0.010 C 
ATOM      8  C   UNL     1     -10.217  23.375   6.386  1.00  0.00     0.025 C 
BRANCH   8   9
ATOM      9  C   UNL     1      -9.585  22.291   5.610  1.00  0.00     0.064 C 
ATOM     10  O   UNL     1     -10.206  21.230   5.335  1.00  0.00    -0.545 OA
ATOM     11  O   UNL     1      -8.302  22.473   5.112  1.00  0.00    -0.545 OA
ENDBRANCH   8   9
ENDBRANCH   1   7
BRANCH   6  12
ATOM     12  O   UNL     1      -7.232  20.299  11.351  1.00  0.00    -0.508 OA
ATOM     13  H   UNL     1      -6.485  20.700  11.906  1.00  0.00     0.293 HD
ENDBRANCH   6  12
TORSDOF 3
ENDMDL
MODEL 2
REMARK VINA RESULT:    -1.815      1.612      4.733
REMARK INTER + INTRA:          -1.356
REMARK INTER:                  -1.399
REMARK INTRA:                   0.043
REMARK UNBOUND:                 0.724
REMARK SMILES O=C([O-])C=Cc1ccc(O)cc1
REMARK SMILES IDX 6 1 7 2 12 3 8 4 11 5 9 6 5 7 4 8 2 9 1 10 3 11 10 12
REMARK H PARENT 10 13
REMARK Flexibility Score: inf
ROOT
ATOM      1  C   UNL     1     -10.198  23.235   7.920  1.00  0.00    -0.025 A 
ATOM      2  C   UNL     1     -10.061  24.528   7.390  1.00  0.00     0.012 A 
ATOM      3  C   UNL     1      -9.883  22.126   7.115  1.00  0.00     0.012 A 
ATOM      4  C   UNL     1      -9.569  24.711   6.095  1.00  0.00     0.047 A 
ATOM      5  C   UNL     1      -9.391  22.312   5.820  1.00  0.00     0.047 A 
ATOM      6  C   UNL     1      -9.229  23.602   5.307  1.00  0.00     0.115 A 
ENDROOT
BRANCH   1   7
ATOM      7  C   UNL     1     -10.770  23.064   9.272  1.00  0.00     0.010 C 
ATOM      8  C   UNL     1     -10.147  22.490  10.313  1.00  0.00     0.025 C 
BRANCH   8   9
ATOM      9  C   UNL     1      -8.729  22.088  10.355  1.00  0.00     0.064 C 
ATOM     10  O   UNL     1      -7.893  22.695  11.074  1.00  0.00    -0.545 OA
ATOM     11  O   UNL     1      -8.320  20.970   9.639  1.00  0.00    -0.545 OA
ENDBRANCH   8   9
ENDBRANCH   1   7
BRANCH   6  12
ATOM     12  O   UNL     1      -8.735  23.773   4.015  1.00  0.00    -0.508 OA
ATOM     13  H   UNL     1      -7.773  24.042   3.848  1.00  0.00     0.293 HD
ENDBRANCH   6  12
TORSDOF 3
ENDMDL
MODEL 3
REMARK VINA RESULT:    -1.567      1.640      4.780
REMARK INTER + INTRA:          -1.072
REMARK INTER:                  -1.565
REMARK INTRA:                   0.492
REMARK UNBOUND:                 0.724
REMARK SMILES O=C([O-])C=Cc1ccc(O)cc1
REMARK SMILES IDX 6 1 7 2 12 3 8 4 11 5 9 6 5 7 4 8 2 9 1 10 3 11 10 12
REMARK H PARENT 10 13
REMARK Flexibility Score: inf
ROOT
ATOM      1  C   UNL     1     -10.285  23.259   7.867  1.00  0.00    -0.025 A 
ATOM      2  C   UNL     1      -9.941  22.132   7.106  1.00  0.00     0.012 A 
ATOM      3  C   UNL     1     -10.039  24.542   7.344  1.00  0.00     0.012 A 
ATOM      4  C   UNL     1      -9.409  22.282   5.821  1.00  0.00     0.047 A 
ATOM      5  C   UNL     1      -9.507  24.690   6.060  1.00  0.00     0.047 A 
ATOM      6  C   UNL     1      -9.194  23.563   5.294  1.00  0.00     0.115 A 
ENDROOT
BRANCH   1   7
ATOM      7  C   UNL     1     -10.796  23.076   9.241  1.00  0.00     0.010 C 
ATOM      8  C   UNL     1     -10.130  22.482  10.245  1.00  0.00     0.025 C 
BRANCH   8   9
ATOM      9  C   UNL     1      -8.715  22.067  10.215  1.00  0.00     0.064 C 
ATOM     10  O   UNL     1      -8.278  21.280   9.334  1.00  0.00    -0.545 OA
ATOM     11  O   UNL     1      -7.830  22.610  11.136  1.00  0.00    -0.545 OA
ENDBRANCH   8   9
ENDBRANCH   1   7
BRANCH   6  12
ATOM     12  O   UNL     1      -8.666  23.725   4.015  1.00  0.00    -0.508 OA
ATOM     13  H   UNL     1      -9.047  24.404   3.367  1.00  0.00     0.293 HD
ENDBRANCH   6  12
TORSDOF 3
ENDMDL
MODEL 4
REMARK VINA RESULT:    -0.960      1.753      2.655
REMARK INTER + INTRA:          -0.377
REMARK INTER:                  -0.084
REMARK INTRA:                  -0.293
REMARK UNBOUND:                 0.724
REMARK SMILES O=C([O-])C=Cc1ccc(O)cc1
REMARK SMILES IDX 6 1 7 2 12 3 8 4 11 5 9 6 5 7 4 8 2 9 1 10 3 11 10 12
REMARK H PARENT 10 13
REMARK Flexibility Score: inf
ROOT
ATOM      1  C   UNL     1      -9.719  22.122   6.838  1.00  0.00    -0.025 A 
ATOM      2  C   UNL     1      -8.730  21.394   7.517  1.00  0.00     0.012 A 
ATOM      3  C   UNL     1     -10.487  23.064   7.547  1.00  0.00     0.012 A 
ATOM      4  C   UNL     1      -8.475  21.640   8.869  1.00  0.00     0.047 A 
ATOM      5  C   UNL     1     -10.231  23.308   8.899  1.00  0.00     0.047 A 
ATOM      6  C   UNL     1      -9.223  22.601   9.563  1.00  0.00     0.115 A 
ENDROOT
BRANCH   1   7
ATOM      7  C   UNL     1     -10.007  21.807   5.423  1.00  0.00     0.010 C 
ATOM      8  C   UNL     1      -9.500  22.458   4.364  1.00  0.00     0.025 C 
BRANCH   8   9
ATOM      9  C   UNL     1      -8.436  23.479   4.406  1.00  0.00     0.064 C 
ATOM     10  O   UNL     1      -8.696  24.692   4.622  1.00  0.00    -0.545 OA
ATOM     11  O   UNL     1      -7.111  23.083   4.276  1.00  0.00    -0.545 OA
ENDBRANCH   8   9
ENDBRANCH   1   7
BRANCH   6  12
ATOM     12  O   UNL     1      -8.977  22.855  10.911  1.00  0.00    -0.508 OA
ATOM     13  H   UNL     1      -8.397  22.240  11.468  1.00  0.00     0.293 HD
ENDBRANCH   6  12
TORSDOF 3
ENDMDL
MODEL 5
REMARK VINA RESULT:    -0.678      2.044      5.065
REMARK INTER + INTRA:          -0.053
REMARK INTER:                  -0.863
REMARK INTRA:                   0.809
REMARK UNBOUND:                 0.724
REMARK SMILES O=C([O-])C=Cc1ccc(O)cc1
REMARK SMILES IDX 6 1 7 2 12 3 8 4 11 5 9 6 5 7 4 8 2 9 1 10 3 11 10 12
REMARK H PARENT 10 13
REMARK Flexibility Score: inf
ROOT
ATOM      1  C   UNL     1      -8.974  21.413   9.756  1.00  0.00    -0.025 A 
ATOM      2  C   UNL     1      -9.967  22.233  10.313  1.00  0.00     0.012 A 
ATOM      3  C   UNL     1      -8.606  21.596   8.411  1.00  0.00     0.012 A 
ATOM      4  C   UNL     1     -10.546  23.255   9.554  1.00  0.00     0.047 A 
ATOM      5  C   UNL     1      -9.186  22.618   7.654  1.00  0.00     0.047 A 
ATOM      6  C   UNL     1     -10.154  23.452   8.223  1.00  0.00     0.115 A 
ENDROOT
BRANCH   1   7
ATOM      7  C   UNL     1      -8.415  20.307  10.560  1.00  0.00     0.010 C 
ATOM      8  C   UNL     1      -7.477  20.434  11.512  1.00  0.00     0.025 C 
BRANCH   8   9
ATOM      9  C   UNL     1      -6.963  21.707  12.052  1.00  0.00     0.064 C 
ATOM     10  O   UNL     1      -5.858  21.770  12.652  1.00  0.00    -0.545 OA
ATOM     11  O   UNL     1      -7.682  22.875  11.833  1.00  0.00    -0.545 OA
ENDBRANCH   8   9
ENDBRANCH   1   7
BRANCH   6  12
ATOM     12  O   UNL     1     -10.723  24.468   7.458  1.00  0.00    -0.508 OA
ATOM     13  H   UNL     1     -10.691  25.436   7.755  1.00  0.00     0.293 HD
ENDBRANCH   6  12
TORSDOF 3
ENDMDL
MODEL 6
REMARK VINA RESULT:    -0.432      1.888      2.831
REMARK INTER + INTRA:           0.228
REMARK INTER:                  -0.603
REMARK INTRA:                   0.832
REMARK UNBOUND:                 0.724
REMARK SMILES O=C([O-])C=Cc1ccc(O)cc1
REMARK SMILES IDX 6 1 7 2 12 3 8 4 11 5 9 6 5 7 4 8 2 9 1 10 3 11 10 12
REMARK H PARENT 10 13
REMARK Flexibility Score: inf
ROOT
ATOM      1  C   UNL     1      -8.934  22.020   8.168  1.00  0.00    -0.025 A 
ATOM      2  C   UNL     1      -8.838  21.680   9.526  1.00  0.00     0.012 A 
ATOM      3  C   UNL     1      -9.966  22.879   7.747  1.00  0.00     0.012 A 
ATOM      4  C   UNL     1      -9.725  22.229  10.457  1.00  0.00     0.047 A 
ATOM      5  C   UNL     1     -10.852  23.427   8.680  1.00  0.00     0.047 A 
ATOM      6  C   UNL     1     -10.732  23.108  10.036  1.00  0.00     0.115 A 
ENDROOT
BRANCH   1   7
ATOM      7  C   UNL     1      -8.020  21.386   7.197  1.00  0.00     0.010 C 
ATOM      8  C   UNL     1      -8.204  21.348   5.867  1.00  0.00     0.025 C 
BRANCH   8   9
ATOM      9  C   UNL     1      -9.245  22.078   5.119  1.00  0.00     0.064 C 
ATOM     10  O   UNL     1      -8.972  23.103   4.441  1.00  0.00    -0.545 OA
ATOM     11  O   UNL     1     -10.541  21.581   5.105  1.00  0.00    -0.545 OA
ENDBRANCH   8   9
ENDBRANCH   1   7
BRANCH   6  12
ATOM     12  O   UNL     1     -11.620  23.662  10.955  1.00  0.00    -0.508 OA
ATOM     13  H   UNL     1     -12.462  23.175  11.238  1.00  0.00     0.293 HD
ENDBRANCH   6  12
TORSDOF 3
ENDMDL
MODEL 7
REMARK VINA RESULT:    -0.310      1.734      2.404
REMARK INTER + INTRA:           0.369
REMARK INTER:                  -1.146
REMARK INTRA:                   1.514
REMARK UNBOUND:                 0.724
REMARK SMILES O=C([O-])C=Cc1ccc(O)cc1
REMARK SMILES IDX 6 1 7 2 12 3 8 4 11 5 9 6 5 7 4 8 2 9 1 10 3 11 10 12
REMARK H PARENT 10 13
REMARK Flexibility Score: inf
ROOT
ATOM      1  C   UNL     1      -8.585  21.531   8.292  1.00  0.00    -0.025 A 
ATOM      2  C   UNL     1      -7.752  20.435   8.569  1.00  0.00     0.012 A 
ATOM      3  C   UNL     1      -9.053  22.323   9.355  1.00  0.00     0.012 A 
ATOM      4  C   UNL     1      -7.351  20.168   9.881  1.00  0.00     0.047 A 
ATOM      5  C   UNL     1      -8.651  22.053  10.667  1.00  0.00     0.047 A 
ATOM      6  C   UNL     1      -7.797  20.979  10.934  1.00  0.00     0.115 A 
ENDROOT
BRANCH   1   7
ATOM      7  C   UNL     1      -9.038  21.762   6.905  1.00  0.00     0.010 C 
ATOM      8  C   UNL     1      -9.858  22.749   6.510  1.00  0.00     0.025 C 
BRANCH   8   9
ATOM      9  C   UNL     1     -10.311  23.879   7.342  1.00  0.00     0.064 C 
ATOM     10  O   UNL     1     -11.002  23.698   8.379  1.00  0.00    -0.545 OA
ATOM     11  O   UNL     1      -9.908  25.167   7.014  1.00  0.00    -0.545 OA
ENDBRANCH   8   9
ENDBRANCH   1   7
BRANCH   6  12
ATOM     12  O   UNL     1      -7.403  20.722  12.245  1.00  0.00    -0.508 OA
ATOM     13  H   UNL     1      -7.826  21.204  13.029  1.00  0.00     0.293 HD
ENDBRANCH   6  12
TORSDOF 3
ENDMDL
