MODEL 1
REMARK VINA RESULT:    -5.641      0.000      0.000
REMARK INTER + INTRA:          -6.925
REMARK INTER:                  -6.795
REMARK INTRA:                  -0.130
REMARK UNBOUND:                -0.130
REMARK SMILES COC(=O)c1cc(O)c(O)c(O)c1
REMARK SMILES IDX 5 1 13 2 11 3 9 4 7 5 6 6 3 7 4 8 2 9 1 10 12 11 8 13 10 15
REMARK H PARENT 12 12 8 14 10 16
REMARK Flexibility Score: inf
ROOT
ATOM      1  C   UNL     1      79.595  62.411 105.987  1.00  0.00     0.067 A 
ATOM      2  C   UNL     1      79.212  63.564 106.695  1.00  0.00     0.066 A 
ATOM      3  C   UNL     1      78.131  63.525 107.586  1.00  0.00     0.162 A 
ATOM      4  C   UNL     1      77.420  62.333 107.777  1.00  0.00     0.200 A 
ATOM      5  C   UNL     1      77.794  61.176 107.073  1.00  0.00     0.162 A 
ATOM      6  C   UNL     1      78.877  61.219 106.184  1.00  0.00     0.066 A 
ENDROOT
BRANCH   1   7
ATOM      7  C   UNL     1      80.737  62.448 105.045  1.00  0.00     0.338 C 
ATOM      8  O   UNL     1      81.915  62.567 105.482  1.00  0.00    -0.246 OA
BRANCH   7   9
ATOM      9  O   UNL     1      80.508  62.351 103.668  1.00  0.00    -0.465 OA
ATOM     10  C   UNL     1      79.973  63.424 102.901  1.00  0.00     0.282 C 
ENDBRANCH   7   9
ENDBRANCH   1   7
BRANCH   3  11
ATOM     11  O   UNL     1      77.755  64.671 108.286  1.00  0.00    -0.504 OA
ATOM     12  H   UNL     1      78.090  64.853 109.225  1.00  0.00     0.293 HD
ENDBRANCH   3  11
BRANCH   5  13
ATOM     13  O   UNL     1      77.090  59.988 107.261  1.00  0.00    -0.504 OA
ATOM     14  H   UNL     1      77.276  59.378 108.049  1.00  0.00     0.293 HD
ENDBRANCH   5  13
BRANCH   4  15
ATOM     15  O   UNL     1      76.346  62.315 108.667  1.00  0.00    -0.502 OA
ATOM     16  H   UNL     1      75.920  63.167 109.015  1.00  0.00     0.293 HD
ENDBRANCH   4  15
TORSDOF 5
ENDMDL
MODEL 2
REMARK VINA RESULT:    -5.635      0.159      2.331
REMARK INTER + INTRA:          -6.919
REMARK INTER:                  -6.799
REMARK INTRA:                  -0.120
REMARK UNBOUND:                -0.130
REMARK SMILES COC(=O)c1cc(O)c(O)c(O)c1
REMARK SMILES IDX 5 1 13 2 11 3 9 4 7 5 6 6 3 7 4 8 2 9 1 10 12 11 8 13 10 15
REMARK H PARENT 12 12 8 14 10 16
REMARK Flexibility Score: inf
ROOT
ATOM      1  C   UNL     1      79.581  62.415 105.879  1.00  0.00     0.067 A 
ATOM      2  C   UNL     1      78.856  61.231 106.103  1.00  0.00     0.066 A 
ATOM      3  C   UNL     1      77.834  61.192 107.061  1.00  0.00     0.162 A 
ATOM      4  C   UNL     1      77.527  62.338 107.807  1.00  0.00     0.200 A 
ATOM      5  C   UNL     1      78.245  63.525 107.591  1.00  0.00     0.162 A 
ATOM      6  C   UNL     1      79.266  63.560 106.631  1.00  0.00     0.066 A 
ENDROOT
BRANCH   1   7
ATOM      7  C   UNL     1      80.660  62.460 104.867  1.00  0.00     0.338 C 
ATOM      8  O   UNL     1      81.862  62.596 105.228  1.00  0.00    -0.246 OA
BRANCH   7   9
ATOM      9  O   UNL     1      80.346  62.350 103.508  1.00  0.00    -0.465 OA
ATOM     10  C   UNL     1      80.001  63.473 102.706  1.00  0.00     0.282 C 
ENDBRANCH   7   9
ENDBRANCH   1   7
BRANCH   3  11
ATOM     11  O   UNL     1      77.118  60.016 107.279  1.00  0.00    -0.504 OA
ATOM     12  H   UNL     1      76.123  59.959 107.097  1.00  0.00     0.293 HD
ENDBRANCH   3  11
BRANCH   5  13
ATOM     13  O   UNL     1      77.942  64.668 108.331  1.00  0.00    -0.504 OA
ATOM     14  H   UNL     1      77.023  64.812 108.734  1.00  0.00     0.293 HD
ENDBRANCH   5  13
BRANCH   4  15
ATOM     15  O   UNL     1      76.507  62.279 108.757  1.00  0.00    -0.502 OA
ATOM     16  H   UNL     1      76.653  61.888 109.680  1.00  0.00     0.293 HD
ENDBRANCH   4  15
TORSDOF 5
ENDMDL
MODEL 3
REMARK VINA RESULT:    -5.529      1.579      3.232
REMARK INTER + INTRA:          -6.791
REMARK INTER:                  -6.678
REMARK INTRA:                  -0.113
REMARK UNBOUND:                -0.130
REMARK SMILES COC(=O)c1cc(O)c(O)c(O)c1
REMARK SMILES IDX 5 1 13 2 11 3 9 4 7 5 6 6 3 7 4 8 2 9 1 10 12 11 8 13 10 15
REMARK H PARENT 12 12 8 14 10 16
REMARK Flexibility Score: inf
ROOT
ATOM      1  C   UNL     1      78.425  62.746 107.112  1.00  0.00     0.067 A 
ATOM      2  C   UNL     1      77.282  62.394 107.851  1.00  0.00     0.066 A 
ATOM      3  C   UNL     1      76.868  63.176 108.938  1.00  0.00     0.162 A 
ATOM      4  C   UNL     1      77.594  64.319 109.298  1.00  0.00     0.200 A 
ATOM      5  C   UNL     1      78.738  64.679 108.566  1.00  0.00     0.162 A 
ATOM      6  C   UNL     1      79.148  63.894 107.480  1.00  0.00     0.066 A 
ENDROOT
BRANCH   1   7
ATOM      7  C   UNL     1      78.865  61.922 105.964  1.00  0.00     0.338 C 
ATOM      8  O   UNL     1      78.020  61.265 105.295  1.00  0.00    -0.246 OA
BRANCH   7   9
ATOM      9  O   UNL     1      80.220  61.873 105.620  1.00  0.00    -0.465 OA
ATOM     10  C   UNL     1      80.724  62.415 104.405  1.00  0.00     0.282 C 
ENDBRANCH   7   9
ENDBRANCH   1   7
BRANCH   3  11
ATOM     11  O   UNL     1      75.734  62.823 109.668  1.00  0.00    -0.504 OA
ATOM     12  H   UNL     1      75.373  63.415 110.407  1.00  0.00     0.293 HD
ENDBRANCH   3  11
BRANCH   5  13
ATOM     13  O   UNL     1      79.463  65.816 108.921  1.00  0.00    -0.504 OA
ATOM     14  H   UNL     1      79.495  66.634 108.324  1.00  0.00     0.293 HD
ENDBRANCH   5  13
BRANCH   4  15
ATOM     15  O   UNL     1      77.167  65.084 110.384  1.00  0.00    -0.502 OA
ATOM     16  H   UNL     1      77.497  66.030 110.539  1.00  0.00     0.293 HD
ENDBRANCH   4  15
TORSDOF 5
ENDMDL
MODEL 4
REMARK VINA RESULT:    -5.489      1.577      2.609
REMARK INTER + INTRA:          -6.742
REMARK INTER:                  -6.628
REMARK INTRA:                  -0.114
REMARK UNBOUND:                -0.130
REMARK SMILES COC(=O)c1cc(O)c(O)c(O)c1
REMARK SMILES IDX 5 1 13 2 11 3 9 4 7 5 6 6 3 7 4 8 2 9 1 10 12 11 8 13 10 15
REMARK H PARENT 12 12 8 14 10 16
REMARK Flexibility Score: inf
ROOT
ATOM      1  C   UNL     1      78.437  62.728 107.093  1.00  0.00     0.067 A 
ATOM      2  C   UNL     1      79.176  63.868 107.453  1.00  0.00     0.066 A 
ATOM      3  C   UNL     1      78.788  64.652 108.548  1.00  0.00     0.162 A 
ATOM      4  C   UNL     1      77.656  64.304 109.295  1.00  0.00     0.200 A 
ATOM      5  C   UNL     1      76.910  63.166 108.943  1.00  0.00     0.162 A 
ATOM      6  C   UNL     1      77.302  62.385 107.847  1.00  0.00     0.066 A 
ENDROOT
BRANCH   1   7
ATOM      7  C   UNL     1      78.844  61.898 105.937  1.00  0.00     0.338 C 
ATOM      8  O   UNL     1      77.980  61.247 105.288  1.00  0.00    -0.246 OA
BRANCH   7   9
ATOM      9  O   UNL     1      80.192  61.836 105.564  1.00  0.00    -0.465 OA
ATOM     10  C   UNL     1      80.672  62.361 104.332  1.00  0.00     0.282 C 
ENDBRANCH   7   9
ENDBRANCH   1   7
BRANCH   3  11
ATOM     11  O   UNL     1      79.525  65.782 108.901  1.00  0.00    -0.504 OA
ATOM     12  H   UNL     1      80.177  66.213 108.256  1.00  0.00     0.293 HD
ENDBRANCH   3  11
BRANCH   5  13
ATOM     13  O   UNL     1      75.782  62.816 109.684  1.00  0.00    -0.504 OA
ATOM     14  H   UNL     1      75.533  63.304 110.537  1.00  0.00     0.293 HD
ENDBRANCH   5  13
BRANCH   4  15
ATOM     15  O   UNL     1      77.285  65.097 110.381  1.00  0.00    -0.502 OA
ATOM     16  H   UNL     1      77.742  65.024 111.282  1.00  0.00     0.293 HD
ENDBRANCH   4  15
TORSDOF 5
ENDMDL
MODEL 5
REMARK VINA RESULT:    -5.091      6.089      7.393
REMARK INTER + INTRA:          -6.263
REMARK INTER:                  -6.182
REMARK INTRA:                  -0.080
REMARK UNBOUND:                -0.130
REMARK SMILES COC(=O)c1cc(O)c(O)c(O)c1
REMARK SMILES IDX 5 1 13 2 11 3 9 4 7 5 6 6 3 7 4 8 2 9 1 10 12 11 8 13 10 15
REMARK H PARENT 12 12 8 14 10 16
REMARK Flexibility Score: inf
ROOT
ATOM      1  C   UNL     1      72.785  60.472 104.683  1.00  0.00     0.067 A 
ATOM      2  C   UNL     1      71.684  59.615 104.510  1.00  0.00     0.066 A 
ATOM      3  C   UNL     1      71.527  58.484 105.322  1.00  0.00     0.162 A 
ATOM      4  C   UNL     1      72.472  58.197 106.315  1.00  0.00     0.200 A 
ATOM      5  C   UNL     1      73.576  59.046 106.496  1.00  0.00     0.162 A 
ATOM      6  C   UNL     1      73.728  60.177 105.682  1.00  0.00     0.066 A 
ENDROOT
BRANCH   1   7
ATOM      7  C   UNL     1      72.953  61.668 103.827  1.00  0.00     0.338 C 
ATOM      8  O   UNL     1      72.797  62.822 104.312  1.00  0.00    -0.246 OA
BRANCH   7   9
ATOM      9  O   UNL     1      73.285  61.516 102.476  1.00  0.00    -0.465 OA
ATOM     10  C   UNL     1      73.498  62.624 101.609  1.00  0.00     0.282 C 
ENDBRANCH   7   9
ENDBRANCH   1   7
BRANCH   3  11
ATOM     11  O   UNL     1      70.433  57.638 105.146  1.00  0.00    -0.504 OA
ATOM     12  H   UNL     1      70.010  57.500 104.236  1.00  0.00     0.293 HD
ENDBRANCH   3  11
BRANCH   5  13
ATOM     13  O   UNL     1      74.518  58.764 107.484  1.00  0.00    -0.504 OA
ATOM     14  H   UNL     1      74.901  57.833 107.604  1.00  0.00     0.293 HD
ENDBRANCH   5  13
BRANCH   4  15
ATOM     15  O   UNL     1      72.299  57.065 107.113  1.00  0.00    -0.502 OA
ATOM     16  H   UNL     1      72.682  56.162 106.858  1.00  0.00     0.293 HD
ENDBRANCH   4  15
TORSDOF 5
ENDMDL
MODEL 6
REMARK VINA RESULT:    -5.080      4.733      6.407
REMARK INTER + INTRA:          -6.249
REMARK INTER:                  -6.166
REMARK INTRA:                  -0.083
REMARK UNBOUND:                -0.130
REMARK SMILES COC(=O)c1cc(O)c(O)c(O)c1
REMARK SMILES IDX 5 1 13 2 11 3 9 4 7 5 6 6 3 7 4 8 2 9 1 10 12 11 8 13 10 15
REMARK H PARENT 12 12 8 14 10 16
REMARK Flexibility Score: inf
ROOT
ATOM      1  C   UNL     1      74.317  60.386 106.103  1.00  0.00     0.067 A 
ATOM      2  C   UNL     1      73.600  60.626 104.918  1.00  0.00     0.066 A 
ATOM      3  C   UNL     1      72.518  59.809 104.562  1.00  0.00     0.162 A 
ATOM      4  C   UNL     1      72.143  58.742 105.387  1.00  0.00     0.200 A 
ATOM      5  C   UNL     1      72.853  58.493 106.574  1.00  0.00     0.162 A 
ATOM      6  C   UNL     1      73.933  59.313 106.926  1.00  0.00     0.066 A 
ENDROOT
BRANCH   1   7
ATOM      7  C   UNL     1      75.459  61.247 106.482  1.00  0.00     0.338 C 
ATOM      8  O   UNL     1      75.265  62.452 106.805  1.00  0.00    -0.246 OA
BRANCH   7   9
ATOM      9  O   UNL     1      76.756  60.724 106.482  1.00  0.00    -0.465 OA
ATOM     10  C   UNL     1      77.855  61.395 107.086  1.00  0.00     0.282 C 
ENDBRANCH   7   9
ENDBRANCH   1   7
BRANCH   3  11
ATOM     11  O   UNL     1      71.811  60.051 103.385  1.00  0.00    -0.504 OA
ATOM     12  H   UNL     1      71.986  60.874 102.820  1.00  0.00     0.293 HD
ENDBRANCH   3  11
BRANCH   5  13
ATOM     13  O   UNL     1      72.482  57.432 107.399  1.00  0.00    -0.504 OA
ATOM     14  H   UNL     1      72.807  56.487 107.230  1.00  0.00     0.293 HD
ENDBRANCH   5  13
BRANCH   4  15
ATOM     15  O   UNL     1      71.064  57.939 105.015  1.00  0.00    -0.502 OA
ATOM     16  H   UNL     1      70.131  58.088 105.381  1.00  0.00     0.293 HD
ENDBRANCH   4  15
TORSDOF 5
ENDMDL
MODEL 7
REMARK VINA RESULT:    -4.997      2.524      4.982
REMARK INTER + INTRA:          -6.149
REMARK INTER:                  -6.035
REMARK INTRA:                  -0.114
REMARK UNBOUND:                -0.130
REMARK SMILES COC(=O)c1cc(O)c(O)c(O)c1
REMARK SMILES IDX 5 1 13 2 11 3 9 4 7 5 6 6 3 7 4 8 2 9 1 10 12 11 8 13 10 15
REMARK H PARENT 12 12 8 14 10 16
REMARK Flexibility Score: inf
ROOT
ATOM      1  C   UNL     1      79.460  62.855 104.043  1.00  0.00     0.067 A 
ATOM      2  C   UNL     1      80.164  63.489 103.003  1.00  0.00     0.066 A 
ATOM      3  C   UNL     1      79.566  63.675 101.750  1.00  0.00     0.162 A 
ATOM      4  C   UNL     1      78.258  63.230 101.522  1.00  0.00     0.200 A 
ATOM      5  C   UNL     1      77.546  62.596 102.554  1.00  0.00     0.162 A 
ATOM      6  C   UNL     1      78.148  62.412 103.807  1.00  0.00     0.066 A 
ENDROOT
BRANCH   1   7
ATOM      7  C   UNL     1      80.088  62.657 105.368  1.00  0.00     0.338 C 
ATOM      8  O   UNL     1      81.340  62.518 105.462  1.00  0.00    -0.246 OA
BRANCH   7   9
ATOM      9  O   UNL     1      79.293  62.622 106.519  1.00  0.00    -0.465 OA
ATOM     10  C   UNL     1      78.853  63.801 107.184  1.00  0.00     0.282 C 
ENDBRANCH   7   9
ENDBRANCH   1   7
BRANCH   3  11
ATOM     11  O   UNL     1      80.268  64.304 100.722  1.00  0.00    -0.504 OA
ATOM     12  H   UNL     1      79.794  64.851 100.013  1.00  0.00     0.293 HD
ENDBRANCH   3  11
BRANCH   5  13
ATOM     13  O   UNL     1      76.243  62.152 102.332  1.00  0.00    -0.504 OA
ATOM     14  H   UNL     1      75.495  62.794 102.094  1.00  0.00     0.293 HD
ENDBRANCH   5  13
BRANCH   4  15
ATOM     15  O   UNL     1      77.680  63.424 100.267  1.00  0.00    -0.502 OA
ATOM     16  H   UNL     1      76.698  63.647 100.155  1.00  0.00     0.293 HD
ENDBRANCH   4  15
TORSDOF 5
ENDMDL
MODEL 8
REMARK VINA RESULT:    -4.996      4.663      6.438
REMARK INTER + INTRA:          -6.149
REMARK INTER:                  -6.063
REMARK INTRA:                  -0.086
REMARK UNBOUND:                -0.130
REMARK SMILES COC(=O)c1cc(O)c(O)c(O)c1
REMARK SMILES IDX 5 1 13 2 11 3 9 4 7 5 6 6 3 7 4 8 2 9 1 10 12 11 8 13 10 15
REMARK H PARENT 12 12 8 14 10 16
REMARK Flexibility Score: inf
ROOT
ATOM      1  C   UNL     1      74.447  60.372 106.109  1.00  0.00     0.067 A 
ATOM      2  C   UNL     1      74.034  59.311 106.934  1.00  0.00     0.066 A 
ATOM      3  C   UNL     1      72.910  58.544 106.599  1.00  0.00     0.162 A 
ATOM      4  C   UNL     1      72.186  58.830 105.435  1.00  0.00     0.200 A 
ATOM      5  C   UNL     1      72.590  59.889 104.603  1.00  0.00     0.162 A 
ATOM      6  C   UNL     1      73.715  60.653 104.943  1.00  0.00     0.066 A 
ENDROOT
BRANCH   1   7
ATOM      7  C   UNL     1      75.633  61.184 106.460  1.00  0.00     0.338 C 
ATOM      8  O   UNL     1      75.587  62.443 106.378  1.00  0.00    -0.246 OA
BRANCH   7   9
ATOM      9  O   UNL     1      76.808  60.554 106.885  1.00  0.00    -0.465 OA
ATOM     10  C   UNL     1      78.090  61.158 106.764  1.00  0.00     0.282 C 
ENDBRANCH   7   9
ENDBRANCH   1   7
BRANCH   3  11
ATOM     11  O   UNL     1      72.505  57.493 107.421  1.00  0.00    -0.504 OA
ATOM     12  H   UNL     1      72.906  57.354 108.341  1.00  0.00     0.293 HD
ENDBRANCH   3  11
BRANCH   5  13
ATOM     13  O   UNL     1      71.873  60.176 103.443  1.00  0.00    -0.504 OA
ATOM     14  H   UNL     1      71.677  61.130 103.162  1.00  0.00     0.293 HD
ENDBRANCH   5  13
BRANCH   4  15
ATOM     15  O   UNL     1      71.070  58.056 105.118  1.00  0.00    -0.502 OA
ATOM     16  H   UNL     1      70.897  57.157 105.553  1.00  0.00     0.293 HD
ENDBRANCH   4  15
TORSDOF 5
ENDMDL
MODEL 9
REMARK VINA RESULT:    -4.871      2.660      2.972
REMARK INTER + INTRA:          -5.998
REMARK INTER:                  -5.901
REMARK INTRA:                  -0.097
REMARK UNBOUND:                -0.130
REMARK SMILES COC(=O)c1cc(O)c(O)c(O)c1
REMARK SMILES IDX 5 1 13 2 11 3 9 4 7 5 6 6 3 7 4 8 2 9 1 10 12 11 8 13 10 15
REMARK H PARENT 12 12 8 14 10 16
REMARK Flexibility Score: inf
ROOT
ATOM      1  C   UNL     1      77.929  61.345 104.798  1.00  0.00     0.067 A 
ATOM      2  C   UNL     1      76.636  61.750 104.422  1.00  0.00     0.066 A 
ATOM      3  C   UNL     1      75.508  61.211 105.056  1.00  0.00     0.162 A 
ATOM      4  C   UNL     1      75.662  60.260 106.073  1.00  0.00     0.200 A 
ATOM      5  C   UNL     1      76.950  59.848 106.456  1.00  0.00     0.162 A 
ATOM      6  C   UNL     1      78.074  60.391 105.819  1.00  0.00     0.066 A 
ENDROOT
BRANCH   1   7
ATOM      7  C   UNL     1      79.121  61.913 104.130  1.00  0.00     0.338 C 
ATOM      8  O   UNL     1      80.278  61.614 104.536  1.00  0.00    -0.246 OA
BRANCH   7   9
ATOM      9  O   UNL     1      78.964  62.783 103.045  1.00  0.00    -0.465 OA
ATOM     10  C   UNL     1      80.027  63.585 102.545  1.00  0.00     0.282 C 
ENDBRANCH   7   9
ENDBRANCH   1   7
BRANCH   3  11
ATOM     11  O   UNL     1      74.228  61.616 104.680  1.00  0.00    -0.504 OA
ATOM     12  H   UNL     1      73.862  61.426 103.755  1.00  0.00     0.293 HD
ENDBRANCH   3  11
BRANCH   5  13
ATOM     13  O   UNL     1      77.108  58.902 107.467  1.00  0.00    -0.504 OA
ATOM     14  H   UNL     1      77.537  59.139 108.355  1.00  0.00     0.293 HD
ENDBRANCH   5  13
BRANCH   4  15
ATOM     15  O   UNL     1      74.528  59.734 106.692  1.00  0.00    -0.502 OA
ATOM     16  H   UNL     1      74.053  60.217 107.445  1.00  0.00     0.293 HD
ENDBRANCH   4  15
TORSDOF 5
ENDMDL
