MODEL 1
REMARK VINA RESULT:    -3.540      0.000      0.000
REMARK INTER + INTRA:          -4.460
REMARK INTER:                  -4.368
REMARK INTRA:                  -0.092
REMARK UNBOUND:                -0.092
REMARK SMILES CCCCCC=O
REMARK SMILES IDX 4 1 3 2 2 3 1 4 5 5 6 6 7 7
REMARK H PARENT
REMARK Flexibility Score: inf
ROOT
ATOM      1  C   UNL     1     477.156  34.326 462.780  1.00  0.00     0.008 C 
ENDROOT
BRANCH   1   2
ATOM      2  C   UNL     1     476.916  35.772 462.321  1.00  0.00     0.000 C 
BRANCH   2   3
ATOM      3  C   UNL     1     478.062  36.263 461.430  1.00  0.00    -0.003 C 
ATOM      4  C   UNL     1     478.626  35.128 460.579  1.00  0.00     0.004 C 
ENDBRANCH   2   3
ENDBRANCH   1   2
BRANCH   1   5
ATOM      5  C   UNL     1     475.863  33.499 462.790  1.00  0.00     0.072 C 
BRANCH   5   6
ATOM      6  C   UNL     1     474.908  33.958 463.854  1.00  0.00     0.224 C 
ATOM      7  O   UNL     1     474.333  33.145 464.561  1.00  0.00    -0.303 OA
ENDBRANCH   5   6
ENDBRANCH   1   5
TORSDOF 4
ENDMDL
MODEL 2
REMARK VINA RESULT:    -3.443      0.766      1.208
REMARK INTER + INTRA:          -4.341
REMARK INTER:                  -4.275
REMARK INTRA:                  -0.066
REMARK UNBOUND:                -0.092
REMARK SMILES CCCCCC=O
REMARK SMILES IDX 4 1 3 2 2 3 1 4 5 5 6 6 7 7
REMARK H PARENT
REMARK Flexibility Score: inf
ROOT
ATOM      1  C   UNL     1     476.813  35.024 462.597  1.00  0.00     0.008 C 
ENDROOT
BRANCH   1   2
ATOM      2  C   UNL     1     477.909  34.796 461.545  1.00  0.00     0.000 C 
BRANCH   2   3
ATOM      3  C   UNL     1     478.340  36.120 460.905  1.00  0.00    -0.003 C 
ATOM      4  C   UNL     1     478.318  37.258 461.922  1.00  0.00     0.004 C 
ENDBRANCH   2   3
ENDBRANCH   1   2
BRANCH   1   5
ATOM      5  C   UNL     1     476.027  33.741 462.900  1.00  0.00     0.072 C 
BRANCH   5   6
ATOM      6  C   UNL     1     474.894  33.987 463.854  1.00  0.00     0.224 C 
ATOM      7  O   UNL     1     474.186  33.064 464.227  1.00  0.00    -0.303 OA
ENDBRANCH   5   6
ENDBRANCH   1   5
TORSDOF 4
ENDMDL
MODEL 3
REMARK VINA RESULT:    -3.443      2.738      4.414
REMARK INTER + INTRA:          -4.341
REMARK INTER:                  -4.267
REMARK INTRA:                  -0.074
REMARK UNBOUND:                -0.092
REMARK SMILES CCCCCC=O
REMARK SMILES IDX 4 1 3 2 2 3 1 4 5 5 6 6 7 7
REMARK H PARENT
REMARK Flexibility Score: inf
ROOT
ATOM      1  C   UNL     1     476.870  35.829 462.353  1.00  0.00     0.008 C 
ENDROOT
BRANCH   1   2
ATOM      2  C   UNL     1     477.105  34.459 463.005  1.00  0.00     0.000 C 
BRANCH   2   3
ATOM      3  C   UNL     1     475.919  33.522 462.757  1.00  0.00    -0.003 C 
ATOM      4  C   UNL     1     474.880  33.640 463.869  1.00  0.00     0.004 C 
ENDBRANCH   2   3
ENDBRANCH   1   2
BRANCH   1   5
ATOM      5  C   UNL     1     478.000  36.212 461.387  1.00  0.00     0.072 C 
BRANCH   5   6
ATOM      6  C   UNL     1     478.590  35.011 460.706  1.00  0.00     0.224 C 
ATOM      7  O   UNL     1     479.352  35.147 459.761  1.00  0.00    -0.303 OA
ENDBRANCH   5   6
ENDBRANCH   1   5
TORSDOF 4
ENDMDL
MODEL 4
REMARK VINA RESULT:    -3.383      2.899      4.462
REMARK INTER + INTRA:          -4.267
REMARK INTER:                  -4.180
REMARK INTRA:                  -0.087
REMARK UNBOUND:                -0.092
REMARK SMILES CCCCCC=O
REMARK SMILES IDX 4 1 3 2 2 3 1 4 5 5 6 6 7 7
REMARK H PARENT
REMARK Flexibility Score: inf
ROOT
ATOM      1  C   UNL     1     477.762  34.723 461.715  1.00  0.00     0.008 C 
ENDROOT
BRANCH   1   2
ATOM      2  C   UNL     1     477.024  33.908 462.787  1.00  0.00     0.000 C 
BRANCH   2   3
ATOM      3  C   UNL     1     475.766  34.639 463.265  1.00  0.00    -0.003 C 
ATOM      4  C   UNL     1     474.788  33.678 463.935  1.00  0.00     0.004 C 
ENDBRANCH   2   3
ENDBRANCH   1   2
BRANCH   1   5
ATOM      5  C   UNL     1     477.524  36.232 461.870  1.00  0.00     0.072 C 
BRANCH   5   6
ATOM      6  C   UNL     1     478.378  37.037 460.934  1.00  0.00     0.224 C 
ATOM      7  O   UNL     1     479.081  36.480 460.104  1.00  0.00    -0.303 OA
ENDBRANCH   5   6
ENDBRANCH   1   5
TORSDOF 4
ENDMDL
MODEL 5
REMARK VINA RESULT:    -3.149      2.855      4.410
REMARK INTER + INTRA:          -3.977
REMARK INTER:                  -3.901
REMARK INTRA:                  -0.076
REMARK UNBOUND:                -0.092
REMARK SMILES CCCCCC=O
REMARK SMILES IDX 4 1 3 2 2 3 1 4 5 5 6 6 7 7
REMARK H PARENT
REMARK Flexibility Score: inf
ROOT
ATOM      1  C   UNL     1     478.089  35.038 461.252  1.00  0.00     0.008 C 
ENDROOT
BRANCH   1   2
ATOM      2  C   UNL     1     477.030  35.197 462.352  1.00  0.00     0.000 C 
BRANCH   2   3
ATOM      3  C   UNL     1     476.755  33.859 463.047  1.00  0.00    -0.003 C 
ATOM      4  C   UNL     1     475.324  33.794 463.575  1.00  0.00     0.004 C 
ENDBRANCH   2   3
ENDBRANCH   1   2
BRANCH   1   5
ATOM      5  C   UNL     1     478.540  36.391 460.684  1.00  0.00     0.072 C 
BRANCH   5   6
ATOM      6  C   UNL     1     477.790  37.538 461.297  1.00  0.00     0.224 C 
ATOM      7  O   UNL     1     477.340  38.430 460.594  1.00  0.00    -0.303 OA
ENDBRANCH   5   6
ENDBRANCH   1   5
TORSDOF 4
ENDMDL
MODEL 6
REMARK VINA RESULT:    -3.048      1.385      2.251
REMARK INTER + INTRA:          -3.854
REMARK INTER:                  -3.750
REMARK INTRA:                  -0.104
REMARK UNBOUND:                -0.092
REMARK SMILES CCCCCC=O
REMARK SMILES IDX 4 1 3 2 2 3 1 4 5 5 6 6 7 7
REMARK H PARENT
REMARK Flexibility Score: inf
ROOT
ATOM      1  C   UNL     1     478.139  34.921 461.251  1.00  0.00     0.008 C 
ENDROOT
BRANCH   1   2
ATOM      2  C   UNL     1     478.629  36.233 460.621  1.00  0.00     0.000 C 
BRANCH   2   3
ATOM      3  C   UNL     1     478.140  37.444 461.422  1.00  0.00    -0.003 C 
ATOM      4  C   UNL     1     479.306  38.189 462.065  1.00  0.00     0.004 C 
ENDBRANCH   2   3
ENDBRANCH   1   2
BRANCH   1   5
ATOM      5  C   UNL     1     477.110  35.163 462.365  1.00  0.00     0.072 C 
BRANCH   5   6
ATOM      6  C   UNL     1     476.762  33.898 463.095  1.00  0.00     0.224 C 
ATOM      7  O   UNL     1     475.608  33.501 463.131  1.00  0.00    -0.303 OA
ENDBRANCH   5   6
ENDBRANCH   1   5
TORSDOF 4
ENDMDL
MODEL 7
REMARK VINA RESULT:    -3.034      3.459      4.822
REMARK INTER + INTRA:          -3.836
REMARK INTER:                  -3.723
REMARK INTRA:                  -0.113
REMARK UNBOUND:                -0.092
REMARK SMILES CCCCCC=O
REMARK SMILES IDX 4 1 3 2 2 3 1 4 5 5 6 6 7 7
REMARK H PARENT
REMARK Flexibility Score: inf
ROOT
ATOM      1  C   UNL     1     478.237  34.948 461.091  1.00  0.00     0.008 C 
ENDROOT
BRANCH   1   2
ATOM      2  C   UNL     1     477.481  35.988 461.930  1.00  0.00     0.000 C 
BRANCH   2   3
ATOM      3  C   UNL     1     476.379  35.325 462.763  1.00  0.00    -0.003 C 
ATOM      4  C   UNL     1     476.754  33.894 463.138  1.00  0.00     0.004 C 
ENDBRANCH   2   3
ENDBRANCH   1   2
BRANCH   1   5
ATOM      5  C   UNL     1     479.113  35.601 460.013  1.00  0.00     0.072 C 
BRANCH   5   6
ATOM      6  C   UNL     1     479.089  37.100 460.099  1.00  0.00     0.224 C 
ATOM      7  O   UNL     1     480.090  37.751 459.839  1.00  0.00    -0.303 OA
ENDBRANCH   5   6
ENDBRANCH   1   5
TORSDOF 4
ENDMDL
MODEL 8
REMARK VINA RESULT:    -2.854      3.385      4.271
REMARK INTER + INTRA:          -3.614
REMARK INTER:                  -3.492
REMARK INTRA:                  -0.122
REMARK UNBOUND:                -0.092
REMARK SMILES CCCCCC=O
REMARK SMILES IDX 4 1 3 2 2 3 1 4 5 5 6 6 7 7
REMARK H PARENT
REMARK Flexibility Score: inf
ROOT
ATOM      1  C   UNL     1     477.463  36.023 462.135  1.00  0.00     0.008 C 
ENDROOT
BRANCH   1   2
ATOM      2  C   UNL     1     478.022  37.351 461.604  1.00  0.00     0.000 C 
BRANCH   2   3
ATOM      3  C   UNL     1     476.891  38.323 461.256  1.00  0.00    -0.003 C 
ATOM      4  C   UNL     1     475.868  38.408 462.385  1.00  0.00     0.004 C 
ENDBRANCH   2   3
ENDBRANCH   1   2
BRANCH   1   5
ATOM      5  C   UNL     1     478.027  34.813 461.377  1.00  0.00     0.072 C 
BRANCH   5   6
ATOM      6  C   UNL     1     478.938  35.224 460.257  1.00  0.00     0.224 C 
ATOM      7  O   UNL     1     479.708  34.418 459.758  1.00  0.00    -0.303 OA
ENDBRANCH   5   6
ENDBRANCH   1   5
TORSDOF 4
ENDMDL
