MODEL 1
REMARK VINA RESULT:    -4.225      0.000      0.000
REMARK INTER + INTRA:          -4.712
REMARK INTER:                  -4.595
REMARK INTRA:                  -0.117
REMARK UNBOUND:                -0.117
REMARK SMILES Cc1ccc(C(C)C)cc1O
REMARK SMILES IDX 1 1 2 2 10 3 9 4 5 5 4 6 3 7 11 8 6 10 7 11 8 12
REMARK H PARENT 11 9
REMARK Flexibility Score: inf
ROOT
ATOM      1  C   UNL     1      15.876   2.365  18.537  1.00  0.00     0.048 C 
ATOM      2  C   UNL     1      14.657   3.229  18.366  1.00  0.00    -0.009 A 
ATOM      3  C   UNL     1      14.271   3.705  17.093  1.00  0.00     0.118 A 
ATOM      4  C   UNL     1      13.131   4.508  16.967  1.00  0.00     0.050 A 
ATOM      5  C   UNL     1      12.361   4.850  18.090  1.00  0.00    -0.042 A 
ATOM      6  C   UNL     1      12.752   4.374  19.354  1.00  0.00     0.004 A 
ATOM      7  C   UNL     1      13.887   3.572  19.488  1.00  0.00     0.007 A 
ENDROOT
BRANCH   3   8
ATOM      8  O   UNL     1      14.994   3.398  15.939  1.00  0.00    -0.508 OA
ATOM      9  H   UNL     1      15.987   3.572  15.847  1.00  0.00     0.293 HD
ENDBRANCH   3   8
BRANCH   5  10
ATOM     10  C   UNL     1      11.129   5.723  17.930  1.00  0.00     0.013 C 
ATOM     11  C   UNL     1      11.241   6.999  18.772  1.00  0.00     0.012 C 
ATOM     12  C   UNL     1      10.875   6.054  16.456  1.00  0.00     0.012 C 
ENDBRANCH   5  10
TORSDOF 2
ENDMDL
MODEL 2
REMARK VINA RESULT:    -4.080      2.719      5.081
REMARK INTER + INTRA:          -4.555
REMARK INTER:                  -4.429
REMARK INTRA:                  -0.127
REMARK UNBOUND:                -0.117
REMARK SMILES Cc1ccc(C(C)C)cc1O
REMARK SMILES IDX 1 1 2 2 10 3 9 4 5 5 4 6 3 7 11 8 6 10 7 11 8 12
REMARK H PARENT 11 9
REMARK Flexibility Score: inf
ROOT
ATOM      1  C   UNL     1      11.059   8.388  16.142  1.00  0.00     0.048 C 
ATOM      2  C   UNL     1      12.291   7.528  16.183  1.00  0.00    -0.009 A 
ATOM      3  C   UNL     1      12.202   6.119  16.118  1.00  0.00     0.118 A 
ATOM      4  C   UNL     1      13.368   5.346  16.159  1.00  0.00     0.050 A 
ATOM      5  C   UNL     1      14.632   5.949  16.263  1.00  0.00    -0.042 A 
ATOM      6  C   UNL     1      14.712   7.351  16.328  1.00  0.00     0.004 A 
ATOM      7  C   UNL     1      13.554   8.130  16.287  1.00  0.00     0.007 A 
ENDROOT
BRANCH   3   8
ATOM      8  O   UNL     1      10.975   5.460  16.013  1.00  0.00    -0.508 OA
ATOM      9  H   UNL     1      10.867   4.467  16.172  1.00  0.00     0.293 HD
ENDBRANCH   3   8
BRANCH   5  10
ATOM     10  C   UNL     1      15.883   5.090  16.306  1.00  0.00     0.013 C 
ATOM     11  C   UNL     1      17.115   5.926  16.674  1.00  0.00     0.012 C 
ATOM     12  C   UNL     1      15.710   3.908  17.266  1.00  0.00     0.012 C 
ENDBRANCH   5  10
TORSDOF 2
ENDMDL
MODEL 3
REMARK VINA RESULT:    -3.861      1.518      2.094
REMARK INTER + INTRA:          -4.317
REMARK INTER:                  -4.190
REMARK INTRA:                  -0.127
REMARK UNBOUND:                -0.117
REMARK SMILES Cc1ccc(C(C)C)cc1O
REMARK SMILES IDX 1 1 2 2 10 3 9 4 5 5 4 6 3 7 11 8 6 10 7 11 8 12
REMARK H PARENT 11 9
REMARK Flexibility Score: inf
ROOT
ATOM      1  C   UNL     1      16.091   2.335  18.590  1.00  0.00     0.048 C 
ATOM      2  C   UNL     1      14.874   3.161  18.277  1.00  0.00    -0.009 A 
ATOM      3  C   UNL     1      13.863   3.368  19.242  1.00  0.00     0.118 A 
ATOM      4  C   UNL     1      12.742   4.142  18.920  1.00  0.00     0.050 A 
ATOM      5  C   UNL     1      12.604   4.719  17.647  1.00  0.00    -0.042 A 
ATOM      6  C   UNL     1      13.613   4.508  16.692  1.00  0.00     0.004 A 
ATOM      7  C   UNL     1      14.736   3.738  17.005  1.00  0.00     0.007 A 
ENDROOT
BRANCH   3   8
ATOM      8  O   UNL     1      13.943   2.822  20.524  1.00  0.00    -0.508 OA
ATOM      9  H   UNL     1      13.505   3.245  21.333  1.00  0.00     0.293 HD
ENDBRANCH   3   8
BRANCH   5  10
ATOM     10  C   UNL     1      11.379   5.555  17.320  1.00  0.00     0.013 C 
ATOM     11  C   UNL     1      11.019   6.486  18.483  1.00  0.00     0.012 C 
ATOM     12  C   UNL     1      11.579   6.343  16.022  1.00  0.00     0.012 C 
ENDBRANCH   5  10
TORSDOF 2
ENDMDL
MODEL 4
REMARK VINA RESULT:    -3.796      1.930      3.770
REMARK INTER + INTRA:          -4.246
REMARK INTER:                  -4.120
REMARK INTRA:                  -0.126
REMARK UNBOUND:                -0.117
REMARK SMILES Cc1ccc(C(C)C)cc1O
REMARK SMILES IDX 1 1 2 2 10 3 9 4 5 5 4 6 3 7 11 8 6 10 7 11 8 12
REMARK H PARENT 11 9
REMARK Flexibility Score: inf
ROOT
ATOM      1  C   UNL     1      14.636   4.083  15.875  1.00  0.00     0.048 C 
ATOM      2  C   UNL     1      14.235   3.866  17.307  1.00  0.00    -0.009 A 
ATOM      3  C   UNL     1      13.002   4.347  17.802  1.00  0.00     0.118 A 
ATOM      4  C   UNL     1      12.657   4.128  19.142  1.00  0.00     0.050 A 
ATOM      5  C   UNL     1      13.521   3.437  20.006  1.00  0.00    -0.042 A 
ATOM      6  C   UNL     1      14.746   2.962  19.507  1.00  0.00     0.004 A 
ATOM      7  C   UNL     1      15.098   3.175  18.172  1.00  0.00     0.007 A 
ENDROOT
BRANCH   3   8
ATOM      8  O   UNL     1      12.101   5.040  16.993  1.00  0.00    -0.508 OA
ATOM      9  H   UNL     1      11.345   4.588  16.495  1.00  0.00     0.293 HD
ENDBRANCH   3   8
BRANCH   5  10
ATOM     10  C   UNL     1      13.126   3.212  21.455  1.00  0.00     0.013 C 
ATOM     11  C   UNL     1      13.958   2.090  22.087  1.00  0.00     0.012 C 
ATOM     12  C   UNL     1      13.239   4.507  22.265  1.00  0.00     0.012 C 
ENDBRANCH   5  10
TORSDOF 2
ENDMDL
MODEL 5
REMARK VINA RESULT:    -3.773      1.944      4.562
REMARK INTER + INTRA:          -4.221
REMARK INTER:                  -4.094
REMARK INTRA:                  -0.126
REMARK UNBOUND:                -0.117
REMARK SMILES Cc1ccc(C(C)C)cc1O
REMARK SMILES IDX 1 1 2 2 10 3 9 4 5 5 4 6 3 7 11 8 6 10 7 11 8 12
REMARK H PARENT 11 9
REMARK Flexibility Score: inf
ROOT
ATOM      1  C   UNL     1      11.841   6.626  15.875  1.00  0.00     0.048 C 
ATOM      2  C   UNL     1      12.691   5.641  16.627  1.00  0.00    -0.009 A 
ATOM      3  C   UNL     1      12.198   4.971  17.770  1.00  0.00     0.118 A 
ATOM      4  C   UNL     1      13.015   4.059  18.449  1.00  0.00     0.050 A 
ATOM      5  C   UNL     1      14.323   3.797  18.012  1.00  0.00    -0.042 A 
ATOM      6  C   UNL     1      14.807   4.468  16.876  1.00  0.00     0.004 A 
ATOM      7  C   UNL     1      13.999   5.378  16.191  1.00  0.00     0.007 A 
ENDROOT
BRANCH   3   8
ATOM      8  O   UNL     1      10.906   5.188  18.252  1.00  0.00    -0.508 OA
ATOM      9  H   UNL     1      10.706   5.389  19.224  1.00  0.00     0.293 HD
ENDBRANCH   3   8
BRANCH   5  10
ATOM     10  C   UNL     1      15.191   2.805  18.765  1.00  0.00     0.013 C 
ATOM     11  C   UNL     1      16.680   3.121  18.581  1.00  0.00     0.012 C 
ATOM     12  C   UNL     1      14.816   2.757  20.250  1.00  0.00     0.012 C 
ENDBRANCH   5  10
TORSDOF 2
ENDMDL
MODEL 6
REMARK VINA RESULT:    -3.737      1.790      3.758
REMARK INTER + INTRA:          -4.182
REMARK INTER:                  -4.077
REMARK INTRA:                  -0.105
REMARK UNBOUND:                -0.117
REMARK SMILES Cc1ccc(C(C)C)cc1O
REMARK SMILES IDX 1 1 2 2 10 3 9 4 5 5 4 6 3 7 11 8 6 10 7 11 8 12
REMARK H PARENT 11 9
REMARK Flexibility Score: inf
ROOT
ATOM      1  C   UNL     1      14.696   4.103  15.875  1.00  0.00     0.048 C 
ATOM      2  C   UNL     1      14.313   3.850  17.306  1.00  0.00    -0.009 A 
ATOM      3  C   UNL     1      15.140   3.087  18.161  1.00  0.00     0.118 A 
ATOM      4  C   UNL     1      14.755   2.870  19.490  1.00  0.00     0.050 A 
ATOM      5  C   UNL     1      13.554   3.399  19.990  1.00  0.00    -0.042 A 
ATOM      6  C   UNL     1      12.736   4.156  19.133  1.00  0.00     0.004 A 
ATOM      7  C   UNL     1      13.113   4.379  17.807  1.00  0.00     0.007 A 
ENDROOT
BRANCH   3   8
ATOM      8  O   UNL     1      16.345   2.536  17.723  1.00  0.00    -0.508 OA
ATOM      9  H   UNL     1      17.247   2.948  17.927  1.00  0.00     0.293 HD
ENDBRANCH   3   8
BRANCH   5  10
ATOM     10  C   UNL     1      13.157   3.150  21.433  1.00  0.00     0.013 C 
ATOM     11  C   UNL     1      13.695   1.802  21.930  1.00  0.00     0.012 C 
ATOM     12  C   UNL     1      13.618   4.296  22.339  1.00  0.00     0.012 C 
ENDBRANCH   5  10
TORSDOF 2
ENDMDL
