MODEL 1
REMARK VINA RESULT:    -0.292      0.000      0.000
REMARK INTER + INTRA:          -0.503
REMARK INTER:                  -0.395
REMARK INTRA:                  -0.108
REMARK UNBOUND:                -0.108
REMARK SMILES [NH3+]CCCC[C@H]([NH3+])C(=O)[O-]
REMARK SMILES IDX 4 1 3 2 2 3 1 4 5 8 6 9 7 10 8 14 9 15 10 16
REMARK H PARENT 1 5 1 6 1 7 7 11 7 12 7 13
REMARK Flexibility Score: inf
ROOT
ATOM      1  C   UNL     1      -3.183  13.758  39.939  1.00  0.00     0.012 C 
ENDROOT
BRANCH   1   2
ATOM      2  C   UNL     1      -3.881  13.995  41.283  1.00  0.00     0.061 C 
BRANCH   2   3
ATOM      3  C   UNL     1      -5.003  12.973  41.511  1.00  0.00     0.258 C 
BRANCH   3   4
ATOM      4  N   UNL     1      -6.310  13.629  41.536  1.00  0.00    -0.358 N 
ATOM      5  H   UNL     1      -6.965  13.064  42.124  1.00  0.00     0.344 HD
ATOM      6  H   UNL     1      -6.697  13.696  40.566  1.00  0.00     0.344 HD
ATOM      7  H   UNL     1      -6.225  14.586  41.950  1.00  0.00     0.344 HD
ENDBRANCH   3   4
ENDBRANCH   2   3
ENDBRANCH   1   2
BRANCH   1   8
ATOM      8  C   UNL     1      -2.737  15.086  39.308  1.00  0.00     0.072 C 
BRANCH   8   9
ATOM      9  C   UNL     1      -2.437  14.945  37.800  1.00  0.00     0.227 C 
BRANCH   9  10
ATOM     10  N   UNL     1      -2.947  13.666  37.292  1.00  0.00    -0.350 N 
ATOM     11  H   UNL     1      -2.617  12.884  37.904  1.00  0.00     0.345 HD
ATOM     12  H   UNL     1      -2.582  13.499  36.325  1.00  0.00     0.345 HD
ATOM     13  H   UNL     1      -3.992  13.667  37.268  1.00  0.00     0.345 HD
ENDBRANCH   9  10
BRANCH   9  14
ATOM     14  C   UNL     1      -0.959  15.061  37.525  1.00  0.00     0.099 C 
ATOM     15  O   UNL     1      -0.134  15.113  38.474  1.00  0.00    -0.544 OA
ATOM     16  O   UNL     1      -0.502  15.122  36.214  1.00  0.00    -0.544 OA
ENDBRANCH   9  14
ENDBRANCH   8   9
ENDBRANCH   1   8
TORSDOF 7
ENDMDL
MODEL 2
REMARK VINA RESULT:    -0.037     14.325     17.104
REMARK INTER + INTRA:          -0.158
REMARK INTER:                  -0.047
REMARK INTRA:                  -0.110
REMARK UNBOUND:                -0.108
REMARK SMILES [NH3+]CCCC[C@H]([NH3+])C(=O)[O-]
REMARK SMILES IDX 4 1 3 2 2 3 1 4 5 8 6 9 7 10 8 14 9 15 10 16
REMARK H PARENT 1 5 1 6 1 7 7 11 7 12 7 13
REMARK Flexibility Score: inf
ROOT
ATOM      1  C   UNL     1       5.465  13.766  23.993  1.00  0.00     0.012 C 
ENDROOT
BRANCH   1   2
ATOM      2  C   UNL     1       6.285  13.985  22.716  1.00  0.00     0.061 C 
BRANCH   2   3
ATOM      3  C   UNL     1       7.400  12.937  22.590  1.00  0.00     0.258 C 
BRANCH   3   4
ATOM      4  N   UNL     1       8.707  13.580  22.451  1.00  0.00    -0.358 N 
ATOM      5  H   UNL     1       8.713  14.465  23.007  1.00  0.00     0.344 HD
ATOM      6  H   UNL     1       8.889  13.809  21.446  1.00  0.00     0.344 HD
ATOM      7  H   UNL     1       9.458  12.949  22.812  1.00  0.00     0.344 HD
ENDBRANCH   3   4
ENDBRANCH   2   3
ENDBRANCH   1   2
BRANCH   1   8
ATOM      8  C   UNL     1       4.888  15.092  24.510  1.00  0.00     0.072 C 
BRANCH   8   9
ATOM      9  C   UNL     1       4.712  15.095  26.045  1.00  0.00     0.227 C 
BRANCH   9  10
ATOM     10  N   UNL     1       5.405  13.947  26.643  1.00  0.00    -0.350 N 
ATOM     11  H   UNL     1       6.427  14.155  26.728  1.00  0.00     0.345 HD
ATOM     12  H   UNL     1       5.294  13.108  26.029  1.00  0.00     0.345 HD
ATOM     13  H   UNL     1       5.018  13.733  27.590  1.00  0.00     0.345 HD
ENDBRANCH   9  10
BRANCH   9  14
ATOM     14  C   UNL     1       3.255  15.076  26.427  1.00  0.00     0.099 C 
ATOM     15  O   UNL     1       2.360  15.125  25.542  1.00  0.00    -0.544 OA
ATOM     16  O   UNL     1       2.891  15.018  27.767  1.00  0.00    -0.544 OA
ENDBRANCH   9  14
ENDBRANCH   8   9
ENDBRANCH   1   8
TORSDOF 7
ENDMDL
MODEL 3
REMARK VINA RESULT:     0.840      2.081      2.284
REMARK INTER + INTRA:           1.026
REMARK INTER:                   0.266
REMARK INTRA:                   0.760
REMARK UNBOUND:                -0.108
REMARK SMILES [NH3+]CCCC[C@H]([NH3+])C(=O)[O-]
REMARK SMILES IDX 4 1 3 2 2 3 1 4 5 8 6 9 7 10 8 14 9 15 10 16
REMARK H PARENT 1 5 1 6 1 7 7 11 7 12 7 13
REMARK Flexibility Score: inf
ROOT
ATOM      1  C   UNL     1      -2.891  15.123  39.120  1.00  0.00     0.012 C 
ENDROOT
BRANCH   1   2
ATOM      2  C   UNL     1      -3.121  14.951  40.626  1.00  0.00     0.061 C 
BRANCH   2   3
ATOM      3  C   UNL     1      -3.578  13.523  40.955  1.00  0.00     0.258 C 
BRANCH   3   4
ATOM      4  N   UNL     1      -4.916  13.526  41.546  1.00  0.00    -0.358 N 
ATOM      5  H   UNL     1      -4.834  13.679  42.577  1.00  0.00     0.344 HD
ATOM      6  H   UNL     1      -5.385  12.606  41.377  1.00  0.00     0.344 HD
ATOM      7  H   UNL     1      -5.490  14.297  41.134  1.00  0.00     0.344 HD
ENDBRANCH   3   4
ENDBRANCH   2   3
ENDBRANCH   1   2
BRANCH   1   8
ATOM      8  C   UNL     1      -1.391  15.122  38.789  1.00  0.00     0.072 C 
BRANCH   8   9
ATOM      9  C   UNL     1      -1.053  14.186  37.608  1.00  0.00     0.227 C 
BRANCH   9  10
ATOM     10  N   UNL     1      -0.954  14.951  36.359  1.00  0.00    -0.350 N 
ATOM     11  H   UNL     1      -0.368  15.804  36.510  1.00  0.00     0.345 HD
ATOM     12  H   UNL     1      -1.907  15.260  36.056  1.00  0.00     0.345 HD
ATOM     13  H   UNL     1      -0.527  14.370  35.601  1.00  0.00     0.345 HD
ENDBRANCH   9  10
BRANCH   9  14
ATOM     14  C   UNL     1      -2.081  13.093  37.466  1.00  0.00     0.099 C 
ATOM     15  O   UNL     1      -1.730  11.884  37.443  1.00  0.00    -0.544 OA
ATOM     16  O   UNL     1      -3.427  13.419  37.349  1.00  0.00    -0.544 OA
ENDBRANCH   9  14
ENDBRANCH   8   9
ENDBRANCH   1   8
TORSDOF 7
ENDMDL
MODEL 4
REMARK VINA RESULT:     1.446     23.233     24.059
REMARK INTER + INTRA:           1.845
REMARK INTER:                   1.939
REMARK INTRA:                  -0.095
REMARK UNBOUND:                -0.108
REMARK SMILES [NH3+]CCCC[C@H]([NH3+])C(=O)[O-]
REMARK SMILES IDX 4 1 3 2 2 3 1 4 5 8 6 9 7 10 8 14 9 15 10 16
REMARK H PARENT 1 5 1 6 1 7 7 11 7 12 7 13
REMARK Flexibility Score: inf
ROOT
ATOM      1  C   UNL     1      -4.092  -3.825  23.764  1.00  0.00     0.012 C 
ENDROOT
BRANCH   1   2
ATOM      2  C   UNL     1      -4.296  -3.758  22.246  1.00  0.00     0.061 C 
BRANCH   2   3
ATOM      3  C   UNL     1      -5.598  -3.025  21.896  1.00  0.00     0.258 C 
BRANCH   3   4
ATOM      4  N   UNL     1      -6.764  -3.847  22.218  1.00  0.00    -0.358 N 
ATOM      5  H   UNL     1      -7.495  -3.245  22.661  1.00  0.00     0.344 HD
ATOM      6  H   UNL     1      -6.495  -4.603  22.890  1.00  0.00     0.344 HD
ATOM      7  H   UNL     1      -7.157  -4.271  21.347  1.00  0.00     0.344 HD
ENDBRANCH   3   4
ENDBRANCH   2   3
ENDBRANCH   1   2
BRANCH   1   8
ATOM      8  C   UNL     1      -3.068  -4.909  24.134  1.00  0.00     0.072 C 
BRANCH   8   9
ATOM      9  C   UNL     1      -2.971  -5.124  25.661  1.00  0.00     0.227 C 
BRANCH   9  10
ATOM     10  N   UNL     1      -3.758  -4.112  26.373  1.00  0.00    -0.350 N 
ATOM     11  H   UNL     1      -3.150  -3.606  27.058  1.00  0.00     0.345 HD
ATOM     12  H   UNL     1      -4.532  -4.574  26.905  1.00  0.00     0.345 HD
ATOM     13  H   UNL     1      -4.169  -3.422  25.703  1.00  0.00     0.345 HD
ENDBRANCH   9  10
BRANCH   9  14
ATOM     14  C   UNL     1      -1.538  -5.089  26.126  1.00  0.00     0.099 C 
ATOM     15  O   UNL     1      -0.594  -5.114  25.293  1.00  0.00    -0.544 OA
ATOM     16  O   UNL     1      -1.252  -5.040  27.485  1.00  0.00    -0.544 OA
ENDBRANCH   9  14
ENDBRANCH   8   9
ENDBRANCH   1   8
TORSDOF 7
ENDMDL
MODEL 5
REMARK VINA RESULT:     1.569      3.370      5.273
REMARK INTER + INTRA:           2.012
REMARK INTER:                   2.125
REMARK INTRA:                  -0.113
REMARK UNBOUND:                -0.108
REMARK SMILES [NH3+]CCCC[C@H]([NH3+])C(=O)[O-]
REMARK SMILES IDX 4 1 3 2 2 3 1 4 5 8 6 9 7 10 8 14 9 15 10 16
REMARK H PARENT 1 5 1 6 1 7 7 11 7 12 7 13
REMARK Flexibility Score: inf
ROOT
ATOM      1  C   UNL     1      -3.045  13.859  37.951  1.00  0.00     0.012 C 
ENDROOT
BRANCH   1   2
ATOM      2  C   UNL     1      -2.251  15.125  37.608  1.00  0.00     0.061 C 
BRANCH   2   3
ATOM      3  C   UNL     1      -0.786  14.790  37.296  1.00  0.00     0.258 C 
BRANCH   3   4
ATOM      4  N   UNL     1      -0.459  15.121  35.909  1.00  0.00    -0.358 N 
ATOM      5  H   UNL     1       0.410  15.703  35.893  1.00  0.00     0.344 HD
ATOM      6  H   UNL     1      -1.240  15.667  35.476  1.00  0.00     0.344 HD
ATOM      7  H   UNL     1      -0.291  14.247  35.360  1.00  0.00     0.344 HD
ENDBRANCH   3   4
ENDBRANCH   2   3
ENDBRANCH   1   2
BRANCH   1   8
ATOM      8  C   UNL     1      -2.757  13.400  39.388  1.00  0.00     0.072 C 
BRANCH   8   9
ATOM      9  C   UNL     1      -3.585  14.184  40.429  1.00  0.00     0.227 C 
BRANCH   9  10
ATOM     10  N   UNL     1      -2.720  15.083  41.202  1.00  0.00    -0.350 N 
ATOM     11  H   UNL     1      -2.479  15.924  40.628  1.00  0.00     0.345 HD
ATOM     12  H   UNL     1      -1.830  14.592  41.449  1.00  0.00     0.345 HD
ATOM     13  H   UNL     1      -3.196  15.392  42.081  1.00  0.00     0.345 HD
ENDBRANCH   9  10
BRANCH   9  14
ATOM     14  C   UNL     1      -4.322  13.251  41.356  1.00  0.00     0.099 C 
ATOM     15  O   UNL     1      -3.729  12.272  41.882  1.00  0.00    -0.544 OA
ATOM     16  O   UNL     1      -5.669  13.462  41.624  1.00  0.00    -0.544 OA
ENDBRANCH   9  14
ENDBRANCH   8   9
ENDBRANCH   1   8
TORSDOF 7
ENDMDL
MODEL 6
REMARK VINA RESULT:     1.725     20.826     21.220
REMARK INTER + INTRA:           2.222
REMARK INTER:                   2.338
REMARK INTRA:                  -0.116
REMARK UNBOUND:                -0.108
REMARK SMILES [NH3+]CCCC[C@H]([NH3+])C(=O)[O-]
REMARK SMILES IDX 4 1 3 2 2 3 1 4 5 8 6 9 7 10 8 14 9 15 10 16
REMARK H PARENT 1 5 1 6 1 7 7 11 7 12 7 13
REMARK Flexibility Score: inf
ROOT
ATOM      1  C   UNL     1       7.428  -4.197  41.299  1.00  0.00     0.012 C 
ENDROOT
BRANCH   1   2
ATOM      2  C   UNL     1       6.107  -3.422  41.234  1.00  0.00     0.061 C 
BRANCH   2   3
ATOM      3  C   UNL     1       4.935  -4.354  40.898  1.00  0.00     0.258 C 
BRANCH   3   4
ATOM      4  N   UNL     1       4.755  -4.465  39.450  1.00  0.00    -0.358 N 
ATOM      5  H   UNL     1       5.434  -5.165  39.074  1.00  0.00     0.344 HD
ATOM      6  H   UNL     1       4.933  -3.541  38.995  1.00  0.00     0.344 HD
ATOM      7  H   UNL     1       3.784  -4.786  39.233  1.00  0.00     0.344 HD
ENDBRANCH   3   4
ENDBRANCH   2   3
ENDBRANCH   1   2
BRANCH   1   8
ATOM      8  C   UNL     1       8.622  -3.276  41.006  1.00  0.00     0.072 C 
BRANCH   8   9
ATOM      9  C   UNL     1       9.676  -3.954  40.103  1.00  0.00     0.227 C 
BRANCH   9  10
ATOM     10  N   UNL     1      10.985  -3.974  40.766  1.00  0.00    -0.350 N 
ATOM     11  H   UNL     1      11.003  -3.265  41.536  1.00  0.00     0.345 HD
ATOM     12  H   UNL     1      11.734  -3.727  40.079  1.00  0.00     0.345 HD
ATOM     13  H   UNL     1      11.185  -4.920  41.164  1.00  0.00     0.345 HD
ENDBRANCH   9  10
BRANCH   9  14
ATOM     14  C   UNL     1       9.781  -3.258  38.770  1.00  0.00     0.099 C 
ATOM     15  O   UNL     1      10.876  -3.225  38.150  1.00  0.00    -0.544 OA
ATOM     16  O   UNL     1       8.665  -2.637  38.223  1.00  0.00    -0.544 OA
ENDBRANCH   9  14
ENDBRANCH   8   9
ENDBRANCH   1   8
TORSDOF 7
ENDMDL
MODEL 7
REMARK VINA RESULT:     1.842     19.967     20.467
REMARK INTER + INTRA:           2.380
REMARK INTER:                   2.492
REMARK INTRA:                  -0.112
REMARK UNBOUND:                -0.108
REMARK SMILES [NH3+]CCCC[C@H]([NH3+])C(=O)[O-]
REMARK SMILES IDX 4 1 3 2 2 3 1 4 5 8 6 9 7 10 8 14 9 15 10 16
REMARK H PARENT 1 5 1 6 1 7 7 11 7 12 7 13
REMARK Flexibility Score: inf
ROOT
ATOM      1  C   UNL     1       5.528  -3.758  40.070  1.00  0.00     0.012 C 
ENDROOT
BRANCH   1   2
ATOM      2  C   UNL     1       5.940  -3.999  41.526  1.00  0.00     0.061 C 
BRANCH   2   3
ATOM      3  C   UNL     1       7.374  -3.514  41.781  1.00  0.00     0.258 C 
BRANCH   3   4
ATOM      4  N   UNL     1       8.341  -4.342  41.061  1.00  0.00    -0.358 N 
ATOM      5  H   UNL     1       7.868  -4.783  40.239  1.00  0.00     0.344 HD
ATOM      6  H   UNL     1       8.705  -5.097  41.688  1.00  0.00     0.344 HD
ATOM      7  H   UNL     1       9.134  -3.753  40.719  1.00  0.00     0.344 HD
ENDBRANCH   3   4
ENDBRANCH   2   3
ENDBRANCH   1   2
BRANCH   1   8
ATOM      8  C   UNL     1       4.513  -4.813  39.603  1.00  0.00     0.072 C 
BRANCH   8   9
ATOM      9  C   UNL     1       4.384  -4.861  38.065  1.00  0.00     0.227 C 
BRANCH   9  10
ATOM     10  N   UNL     1       5.456  -4.081  37.435  1.00  0.00    -0.350 N 
ATOM     11  H   UNL     1       6.222  -4.720  37.120  1.00  0.00     0.345 HD
ATOM     12  H   UNL     1       5.858  -3.408  38.128  1.00  0.00     0.345 HD
ATOM     13  H   UNL     1       5.093  -3.547  36.612  1.00  0.00     0.345 HD
ENDBRANCH   9  10
BRANCH   9  14
ATOM     14  C   UNL     1       3.039  -4.352  37.613  1.00  0.00     0.099 C 
ATOM     15  O   UNL     1       2.046  -5.125  37.565  1.00  0.00    -0.544 OA
ATOM     16  O   UNL     1       2.893  -3.023  37.236  1.00  0.00    -0.544 OA
ENDBRANCH   9  14
ENDBRANCH   8   9
ENDBRANCH   1   8
TORSDOF 7
ENDMDL
MODEL 8
REMARK VINA RESULT:     2.057     22.468     23.306
REMARK INTER + INTRA:           2.671
REMARK INTER:                   2.434
REMARK INTRA:                   0.237
REMARK UNBOUND:                -0.108
REMARK SMILES [NH3+]CCCC[C@H]([NH3+])C(=O)[O-]
REMARK SMILES IDX 4 1 3 2 2 3 1 4 5 8 6 9 7 10 8 14 9 15 10 16
REMARK H PARENT 1 5 1 6 1 7 7 11 7 12 7 13
REMARK Flexibility Score: inf
ROOT
ATOM      1  C   UNL     1      -3.827  -3.654  24.128  1.00  0.00     0.012 C 
ENDROOT
BRANCH   1   2
ATOM      2  C   UNL     1      -4.055  -3.973  22.646  1.00  0.00     0.061 C 
BRANCH   2   3
ATOM      3  C   UNL     1      -5.224  -3.157  22.078  1.00  0.00     0.258 C 
BRANCH   3   4
ATOM      4  N   UNL     1      -6.494  -3.854  22.279  1.00  0.00    -0.358 N 
ATOM      5  H   UNL     1      -6.641  -4.530  21.495  1.00  0.00     0.344 HD
ATOM      6  H   UNL     1      -7.284  -3.167  22.285  1.00  0.00     0.344 HD
ATOM      7  H   UNL     1      -6.477  -4.381  23.182  1.00  0.00     0.344 HD
ENDBRANCH   3   4
ENDBRANCH   2   3
ENDBRANCH   1   2
BRANCH   1   8
ATOM      8  C   UNL     1      -3.042  -4.778  24.819  1.00  0.00     0.072 C 
BRANCH   8   9
ATOM      9  C   UNL     1      -1.832  -4.243  25.615  1.00  0.00     0.227 C 
BRANCH   9  10
ATOM     10  N   UNL     1      -1.589  -5.072  26.802  1.00  0.00    -0.350 N 
ATOM     11  H   UNL     1      -1.778  -6.076  26.577  1.00  0.00     0.345 HD
ATOM     12  H   UNL     1      -2.235  -4.784  27.572  1.00  0.00     0.345 HD
ATOM     13  H   UNL     1      -0.601  -4.972  27.128  1.00  0.00     0.345 HD
ENDBRANCH   9  10
BRANCH   9  14
ATOM     14  C   UNL     1      -2.037  -2.806  26.019  1.00  0.00     0.099 C 
ATOM     15  O   UNL     1      -3.037  -2.472  26.709  1.00  0.00    -0.544 OA
ATOM     16  O   UNL     1      -1.125  -1.836  25.620  1.00  0.00    -0.544 OA
ENDBRANCH   9  14
ENDBRANCH   8   9
ENDBRANCH   1   8
TORSDOF 7
ENDMDL
