MODEL 1
REMARK VINA RESULT:    -4.422      0.000      0.000
REMARK INTER + INTRA:          -6.422
REMARK INTER:                  -5.973
REMARK INTRA:                  -0.449
REMARK UNBOUND:                -0.449
REMARK SMILES [NH3+]CCCC[C@H]([NH3+])C(=O)[O-]
REMARK SMILES IDX 4 1 3 2 2 3 1 4 5 8 6 9 7 10 8 14 9 15 10 16
REMARK H PARENT 1 5 1 6 1 7 7 11 7 12 7 13
REMARK Flexibility Score: inf
ROOT
ATOM      1  C   UNL     1       0.748  41.511  25.725  1.00  0.00     0.012 C 
ENDROOT
BRANCH   1   2
ATOM      2  C   UNL     1       0.461  41.155  24.256  1.00  0.00     0.061 C 
BRANCH   2   3
ATOM      3  C   UNL     1       0.407  42.394  23.348  1.00  0.00     0.258 C 
BRANCH   3   4
ATOM      4  N   UNL     1      -0.954  42.917  23.207  1.00  0.00    -0.358 N 
ATOM      5  H   UNL     1      -0.903  43.920  22.917  1.00  0.00     0.344 HD
ATOM      6  H   UNL     1      -1.477  42.381  22.476  1.00  0.00     0.344 HD
ATOM      7  H   UNL     1      -1.459  42.864  24.121  1.00  0.00     0.344 HD
ENDBRANCH   3   4
ENDBRANCH   2   3
ENDBRANCH   1   2
BRANCH   1   8
ATOM      8  C   UNL     1      -0.320  40.944  26.684  1.00  0.00     0.072 C 
BRANCH   8   9
ATOM      9  C   UNL     1      -1.577  41.837  26.807  1.00  0.00     0.227 C 
BRANCH   9  10
ATOM     10  N   UNL     1      -2.027  41.966  28.198  1.00  0.00    -0.350 N 
ATOM     11  H   UNL     1      -3.012  41.628  28.303  1.00  0.00     0.345 HD
ATOM     12  H   UNL     1      -1.399  41.418  28.829  1.00  0.00     0.345 HD
ATOM     13  H   UNL     1      -1.977  42.968  28.497  1.00  0.00     0.345 HD
ENDBRANCH   9  10
BRANCH   9  14
ATOM     14  C   UNL     1      -2.682  41.275  25.952  1.00  0.00     0.099 C 
ATOM     15  O   UNL     1      -3.093  40.097  26.132  1.00  0.00    -0.544 OA
ATOM     16  O   UNL     1      -3.242  42.049  24.943  1.00  0.00    -0.544 OA
ENDBRANCH   9  14
ENDBRANCH   8   9
ENDBRANCH   1   8
TORSDOF 7
ENDMDL
MODEL 2
REMARK VINA RESULT:    -4.413     14.196     14.854
REMARK INTER + INTRA:          -6.409
REMARK INTER:                  -5.988
REMARK INTRA:                  -0.421
REMARK UNBOUND:                -0.449
REMARK SMILES [NH3+]CCCC[C@H]([NH3+])C(=O)[O-]
REMARK SMILES IDX 4 1 3 2 2 3 1 4 5 8 6 9 7 10 8 14 9 15 10 16
REMARK H PARENT 1 5 1 6 1 7 7 11 7 12 7 13
REMARK Flexibility Score: inf
ROOT
ATOM      1  C   UNL     1       1.423  50.734  37.321  1.00  0.00     0.012 C 
ENDROOT
BRANCH   1   2
ATOM      2  C   UNL     1       2.789  50.910  36.634  1.00  0.00     0.061 C 
BRANCH   2   3
ATOM      3  C   UNL     1       2.730  50.637  35.122  1.00  0.00     0.258 C 
BRANCH   3   4
ATOM      4  N   UNL     1       3.145  51.800  34.334  1.00  0.00    -0.358 N 
ATOM      5  H   UNL     1       2.505  51.900  33.514  1.00  0.00     0.344 HD
ATOM      6  H   UNL     1       3.089  52.671  34.912  1.00  0.00     0.344 HD
ATOM      7  H   UNL     1       4.118  51.669  33.978  1.00  0.00     0.344 HD
ENDBRANCH   3   4
ENDBRANCH   2   3
ENDBRANCH   1   2
BRANCH   1   8
ATOM      8  C   UNL     1       0.251  50.815  36.320  1.00  0.00     0.072 C 
BRANCH   8   9
ATOM      9  C   UNL     1      -0.761  51.938  36.642  1.00  0.00     0.227 C 
BRANCH   9  10
ATOM     10  N   UNL     1      -2.141  51.439  36.691  1.00  0.00    -0.350 N 
ATOM     11  H   UNL     1      -2.787  52.169  37.071  1.00  0.00     0.345 HD
ATOM     12  H   UNL     1      -2.454  51.159  35.734  1.00  0.00     0.345 HD
ATOM     13  H   UNL     1      -2.191  50.589  37.300  1.00  0.00     0.345 HD
ENDBRANCH   9  10
BRANCH   9  14
ATOM     14  C   UNL     1      -0.641  53.037  35.619  1.00  0.00     0.099 C 
ATOM     15  O   UNL     1      -1.579  53.861  35.453  1.00  0.00    -0.544 OA
ATOM     16  O   UNL     1       0.502  53.133  34.834  1.00  0.00    -0.544 OA
ENDBRANCH   9  14
ENDBRANCH   8   9
ENDBRANCH   1   8
TORSDOF 7
ENDMDL
MODEL 3
REMARK VINA RESULT:    -4.344      2.661      3.810
REMARK INTER + INTRA:          -6.317
REMARK INTER:                  -5.902
REMARK INTRA:                  -0.415
REMARK UNBOUND:                -0.449
REMARK SMILES [NH3+]CCCC[C@H]([NH3+])C(=O)[O-]
REMARK SMILES IDX 4 1 3 2 2 3 1 4 5 8 6 9 7 10 8 14 9 15 10 16
REMARK H PARENT 1 5 1 6 1 7 7 11 7 12 7 13
REMARK Flexibility Score: inf
ROOT
ATOM      1  C   UNL     1      -1.458  39.868  26.337  1.00  0.00     0.012 C 
ENDROOT
BRANCH   1   2
ATOM      2  C   UNL     1      -2.865  40.438  26.082  1.00  0.00     0.061 C 
BRANCH   2   3
ATOM      3  C   UNL     1      -2.876  41.973  26.003  1.00  0.00     0.258 C 
BRANCH   3   4
ATOM      4  N   UNL     1      -3.303  42.455  24.687  1.00  0.00    -0.358 N 
ATOM      5  H   UNL     1      -3.634  41.642  24.119  1.00  0.00     0.344 HD
ATOM      6  H   UNL     1      -4.089  43.138  24.786  1.00  0.00     0.344 HD
ATOM      7  H   UNL     1      -2.501  42.901  24.186  1.00  0.00     0.344 HD
ENDBRANCH   3   4
ENDBRANCH   2   3
ENDBRANCH   1   2
BRANCH   1   8
ATOM      8  C   UNL     1      -0.348  40.896  26.031  1.00  0.00     0.072 C 
BRANCH   8   9
ATOM      9  C   UNL     1       0.617  40.447  24.909  1.00  0.00     0.227 C 
BRANCH   9  10
ATOM     10  N   UNL     1       1.983  40.245  25.405  1.00  0.00    -0.350 N 
ATOM     11  H   UNL     1       2.053  39.354  25.950  1.00  0.00     0.345 HD
ATOM     12  H   UNL     1       2.655  40.220  24.605  1.00  0.00     0.345 HD
ATOM     13  H   UNL     1       2.260  41.044  26.023  1.00  0.00     0.345 HD
ENDBRANCH   9  10
BRANCH   9  14
ATOM     14  C   UNL     1       0.612  41.466  23.800  1.00  0.00     0.099 C 
ATOM     15  O   UNL     1       1.593  41.562  23.016  1.00  0.00    -0.544 OA
ATOM     16  O   UNL     1      -0.472  42.324  23.649  1.00  0.00    -0.544 OA
ENDBRANCH   9  14
ENDBRANCH   8   9
ENDBRANCH   1   8
TORSDOF 7
ENDMDL
MODEL 4
REMARK VINA RESULT:    -4.333     13.453     14.437
REMARK INTER + INTRA:          -6.302
REMARK INTER:                  -5.872
REMARK INTRA:                  -0.430
REMARK UNBOUND:                -0.449
REMARK SMILES [NH3+]CCCC[C@H]([NH3+])C(=O)[O-]
REMARK SMILES IDX 4 1 3 2 2 3 1 4 5 8 6 9 7 10 8 14 9 15 10 16
REMARK H PARENT 1 5 1 6 1 7 7 11 7 12 7 13
REMARK Flexibility Score: inf
ROOT
ATOM      1  C   UNL     1      -0.810  51.194  35.377  1.00  0.00     0.012 C 
ENDROOT
BRANCH   1   2
ATOM      2  C   UNL     1      -0.512  52.638  35.817  1.00  0.00     0.061 C 
BRANCH   2   3
ATOM      3  C   UNL     1      -0.473  53.620  34.635  1.00  0.00     0.258 C 
BRANCH   3   4
ATOM      4  N   UNL     1       0.870  53.746  34.066  1.00  0.00    -0.358 N 
ATOM      5  H   UNL     1       0.897  53.250  33.147  1.00  0.00     0.344 HD
ATOM      6  H   UNL     1       1.107  54.754  33.910  1.00  0.00     0.344 HD
ATOM      7  H   UNL     1       1.576  53.306  34.698  1.00  0.00     0.344 HD
ENDBRANCH   3   4
ENDBRANCH   2   3
ENDBRANCH   1   2
BRANCH   1   8
ATOM      8  C   UNL     1       0.227  50.190  35.923  1.00  0.00     0.072 C 
BRANCH   8   9
ATOM      9  C   UNL     1       1.461  50.018  35.008  1.00  0.00     0.227 C 
BRANCH   9  10
ATOM     10  N   UNL     1       1.919  48.624  34.958  1.00  0.00    -0.350 N 
ATOM     11  H   UNL     1       2.223  48.366  33.990  1.00  0.00     0.345 HD
ATOM     12  H   UNL     1       2.713  48.484  35.623  1.00  0.00     0.345 HD
ATOM     13  H   UNL     1       1.145  47.984  35.253  1.00  0.00     0.345 HD
ENDBRANCH   9  10
BRANCH   9  14
ATOM     14  C   UNL     1       2.574  50.914  35.483  1.00  0.00     0.099 C 
ATOM     15  O   UNL     1       3.102  51.748  34.701  1.00  0.00    -0.544 OA
ATOM     16  O   UNL     1       3.040  50.809  36.789  1.00  0.00    -0.544 OA
ENDBRANCH   9  14
ENDBRANCH   8   9
ENDBRANCH   1   8
TORSDOF 7
ENDMDL
MODEL 5
REMARK VINA RESULT:    -4.165      1.691      1.862
REMARK INTER + INTRA:          -6.075
REMARK INTER:                  -5.945
REMARK INTRA:                  -0.129
REMARK UNBOUND:                -0.449
REMARK SMILES [NH3+]CCCC[C@H]([NH3+])C(=O)[O-]
REMARK SMILES IDX 4 1 3 2 2 3 1 4 5 8 6 9 7 10 8 14 9 15 10 16
REMARK H PARENT 1 5 1 6 1 7 7 11 7 12 7 13
REMARK Flexibility Score: inf
ROOT
ATOM      1  C   UNL     1       0.303  41.236  25.456  1.00  0.00     0.012 C 
ENDROOT
BRANCH   1   2
ATOM      2  C   UNL     1       0.662  41.237  23.960  1.00  0.00     0.061 C 
BRANCH   2   3
ATOM      3  C   UNL     1       0.275  42.549  23.260  1.00  0.00     0.258 C 
BRANCH   3   4
ATOM      4  N   UNL     1      -1.153  42.845  23.390  1.00  0.00    -0.358 N 
ATOM      5  H   UNL     1      -1.417  43.564  22.679  1.00  0.00     0.344 HD
ATOM      6  H   UNL     1      -1.721  41.982  23.221  1.00  0.00     0.344 HD
ATOM      7  H   UNL     1      -1.360  43.229  24.339  1.00  0.00     0.344 HD
ENDBRANCH   3   4
ENDBRANCH   2   3
ENDBRANCH   1   2
BRANCH   1   8
ATOM      8  C   UNL     1      -0.412  39.938  25.886  1.00  0.00     0.072 C 
BRANCH   8   9
ATOM      9  C   UNL     1      -1.697  40.184  26.711  1.00  0.00     0.227 C 
BRANCH   9  10
ATOM     10  N   UNL     1      -2.866  39.522  26.119  1.00  0.00    -0.350 N 
ATOM     11  H   UNL     1      -3.431  39.037  26.855  1.00  0.00     0.345 HD
ATOM     12  H   UNL     1      -3.462  40.224  25.625  1.00  0.00     0.345 HD
ATOM     13  H   UNL     1      -2.556  38.818  25.409  1.00  0.00     0.345 HD
ENDBRANCH   9  10
BRANCH   9  14
ATOM     14  C   UNL     1      -1.944  41.664  26.834  1.00  0.00     0.099 C 
ATOM     15  O   UNL     1      -2.646  42.267  25.980  1.00  0.00    -0.544 OA
ATOM     16  O   UNL     1      -1.376  42.378  27.883  1.00  0.00    -0.544 OA
ENDBRANCH   9  14
ENDBRANCH   8   9
ENDBRANCH   1   8
TORSDOF 7
ENDMDL
MODEL 6
REMARK VINA RESULT:    -4.157     13.658     14.575
REMARK INTER + INTRA:          -6.064
REMARK INTER:                  -5.898
REMARK INTRA:                  -0.166
REMARK UNBOUND:                -0.449
REMARK SMILES [NH3+]CCCC[C@H]([NH3+])C(=O)[O-]
REMARK SMILES IDX 4 1 3 2 2 3 1 4 5 8 6 9 7 10 8 14 9 15 10 16
REMARK H PARENT 1 5 1 6 1 7 7 11 7 12 7 13
REMARK Flexibility Score: inf
ROOT
ATOM      1  C   UNL     1      -0.348  51.693  35.559  1.00  0.00     0.012 C 
ENDROOT
BRANCH   1   2
ATOM      2  C   UNL     1      -0.785  53.166  35.478  1.00  0.00     0.061 C 
BRANCH   2   3
ATOM      3  C   UNL     1      -0.245  53.875  34.225  1.00  0.00     0.258 C 
BRANCH   3   4
ATOM      4  N   UNL     1       1.199  53.690  34.064  1.00  0.00    -0.358 N 
ATOM      5  H   UNL     1       1.405  52.667  34.000  1.00  0.00     0.344 HD
ATOM      6  H   UNL     1       1.531  54.155  33.188  1.00  0.00     0.344 HD
ATOM      7  H   UNL     1       1.709  54.077  34.890  1.00  0.00     0.344 HD
ENDBRANCH   3   4
ENDBRANCH   2   3
ENDBRANCH   1   2
BRANCH   1   8
ATOM      8  C   UNL     1       0.350  51.363  36.895  1.00  0.00     0.072 C 
BRANCH   8   9
ATOM      9  C   UNL     1       1.555  50.406  36.743  1.00  0.00     0.227 C 
BRANCH   9  10
ATOM     10  N   UNL     1       2.731  50.880  37.484  1.00  0.00    -0.350 N 
ATOM     11  H   UNL     1       3.615  50.579  37.010  1.00  0.00     0.345 HD
ATOM     12  H   UNL     1       2.711  51.922  37.559  1.00  0.00     0.345 HD
ATOM     13  H   UNL     1       2.719  50.494  38.457  1.00  0.00     0.345 HD
ENDBRANCH   9  10
BRANCH   9  14
ATOM     14  C   UNL     1       1.890  50.242  35.284  1.00  0.00     0.099 C 
ATOM     15  O   UNL     1       1.441  49.263  34.632  1.00  0.00    -0.544 OA
ATOM     16  O   UNL     1       2.719  51.164  34.654  1.00  0.00    -0.544 OA
ENDBRANCH   9  14
ENDBRANCH   8   9
ENDBRANCH   1   8
TORSDOF 7
ENDMDL
MODEL 7
REMARK VINA RESULT:    -4.059     14.243     14.782
REMARK INTER + INTRA:          -5.932
REMARK INTER:                  -5.447
REMARK INTRA:                  -0.484
REMARK UNBOUND:                -0.449
REMARK SMILES [NH3+]CCCC[C@H]([NH3+])C(=O)[O-]
REMARK SMILES IDX 4 1 3 2 2 3 1 4 5 8 6 9 7 10 8 14 9 15 10 16
REMARK H PARENT 1 5 1 6 1 7 7 11 7 12 7 13
REMARK Flexibility Score: inf
ROOT
ATOM      1  C   UNL     1       1.882  49.485  36.889  1.00  0.00     0.012 C 
ENDROOT
BRANCH   1   2
ATOM      2  C   UNL     1       0.807  49.490  37.990  1.00  0.00     0.061 C 
BRANCH   2   3
ATOM      3  C   UNL     1      -0.560  49.003  37.482  1.00  0.00     0.258 C 
BRANCH   3   4
ATOM      4  N   UNL     1      -1.422  50.111  37.067  1.00  0.00    -0.358 N 
ATOM      5  H   UNL     1      -2.404  49.763  36.976  1.00  0.00     0.344 HD
ATOM      6  H   UNL     1      -1.402  50.877  37.780  1.00  0.00     0.344 HD
ATOM      7  H   UNL     1      -1.118  50.480  36.137  1.00  0.00     0.344 HD
ENDBRANCH   3   4
ENDBRANCH   2   3
ENDBRANCH   1   2
BRANCH   1   8
ATOM      8  C   UNL     1       2.321  50.912  36.495  1.00  0.00     0.072 C 
BRANCH   8   9
ATOM      9  C   UNL     1       1.868  51.328  35.076  1.00  0.00     0.227 C 
BRANCH   9  10
ATOM     10  N   UNL     1       3.001  51.717  34.228  1.00  0.00    -0.350 N 
ATOM     11  H   UNL     1       3.610  50.891  34.019  1.00  0.00     0.345 HD
ATOM     12  H   UNL     1       2.654  52.131  33.334  1.00  0.00     0.345 HD
ATOM     13  H   UNL     1       3.574  52.448  34.712  1.00  0.00     0.345 HD
ENDBRANCH   9  10
BRANCH   9  14
ATOM     14  C   UNL     1       0.878  52.459  35.173  1.00  0.00     0.099 C 
ATOM     15  O   UNL     1      -0.056  52.420  36.017  1.00  0.00    -0.544 OA
ATOM     16  O   UNL     1       0.979  53.545  34.311  1.00  0.00    -0.544 OA
ENDBRANCH   9  14
ENDBRANCH   8   9
ENDBRANCH   1   8
TORSDOF 7
ENDMDL
MODEL 8
REMARK VINA RESULT:    -4.020      2.825      3.856
REMARK INTER + INTRA:          -5.879
REMARK INTER:                  -5.396
REMARK INTRA:                  -0.483
REMARK UNBOUND:                -0.449
REMARK SMILES [NH3+]CCCC[C@H]([NH3+])C(=O)[O-]
REMARK SMILES IDX 4 1 3 2 2 3 1 4 5 8 6 9 7 10 8 14 9 15 10 16
REMARK H PARENT 1 5 1 6 1 7 7 11 7 12 7 13
REMARK Flexibility Score: inf
ROOT
ATOM      1  C   UNL     1      -1.034  39.463  26.231  1.00  0.00     0.012 C 
ENDROOT
BRANCH   1   2
ATOM      2  C   UNL     1      -2.523  39.824  26.369  1.00  0.00     0.061 C 
BRANCH   2   3
ATOM      3  C   UNL     1      -2.877  41.149  25.675  1.00  0.00     0.258 C 
BRANCH   3   4
ATOM      4  N   UNL     1      -3.090  42.235  26.635  1.00  0.00    -0.358 N 
ATOM      5  H   UNL     1      -2.779  43.135  26.204  1.00  0.00     0.344 HD
ATOM      6  H   UNL     1      -4.105  42.312  26.879  1.00  0.00     0.344 HD
ATOM      7  H   UNL     1      -2.526  42.072  27.500  1.00  0.00     0.344 HD
ENDBRANCH   3   4
ENDBRANCH   2   3
ENDBRANCH   1   2
BRANCH   1   8
ATOM      8  C   UNL     1      -0.264  40.480  25.362  1.00  0.00     0.072 C 
BRANCH   8   9
ATOM      9  C   UNL     1       1.018  41.023  26.035  1.00  0.00     0.227 C 
BRANCH   9  10
ATOM     10  N   UNL     1       2.114  40.047  25.999  1.00  0.00    -0.350 N 
ATOM     11  H   UNL     1       1.961  39.343  25.240  1.00  0.00     0.345 HD
ATOM     12  H   UNL     1       3.024  40.537  25.843  1.00  0.00     0.345 HD
ATOM     13  H   UNL     1       2.179  39.549  26.917  1.00  0.00     0.345 HD
ENDBRANCH   9  10
BRANCH   9  14
ATOM     14  C   UNL     1       0.716  41.413  27.457  1.00  0.00     0.099 C 
ATOM     15  O   UNL     1       1.288  40.829  28.416  1.00  0.00    -0.544 OA
ATOM     16  O   UNL     1      -0.217  42.410  27.721  1.00  0.00    -0.544 OA
ENDBRANCH   9  14
ENDBRANCH   8   9
ENDBRANCH   1   8
TORSDOF 7
ENDMDL
MODEL 9
REMARK VINA RESULT:    -3.996     13.131     14.068
REMARK INTER + INTRA:          -5.846
REMARK INTER:                  -5.370
REMARK INTRA:                  -0.476
REMARK UNBOUND:                -0.449
REMARK SMILES [NH3+]CCCC[C@H]([NH3+])C(=O)[O-]
REMARK SMILES IDX 4 1 3 2 2 3 1 4 5 8 6 9 7 10 8 14 9 15 10 16
REMARK H PARENT 1 5 1 6 1 7 7 11 7 12 7 13
REMARK Flexibility Score: inf
ROOT
ATOM      1  C   UNL     1       0.998  50.796  37.517  1.00  0.00     0.012 C 
ENDROOT
BRANCH   1   2
ATOM      2  C   UNL     1       2.489  50.630  37.177  1.00  0.00     0.061 C 
BRANCH   2   3
ATOM      3  C   UNL     1       2.873  51.311  35.853  1.00  0.00     0.258 C 
BRANCH   3   4
ATOM      4  N   UNL     1       3.043  50.345  34.765  1.00  0.00    -0.358 N 
ATOM      5  H   UNL     1       2.762  50.796  33.864  1.00  0.00     0.344 HD
ATOM      6  H   UNL     1       4.043  50.047  34.694  1.00  0.00     0.344 HD
ATOM      7  H   UNL     1       2.431  49.512  34.919  1.00  0.00     0.344 HD
ENDBRANCH   3   4
ENDBRANCH   2   3
ENDBRANCH   1   2
BRANCH   1   8
ATOM      8  C   UNL     1       0.265  51.703  36.505  1.00  0.00     0.072 C 
BRANCH   8   9
ATOM      9  C   UNL     1      -1.029  51.075  35.937  1.00  0.00     0.227 C 
BRANCH   9  10
ATOM     10  N   UNL     1      -2.132  51.118  36.905  1.00  0.00    -0.350 N 
ATOM     11  H   UNL     1      -1.887  50.587  37.773  1.00  0.00     0.345 HD
ATOM     12  H   UNL     1      -2.354  52.109  37.151  1.00  0.00     0.345 HD
ATOM     13  H   UNL     1      -2.994  50.699  36.482  1.00  0.00     0.345 HD
ENDBRANCH   9  10
BRANCH   9  14
ATOM     14  C   UNL     1      -0.760  49.653  35.518  1.00  0.00     0.099 C 
ATOM     15  O   UNL     1       0.055  49.404  34.591  1.00  0.00    -0.544 OA
ATOM     16  O   UNL     1      -1.431  48.607  36.141  1.00  0.00    -0.544 OA
ENDBRANCH   9  14
ENDBRANCH   8   9
ENDBRANCH   1   8
TORSDOF 7
ENDMDL
