MODEL 1
REMARK VINA RESULT:    -3.816      0.000      0.000
REMARK INTER + INTRA:          -6.551
REMARK INTER:                  -5.823
REMARK INTRA:                  -0.728
REMARK UNBOUND:                -0.728
REMARK SMILES CCCCCCCCCCC(=O)[O-]
REMARK SMILES IDX 7 1 8 2 9 3 10 4 11 5 12 6 13 7 6 8 5 9 4 10 3 11 2 12 1 13
REMARK H PARENT
REMARK Flexibility Score: inf
ROOT
ATOM      1  C   UNL     1      40.878  51.364   8.898  1.00  0.00     0.000 C 
ENDROOT
BRANCH   1   2
ATOM      2  C   UNL     1      42.316  50.988   8.498  1.00  0.00     0.000 C 
BRANCH   2   3
ATOM      3  C   UNL     1      42.625  49.477   8.500  1.00  0.00     0.006 C 
BRANCH   3   4
ATOM      4  C   UNL     1      44.123  49.130   8.530  1.00  0.00     0.053 C 
BRANCH   4   5
ATOM      5  C   UNL     1      44.438  48.096   9.567  1.00  0.00     0.041 C 
ATOM      6  O   UNL     1      44.805  48.447  10.719  1.00  0.00    -0.550 OA
ATOM      7  O   UNL     1      44.294  46.747   9.271  1.00  0.00    -0.550 OA
ENDBRANCH   4   5
ENDBRANCH   3   4
ENDBRANCH   2   3
ENDBRANCH   1   2
BRANCH   1   8
ATOM      8  C   UNL     1      40.696  52.875   9.128  1.00  0.00     0.000 C 
BRANCH   8   9
ATOM      9  C   UNL     1      41.530  53.725   8.155  1.00  0.00    -0.000 C 
BRANCH   9  10
ATOM     10  C   UNL     1      42.417  54.753   8.874  1.00  0.00    -0.000 C 
BRANCH  10  11
ATOM     11  C   UNL     1      43.633  55.125   8.014  1.00  0.00    -0.000 C 
BRANCH  11  12
ATOM     12  C   UNL     1      44.012  54.020   7.017  1.00  0.00    -0.003 C 
ATOM     13  C   UNL     1      45.113  53.099   7.543  1.00  0.00     0.004 C 
ENDBRANCH  11  12
ENDBRANCH  10  11
ENDBRANCH   9  10
ENDBRANCH   8   9
ENDBRANCH   1   8
TORSDOF 9
ENDMDL
MODEL 2
REMARK VINA RESULT:    -3.675      3.387      5.987
REMARK INTER + INTRA:          -6.337
REMARK INTER:                  -6.097
REMARK INTRA:                  -0.240
REMARK UNBOUND:                -0.728
REMARK SMILES CCCCCCCCCCC(=O)[O-]
REMARK SMILES IDX 7 1 8 2 9 3 10 4 11 5 12 6 13 7 6 8 5 9 4 10 3 11 2 12 1 13
REMARK H PARENT
REMARK Flexibility Score: inf
ROOT
ATOM      1  C   UNL     1      42.129  50.362   9.158  1.00  0.00     0.000 C 
ENDROOT
BRANCH   1   2
ATOM      2  C   UNL     1      41.585  51.614   8.447  1.00  0.00     0.000 C 
BRANCH   2   3
ATOM      3  C   UNL     1      40.428  52.332   9.172  1.00  0.00     0.006 C 
BRANCH   3   4
ATOM      4  C   UNL     1      40.348  53.844   8.909  1.00  0.00     0.053 C 
BRANCH   4   5
ATOM      5  C   UNL     1      41.686  54.506   9.037  1.00  0.00     0.041 C 
ATOM      6  O   UNL     1      42.104  54.875  10.166  1.00  0.00    -0.550 OA
ATOM      7  O   UNL     1      42.484  54.685   7.915  1.00  0.00    -0.550 OA
ENDBRANCH   4   5
ENDBRANCH   3   4
ENDBRANCH   2   3
ENDBRANCH   1   2
BRANCH   1   8
ATOM      8  C   UNL     1      42.991  49.479   8.239  1.00  0.00     0.000 C 
BRANCH   8   9
ATOM      9  C   UNL     1      44.492  49.787   8.364  1.00  0.00    -0.000 C 
BRANCH   9  10
ATOM     10  C   UNL     1      45.120  49.178   9.627  1.00  0.00    -0.000 C 
BRANCH  10  11
ATOM     11  C   UNL     1      44.367  47.911  10.057  1.00  0.00    -0.000 C 
BRANCH  11  12
ATOM     12  C   UNL     1      45.104  46.623   9.662  1.00  0.00    -0.003 C 
ATOM     13  C   UNL     1      45.070  46.358   8.156  1.00  0.00     0.004 C 
ENDBRANCH  11  12
ENDBRANCH  10  11
ENDBRANCH   9  10
ENDBRANCH   8   9
ENDBRANCH   1   8
TORSDOF 9
ENDMDL
MODEL 3
REMARK VINA RESULT:    -3.649     18.846     19.848
REMARK INTER + INTRA:          -6.297
REMARK INTER:                  -5.540
REMARK INTRA:                  -0.757
REMARK UNBOUND:                -0.728
REMARK SMILES CCCCCCCCCCC(=O)[O-]
REMARK SMILES IDX 7 1 8 2 9 3 10 4 11 5 12 6 13 7 6 8 5 9 4 10 3 11 2 12 1 13
REMARK H PARENT
REMARK Flexibility Score: inf
ROOT
ATOM      1  C   UNL     1      33.443  51.550  25.939  1.00  0.00     0.000 C 
ENDROOT
BRANCH   1   2
ATOM      2  C   UNL     1      33.946  50.566  24.867  1.00  0.00     0.000 C 
BRANCH   2   3
ATOM      3  C   UNL     1      34.566  49.262  25.410  1.00  0.00     0.006 C 
BRANCH   3   4
ATOM      4  C   UNL     1      33.615  48.054  25.408  1.00  0.00     0.053 C 
BRANCH   4   5
ATOM      5  C   UNL     1      34.347  46.765  25.630  1.00  0.00     0.041 C 
ATOM      6  O   UNL     1      35.605  46.753  25.685  1.00  0.00    -0.550 OA
ATOM      7  O   UNL     1      33.639  45.585  25.809  1.00  0.00    -0.550 OA
ENDBRANCH   4   5
ENDBRANCH   3   4
ENDBRANCH   2   3
ENDBRANCH   1   2
BRANCH   1   8
ATOM      8  C   UNL     1      33.268  52.981  25.403  1.00  0.00     0.000 C 
BRANCH   8   9
ATOM      9  C   UNL     1      32.028  53.681  25.984  1.00  0.00    -0.000 C 
BRANCH   9  10
ATOM     10  C   UNL     1      30.858  53.737  24.989  1.00  0.00    -0.000 C 
BRANCH  10  11
ATOM     11  C   UNL     1      29.698  52.847  25.458  1.00  0.00    -0.000 C 
BRANCH  11  12
ATOM     12  C   UNL     1      29.789  51.417  24.905  1.00  0.00    -0.003 C 
ATOM     13  C   UNL     1      30.496  51.349  23.550  1.00  0.00     0.004 C 
ENDBRANCH  11  12
ENDBRANCH  10  11
ENDBRANCH   9  10
ENDBRANCH   8   9
ENDBRANCH   1   8
TORSDOF 9
ENDMDL
MODEL 4
REMARK VINA RESULT:    -3.516     18.791     19.735
REMARK INTER + INTRA:          -6.094
REMARK INTER:                  -5.250
REMARK INTRA:                  -0.844
REMARK UNBOUND:                -0.728
REMARK SMILES CCCCCCCCCCC(=O)[O-]
REMARK SMILES IDX 7 1 8 2 9 3 10 4 11 5 12 6 13 7 6 8 5 9 4 10 3 11 2 12 1 13
REMARK H PARENT
REMARK Flexibility Score: inf
ROOT
ATOM      1  C   UNL     1      32.911  49.952  24.723  1.00  0.00     0.000 C 
ENDROOT
BRANCH   1   2
ATOM      2  C   UNL     1      34.432  50.009  24.953  1.00  0.00     0.000 C 
BRANCH   2   3
ATOM      3  C   UNL     1      34.961  49.103  26.085  1.00  0.00     0.006 C 
BRANCH   3   4
ATOM      4  C   UNL     1      35.732  47.864  25.603  1.00  0.00     0.053 C 
BRANCH   4   5
ATOM      5  C   UNL     1      34.946  46.604  25.800  1.00  0.00     0.041 C 
ATOM      6  O   UNL     1      35.535  45.493  25.859  1.00  0.00    -0.550 OA
ATOM      7  O   UNL     1      33.566  46.660  25.949  1.00  0.00    -0.550 OA
ENDBRANCH   4   5
ENDBRANCH   3   4
ENDBRANCH   2   3
ENDBRANCH   1   2
BRANCH   1   8
ATOM      8  C   UNL     1      32.109  49.895  26.035  1.00  0.00     0.000 C 
BRANCH   8   9
ATOM      9  C   UNL     1      30.793  50.686  25.958  1.00  0.00    -0.000 C 
BRANCH   9  10
ATOM     10  C   UNL     1      30.678  51.522  24.674  1.00  0.00    -0.000 C 
BRANCH  10  11
ATOM     11  C   UNL     1      30.419  52.999  25.003  1.00  0.00    -0.000 C 
BRANCH  11  12
ATOM     12  C   UNL     1      31.604  53.904  24.633  1.00  0.00    -0.003 C 
ATOM     13  C   UNL     1      32.878  53.557  25.405  1.00  0.00     0.004 C 
ENDBRANCH  11  12
ENDBRANCH  10  11
ENDBRANCH   9  10
ENDBRANCH   8   9
ENDBRANCH   1   8
TORSDOF 9
ENDMDL
MODEL 5
REMARK VINA RESULT:    -3.507     11.470     13.670
REMARK INTER + INTRA:          -6.081
REMARK INTER:                  -4.992
REMARK INTRA:                  -1.089
REMARK UNBOUND:                -0.728
REMARK SMILES CCCCCCCCCCC(=O)[O-]
REMARK SMILES IDX 7 1 8 2 9 3 10 4 11 5 12 6 13 7 6 8 5 9 4 10 3 11 2 12 1 13
REMARK H PARENT
REMARK Flexibility Score: inf
ROOT
ATOM      1  C   UNL     1      32.040  47.893   8.099  1.00  0.00     0.000 C 
ENDROOT
BRANCH   1   2
ATOM      2  C   UNL     1      31.707  48.261   6.642  1.00  0.00     0.000 C 
BRANCH   2   3
ATOM      3  C   UNL     1      31.579  49.772   6.358  1.00  0.00     0.006 C 
BRANCH   3   4
ATOM      4  C   UNL     1      32.399  50.671   7.298  1.00  0.00     0.053 C 
BRANCH   4   5
ATOM      5  C   UNL     1      32.271  52.120   6.940  1.00  0.00     0.041 C 
ATOM      6  O   UNL     1      31.152  52.593   6.607  1.00  0.00    -0.550 OA
ATOM      7  O   UNL     1      33.379  52.954   7.006  1.00  0.00    -0.550 OA
ENDBRANCH   4   5
ENDBRANCH   3   4
ENDBRANCH   2   3
ENDBRANCH   1   2
BRANCH   1   8
ATOM      8  C   UNL     1      31.248  46.674   8.604  1.00  0.00     0.000 C 
BRANCH   8   9
ATOM      9  C   UNL     1      30.123  46.261   7.642  1.00  0.00    -0.000 C 
BRANCH   9  10
ATOM     10  C   UNL     1      28.723  46.480   8.237  1.00  0.00    -0.000 C 
BRANCH  10  11
ATOM     11  C   UNL     1      28.716  47.682   9.193  1.00  0.00    -0.000 C 
BRANCH  11  12
ATOM     12  C   UNL     1      28.253  48.977   8.510  1.00  0.00    -0.003 C 
ATOM     13  C   UNL     1      29.091  50.192   8.914  1.00  0.00     0.004 C 
ENDBRANCH  11  12
ENDBRANCH  10  11
ENDBRANCH   9  10
ENDBRANCH   8   9
ENDBRANCH   1   8
TORSDOF 9
ENDMDL
MODEL 6
REMARK VINA RESULT:    -3.419     12.055     13.930
REMARK INTER + INTRA:          -5.946
REMARK INTER:                  -4.790
REMARK INTRA:                  -1.156
REMARK UNBOUND:                -0.728
REMARK SMILES CCCCCCCCCCC(=O)[O-]
REMARK SMILES IDX 7 1 8 2 9 3 10 4 11 5 12 6 13 7 6 8 5 9 4 10 3 11 2 12 1 13
REMARK H PARENT
REMARK Flexibility Score: inf
ROOT
ATOM      1  C   UNL     1      31.972  48.411   7.305  1.00  0.00     0.000 C 
ENDROOT
BRANCH   1   2
ATOM      2  C   UNL     1      31.875  47.452   8.505  1.00  0.00     0.000 C 
BRANCH   2   3
ATOM      3  C   UNL     1      31.199  46.097   8.211  1.00  0.00     0.006 C 
BRANCH   3   4
ATOM      4  C   UNL     1      30.205  46.119   7.038  1.00  0.00     0.053 C 
BRANCH   4   5
ATOM      5  C   UNL     1      29.477  44.817   6.896  1.00  0.00     0.041 C 
ATOM      6  O   UNL     1      30.013  43.856   6.284  1.00  0.00    -0.550 OA
ATOM      7  O   UNL     1      28.222  44.655   7.468  1.00  0.00    -0.550 OA
ENDBRANCH   4   5
ENDBRANCH   3   4
ENDBRANCH   2   3
ENDBRANCH   1   2
BRANCH   1   8
ATOM      8  C   UNL     1      32.333  49.849   7.715  1.00  0.00     0.000 C 
BRANCH   8   9
ATOM      9  C   UNL     1      31.138  50.811   7.610  1.00  0.00    -0.000 C 
BRANCH   9  10
ATOM     10  C   UNL     1      29.941  50.191   6.871  1.00  0.00    -0.000 C 
BRANCH  10  11
ATOM     11  C   UNL     1      28.678  50.234   7.743  1.00  0.00    -0.000 C 
BRANCH  11  12
ATOM     12  C   UNL     1      28.854  49.494   9.077  1.00  0.00    -0.003 C 
ATOM     13  C   UNL     1      28.116  48.155   9.115  1.00  0.00     0.004 C 
ENDBRANCH  11  12
ENDBRANCH  10  11
ENDBRANCH   9  10
ENDBRANCH   8   9
ENDBRANCH   1   8
TORSDOF 9
ENDMDL
MODEL 7
REMARK VINA RESULT:    -3.391     13.104     14.929
REMARK INTER + INTRA:          -5.904
REMARK INTER:                  -4.892
REMARK INTRA:                  -1.012
REMARK UNBOUND:                -0.728
REMARK SMILES CCCCCCCCCCC(=O)[O-]
REMARK SMILES IDX 7 1 8 2 9 3 10 4 11 5 12 6 13 7 6 8 5 9 4 10 3 11 2 12 1 13
REMARK H PARENT
REMARK Flexibility Score: inf
ROOT
ATOM      1  C   UNL     1      30.223  46.737   8.531  1.00  0.00     0.000 C 
ENDROOT
BRANCH   1   2
ATOM      2  C   UNL     1      29.210  47.752   9.091  1.00  0.00     0.000 C 
BRANCH   2   3
ATOM      3  C   UNL     1      27.838  47.769   8.386  1.00  0.00     0.006 C 
BRANCH   3   4
ATOM      4  C   UNL     1      26.632  47.655   9.333  1.00  0.00     0.053 C 
BRANCH   4   5
ATOM      5  C   UNL     1      26.263  46.228   9.600  1.00  0.00     0.041 C 
ATOM      6  O   UNL     1      26.685  45.313   8.845  1.00  0.00    -0.550 OA
ATOM      7  O   UNL     1      25.481  45.906  10.701  1.00  0.00    -0.550 OA
ENDBRANCH   4   5
ENDBRANCH   3   4
ENDBRANCH   2   3
ENDBRANCH   1   2
BRANCH   1   8
ATOM      8  C   UNL     1      31.640  47.319   8.394  1.00  0.00     0.000 C 
BRANCH   8   9
ATOM      9  C   UNL     1      31.739  48.375   7.281  1.00  0.00    -0.000 C 
BRANCH   9  10
ATOM     10  C   UNL     1      32.319  49.709   7.777  1.00  0.00    -0.000 C 
BRANCH  10  11
ATOM     11  C   UNL     1      31.210  50.756   7.955  1.00  0.00    -0.000 C 
BRANCH  11  12
ATOM     12  C   UNL     1      30.087  50.609   6.918  1.00  0.00    -0.003 C 
ATOM     13  C   UNL     1      28.760  51.202   7.393  1.00  0.00     0.004 C 
ENDBRANCH  11  12
ENDBRANCH  10  11
ENDBRANCH   9  10
ENDBRANCH   8   9
ENDBRANCH   1   8
TORSDOF 9
ENDMDL
MODEL 8
REMARK VINA RESULT:    -3.391     19.132     20.574
REMARK INTER + INTRA:          -5.903
REMARK INTER:                  -5.356
REMARK INTRA:                  -0.547
REMARK UNBOUND:                -0.728
REMARK SMILES CCCCCCCCCCC(=O)[O-]
REMARK SMILES IDX 7 1 8 2 9 3 10 4 11 5 12 6 13 7 6 8 5 9 4 10 3 11 2 12 1 13
REMARK H PARENT
REMARK Flexibility Score: inf
ROOT
ATOM      1  C   UNL     1      32.846  50.196  24.840  1.00  0.00     0.000 C 
ENDROOT
BRANCH   1   2
ATOM      2  C   UNL     1      32.091  51.413  25.403  1.00  0.00     0.000 C 
BRANCH   2   3
ATOM      3  C   UNL     1      32.900  52.726  25.448  1.00  0.00     0.006 C 
BRANCH   3   4
ATOM      4  C   UNL     1      32.104  53.951  25.925  1.00  0.00     0.053 C 
BRANCH   4   5
ATOM      5  C   UNL     1      30.938  54.245  25.031  1.00  0.00     0.041 C 
ATOM      6  O   UNL     1      31.127  54.710  23.877  1.00  0.00    -0.550 OA
ATOM      7  O   UNL     1      29.646  53.974  25.461  1.00  0.00    -0.550 OA
ENDBRANCH   4   5
ENDBRANCH   3   4
ENDBRANCH   2   3
ENDBRANCH   1   2
BRANCH   1   8
ATOM      8  C   UNL     1      34.371  50.306  25.011  1.00  0.00     0.000 C 
BRANCH   8   9
ATOM      9  C   UNL     1      34.923  49.309  26.044  1.00  0.00    -0.000 C 
BRANCH   9  10
ATOM     10  C   UNL     1      35.624  48.107  25.392  1.00  0.00    -0.000 C 
BRANCH  10  11
ATOM     11  C   UNL     1      35.028  46.785  25.897  1.00  0.00    -0.000 C 
BRANCH  11  12
ATOM     12  C   UNL     1      33.492  46.776  25.858  1.00  0.00    -0.003 C 
ATOM     13  C   UNL     1      32.925  45.553  25.136  1.00  0.00     0.004 C 
ENDBRANCH  11  12
ENDBRANCH  10  11
ENDBRANCH   9  10
ENDBRANCH   8   9
ENDBRANCH   1   8
TORSDOF 9
ENDMDL
MODEL 9
REMARK VINA RESULT:    -3.365     12.665     14.906
REMARK INTER + INTRA:          -5.864
REMARK INTER:                  -5.033
REMARK INTRA:                  -0.832
REMARK UNBOUND:                -0.728
REMARK SMILES CCCCCCCCCCC(=O)[O-]
REMARK SMILES IDX 7 1 8 2 9 3 10 4 11 5 12 6 13 7 6 8 5 9 4 10 3 11 2 12 1 13
REMARK H PARENT
REMARK Flexibility Score: inf
ROOT
ATOM      1  C   UNL     1      31.681  47.296   8.490  1.00  0.00     0.000 C 
ENDROOT
BRANCH   1   2
ATOM      2  C   UNL     1      31.911  48.311   7.356  1.00  0.00     0.000 C 
BRANCH   2   3
ATOM      3  C   UNL     1      32.304  49.730   7.813  1.00  0.00     0.006 C 
BRANCH   3   4
ATOM      4  C   UNL     1      31.392  50.848   7.283  1.00  0.00     0.053 C 
BRANCH   4   5
ATOM      5  C   UNL     1      29.977  50.685   7.748  1.00  0.00     0.041 C 
ATOM      6  O   UNL     1      29.083  50.321   6.939  1.00  0.00    -0.550 OA
ATOM      7  O   UNL     1      29.653  50.901   9.081  1.00  0.00    -0.550 OA
ENDBRANCH   4   5
ENDBRANCH   3   4
ENDBRANCH   2   3
ENDBRANCH   1   2
BRANCH   1   8
ATOM      8  C   UNL     1      30.748  46.143   8.081  1.00  0.00     0.000 C 
BRANCH   8   9
ATOM      9  C   UNL     1      29.270  46.564   8.044  1.00  0.00    -0.000 C 
BRANCH   9  10
ATOM     10  C   UNL     1      28.873  47.442   9.242  1.00  0.00    -0.000 C 
BRANCH  10  11
ATOM     11  C   UNL     1      27.448  47.988   9.072  1.00  0.00    -0.000 C 
BRANCH  11  12
ATOM     12  C   UNL     1      26.434  46.892   8.710  1.00  0.00    -0.003 C 
ATOM     13  C   UNL     1      26.002  46.061   9.919  1.00  0.00     0.004 C 
ENDBRANCH  11  12
ENDBRANCH  10  11
ENDBRANCH   9  10
ENDBRANCH   8   9
ENDBRANCH   1   8
TORSDOF 9
ENDMDL
