MODEL 1
REMARK VINA RESULT:    -4.398      0.000      0.000
REMARK INTER + INTRA:         -12.779
REMARK INTER:                 -10.055
REMARK INTRA:                  -2.724
REMARK UNBOUND:                -2.724
REMARK SMILES CCCCCCCCCCCCCCCCCCCCCCCC(=O)[O-]
REMARK SMILES IDX 13 1 14 2 15 3 16 4 17 5 18 6 19 7 20 8 21 9 22 10 23 11
REMARK SMILES IDX 24 12 25 13 26 14 12 15 11 16 10 17 9 18 8 19 7 20 6 21 5 22
REMARK SMILES IDX 4 23 3 24 2 25 1 26
REMARK H PARENT
REMARK Flexibility Score: inf
ROOT
ATOM      1  C   UNL     1     302.155 324.240 644.184  1.00  0.00     0.000 C 
ENDROOT
BRANCH   1   2
ATOM      2  C   UNL     1     300.710 324.044 643.688  1.00  0.00     0.000 C 
BRANCH   2   3
ATOM      3  C   UNL     1     299.714 325.001 644.360  1.00  0.00     0.000 C 
BRANCH   3   4
ATOM      4  C   UNL     1     299.132 324.381 645.639  1.00  0.00     0.000 C 
BRANCH   4   5
ATOM      5  C   UNL     1     299.315 325.285 646.869  1.00  0.00     0.000 C 
BRANCH   5   6
ATOM      6  C   UNL     1     300.091 324.592 648.002  1.00  0.00     0.000 C 
BRANCH   6   7
ATOM      7  C   UNL     1     301.145 323.598 647.481  1.00  0.00     0.000 C 
BRANCH   7   8
ATOM      8  C   UNL     1     302.563 323.789 648.056  1.00  0.00     0.000 C 
BRANCH   8   9
ATOM      9  C   UNL     1     303.670 322.980 647.353  1.00  0.00     0.000 C 
BRANCH   9  10
ATOM     10  C   UNL     1     304.489 322.057 648.274  1.00  0.00     0.006 C 
BRANCH  10  11
ATOM     11  C   UNL     1     304.819 322.705 649.625  1.00  0.00     0.053 C 
BRANCH  11  12
ATOM     12  C   UNL     1     305.361 321.683 650.575  1.00  0.00     0.041 C 
ATOM     13  O   UNL     1     306.148 322.028 651.495  1.00  0.00    -0.550 OA
ATOM     14  O   UNL     1     304.960 320.357 650.471  1.00  0.00    -0.550 OA
ENDBRANCH  11  12
ENDBRANCH  10  11
ENDBRANCH   9  10
ENDBRANCH   8   9
ENDBRANCH   7   8
ENDBRANCH   6   7
ENDBRANCH   5   6
ENDBRANCH   4   5
ENDBRANCH   3   4
ENDBRANCH   2   3
ENDBRANCH   1   2
BRANCH   1  15
ATOM     15  C   UNL     1     302.684 325.688 644.115  1.00  0.00     0.000 C 
BRANCH  15  16
ATOM     16  C   UNL     1     303.103 326.302 645.463  1.00  0.00     0.000 C 
BRANCH  16  17
ATOM     17  C   UNL     1     302.658 327.765 645.618  1.00  0.00     0.000 C 
BRANCH  17  18
ATOM     18  C   UNL     1     301.149 327.964 645.379  1.00  0.00    -0.000 C 
BRANCH  18  19
ATOM     19  C   UNL     1     300.786 328.976 644.278  1.00  0.00    -0.000 C 
BRANCH  19  20
ATOM     20  C   UNL     1     300.660 330.417 644.802  1.00  0.00    -0.000 C 
BRANCH  20  21
ATOM     21  C   UNL     1     299.465 331.162 644.183  1.00  0.00    -0.000 C 
BRANCH  21  22
ATOM     22  C   UNL     1     299.864 331.992 642.950  1.00  0.00    -0.000 C 
BRANCH  22  23
ATOM     23  C   UNL     1     300.480 333.354 643.318  1.00  0.00    -0.000 C 
BRANCH  23  24
ATOM     24  C   UNL     1     299.823 334.063 644.516  1.00  0.00    -0.000 C 
BRANCH  24  25
ATOM     25  C   UNL     1     300.841 334.751 645.436  1.00  0.00    -0.003 C 
ATOM     26  C   UNL     1     301.652 333.725 646.222  1.00  0.00     0.004 C 
ENDBRANCH  24  25
ENDBRANCH  23  24
ENDBRANCH  22  23
ENDBRANCH  21  22
ENDBRANCH  20  21
ENDBRANCH  19  20
ENDBRANCH  18  19
ENDBRANCH  17  18
ENDBRANCH  16  17
ENDBRANCH  15  16
ENDBRANCH   1  15
TORSDOF 22
ENDMDL
MODEL 2
REMARK VINA RESULT:    -4.164      4.381      9.671
REMARK INTER + INTRA:         -12.243
REMARK INTER:                  -9.383
REMARK INTRA:                  -2.860
REMARK UNBOUND:                -2.724
REMARK SMILES CCCCCCCCCCCCCCCCCCCCCCCC(=O)[O-]
REMARK SMILES IDX 13 1 14 2 15 3 16 4 17 5 18 6 19 7 20 8 21 9 22 10 23 11
REMARK SMILES IDX 24 12 25 13 26 14 12 15 11 16 10 17 9 18 8 19 7 20 6 21 5 22
REMARK SMILES IDX 4 23 3 24 2 25 1 26
REMARK H PARENT
REMARK Flexibility Score: inf
ROOT
ATOM      1  C   UNL     1     302.682 326.081 644.366  1.00  0.00     0.000 C 
ENDROOT
BRANCH   1   2
ATOM      2  C   UNL     1     301.873 327.345 644.018  1.00  0.00     0.000 C 
BRANCH   2   3
ATOM      3  C   UNL     1     301.764 328.325 645.196  1.00  0.00     0.000 C 
BRANCH   3   4
ATOM      4  C   UNL     1     300.406 329.043 645.191  1.00  0.00     0.000 C 
BRANCH   4   5
ATOM      5  C   UNL     1     299.478 328.544 644.071  1.00  0.00     0.000 C 
BRANCH   5   6
ATOM      6  C   UNL     1     299.043 329.670 643.119  1.00  0.00     0.000 C 
BRANCH   6   7
ATOM      7  C   UNL     1     299.382 331.071 643.659  1.00  0.00     0.000 C 
BRANCH   7   8
ATOM      8  C   UNL     1     299.646 332.140 642.579  1.00  0.00     0.000 C 
BRANCH   8   9
ATOM      9  C   UNL     1     300.479 333.351 643.045  1.00  0.00     0.000 C 
BRANCH   9  10
ATOM     10  C   UNL     1     300.328 333.713 644.533  1.00  0.00     0.006 C 
BRANCH  10  11
ATOM     11  C   UNL     1     300.430 335.220 644.794  1.00  0.00     0.053 C 
BRANCH  11  12
ATOM     12  C   UNL     1     301.830 335.590 645.173  1.00  0.00     0.041 C 
ATOM     13  O   UNL     1     302.280 336.734 644.897  1.00  0.00    -0.550 OA
ATOM     14  O   UNL     1     302.622 334.687 645.871  1.00  0.00    -0.550 OA
ENDBRANCH  11  12
ENDBRANCH  10  11
ENDBRANCH   9  10
ENDBRANCH   8   9
ENDBRANCH   7   8
ENDBRANCH   6   7
ENDBRANCH   5   6
ENDBRANCH   4   5
ENDBRANCH   3   4
ENDBRANCH   2   3
ENDBRANCH   1   2
BRANCH   1  15
ATOM     15  C   UNL     1     301.950 324.744 644.127  1.00  0.00     0.000 C 
BRANCH  15  16
ATOM     16  C   UNL     1     300.468 324.867 643.727  1.00  0.00     0.000 C 
BRANCH  16  17
ATOM     17  C   UNL     1     299.510 324.382 644.828  1.00  0.00     0.000 C 
BRANCH  17  18
ATOM     18  C   UNL     1     299.040 325.515 645.759  1.00  0.00    -0.000 C 
BRANCH  18  19
ATOM     19  C   UNL     1     299.725 325.561 647.137  1.00  0.00    -0.000 C 
BRANCH  19  20
ATOM     20  C   UNL     1     299.743 324.196 647.846  1.00  0.00    -0.000 C 
BRANCH  20  21
ATOM     21  C   UNL     1     301.129 323.531 647.797  1.00  0.00    -0.000 C 
BRANCH  21  22
ATOM     22  C   UNL     1     302.274 324.558 647.758  1.00  0.00    -0.000 C 
BRANCH  22  23
ATOM     23  C   UNL     1     303.618 323.942 647.329  1.00  0.00    -0.000 C 
BRANCH  23  24
ATOM     24  C   UNL     1     304.096 322.757 648.188  1.00  0.00    -0.000 C 
BRANCH  24  25
ATOM     25  C   UNL     1     304.798 323.198 649.480  1.00  0.00    -0.003 C 
ATOM     26  C   UNL     1     305.147 321.996 650.352  1.00  0.00     0.004 C 
ENDBRANCH  24  25
ENDBRANCH  23  24
ENDBRANCH  22  23
ENDBRANCH  21  22
ENDBRANCH  20  21
ENDBRANCH  19  20
ENDBRANCH  18  19
ENDBRANCH  17  18
ENDBRANCH  16  17
ENDBRANCH  15  16
ENDBRANCH   1  15
TORSDOF 22
ENDMDL
MODEL 3
REMARK VINA RESULT:    -4.095      4.641      9.986
REMARK INTER + INTRA:         -12.085
REMARK INTER:                  -9.610
REMARK INTRA:                  -2.475
REMARK UNBOUND:                -2.724
REMARK SMILES CCCCCCCCCCCCCCCCCCCCCCCC(=O)[O-]
REMARK SMILES IDX 13 1 14 2 15 3 16 4 17 5 18 6 19 7 20 8 21 9 22 10 23 11
REMARK SMILES IDX 24 12 25 13 26 14 12 15 11 16 10 17 9 18 8 19 7 20 6 21 5 22
REMARK SMILES IDX 4 23 3 24 2 25 1 26
REMARK H PARENT
REMARK Flexibility Score: inf
ROOT
ATOM      1  C   UNL     1     302.299 325.653 644.609  1.00  0.00     0.000 C 
ENDROOT
BRANCH   1   2
ATOM      2  C   UNL     1     302.120 327.130 644.210  1.00  0.00     0.000 C 
BRANCH   2   3
ATOM      3  C   UNL     1     301.612 328.003 645.367  1.00  0.00     0.000 C 
BRANCH   3   4
ATOM      4  C   UNL     1     300.175 328.481 645.106  1.00  0.00     0.000 C 
BRANCH   4   5
ATOM      5  C   UNL     1     300.037 329.241 643.778  1.00  0.00     0.000 C 
BRANCH   5   6
ATOM      6  C   UNL     1     298.994 330.370 643.848  1.00  0.00     0.000 C 
BRANCH   6   7
ATOM      7  C   UNL     1     299.623 331.746 644.132  1.00  0.00     0.000 C 
BRANCH   7   8
ATOM      8  C   UNL     1     301.163 331.756 644.205  1.00  0.00     0.000 C 
BRANCH   8   9
ATOM      9  C   UNL     1     301.752 331.909 645.621  1.00  0.00     0.000 C 
BRANCH   9  10
ATOM     10  C   UNL     1     302.041 333.357 646.055  1.00  0.00     0.006 C 
BRANCH  10  11
ATOM     11  C   UNL     1     302.458 334.257 644.886  1.00  0.00     0.053 C 
BRANCH  11  12
ATOM     12  C   UNL     1     301.641 335.511 644.876  1.00  0.00     0.041 C 
ATOM     13  O   UNL     1     300.384 335.450 644.942  1.00  0.00    -0.550 OA
ATOM     14  O   UNL     1     302.270 336.750 644.840  1.00  0.00    -0.550 OA
ENDBRANCH  11  12
ENDBRANCH  10  11
ENDBRANCH   9  10
ENDBRANCH   8   9
ENDBRANCH   7   8
ENDBRANCH   6   7
ENDBRANCH   5   6
ENDBRANCH   4   5
ENDBRANCH   3   4
ENDBRANCH   2   3
ENDBRANCH   1   2
BRANCH   1  15
ATOM     15  C   UNL     1     301.273 324.676 643.996  1.00  0.00     0.000 C 
BRANCH  15  16
ATOM     16  C   UNL     1     299.797 325.010 644.275  1.00  0.00     0.000 C 
BRANCH  16  17
ATOM     17  C   UNL     1     299.254 324.313 645.534  1.00  0.00     0.000 C 
BRANCH  17  18
ATOM     18  C   UNL     1     299.258 325.225 646.775  1.00  0.00    -0.000 C 
BRANCH  18  19
ATOM     19  C   UNL     1     300.137 324.742 647.943  1.00  0.00    -0.000 C 
BRANCH  19  20
ATOM     20  C   UNL     1     301.147 323.658 647.528  1.00  0.00    -0.000 C 
BRANCH  20  21
ATOM     21  C   UNL     1     302.588 324.016 647.933  1.00  0.00    -0.000 C 
BRANCH  21  22
ATOM     22  C   UNL     1     303.548 322.821 647.805  1.00  0.00    -0.000 C 
BRANCH  22  23
ATOM     23  C   UNL     1     304.860 323.020 648.586  1.00  0.00    -0.000 C 
BRANCH  23  24
ATOM     24  C   UNL     1     304.834 322.524 650.043  1.00  0.00    -0.000 C 
BRANCH  24  25
ATOM     25  C   UNL     1     305.054 321.010 650.164  1.00  0.00    -0.003 C 
ATOM     26  C   UNL     1     306.033 320.686 651.289  1.00  0.00     0.004 C 
ENDBRANCH  24  25
ENDBRANCH  23  24
ENDBRANCH  22  23
ENDBRANCH  21  22
ENDBRANCH  20  21
ENDBRANCH  19  20
ENDBRANCH  18  19
ENDBRANCH  17  18
ENDBRANCH  16  17
ENDBRANCH  15  16
ENDBRANCH   1  15
TORSDOF 22
ENDMDL
MODEL 4
REMARK VINA RESULT:    -4.062      3.388      5.709
REMARK INTER + INTRA:         -12.011
REMARK INTER:                  -8.528
REMARK INTRA:                  -3.483
REMARK UNBOUND:                -2.724
REMARK SMILES CCCCCCCCCCCCCCCCCCCCCCCC(=O)[O-]
REMARK SMILES IDX 13 1 14 2 15 3 16 4 17 5 18 6 19 7 20 8 21 9 22 10 23 11
REMARK SMILES IDX 24 12 25 13 26 14 12 15 11 16 10 17 9 18 8 19 7 20 6 21 5 22
REMARK SMILES IDX 4 23 3 24 2 25 1 26
REMARK H PARENT
REMARK Flexibility Score: inf
ROOT
ATOM      1  C   UNL     1     303.318 323.475 643.489  1.00  0.00     0.000 C 
ENDROOT
BRANCH   1   2
ATOM      2  C   UNL     1     303.582 322.203 642.661  1.00  0.00     0.000 C 
BRANCH   2   3
ATOM      3  C   UNL     1     304.974 321.606 642.913  1.00  0.00     0.000 C 
BRANCH   3   4
ATOM      4  C   UNL     1     304.885 320.358 643.804  1.00  0.00     0.000 C 
BRANCH   4   5
ATOM      5  C   UNL     1     305.869 320.405 644.985  1.00  0.00     0.000 C 
BRANCH   5   6
ATOM      6  C   UNL     1     305.885 321.774 645.686  1.00  0.00     0.000 C 
BRANCH   6   7
ATOM      7  C   UNL     1     304.709 321.958 646.662  1.00  0.00     0.000 C 
BRANCH   7   8
ATOM      8  C   UNL     1     305.106 322.382 648.090  1.00  0.00     0.000 C 
BRANCH   8   9
ATOM      9  C   UNL     1     306.510 323.005 648.223  1.00  0.00     0.000 C 
BRANCH   9  10
ATOM     10  C   UNL     1     307.490 322.219 649.112  1.00  0.00     0.006 C 
BRANCH  10  11
ATOM     11  C   UNL     1     306.949 320.846 649.527  1.00  0.00     0.053 C 
BRANCH  11  12
ATOM     12  C   UNL     1     306.112 320.967 650.762  1.00  0.00     0.041 C 
ATOM     13  O   UNL     1     305.144 320.183 650.952  1.00  0.00    -0.550 OA
ATOM     14  O   UNL     1     306.428 321.918 651.725  1.00  0.00    -0.550 OA
ENDBRANCH  11  12
ENDBRANCH  10  11
ENDBRANCH   9  10
ENDBRANCH   8   9
ENDBRANCH   7   8
ENDBRANCH   6   7
ENDBRANCH   5   6
ENDBRANCH   4   5
ENDBRANCH   3   4
ENDBRANCH   2   3
ENDBRANCH   1   2
BRANCH   1  15
ATOM     15  C   UNL     1     302.074 324.287 643.071  1.00  0.00     0.000 C 
BRANCH  15  16
ATOM     16  C   UNL     1     300.795 323.994 643.876  1.00  0.00     0.000 C 
BRANCH  16  17
ATOM     17  C   UNL     1     299.908 325.237 644.061  1.00  0.00     0.000 C 
BRANCH  17  18
ATOM     18  C   UNL     1     298.921 325.102 645.236  1.00  0.00    -0.000 C 
BRANCH  18  19
ATOM     19  C   UNL     1     299.147 326.083 646.401  1.00  0.00    -0.000 C 
BRANCH  19  20
ATOM     20  C   UNL     1     299.686 325.398 647.669  1.00  0.00    -0.000 C 
BRANCH  20  21
ATOM     21  C   UNL     1     299.941 323.896 647.458  1.00  0.00    -0.000 C 
BRANCH  21  22
ATOM     22  C   UNL     1     301.441 323.557 647.399  1.00  0.00    -0.000 C 
BRANCH  22  23
ATOM     23  C   UNL     1     302.339 324.746 647.786  1.00  0.00    -0.000 C 
BRANCH  23  24
ATOM     24  C   UNL     1     303.265 325.255 646.666  1.00  0.00    -0.000 C 
BRANCH  24  25
ATOM     25  C   UNL     1     303.366 326.786 646.621  1.00  0.00    -0.003 C 
ATOM     26  C   UNL     1     302.547 327.356 645.467  1.00  0.00     0.004 C 
ENDBRANCH  24  25
ENDBRANCH  23  24
ENDBRANCH  22  23
ENDBRANCH  21  22
ENDBRANCH  20  21
ENDBRANCH  19  20
ENDBRANCH  18  19
ENDBRANCH  17  18
ENDBRANCH  16  17
ENDBRANCH  15  16
ENDBRANCH   1  15
TORSDOF 22
ENDMDL
MODEL 5
REMARK VINA RESULT:    -4.061      4.375      9.106
REMARK INTER + INTRA:         -12.009
REMARK INTER:                  -8.682
REMARK INTRA:                  -3.327
REMARK UNBOUND:                -2.724
REMARK SMILES CCCCCCCCCCCCCCCCCCCCCCCC(=O)[O-]
REMARK SMILES IDX 13 1 14 2 15 3 16 4 17 5 18 6 19 7 20 8 21 9 22 10 23 11
REMARK SMILES IDX 24 12 25 13 26 14 12 15 11 16 10 17 9 18 8 19 7 20 6 21 5 22
REMARK SMILES IDX 4 23 3 24 2 25 1 26
REMARK H PARENT
REMARK Flexibility Score: inf
ROOT
ATOM      1  C   UNL     1     302.753 326.635 646.286  1.00  0.00     0.000 C 
ENDROOT
BRANCH   1   2
ATOM      2  C   UNL     1     302.479 327.369 644.961  1.00  0.00     0.000 C 
BRANCH   2   3
ATOM      3  C   UNL     1     301.849 328.755 645.166  1.00  0.00     0.000 C 
BRANCH   3   4
ATOM      4  C   UNL     1     300.320 328.653 645.284  1.00  0.00     0.000 C 
BRANCH   4   5
ATOM      5  C   UNL     1     299.623 328.620 643.915  1.00  0.00     0.000 C 
BRANCH   5   6
ATOM      6  C   UNL     1     298.975 329.967 643.549  1.00  0.00     0.000 C 
BRANCH   6   7
ATOM      7  C   UNL     1     299.349 330.444 642.134  1.00  0.00     0.000 C 
BRANCH   7   8
ATOM      8  C   UNL     1     299.498 331.970 641.978  1.00  0.00     0.000 C 
BRANCH   8   9
ATOM      9  C   UNL     1     299.726 332.745 643.291  1.00  0.00     0.000 C 
BRANCH   9  10
ATOM     10  C   UNL     1     301.123 333.374 643.442  1.00  0.00     0.006 C 
BRANCH  10  11
ATOM     11  C   UNL     1     301.071 334.849 643.858  1.00  0.00     0.053 C 
BRANCH  11  12
ATOM     12  C   UNL     1     300.585 334.977 645.267  1.00  0.00     0.041 C 
ATOM     13  O   UNL     1     299.611 335.730 645.536  1.00  0.00    -0.550 OA
ATOM     14  O   UNL     1     301.177 334.230 646.278  1.00  0.00    -0.550 OA
ENDBRANCH  11  12
ENDBRANCH  10  11
ENDBRANCH   9  10
ENDBRANCH   8   9
ENDBRANCH   7   8
ENDBRANCH   6   7
ENDBRANCH   5   6
ENDBRANCH   4   5
ENDBRANCH   3   4
ENDBRANCH   2   3
ENDBRANCH   1   2
BRANCH   1  15
ATOM     15  C   UNL     1     303.798 325.503 646.208  1.00  0.00     0.000 C 
BRANCH  15  16
ATOM     16  C   UNL     1     303.286 324.106 646.605  1.00  0.00     0.000 C 
BRANCH  16  17
ATOM     17  C   UNL     1     302.406 324.128 647.865  1.00  0.00     0.000 C 
BRANCH  17  18
ATOM     18  C   UNL     1     300.962 323.663 647.599  1.00  0.00    -0.000 C 
BRANCH  18  19
ATOM     19  C   UNL     1     299.864 324.657 648.018  1.00  0.00    -0.000 C 
BRANCH  19  20
ATOM     20  C   UNL     1     299.246 325.409 646.826  1.00  0.00    -0.000 C 
BRANCH  20  21
ATOM     21  C   UNL     1     299.066 324.506 645.595  1.00  0.00    -0.000 C 
BRANCH  21  22
ATOM     22  C   UNL     1     299.746 325.080 644.339  1.00  0.00    -0.000 C 
BRANCH  22  23
ATOM     23  C   UNL     1     300.934 324.227 643.858  1.00  0.00    -0.000 C 
BRANCH  23  24
ATOM     24  C   UNL     1     301.314 324.415 642.379  1.00  0.00    -0.000 C 
BRANCH  24  25
ATOM     25  C   UNL     1     302.792 324.782 642.181  1.00  0.00    -0.003 C 
ATOM     26  C   UNL     1     303.703 323.807 642.921  1.00  0.00     0.004 C 
ENDBRANCH  24  25
ENDBRANCH  23  24
ENDBRANCH  22  23
ENDBRANCH  21  22
ENDBRANCH  20  21
ENDBRANCH  19  20
ENDBRANCH  18  19
ENDBRANCH  17  18
ENDBRANCH  16  17
ENDBRANCH  15  16
ENDBRANCH   1  15
TORSDOF 22
ENDMDL
MODEL 6
REMARK VINA RESULT:    -4.044      3.939      8.362
REMARK INTER + INTRA:         -11.969
REMARK INTER:                  -8.148
REMARK INTRA:                  -3.821
REMARK UNBOUND:                -2.724
REMARK SMILES CCCCCCCCCCCCCCCCCCCCCCCC(=O)[O-]
REMARK SMILES IDX 13 1 14 2 15 3 16 4 17 5 18 6 19 7 20 8 21 9 22 10 23 11
REMARK SMILES IDX 24 12 25 13 26 14 12 15 11 16 10 17 9 18 8 19 7 20 6 21 5 22
REMARK SMILES IDX 4 23 3 24 2 25 1 26
REMARK H PARENT
REMARK Flexibility Score: inf
ROOT
ATOM      1  C   UNL     1     301.229 323.603 647.511  1.00  0.00     0.000 C 
ENDROOT
BRANCH   1   2
ATOM      2  C   UNL     1     299.828 324.148 647.845  1.00  0.00     0.000 C 
BRANCH   2   3
ATOM      3  C   UNL     1     299.399 325.297 646.920  1.00  0.00     0.000 C 
BRANCH   3   4
ATOM      4  C   UNL     1     298.901 324.759 645.569  1.00  0.00     0.000 C 
BRANCH   4   5
ATOM      5  C   UNL     1     298.895 325.836 644.472  1.00  0.00     0.000 C 
BRANCH   5   6
ATOM      6  C   UNL     1     300.019 325.633 643.440  1.00  0.00     0.000 C 
BRANCH   6   7
ATOM      7  C   UNL     1     300.832 324.350 643.690  1.00  0.00     0.000 C 
BRANCH   7   8
ATOM      8  C   UNL     1     302.317 324.577 644.038  1.00  0.00     0.000 C 
BRANCH   8   9
ATOM      9  C   UNL     1     302.613 325.857 644.845  1.00  0.00     0.000 C 
BRANCH   9  10
ATOM     10  C   UNL     1     303.708 326.762 644.252  1.00  0.00     0.006 C 
BRANCH  10  11
ATOM     11  C   UNL     1     303.466 328.250 644.528  1.00  0.00     0.053 C 
BRANCH  11  12
ATOM     12  C   UNL     1     302.047 328.613 644.221  1.00  0.00     0.041 C 
ATOM     13  O   UNL     1     301.669 328.741 643.025  1.00  0.00    -0.550 OA
ATOM     14  O   UNL     1     301.130 328.766 645.253  1.00  0.00    -0.550 OA
ENDBRANCH  11  12
ENDBRANCH  10  11
ENDBRANCH   9  10
ENDBRANCH   8   9
ENDBRANCH   7   8
ENDBRANCH   6   7
ENDBRANCH   5   6
ENDBRANCH   4   5
ENDBRANCH   3   4
ENDBRANCH   2   3
ENDBRANCH   1   2
BRANCH   1  15
ATOM     15  C   UNL     1     302.407 324.428 648.070  1.00  0.00     0.000 C 
BRANCH  15  16
ATOM     16  C   UNL     1     303.528 323.609 648.734  1.00  0.00     0.000 C 
BRANCH  16  17
ATOM     17  C   UNL     1     303.746 322.242 648.064  1.00  0.00     0.000 C 
BRANCH  17  18
ATOM     18  C   UNL     1     304.860 321.415 648.732  1.00  0.00    -0.000 C 
BRANCH  18  19
ATOM     19  C   UNL     1     305.250 321.864 650.152  1.00  0.00    -0.000 C 
BRANCH  19  20
ATOM     20  C   UNL     1     306.765 322.070 650.324  1.00  0.00    -0.000 C 
BRANCH  20  21
ATOM     21  C   UNL     1     307.449 322.502 649.015  1.00  0.00    -0.000 C 
BRANCH  21  22
ATOM     22  C   UNL     1     307.938 323.960 649.060  1.00  0.00    -0.000 C 
BRANCH  22  23
ATOM     23  C   UNL     1     306.946 324.945 648.414  1.00  0.00    -0.000 C 
BRANCH  23  24
ATOM     24  C   UNL     1     307.058 325.073 646.884  1.00  0.00    -0.000 C 
BRANCH  24  25
ATOM     25  C   UNL     1     305.893 324.405 646.140  1.00  0.00    -0.003 C 
ATOM     26  C   UNL     1     306.324 323.079 645.521  1.00  0.00     0.004 C 
ENDBRANCH  24  25
ENDBRANCH  23  24
ENDBRANCH  22  23
ENDBRANCH  21  22
ENDBRANCH  20  21
ENDBRANCH  19  20
ENDBRANCH  18  19
ENDBRANCH  17  18
ENDBRANCH  16  17
ENDBRANCH  15  16
ENDBRANCH   1  15
TORSDOF 22
ENDMDL
MODEL 7
REMARK VINA RESULT:    -4.023      3.351      5.696
REMARK INTER + INTRA:         -11.922
REMARK INTER:                  -7.492
REMARK INTRA:                  -4.430
REMARK UNBOUND:                -2.724
REMARK SMILES CCCCCCCCCCCCCCCCCCCCCCCC(=O)[O-]
REMARK SMILES IDX 13 1 14 2 15 3 16 4 17 5 18 6 19 7 20 8 21 9 22 10 23 11
REMARK SMILES IDX 24 12 25 13 26 14 12 15 11 16 10 17 9 18 8 19 7 20 6 21 5 22
REMARK SMILES IDX 4 23 3 24 2 25 1 26
REMARK H PARENT
REMARK Flexibility Score: inf
ROOT
ATOM      1  C   UNL     1     300.398 327.146 645.741  1.00  0.00     0.000 C 
ENDROOT
BRANCH   1   2
ATOM      2  C   UNL     1     300.942 326.753 644.355  1.00  0.00     0.000 C 
BRANCH   2   3
ATOM      3  C   UNL     1     300.250 325.512 643.773  1.00  0.00     0.000 C 
BRANCH   3   4
ATOM      4  C   UNL     1     301.249 324.635 643.002  1.00  0.00     0.000 C 
BRANCH   4   5
ATOM      5  C   UNL     1     302.649 324.636 643.638  1.00  0.00     0.000 C 
BRANCH   5   6
ATOM      6  C   UNL     1     303.104 323.230 644.065  1.00  0.00     0.000 C 
BRANCH   6   7
ATOM      7  C   UNL     1     304.635 323.108 644.175  1.00  0.00     0.000 C 
BRANCH   7   8
ATOM      8  C   UNL     1     305.135 321.929 645.033  1.00  0.00     0.000 C 
BRANCH   8   9
ATOM      9  C   UNL     1     305.691 322.315 646.418  1.00  0.00     0.000 C 
BRANCH   9  10
ATOM     10  C   UNL     1     304.888 321.777 647.616  1.00  0.00     0.006 C 
BRANCH  10  11
ATOM     11  C   UNL     1     305.758 321.016 648.624  1.00  0.00     0.053 C 
BRANCH  11  12
ATOM     12  C   UNL     1     305.341 321.342 650.024  1.00  0.00     0.041 C 
ATOM     13  O   UNL     1     304.913 322.493 650.307  1.00  0.00    -0.550 OA
ATOM     14  O   UNL     1     305.383 320.361 651.007  1.00  0.00    -0.550 OA
ENDBRANCH  11  12
ENDBRANCH  10  11
ENDBRANCH   9  10
ENDBRANCH   8   9
ENDBRANCH   7   8
ENDBRANCH   6   7
ENDBRANCH   5   6
ENDBRANCH   4   5
ENDBRANCH   3   4
ENDBRANCH   2   3
ENDBRANCH   1   2
BRANCH   1  15
ATOM     15  C   UNL     1     299.241 326.270 646.267  1.00  0.00     0.000 C 
BRANCH  15  16
ATOM     16  C   UNL     1     299.575 325.409 647.499  1.00  0.00     0.000 C 
BRANCH  16  17
ATOM     17  C   UNL     1     299.929 323.957 647.134  1.00  0.00     0.000 C 
BRANCH  17  18
ATOM     18  C   UNL     1     301.427 323.644 647.301  1.00  0.00    -0.000 C 
BRANCH  18  19
ATOM     19  C   UNL     1     302.263 324.757 647.958  1.00  0.00    -0.000 C 
BRANCH  19  20
ATOM     20  C   UNL     1     303.573 325.050 647.206  1.00  0.00    -0.000 C 
BRANCH  20  21
ATOM     21  C   UNL     1     303.741 326.546 646.886  1.00  0.00    -0.000 C 
BRANCH  21  22
ATOM     22  C   UNL     1     304.765 326.795 645.764  1.00  0.00    -0.000 C 
BRANCH  22  23
ATOM     23  C   UNL     1     306.179 326.304 646.124  1.00  0.00    -0.000 C 
BRANCH  23  24
ATOM     24  C   UNL     1     306.825 327.005 647.332  1.00  0.00    -0.000 C 
BRANCH  24  25
ATOM     25  C   UNL     1     307.740 326.078 648.145  1.00  0.00    -0.003 C 
ATOM     26  C   UNL     1     306.990 324.831 648.602  1.00  0.00     0.004 C 
ENDBRANCH  24  25
ENDBRANCH  23  24
ENDBRANCH  22  23
ENDBRANCH  21  22
ENDBRANCH  20  21
ENDBRANCH  19  20
ENDBRANCH  18  19
ENDBRANCH  17  18
ENDBRANCH  16  17
ENDBRANCH  15  16
ENDBRANCH   1  15
TORSDOF 22
ENDMDL
MODEL 8
REMARK VINA RESULT:    -4.019      3.895      8.739
REMARK INTER + INTRA:         -11.912
REMARK INTER:                  -7.887
REMARK INTRA:                  -4.025
REMARK UNBOUND:                -2.724
REMARK SMILES CCCCCCCCCCCCCCCCCCCCCCCC(=O)[O-]
REMARK SMILES IDX 13 1 14 2 15 3 16 4 17 5 18 6 19 7 20 8 21 9 22 10 23 11
REMARK SMILES IDX 24 12 25 13 26 14 12 15 11 16 10 17 9 18 8 19 7 20 6 21 5 22
REMARK SMILES IDX 4 23 3 24 2 25 1 26
REMARK H PARENT
REMARK Flexibility Score: inf
ROOT
ATOM      1  C   UNL     1     303.136 325.148 643.098  1.00  0.00     0.000 C 
ENDROOT
BRANCH   1   2
ATOM      2  C   UNL     1     303.403 326.503 643.779  1.00  0.00     0.000 C 
BRANCH   2   3
ATOM      3  C   UNL     1     303.427 326.406 645.311  1.00  0.00     0.000 C 
BRANCH   3   4
ATOM      4  C   UNL     1     302.382 327.342 645.939  1.00  0.00     0.000 C 
BRANCH   4   5
ATOM      5  C   UNL     1     301.634 328.180 644.889  1.00  0.00     0.000 C 
BRANCH   5   6
ATOM      6  C   UNL     1     300.175 328.461 645.288  1.00  0.00     0.000 C 
BRANCH   6   7
ATOM      7  C   UNL     1     299.218 328.469 644.082  1.00  0.00     0.000 C 
BRANCH   7   8
ATOM      8  C   UNL     1     299.891 328.236 642.714  1.00  0.00     0.000 C 
BRANCH   8   9
ATOM      9  C   UNL     1     299.810 329.422 641.733  1.00  0.00     0.000 C 
BRANCH   9  10
ATOM     10  C   UNL     1     299.635 330.803 642.392  1.00  0.00     0.006 C 
BRANCH  10  11
ATOM     11  C   UNL     1     300.962 331.409 642.865  1.00  0.00     0.053 C 
BRANCH  11  12
ATOM     12  C   UNL     1     300.781 332.098 644.181  1.00  0.00     0.041 C 
ATOM     13  O   UNL     1     299.881 332.968 644.323  1.00  0.00    -0.550 OA
ATOM     14  O   UNL     1     301.577 331.746 645.264  1.00  0.00    -0.550 OA
ENDBRANCH  11  12
ENDBRANCH  10  11
ENDBRANCH   9  10
ENDBRANCH   8   9
ENDBRANCH   7   8
ENDBRANCH   6   7
ENDBRANCH   5   6
ENDBRANCH   4   5
ENDBRANCH   3   4
ENDBRANCH   2   3
ENDBRANCH   1   2
BRANCH   1  15
ATOM     15  C   UNL     1     302.405 324.105 643.970  1.00  0.00     0.000 C 
BRANCH  15  16
ATOM     16  C   UNL     1     300.942 323.828 643.576  1.00  0.00     0.000 C 
BRANCH  16  17
ATOM     17  C   UNL     1     299.964 324.873 644.140  1.00  0.00     0.000 C 
BRANCH  17  18
ATOM     18  C   UNL     1     299.200 324.373 645.380  1.00  0.00    -0.000 C 
BRANCH  18  19
ATOM     19  C   UNL     1     299.280 325.290 646.615  1.00  0.00    -0.000 C 
BRANCH  19  20
ATOM     20  C   UNL     1     299.865 324.586 647.851  1.00  0.00    -0.000 C 
BRANCH  20  21
ATOM     21  C   UNL     1     301.005 323.618 647.487  1.00  0.00    -0.000 C 
BRANCH  21  22
ATOM     22  C   UNL     1     302.369 324.091 648.019  1.00  0.00    -0.000 C 
BRANCH  22  23
ATOM     23  C   UNL     1     303.552 323.319 647.405  1.00  0.00    -0.000 C 
BRANCH  23  24
ATOM     24  C   UNL     1     304.043 322.116 648.230  1.00  0.00    -0.000 C 
BRANCH  24  25
ATOM     25  C   UNL     1     305.262 322.445 649.102  1.00  0.00    -0.003 C 
ATOM     26  C   UNL     1     305.938 323.731 648.638  1.00  0.00     0.004 C 
ENDBRANCH  24  25
ENDBRANCH  23  24
ENDBRANCH  22  23
ENDBRANCH  21  22
ENDBRANCH  20  21
ENDBRANCH  19  20
ENDBRANCH  18  19
ENDBRANCH  17  18
ENDBRANCH  16  17
ENDBRANCH  15  16
ENDBRANCH   1  15
TORSDOF 22
ENDMDL
MODEL 9
REMARK VINA RESULT:    -3.971      3.837      8.605
REMARK INTER + INTRA:         -11.803
REMARK INTER:                  -7.328
REMARK INTRA:                  -4.475
REMARK UNBOUND:                -2.724
REMARK SMILES CCCCCCCCCCCCCCCCCCCCCCCC(=O)[O-]
REMARK SMILES IDX 13 1 14 2 15 3 16 4 17 5 18 6 19 7 20 8 21 9 22 10 23 11
REMARK SMILES IDX 24 12 25 13 26 14 12 15 11 16 10 17 9 18 8 19 7 20 6 21 5 22
REMARK SMILES IDX 4 23 3 24 2 25 1 26
REMARK H PARENT
REMARK Flexibility Score: inf
ROOT
ATOM      1  C   UNL     1     300.868 323.654 647.492  1.00  0.00     0.000 C 
ENDROOT
BRANCH   1   2
ATOM      2  C   UNL     1     299.753 324.680 647.768  1.00  0.00     0.000 C 
BRANCH   2   3
ATOM      3  C   UNL     1     299.276 325.398 646.497  1.00  0.00     0.000 C 
BRANCH   3   4
ATOM      4  C   UNL     1     299.289 324.449 645.290  1.00  0.00     0.000 C 
BRANCH   4   5
ATOM      5  C   UNL     1     300.161 324.973 644.136  1.00  0.00     0.000 C 
BRANCH   5   6
ATOM      6  C   UNL     1     301.132 323.907 643.599  1.00  0.00     0.000 C 
BRANCH   6   7
ATOM      7  C   UNL     1     302.540 324.023 644.209  1.00  0.00     0.000 C 
BRANCH   7   8
ATOM      8  C   UNL     1     303.172 325.427 644.129  1.00  0.00     0.000 C 
BRANCH   8   9
ATOM      9  C   UNL     1     303.701 325.986 645.465  1.00  0.00     0.000 C 
BRANCH   9  10
ATOM     10  C   UNL     1     302.718 326.893 646.227  1.00  0.00     0.006 C 
BRANCH  10  11
ATOM     11  C   UNL     1     302.022 327.913 645.319  1.00  0.00     0.053 C 
BRANCH  11  12
ATOM     12  C   UNL     1     302.922 329.080 645.059  1.00  0.00     0.041 C 
ATOM     13  O   UNL     1     303.022 329.559 643.898  1.00  0.00    -0.550 OA
ATOM     14  O   UNL     1     303.617 329.669 646.109  1.00  0.00    -0.550 OA
ENDBRANCH  11  12
ENDBRANCH  10  11
ENDBRANCH   9  10
ENDBRANCH   8   9
ENDBRANCH   7   8
ENDBRANCH   6   7
ENDBRANCH   5   6
ENDBRANCH   4   5
ENDBRANCH   3   4
ENDBRANCH   2   3
ENDBRANCH   1   2
BRANCH   1  15
ATOM     15  C   UNL     1     302.211 323.934 648.197  1.00  0.00     0.000 C 
BRANCH  15  16
ATOM     16  C   UNL     1     303.383 323.034 647.765  1.00  0.00     0.000 C 
BRANCH  16  17
ATOM     17  C   UNL     1     304.735 323.499 648.332  1.00  0.00     0.000 C 
BRANCH  17  18
ATOM     18  C   UNL     1     305.342 322.500 649.335  1.00  0.00    -0.000 C 
BRANCH  18  19
ATOM     19  C   UNL     1     304.878 321.041 649.172  1.00  0.00    -0.000 C 
BRANCH  19  20
ATOM     20  C   UNL     1     306.017 320.090 648.765  1.00  0.00    -0.000 C 
BRANCH  20  21
ATOM     21  C   UNL     1     306.783 320.588 647.528  1.00  0.00    -0.000 C 
BRANCH  21  22
ATOM     22  C   UNL     1     306.202 320.035 646.215  1.00  0.00    -0.000 C 
BRANCH  22  23
ATOM     23  C   UNL     1     305.458 321.103 645.392  1.00  0.00    -0.000 C 
BRANCH  23  24
ATOM     24  C   UNL     1     306.362 322.032 644.561  1.00  0.00    -0.000 C 
BRANCH  24  25
ATOM     25  C   UNL     1     306.295 323.496 645.016  1.00  0.00    -0.003 C 
ATOM     26  C   UNL     1     307.534 323.877 645.821  1.00  0.00     0.004 C 
ENDBRANCH  24  25
ENDBRANCH  23  24
ENDBRANCH  22  23
ENDBRANCH  21  22
ENDBRANCH  20  21
ENDBRANCH  19  20
ENDBRANCH  18  19
ENDBRANCH  17  18
ENDBRANCH  16  17
ENDBRANCH  15  16
ENDBRANCH   1  15
TORSDOF 22
ENDMDL
