MODEL 1
REMARK VINA RESULT:     1.312      0.000      0.000
REMARK INTER + INTRA:           1.695
REMARK INTER:                   1.773
REMARK INTRA:                  -0.078
REMARK UNBOUND:                -0.078
REMARK SMILES [NH3+]CCCC[C@@H]([NH3+])C(=O)[O-]
REMARK SMILES IDX 4 1 3 2 2 3 1 4 5 8 6 9 7 10 8 14 9 15 10 16
REMARK H PARENT 1 5 1 6 1 7 7 11 7 12 7 13
REMARK Flexibility Score: inf
ROOT
ATOM      1  C   UNL     1       0.609  -1.849 -10.144  1.00  0.00     0.012 C 
ENDROOT
BRANCH   1   2
ATOM      2  C   UNL     1      -0.841  -2.353 -10.084  1.00  0.00     0.061 C 
BRANCH   2   3
ATOM      3  C   UNL     1      -1.153  -3.384 -11.181  1.00  0.00     0.258 C 
BRANCH   3   4
ATOM      4  N   UNL     1      -1.938  -4.512 -10.674  1.00  0.00    -0.358 N 
ATOM      5  H   UNL     1      -1.971  -4.493  -9.629  1.00  0.00     0.344 HD
ATOM      6  H   UNL     1      -1.487  -5.404 -10.979  1.00  0.00     0.344 HD
ATOM      7  H   UNL     1      -2.907  -4.484 -11.063  1.00  0.00     0.344 HD
ENDBRANCH   3   4
ENDBRANCH   2   3
ENDBRANCH   1   2
BRANCH   1   8
ATOM      8  C   UNL     1       0.762  -0.522  -9.384  1.00  0.00     0.072 C 
BRANCH   8   9
ATOM      9  C   UNL     1       2.090  -0.433  -8.601  1.00  0.00     0.227 C 
BRANCH   9  10
ATOM     10  N   UNL     1       3.022   0.523  -9.215  1.00  0.00    -0.350 N 
ATOM     11  H   UNL     1       2.508   1.388  -9.500  1.00  0.00     0.345 HD
ATOM     12  H   UNL     1       3.481   0.106 -10.057  1.00  0.00     0.345 HD
ATOM     13  H   UNL     1       3.753   0.806  -8.525  1.00  0.00     0.345 HD
ENDBRANCH   9  10
BRANCH   9  14
ATOM     14  C   UNL     1       1.806  -0.033  -7.177  1.00  0.00     0.099 C 
ATOM     15  O   UNL     1       0.782   0.647  -6.903  1.00  0.00    -0.544 OA
ATOM     16  O   UNL     1       2.682  -0.393  -6.161  1.00  0.00    -0.544 OA
ENDBRANCH   9  14
ENDBRANCH   8   9
ENDBRANCH   1   8
TORSDOF 7
ENDMDL
MODEL 2
REMARK VINA RESULT:     1.633      4.431      6.484
REMARK INTER + INTRA:           2.129
REMARK INTER:                   2.210
REMARK INTRA:                  -0.082
REMARK UNBOUND:                -0.078
REMARK SMILES [NH3+]CCCC[C@@H]([NH3+])C(=O)[O-]
REMARK SMILES IDX 4 1 3 2 2 3 1 4 5 8 6 9 7 10 8 14 9 15 10 16
REMARK H PARENT 1 5 1 6 1 7 7 11 7 12 7 13
REMARK Flexibility Score: inf
ROOT
ATOM      1  C   UNL     1      -1.099  -2.744 -11.007  1.00  0.00     0.012 C 
ENDROOT
BRANCH   1   2
ATOM      2  C   UNL     1      -0.371  -2.152  -9.791  1.00  0.00     0.061 C 
BRANCH   2   3
ATOM      3  C   UNL     1       0.952  -1.466 -10.172  1.00  0.00     0.258 C 
BRANCH   3   4
ATOM      4  N   UNL     1       1.518  -0.699  -9.059  1.00  0.00    -0.358 N 
ATOM      5  H   UNL     1       0.827   0.004  -8.711  1.00  0.00     0.344 HD
ATOM      6  H   UNL     1       2.370  -0.194  -9.394  1.00  0.00     0.344 HD
ATOM      7  H   UNL     1       1.800  -1.339  -8.283  1.00  0.00     0.344 HD
ENDBRANCH   3   4
ENDBRANCH   2   3
ENDBRANCH   1   2
BRANCH   1   8
ATOM      8  C   UNL     1      -1.826  -4.044 -10.632  1.00  0.00     0.072 C 
BRANCH   8   9
ATOM      9  C   UNL     1      -2.170  -4.911 -11.863  1.00  0.00     0.227 C 
BRANCH   9  10
ATOM     10  N   UNL     1      -1.488  -4.433 -13.074  1.00  0.00    -0.350 N 
ATOM     11  H   UNL     1      -0.931  -3.575 -12.854  1.00  0.00     0.345 HD
ATOM     12  H   UNL     1      -2.179  -4.207 -13.827  1.00  0.00     0.345 HD
ATOM     13  H   UNL     1      -0.821  -5.158 -13.422  1.00  0.00     0.345 HD
ENDBRANCH   9  10
BRANCH   9  14
ATOM     14  C   UNL     1      -1.792  -6.342 -11.591  1.00  0.00     0.099 C 
ATOM     15  O   UNL     1      -1.455  -7.100 -12.539  1.00  0.00    -0.544 OA
ATOM     16  O   UNL     1      -1.831  -6.842 -10.295  1.00  0.00    -0.544 OA
ENDBRANCH   9  14
ENDBRANCH   8   9
ENDBRANCH   1   8
TORSDOF 7
ENDMDL
MODEL 3
REMARK VINA RESULT:     1.657      1.752      2.226
REMARK INTER + INTRA:           2.160
REMARK INTER:                   2.259
REMARK INTRA:                  -0.099
REMARK UNBOUND:                -0.078
REMARK SMILES [NH3+]CCCC[C@@H]([NH3+])C(=O)[O-]
REMARK SMILES IDX 4 1 3 2 2 3 1 4 5 8 6 9 7 10 8 14 9 15 10 16
REMARK H PARENT 1 5 1 6 1 7 7 11 7 12 7 13
REMARK Flexibility Score: inf
ROOT
ATOM      1  C   UNL     1      -1.049  -2.886 -10.026  1.00  0.00     0.012 C 
ENDROOT
BRANCH   1   2
ATOM      2  C   UNL     1      -1.370  -3.540 -11.378  1.00  0.00     0.061 C 
BRANCH   2   3
ATOM      3  C   UNL     1      -2.169  -4.846 -11.229  1.00  0.00     0.258 C 
BRANCH   3   4
ATOM      4  N   UNL     1      -1.772  -5.853 -12.216  1.00  0.00    -0.358 N 
ATOM      5  H   UNL     1      -0.838  -6.255 -11.972  1.00  0.00     0.344 HD
ATOM      6  H   UNL     1      -1.708  -5.400 -13.155  1.00  0.00     0.344 HD
ATOM      7  H   UNL     1      -2.488  -6.613 -12.266  1.00  0.00     0.344 HD
ENDBRANCH   3   4
ENDBRANCH   2   3
ENDBRANCH   1   2
BRANCH   1   8
ATOM      8  C   UNL     1      -0.296  -1.561 -10.221  1.00  0.00     0.072 C 
BRANCH   8   9
ATOM      9  C   UNL     1       1.182  -1.646  -9.781  1.00  0.00     0.227 C 
BRANCH   9  10
ATOM     10  N   UNL     1       2.078  -1.880 -10.922  1.00  0.00    -0.350 N 
ATOM     11  H   UNL     1       1.875  -1.189 -11.681  1.00  0.00     0.345 HD
ATOM     12  H   UNL     1       1.954  -2.848 -11.299  1.00  0.00     0.345 HD
ATOM     13  H   UNL     1       3.072  -1.745 -10.632  1.00  0.00     0.345 HD
ENDBRANCH   9  10
BRANCH   9  14
ATOM     14  C   UNL     1       1.568  -0.372  -9.076  1.00  0.00     0.099 C 
ATOM     15  O   UNL     1       2.313   0.467  -9.648  1.00  0.00    -0.544 OA
ATOM     16  O   UNL     1       1.124  -0.125  -7.784  1.00  0.00    -0.544 OA
ENDBRANCH   9  14
ENDBRANCH   8   9
ENDBRANCH   1   8
TORSDOF 7
ENDMDL
MODEL 4
REMARK VINA RESULT:     1.725      4.048      6.051
REMARK INTER + INTRA:           2.252
REMARK INTER:                   2.330
REMARK INTRA:                  -0.077
REMARK UNBOUND:                -0.078
REMARK SMILES [NH3+]CCCC[C@@H]([NH3+])C(=O)[O-]
REMARK SMILES IDX 4 1 3 2 2 3 1 4 5 8 6 9 7 10 8 14 9 15 10 16
REMARK H PARENT 1 5 1 6 1 7 7 11 7 12 7 13
REMARK Flexibility Score: inf
ROOT
ATOM      1  C   UNL     1      -0.307  -1.870  -9.839  1.00  0.00     0.012 C 
ENDROOT
BRANCH   1   2
ATOM      2  C   UNL     1       1.137  -1.512 -10.220  1.00  0.00     0.061 C 
BRANCH   2   3
ATOM      3  C   UNL     1       1.612  -0.203  -9.566  1.00  0.00     0.258 C 
BRANCH   3   4
ATOM      4  N   UNL     1       1.807  -0.345  -8.122  1.00  0.00    -0.358 N 
ATOM      5  H   UNL     1       1.358  -1.225  -7.777  1.00  0.00     0.344 HD
ATOM      6  H   UNL     1       1.362   0.469  -7.638  1.00  0.00     0.344 HD
ATOM      7  H   UNL     1       2.825  -0.347  -7.891  1.00  0.00     0.344 HD
ENDBRANCH   3   4
ENDBRANCH   2   3
ENDBRANCH   1   2
BRANCH   1   8
ATOM      8  C   UNL     1      -1.035  -2.541 -11.014  1.00  0.00     0.072 C 
BRANCH   8   9
ATOM      9  C   UNL     1      -1.121  -4.076 -10.864  1.00  0.00     0.227 C 
BRANCH   9  10
ATOM     10  N   UNL     1      -1.877  -4.465  -9.666  1.00  0.00    -0.350 N 
ATOM     11  H   UNL     1      -2.011  -3.634  -9.044  1.00  0.00     0.345 HD
ATOM     12  H   UNL     1      -1.372  -5.211  -9.133  1.00  0.00     0.345 HD
ATOM     13  H   UNL     1      -2.825  -4.812  -9.934  1.00  0.00     0.345 HD
ENDBRANCH   9  10
BRANCH   9  14
ATOM     14  C   UNL     1      -1.764  -4.665 -12.091  1.00  0.00     0.099 C 
ATOM     15  O   UNL     1      -2.265  -3.911 -12.968  1.00  0.00    -0.544 OA
ATOM     16  O   UNL     1      -1.829  -6.043 -12.255  1.00  0.00    -0.544 OA
ENDBRANCH   9  14
ENDBRANCH   8   9
ENDBRANCH   1   8
TORSDOF 7
ENDMDL
MODEL 5
REMARK VINA RESULT:     2.519      2.611      3.658
REMARK INTER + INTRA:           3.324
REMARK INTER:                   3.410
REMARK INTRA:                  -0.085
REMARK UNBOUND:                -0.078
REMARK SMILES [NH3+]CCCC[C@@H]([NH3+])C(=O)[O-]
REMARK SMILES IDX 4 1 3 2 2 3 1 4 5 8 6 9 7 10 8 14 9 15 10 16
REMARK H PARENT 1 5 1 6 1 7 7 11 7 12 7 13
REMARK Flexibility Score: inf
ROOT
ATOM      1  C   UNL     1      -1.786  -4.047 -10.931  1.00  0.00     0.012 C 
ENDROOT
BRANCH   1   2
ATOM      2  C   UNL     1      -2.208  -4.746 -12.232  1.00  0.00     0.061 C 
BRANCH   2   3
ATOM      3  C   UNL     1      -1.377  -6.009 -12.519  1.00  0.00     0.258 C 
BRANCH   3   4
ATOM      4  N   UNL     1      -1.865  -7.173 -11.777  1.00  0.00    -0.358 N 
ATOM      5  H   UNL     1      -1.345  -7.276 -10.876  1.00  0.00     0.344 HD
ATOM      6  H   UNL     1      -1.710  -8.032 -12.353  1.00  0.00     0.344 HD
ATOM      7  H   UNL     1      -2.889  -7.082 -11.592  1.00  0.00     0.344 HD
ENDBRANCH   3   4
ENDBRANCH   2   3
ENDBRANCH   1   2
BRANCH   1   8
ATOM      8  C   UNL     1      -0.491  -3.245 -11.133  1.00  0.00     0.072 C 
BRANCH   8   9
ATOM      9  C   UNL     1      -0.485  -1.915 -10.347  1.00  0.00     0.227 C 
BRANCH   9  10
ATOM     10  N   UNL     1      -1.191  -2.037  -9.064  1.00  0.00    -0.350 N 
ATOM     11  H   UNL     1      -0.578  -2.516  -8.364  1.00  0.00     0.345 HD
ATOM     12  H   UNL     1      -2.075  -2.586  -9.176  1.00  0.00     0.345 HD
ATOM     13  H   UNL     1      -1.417  -1.090  -8.686  1.00  0.00     0.345 HD
ENDBRANCH   9  10
BRANCH   9  14
ATOM     14  C   UNL     1       0.937  -1.479 -10.112  1.00  0.00     0.099 C 
ATOM     15  O   UNL     1       1.854  -1.863 -10.885  1.00  0.00    -0.544 OA
ATOM     16  O   UNL     1       1.249  -0.667  -9.029  1.00  0.00    -0.544 OA
ENDBRANCH   9  14
ENDBRANCH   8   9
ENDBRANCH   1   8
TORSDOF 7
ENDMDL
MODEL 6
REMARK VINA RESULT:     3.091      5.248      6.576
REMARK INTER + INTRA:           4.098
REMARK INTER:                   4.177
REMARK INTRA:                  -0.080
REMARK UNBOUND:                -0.078
REMARK SMILES [NH3+]CCCC[C@@H]([NH3+])C(=O)[O-]
REMARK SMILES IDX 4 1 3 2 2 3 1 4 5 8 6 9 7 10 8 14 9 15 10 16
REMARK H PARENT 1 5 1 6 1 7 7 11 7 12 7 13
REMARK Flexibility Score: inf
ROOT
ATOM      1  C   UNL     1      -2.975  -3.375 -13.936  1.00  0.00     0.012 C 
ENDROOT
BRANCH   1   2
ATOM      2  C   UNL     1      -2.998  -3.373 -15.472  1.00  0.00     0.061 C 
BRANCH   2   3
ATOM      3  C   UNL     1      -4.200  -2.602 -16.043  1.00  0.00     0.258 C 
BRANCH   3   4
ATOM      4  N   UNL     1      -5.395  -3.441 -16.153  1.00  0.00    -0.358 N 
ATOM      5  H   UNL     1      -5.940  -3.420 -15.261  1.00  0.00     0.344 HD
ATOM      6  H   UNL     1      -5.101  -4.426 -16.343  1.00  0.00     0.344 HD
ATOM      7  H   UNL     1      -5.994  -3.118 -16.946  1.00  0.00     0.344 HD
ENDBRANCH   3   4
ENDBRANCH   2   3
ENDBRANCH   1   2
BRANCH   1   8
ATOM      8  C   UNL     1      -1.844  -4.270 -13.405  1.00  0.00     0.072 C 
BRANCH   8   9
ATOM      9  C   UNL     1      -2.193  -4.933 -12.054  1.00  0.00     0.227 C 
BRANCH   9  10
ATOM     10  N   UNL     1      -1.762  -6.337 -12.008  1.00  0.00    -0.350 N 
ATOM     11  H   UNL     1      -0.897  -6.463 -12.584  1.00  0.00     0.345 HD
ATOM     12  H   UNL     1      -2.511  -6.969 -12.375  1.00  0.00     0.345 HD
ATOM     13  H   UNL     1      -1.527  -6.610 -11.027  1.00  0.00     0.345 HD
ENDBRANCH   9  10
BRANCH   9  14
ATOM     14  C   UNL     1      -1.547  -4.160 -10.935  1.00  0.00     0.099 C 
ATOM     15  O   UNL     1      -0.883  -3.119 -11.185  1.00  0.00    -0.544 OA
ATOM     16  O   UNL     1      -1.662  -4.600  -9.622  1.00  0.00    -0.544 OA
ENDBRANCH   9  14
ENDBRANCH   8   9
ENDBRANCH   1   8
TORSDOF 7
ENDMDL
MODEL 7
REMARK VINA RESULT:     4.137      3.132      5.239
REMARK INTER + INTRA:           5.510
REMARK INTER:                   5.582
REMARK INTRA:                  -0.072
REMARK UNBOUND:                -0.078
REMARK SMILES [NH3+]CCCC[C@@H]([NH3+])C(=O)[O-]
REMARK SMILES IDX 4 1 3 2 2 3 1 4 5 8 6 9 7 10 8 14 9 15 10 16
REMARK H PARENT 1 5 1 6 1 7 7 11 7 12 7 13
REMARK Flexibility Score: inf
ROOT
ATOM      1  C   UNL     1       1.890  -0.280  -8.807  1.00  0.00     0.012 C 
ENDROOT
BRANCH   1   2
ATOM      2  C   UNL     1       1.886   0.235  -7.360  1.00  0.00     0.061 C 
BRANCH   2   3
ATOM      3  C   UNL     1       3.017  -0.372  -6.514  1.00  0.00     0.258 C 
BRANCH   3   4
ATOM      4  N   UNL     1       3.175   0.312  -5.228  1.00  0.00    -0.358 N 
ATOM      5  H   UNL     1       3.055  -0.363  -4.438  1.00  0.00     0.344 HD
ATOM      6  H   UNL     1       2.443   1.055  -5.148  1.00  0.00     0.344 HD
ATOM      7  H   UNL     1       4.113   0.768  -5.172  1.00  0.00     0.344 HD
ENDBRANCH   3   4
ENDBRANCH   2   3
ENDBRANCH   1   2
BRANCH   1   8
ATOM      8  C   UNL     1       0.592  -1.038  -9.124  1.00  0.00     0.072 C 
BRANCH   8   9
ATOM      9  C   UNL     1       0.582  -1.633 -10.550  1.00  0.00     0.227 C 
BRANCH   9  10
ATOM     10  N   UNL     1       1.878  -2.232 -10.899  1.00  0.00    -0.350 N 
ATOM     11  H   UNL     1       1.838  -2.627 -11.868  1.00  0.00     0.345 HD
ATOM     12  H   UNL     1       2.127  -2.997 -10.230  1.00  0.00     0.345 HD
ATOM     13  H   UNL     1       2.626  -1.504 -10.889  1.00  0.00     0.345 HD
ENDBRANCH   9  10
BRANCH   9  14
ATOM     14  C   UNL     1      -0.507  -2.667 -10.654  1.00  0.00     0.099 C 
ATOM     15  O   UNL     1      -1.387  -2.753  -9.757  1.00  0.00    -0.544 OA
ATOM     16  O   UNL     1      -0.537  -3.547 -11.729  1.00  0.00    -0.544 OA
ENDBRANCH   9  14
ENDBRANCH   8   9
ENDBRANCH   1   8
TORSDOF 7
ENDMDL
MODEL 8
REMARK VINA RESULT:     4.288      3.328      5.439
REMARK INTER + INTRA:           5.714
REMARK INTER:                   5.862
REMARK INTRA:                  -0.148
REMARK UNBOUND:                -0.078
REMARK SMILES [NH3+]CCCC[C@@H]([NH3+])C(=O)[O-]
REMARK SMILES IDX 4 1 3 2 2 3 1 4 5 8 6 9 7 10 8 14 9 15 10 16
REMARK H PARENT 1 5 1 6 1 7 7 11 7 12 7 13
REMARK Flexibility Score: inf
ROOT
ATOM      1  C   UNL     1       2.309  -0.548  -6.715  1.00  0.00     0.012 C 
ENDROOT
BRANCH   1   2
ATOM      2  C   UNL     1       2.547   0.378  -5.513  1.00  0.00     0.061 C 
BRANCH   2   3
ATOM      3  C   UNL     1       4.024   0.426  -5.089  1.00  0.00     0.258 C 
BRANCH   3   4
ATOM      4  N   UNL     1       4.183   0.413  -3.633  1.00  0.00    -0.358 N 
ATOM      5  H   UNL     1       4.707   1.260  -3.314  1.00  0.00     0.344 HD
ATOM      6  H   UNL     1       4.724  -0.439  -3.358  1.00  0.00     0.344 HD
ATOM      7  H   UNL     1       3.249   0.373  -3.166  1.00  0.00     0.344 HD
ENDBRANCH   3   4
ENDBRANCH   2   3
ENDBRANCH   1   2
BRANCH   1   8
ATOM      8  C   UNL     1       1.266   0.051  -7.672  1.00  0.00     0.072 C 
BRANCH   8   9
ATOM      9  C   UNL     1       1.799   0.206  -9.113  1.00  0.00     0.227 C 
BRANCH   9  10
ATOM     10  N   UNL     1       3.253   0.422  -9.136  1.00  0.00    -0.350 N 
ATOM     11  H   UNL     1       3.548   0.759 -10.082  1.00  0.00     0.345 HD
ATOM     12  H   UNL     1       3.765  -0.463  -8.913  1.00  0.00     0.345 HD
ATOM     13  H   UNL     1       3.518   1.159  -8.445  1.00  0.00     0.345 HD
ENDBRANCH   9  10
BRANCH   9  14
ATOM     14  C   UNL     1       1.450  -1.021  -9.912  1.00  0.00     0.099 C 
ATOM     15  O   UNL     1       0.387  -1.653  -9.670  1.00  0.00    -0.544 OA
ATOM     16  O   UNL     1       2.306  -1.476 -10.907  1.00  0.00    -0.544 OA
ENDBRANCH   9  14
ENDBRANCH   8   9
ENDBRANCH   1   8
TORSDOF 7
ENDMDL
