MODEL 1
REMARK VINA RESULT:    -3.028      0.000      0.000
REMARK INTER + INTRA:          -3.862
REMARK INTER:                  -3.736
REMARK INTRA:                  -0.127
REMARK UNBOUND:                -0.127
REMARK SMILES CCCCCC(=O)[O-]
REMARK SMILES IDX 4 1 5 2 6 3 7 4 8 5 3 6 2 7 1 8
REMARK H PARENT
REMARK Flexibility Score: inf
ROOT
ATOM      1  C   UNL     1      61.684  33.151  60.372  1.00  0.00     0.006 C 
ENDROOT
BRANCH   1   2
ATOM      2  C   UNL     1      62.539  31.894  60.557  1.00  0.00     0.053 C 
BRANCH   2   3
ATOM      3  C   UNL     1      61.807  30.877  61.374  1.00  0.00     0.041 C 
ATOM      4  O   UNL     1      62.358  29.784  61.668  1.00  0.00    -0.550 OA
ATOM      5  O   UNL     1      60.534  31.157  61.854  1.00  0.00    -0.550 OA
ENDBRANCH   2   3
ENDBRANCH   1   2
BRANCH   1   6
ATOM      6  C   UNL     1      62.549  34.419  60.443  1.00  0.00     0.000 C 
BRANCH   6   7
ATOM      7  C   UNL     1      63.988  34.125  60.897  1.00  0.00    -0.003 C 
ATOM      8  C   UNL     1      64.615  35.288  61.665  1.00  0.00     0.004 C 
ENDBRANCH   6   7
ENDBRANCH   1   6
TORSDOF 4
ENDMDL
MODEL 2
REMARK VINA RESULT:    -3.011      0.148      1.152
REMARK INTER + INTRA:          -3.842
REMARK INTER:                  -3.703
REMARK INTRA:                  -0.139
REMARK UNBOUND:                -0.127
REMARK SMILES CCCCCC(=O)[O-]
REMARK SMILES IDX 4 1 5 2 6 3 7 4 8 5 3 6 2 7 1 8
REMARK H PARENT
REMARK Flexibility Score: inf
ROOT
ATOM      1  C   UNL     1      61.701  33.017  60.181  1.00  0.00     0.006 C 
ENDROOT
BRANCH   1   2
ATOM      2  C   UNL     1      62.562  31.798  60.527  1.00  0.00     0.053 C 
BRANCH   2   3
ATOM      3  C   UNL     1      61.789  30.834  61.370  1.00  0.00     0.041 C 
ATOM      4  O   UNL     1      60.641  31.135  61.788  1.00  0.00    -0.550 OA
ATOM      5  O   UNL     1      62.318  29.580  61.654  1.00  0.00    -0.550 OA
ENDBRANCH   2   3
ENDBRANCH   1   2
BRANCH   1   6
ATOM      6  C   UNL     1      62.441  34.323  60.510  1.00  0.00     0.000 C 
BRANCH   6   7
ATOM      7  C   UNL     1      63.922  34.092  60.848  1.00  0.00    -0.003 C 
ATOM      8  C   UNL     1      64.559  35.283  61.561  1.00  0.00     0.004 C 
ENDBRANCH   6   7
ENDBRANCH   1   6
TORSDOF 4
ENDMDL
MODEL 3
REMARK VINA RESULT:    -2.990     12.934     13.982
REMARK INTER + INTRA:          -3.816
REMARK INTER:                  -3.680
REMARK INTRA:                  -0.136
REMARK UNBOUND:                -0.127
REMARK SMILES CCCCCC(=O)[O-]
REMARK SMILES IDX 4 1 5 2 6 3 7 4 8 5 3 6 2 7 1 8
REMARK H PARENT
REMARK Flexibility Score: inf
ROOT
ATOM      1  C   UNL     1      56.719  28.720  50.611  1.00  0.00     0.006 C 
ENDROOT
BRANCH   1   2
ATOM      2  C   UNL     1      57.926  27.796  50.420  1.00  0.00     0.053 C 
BRANCH   2   3
ATOM      3  C   UNL     1      58.944  28.438  49.532  1.00  0.00     0.041 C 
ATOM      4  O   UNL     1      58.741  29.590  49.066  1.00  0.00    -0.550 OA
ATOM      5  O   UNL     1      60.139  27.785  49.258  1.00  0.00    -0.550 OA
ENDBRANCH   2   3
ENDBRANCH   1   2
BRANCH   1   6
ATOM      6  C   UNL     1      55.404  27.956  50.397  1.00  0.00     0.000 C 
BRANCH   6   7
ATOM      7  C   UNL     1      55.632  26.496  49.977  1.00  0.00    -0.003 C 
ATOM      8  C   UNL     1      54.433  25.896  49.245  1.00  0.00     0.004 C 
ENDBRANCH   6   7
ENDBRANCH   1   6
TORSDOF 4
ENDMDL
MODEL 4
REMARK VINA RESULT:    -2.926     12.978     13.686
REMARK INTER + INTRA:          -3.737
REMARK INTER:                  -3.673
REMARK INTRA:                  -0.064
REMARK UNBOUND:                -0.127
REMARK SMILES CCCCCC(=O)[O-]
REMARK SMILES IDX 4 1 5 2 6 3 7 4 8 5 3 6 2 7 1 8
REMARK H PARENT
REMARK Flexibility Score: inf
ROOT
ATOM      1  C   UNL     1      56.962  28.073  50.435  1.00  0.00     0.006 C 
ENDROOT
BRANCH   1   2
ATOM      2  C   UNL     1      55.502  28.459  50.689  1.00  0.00     0.053 C 
BRANCH   2   3
ATOM      3  C   UNL     1      54.582  27.574  49.909  1.00  0.00     0.041 C 
ATOM      4  O   UNL     1      53.446  27.990  49.561  1.00  0.00    -0.550 OA
ATOM      5  O   UNL     1      54.999  26.305  49.525  1.00  0.00    -0.550 OA
ENDBRANCH   2   3
ENDBRANCH   1   2
BRANCH   1   6
ATOM      6  C   UNL     1      57.860  29.319  50.392  1.00  0.00     0.000 C 
BRANCH   6   7
ATOM      7  C   UNL     1      58.868  29.279  49.233  1.00  0.00    -0.003 C 
ATOM      8  C   UNL     1      59.798  28.069  49.299  1.00  0.00     0.004 C 
ENDBRANCH   6   7
ENDBRANCH   1   6
TORSDOF 4
ENDMDL
MODEL 5
REMARK VINA RESULT:    -2.897      2.870      4.356
REMARK INTER + INTRA:          -3.702
REMARK INTER:                  -3.638
REMARK INTRA:                  -0.064
REMARK UNBOUND:                -0.127
REMARK SMILES CCCCCC(=O)[O-]
REMARK SMILES IDX 4 1 5 2 6 3 7 4 8 5 3 6 2 7 1 8
REMARK H PARENT
REMARK Flexibility Score: inf
ROOT
ATOM      1  C   UNL     1      62.306  32.922  60.493  1.00  0.00     0.006 C 
ENDROOT
BRANCH   1   2
ATOM      2  C   UNL     1      61.987  34.394  60.208  1.00  0.00     0.053 C 
BRANCH   2   3
ATOM      3  C   UNL     1      62.926  35.287  60.955  1.00  0.00     0.041 C 
ATOM      4  O   UNL     1      64.070  34.874  61.281  1.00  0.00    -0.550 OA
ATOM      5  O   UNL     1      62.555  36.594  61.249  1.00  0.00    -0.550 OA
ENDBRANCH   2   3
ENDBRANCH   1   2
BRANCH   1   6
ATOM      6  C   UNL     1      61.040  32.058  60.395  1.00  0.00     0.000 C 
BRANCH   6   7
ATOM      7  C   UNL     1      60.907  31.074  61.568  1.00  0.00    -0.003 C 
ATOM      8  C   UNL     1      62.061  30.075  61.637  1.00  0.00     0.004 C 
ENDBRANCH   6   7
ENDBRANCH   1   6
TORSDOF 4
ENDMDL
MODEL 6
REMARK VINA RESULT:    -2.862      1.035      1.391
REMARK INTER + INTRA:          -3.658
REMARK INTER:                  -3.580
REMARK INTRA:                  -0.079
REMARK UNBOUND:                -0.127
REMARK SMILES CCCCCC(=O)[O-]
REMARK SMILES IDX 4 1 5 2 6 3 7 4 8 5 3 6 2 7 1 8
REMARK H PARENT
REMARK Flexibility Score: inf
ROOT
ATOM      1  C   UNL     1      62.587  34.008  60.454  1.00  0.00     0.006 C 
ENDROOT
BRANCH   1   2
ATOM      2  C   UNL     1      61.343  33.145  60.219  1.00  0.00     0.053 C 
BRANCH   2   3
ATOM      3  C   UNL     1      61.521  31.791  60.830  1.00  0.00     0.041 C 
ATOM      4  O   UNL     1      62.583  31.143  60.636  1.00  0.00    -0.550 OA
ATOM      5  O   UNL     1      60.533  31.265  61.654  1.00  0.00    -0.550 OA
ENDBRANCH   2   3
ENDBRANCH   1   2
BRANCH   1   6
ATOM      6  C   UNL     1      62.195  35.451  60.805  1.00  0.00     0.000 C 
BRANCH   6   7
ATOM      7  C   UNL     1      63.409  36.317  61.176  1.00  0.00    -0.003 C 
ATOM      8  C   UNL     1      64.578  35.496  61.720  1.00  0.00     0.004 C 
ENDBRANCH   6   7
ENDBRANCH   1   6
TORSDOF 4
ENDMDL
MODEL 7
REMARK VINA RESULT:    -2.799     12.357     13.269
REMARK INTER + INTRA:          -3.580
REMARK INTER:                  -3.525
REMARK INTRA:                  -0.054
REMARK UNBOUND:                -0.127
REMARK SMILES CCCCCC(=O)[O-]
REMARK SMILES IDX 4 1 5 2 6 3 7 4 8 5 3 6 2 7 1 8
REMARK H PARENT
REMARK Flexibility Score: inf
ROOT
ATOM      1  C   UNL     1      58.117  29.222  50.391  1.00  0.00     0.006 C 
ENDROOT
BRANCH   1   2
ATOM      2  C   UNL     1      58.978  28.976  49.148  1.00  0.00     0.053 C 
BRANCH   2   3
ATOM      3  C   UNL     1      60.045  27.969  49.440  1.00  0.00     0.041 C 
ATOM      4  O   UNL     1      59.773  26.740  49.443  1.00  0.00    -0.550 OA
ATOM      5  O   UNL     1      61.352  28.386  49.663  1.00  0.00    -0.550 OA
ENDBRANCH   2   3
ENDBRANCH   1   2
BRANCH   1   6
ATOM      6  C   UNL     1      56.871  28.324  50.382  1.00  0.00     0.000 C 
BRANCH   6   7
ATOM      7  C   UNL     1      55.590  29.090  50.743  1.00  0.00    -0.003 C 
ATOM      8  C   UNL     1      54.322  28.383  50.265  1.00  0.00     0.004 C 
ENDBRANCH   6   7
ENDBRANCH   1   6
TORSDOF 4
ENDMDL
MODEL 8
REMARK VINA RESULT:    -2.703      2.334      3.058
REMARK INTER + INTRA:          -3.462
REMARK INTER:                  -3.341
REMARK INTRA:                  -0.120
REMARK UNBOUND:                -0.127
REMARK SMILES CCCCCC(=O)[O-]
REMARK SMILES IDX 4 1 5 2 6 3 7 4 8 5 3 6 2 7 1 8
REMARK H PARENT
REMARK Flexibility Score: inf
ROOT
ATOM      1  C   UNL     1      61.796  30.436  61.606  1.00  0.00     0.006 C 
ENDROOT
BRANCH   1   2
ATOM      2  C   UNL     1      63.302  30.481  61.331  1.00  0.00     0.053 C 
BRANCH   2   3
ATOM      3  C   UNL     1      63.815  29.116  61.001  1.00  0.00     0.041 C 
ATOM      4  O   UNL     1      65.038  28.940  60.753  1.00  0.00    -0.550 OA
ATOM      5  O   UNL     1      62.952  28.027  61.013  1.00  0.00    -0.550 OA
ENDBRANCH   2   3
ENDBRANCH   1   2
BRANCH   1   6
ATOM      6  C   UNL     1      61.087  31.648  60.983  1.00  0.00     0.000 C 
BRANCH   6   7
ATOM      7  C   UNL     1      62.075  32.703  60.459  1.00  0.00    -0.003 C 
ATOM      8  C   UNL     1      61.397  34.025  60.105  1.00  0.00     0.004 C 
ENDBRANCH   6   7
ENDBRANCH   1   6
TORSDOF 4
ENDMDL
MODEL 9
REMARK VINA RESULT:    -2.691     13.527     14.603
REMARK INTER + INTRA:          -3.447
REMARK INTER:                  -3.323
REMARK INTRA:                  -0.124
REMARK UNBOUND:                -0.127
REMARK SMILES CCCCCC(=O)[O-]
REMARK SMILES IDX 4 1 5 2 6 3 7 4 8 5 3 6 2 7 1 8
REMARK H PARENT
REMARK Flexibility Score: inf
ROOT
ATOM      1  C   UNL     1      56.320  27.437  50.533  1.00  0.00     0.006 C 
ENDROOT
BRANCH   1   2
ATOM      2  C   UNL     1      57.193  26.247  50.121  1.00  0.00     0.053 C 
BRANCH   2   3
ATOM      3  C   UNL     1      58.602  26.688  49.883  1.00  0.00     0.041 C 
ATOM      4  O   UNL     1      58.857  27.899  49.650  1.00  0.00    -0.550 OA
ATOM      5  O   UNL     1      59.641  25.769  49.967  1.00  0.00    -0.550 OA
ENDBRANCH   2   3
ENDBRANCH   1   2
BRANCH   1   6
ATOM      6  C   UNL     1      54.883  27.269  50.018  1.00  0.00     0.000 C 
BRANCH   6   7
ATOM      7  C   UNL     1      54.661  25.917  49.321  1.00  0.00    -0.003 C 
ATOM      8  C   UNL     1      53.187  25.523  49.250  1.00  0.00     0.004 C 
ENDBRANCH   6   7
ENDBRANCH   1   6
TORSDOF 4
ENDMDL
