MODEL 1
REMARK VINA RESULT:    -3.003      0.000      0.000
REMARK INTER + INTRA:          -3.003
REMARK INTER:                  -3.003
REMARK INTRA:                   0.000
REMARK UNBOUND:                 0.000
REMARK SMILES CC(C)=C1CC[C@@H](C)CC1=O
REMARK SMILES IDX 8 1 7 2 6 3 5 4 4 5 2 6 1 7 3 8 10 9 11 10 9 11
REMARK H PARENT
REMARK Flexibility Score: inf
ROOT
ATOM      1  C   UNL     1      10.736  21.774  19.703  1.00  0.00     0.008 C 
ATOM      2  C   UNL     1      10.019  21.970  21.044  1.00  0.00    -0.006 C 
ATOM      3  C   UNL     1       9.387  23.369  21.120  1.00  0.00     0.008 C 
ATOM      4  C   UNL     1       8.578  23.546  22.412  1.00  0.00     0.039 C 
ATOM      5  C   UNL     1       9.384  23.200  23.658  1.00  0.00    -0.006 C 
ATOM      6  C   UNL     1       9.165  23.839  24.844  1.00  0.00    -0.070 C 
ATOM      7  C   UNL     1       9.997  23.545  26.071  1.00  0.00     0.039 C 
ATOM      8  C   UNL     1       8.101  24.905  24.976  1.00  0.00     0.039 C 
ATOM      9  C   UNL     1      10.331  22.053  23.527  1.00  0.00     0.159 C 
ATOM     10  O   UNL     1      10.585  21.300  24.505  1.00  0.00    -0.295 OA
ATOM     11  C   UNL     1      10.997  21.772  22.211  1.00  0.00     0.084 C 
ENDROOT
TORSDOF 0
ENDMDL
MODEL 2
REMARK VINA RESULT:    -2.948      1.540      4.548
REMARK INTER + INTRA:          -2.948
REMARK INTER:                  -2.948
REMARK INTRA:                   0.000
REMARK UNBOUND:                 0.000
REMARK SMILES CC(C)=C1CC[C@@H](C)CC1=O
REMARK SMILES IDX 8 1 7 2 6 3 5 4 4 5 2 6 1 7 3 8 10 9 11 10 9 11
REMARK H PARENT
REMARK Flexibility Score: inf
ROOT
ATOM      1  C   UNL     1      10.173  22.715  27.105  1.00  0.00     0.008 C 
ATOM      2  C   UNL     1       9.843  22.390  25.644  1.00  0.00    -0.006 C 
ATOM      3  C   UNL     1      11.045  21.726  24.952  1.00  0.00     0.008 C 
ATOM      4  C   UNL     1      10.699  21.300  23.520  1.00  0.00     0.039 C 
ATOM      5  C   UNL     1      10.108  22.439  22.698  1.00  0.00    -0.006 C 
ATOM      6  C   UNL     1      10.314  22.524  21.351  1.00  0.00    -0.070 C 
ATOM      7  C   UNL     1       9.781  23.679  20.537  1.00  0.00     0.039 C 
ATOM      8  C   UNL     1      11.123  21.480  20.615  1.00  0.00     0.039 C 
ATOM      9  C   UNL     1       9.206  23.376  23.432  1.00  0.00     0.159 C 
ATOM     10  O   UNL     1       8.233  23.934  22.855  1.00  0.00    -0.295 OA
ATOM     11  C   UNL     1       9.441  23.664  24.887  1.00  0.00     0.084 C 
ENDROOT
TORSDOF 0
ENDMDL
MODEL 3
REMARK VINA RESULT:    -2.935      4.315      5.709
REMARK INTER + INTRA:          -2.935
REMARK INTER:                  -2.935
REMARK INTRA:                   0.000
REMARK UNBOUND:                 0.000
REMARK SMILES CC(C)=C1CC[C@@H](C)CC1=O
REMARK SMILES IDX 8 1 7 2 6 3 5 4 4 5 2 6 1 7 3 8 10 9 11 10 9 11
REMARK H PARENT
REMARK Flexibility Score: inf
ROOT
ATOM      1  C   UNL     1      10.255  25.403  22.211  1.00  0.00     0.008 C 
ATOM      2  C   UNL     1       8.858  25.856  21.768  1.00  0.00    -0.006 C 
ATOM      3  C   UNL     1       7.800  25.432  22.798  1.00  0.00     0.008 C 
ATOM      4  C   UNL     1       6.411  25.966  22.423  1.00  0.00     0.039 C 
ATOM      5  C   UNL     1       6.014  25.610  20.996  1.00  0.00    -0.006 C 
ATOM      6  C   UNL     1       4.710  25.392  20.656  1.00  0.00    -0.070 C 
ATOM      7  C   UNL     1       4.310  24.982  19.258  1.00  0.00     0.039 C 
ATOM      8  C   UNL     1       3.603  25.514  21.679  1.00  0.00     0.039 C 
ATOM      9  C   UNL     1       7.114  25.629  19.987  1.00  0.00     0.159 C 
ATOM     10  O   UNL     1       6.895  25.950  18.787  1.00  0.00    -0.295 OA
ATOM     11  C   UNL     1       8.515  25.270  20.391  1.00  0.00     0.084 C 
ENDROOT
TORSDOF 0
ENDMDL
MODEL 4
REMARK VINA RESULT:    -2.920      1.869      3.447
REMARK INTER + INTRA:          -2.920
REMARK INTER:                  -2.920
REMARK INTRA:                   0.000
REMARK UNBOUND:                 0.000
REMARK SMILES CC(C)=C1CC[C@@H](C)CC1=O
REMARK SMILES IDX 8 1 7 2 6 3 5 4 4 5 2 6 1 7 3 8 10 9 11 10 9 11
REMARK H PARENT
REMARK Flexibility Score: inf
ROOT
ATOM      1  C   UNL     1       6.836  26.122  21.231  1.00  0.00     0.008 C 
ATOM      2  C   UNL     1       7.322  24.849  21.934  1.00  0.00    -0.006 C 
ATOM      3  C   UNL     1       7.878  25.179  23.328  1.00  0.00     0.008 C 
ATOM      4  C   UNL     1       8.274  23.905  24.087  1.00  0.00     0.039 C 
ATOM      5  C   UNL     1       9.210  23.013  23.281  1.00  0.00    -0.006 C 
ATOM      6  C   UNL     1      10.154  22.240  23.892  1.00  0.00    -0.070 C 
ATOM      7  C   UNL     1      11.125  21.395  23.100  1.00  0.00     0.039 C 
ATOM      8  C   UNL     1      10.300  22.224  25.397  1.00  0.00     0.039 C 
ATOM      9  C   UNL     1       8.951  22.951  21.811  1.00  0.00     0.159 C 
ATOM     10  O   UNL     1       9.182  21.903  21.150  1.00  0.00    -0.295 OA
ATOM     11  C   UNL     1       8.399  24.148  21.092  1.00  0.00     0.084 C 
ENDROOT
TORSDOF 0
ENDMDL
MODEL 5
REMARK VINA RESULT:    -2.870      1.952      3.237
REMARK INTER + INTRA:          -2.870
REMARK INTER:                  -2.870
REMARK INTRA:                   0.000
REMARK UNBOUND:                 0.000
REMARK SMILES CC(C)=C1CC[C@@H](C)CC1=O
REMARK SMILES IDX 8 1 7 2 6 3 5 4 4 5 2 6 1 7 3 8 10 9 11 10 9 11
REMARK H PARENT
REMARK Flexibility Score: inf
ROOT
ATOM      1  C   UNL     1       8.006  25.773  19.941  1.00  0.00     0.008 C 
ATOM      2  C   UNL     1       8.752  25.194  21.148  1.00  0.00    -0.006 C 
ATOM      3  C   UNL     1       9.587  23.972  20.733  1.00  0.00     0.008 C 
ATOM      4  C   UNL     1      10.421  23.442  21.907  1.00  0.00     0.039 C 
ATOM      5  C   UNL     1       9.580  23.180  23.150  1.00  0.00    -0.006 C 
ATOM      6  C   UNL     1       9.900  22.182  24.025  1.00  0.00    -0.070 C 
ATOM      7  C   UNL     1       9.041  21.876  25.230  1.00  0.00     0.039 C 
ATOM      8  C   UNL     1      11.112  21.306  23.806  1.00  0.00     0.039 C 
ATOM      9  C   UNL     1       8.471  24.147  23.405  1.00  0.00     0.159 C 
ATOM     10  O   UNL     1       8.113  24.436  24.579  1.00  0.00    -0.295 OA
ATOM     11  C   UNL     1       7.762  24.801  22.255  1.00  0.00     0.084 C 
ENDROOT
TORSDOF 0
ENDMDL
MODEL 6
REMARK VINA RESULT:    -2.838      2.234      3.709
REMARK INTER + INTRA:          -2.838
REMARK INTER:                  -2.838
REMARK INTRA:                   0.000
REMARK UNBOUND:                 0.000
REMARK SMILES CC(C)=C1CC[C@@H](C)CC1=O
REMARK SMILES IDX 8 1 7 2 6 3 5 4 4 5 2 6 1 7 3 8 10 9 11 10 9 11
REMARK H PARENT
REMARK Flexibility Score: inf
ROOT
ATOM      1  C   UNL     1      10.718  21.413  24.416  1.00  0.00     0.008 C 
ATOM      2  C   UNL     1      10.133  22.693  23.808  1.00  0.00    -0.006 C 
ATOM      3  C   UNL     1       8.926  23.179  24.626  1.00  0.00     0.008 C 
ATOM      4  C   UNL     1       8.392  24.514  24.093  1.00  0.00     0.039 C 
ATOM      5  C   UNL     1       8.106  24.473  22.597  1.00  0.00    -0.006 C 
ATOM      6  C   UNL     1       7.101  25.216  22.047  1.00  0.00    -0.070 C 
ATOM      7  C   UNL     1       6.771  25.140  20.574  1.00  0.00     0.039 C 
ATOM      8  C   UNL     1       6.242  26.124  22.897  1.00  0.00     0.039 C 
ATOM      9  C   UNL     1       9.056  23.671  21.770  1.00  0.00     0.159 C 
ATOM     10  O   UNL     1       9.327  23.998  20.583  1.00  0.00    -0.295 OA
ATOM     11  C   UNL     1       9.716  22.453  22.349  1.00  0.00     0.084 C 
ENDROOT
TORSDOF 0
ENDMDL
MODEL 7
REMARK VINA RESULT:    -2.787      1.557      2.434
REMARK INTER + INTRA:          -2.787
REMARK INTER:                  -2.787
REMARK INTRA:                   0.000
REMARK UNBOUND:                 0.000
REMARK SMILES CC(C)=C1CC[C@@H](C)CC1=O
REMARK SMILES IDX 8 1 7 2 6 3 5 4 4 5 2 6 1 7 3 8 10 9 11 10 9 11
REMARK H PARENT
REMARK Flexibility Score: inf
ROOT
ATOM      1  C   UNL     1      10.807  21.646  19.250  1.00  0.00     0.008 C 
ATOM      2  C   UNL     1      10.854  22.304  20.634  1.00  0.00    -0.006 C 
ATOM      3  C   UNL     1      10.973  21.238  21.735  1.00  0.00     0.008 C 
ATOM      4  C   UNL     1      11.125  21.882  23.120  1.00  0.00     0.039 C 
ATOM      5  C   UNL     1      10.033  22.904  23.411  1.00  0.00    -0.006 C 
ATOM      6  C   UNL     1       9.577  23.112  24.681  1.00  0.00    -0.070 C 
ATOM      7  C   UNL     1       8.455  24.081  24.974  1.00  0.00     0.039 C 
ATOM      8  C   UNL     1      10.148  22.348  25.854  1.00  0.00     0.039 C 
ATOM      9  C   UNL     1       9.587  23.734  22.253  1.00  0.00     0.159 C 
ATOM     10  O   UNL     1       9.199  24.923  22.410  1.00  0.00    -0.295 OA
ATOM     11  C   UNL     1       9.599  23.159  20.865  1.00  0.00     0.084 C 
ENDROOT
TORSDOF 0
ENDMDL
MODEL 8
REMARK VINA RESULT:    -2.678      3.493      5.124
REMARK INTER + INTRA:          -2.678
REMARK INTER:                  -2.678
REMARK INTRA:                   0.000
REMARK UNBOUND:                 0.000
REMARK SMILES CC(C)=C1CC[C@@H](C)CC1=O
REMARK SMILES IDX 8 1 7 2 6 3 5 4 4 5 2 6 1 7 3 8 10 9 11 10 9 11
REMARK H PARENT
REMARK Flexibility Score: inf
ROOT
ATOM      1  C   UNL     1       4.375  26.050  19.496  1.00  0.00     0.008 C 
ATOM      2  C   UNL     1       5.796  26.107  20.070  1.00  0.00    -0.006 C 
ATOM      3  C   UNL     1       6.838  25.967  18.950  1.00  0.00     0.008 C 
ATOM      4  C   UNL     1       8.265  26.125  19.492  1.00  0.00     0.039 C 
ATOM      5  C   UNL     1       8.546  25.202  20.671  1.00  0.00    -0.006 C 
ATOM      6  C   UNL     1       9.795  24.697  20.894  1.00  0.00    -0.070 C 
ATOM      7  C   UNL     1      10.073  23.735  22.026  1.00  0.00     0.039 C 
ATOM      8  C   UNL     1      10.955  25.047  19.990  1.00  0.00     0.039 C 
ATOM      9  C   UNL     1       7.413  24.985  21.618  1.00  0.00     0.159 C 
ATOM     10  O   UNL     1       7.615  24.791  22.847  1.00  0.00    -0.295 OA
ATOM     11  C   UNL     1       5.997  25.000  21.115  1.00  0.00     0.084 C 
ENDROOT
TORSDOF 0
ENDMDL
MODEL 9
REMARK VINA RESULT:    -2.557     19.868     20.759
REMARK INTER + INTRA:          -2.557
REMARK INTER:                  -2.557
REMARK INTRA:                   0.000
REMARK UNBOUND:                 0.000
REMARK SMILES CC(C)=C1CC[C@@H](C)CC1=O
REMARK SMILES IDX 8 1 7 2 6 3 5 4 4 5 2 6 1 7 3 8 10 9 11 10 9 11
REMARK H PARENT
REMARK Flexibility Score: inf
ROOT
ATOM      1  C   UNL     1      -2.374  24.941   6.899  1.00  0.00     0.008 C 
ATOM      2  C   UNL     1      -3.782  24.712   7.462  1.00  0.00    -0.006 C 
ATOM      3  C   UNL     1      -4.482  26.053   7.729  1.00  0.00     0.008 C 
ATOM      4  C   UNL     1      -5.929  25.844   8.196  1.00  0.00     0.039 C 
ATOM      5  C   UNL     1      -6.029  24.886   9.376  1.00  0.00    -0.006 C 
ATOM      6  C   UNL     1      -7.004  25.024  10.321  1.00  0.00    -0.070 C 
ATOM      7  C   UNL     1      -7.079  24.116  11.526  1.00  0.00     0.039 C 
ATOM      8  C   UNL     1      -8.037  26.125  10.226  1.00  0.00     0.039 C 
ATOM      9  C   UNL     1      -5.079  23.734   9.367  1.00  0.00     0.159 C 
ATOM     10  O   UNL     1      -5.397  22.619   9.862  1.00  0.00    -0.295 OA
ATOM     11  C   UNL     1      -3.716  23.886   8.755  1.00  0.00     0.084 C 
ENDROOT
TORSDOF 0
ENDMDL
