MODEL 1
REMARK VINA RESULT:    -4.181      0.000      0.000
REMARK INTER + INTRA:          -6.515
REMARK INTER:                  -6.136
REMARK INTRA:                  -0.378
REMARK UNBOUND:                -0.378
REMARK SMILES O=C([O-])CCCCCCCC(=O)[O-]
REMARK SMILES IDX 7 1 6 2 5 3 4 4 2 5 1 6 3 7 8 8 9 9 10 10 11 11 12 12 13 13
REMARK H PARENT
REMARK Flexibility Score: inf
ROOT
ATOM      1  C   UNL     1      -0.452   3.012  -4.317  1.00  0.00     0.000 C 
ENDROOT
BRANCH   1   2
ATOM      2  C   UNL     1       1.046   3.239  -4.587  1.00  0.00     0.000 C 
BRANCH   2   3
ATOM      3  C   UNL     1       1.902   3.131  -3.312  1.00  0.00     0.006 C 
BRANCH   3   4
ATOM      4  C   UNL     1       2.855   1.925  -3.293  1.00  0.00     0.053 C 
BRANCH   4   5
ATOM      5  C   UNL     1       4.292   2.343  -3.371  1.00  0.00     0.041 C 
ATOM      6  O   UNL     1       4.666   3.167  -4.247  1.00  0.00    -0.550 OA
ATOM      7  O   UNL     1       5.224   1.796  -2.498  1.00  0.00    -0.550 OA
ENDBRANCH   4   5
ENDBRANCH   3   4
ENDBRANCH   2   3
ENDBRANCH   1   2
BRANCH   1   8
ATOM      8  C   UNL     1      -0.785   2.998  -2.817  1.00  0.00     0.000 C 
BRANCH   8   9
ATOM      9  C   UNL     1      -2.126   2.311  -2.516  1.00  0.00     0.006 C 
BRANCH   9  10
ATOM     10  C   UNL     1      -2.667   1.596  -3.760  1.00  0.00     0.053 C 
BRANCH  10  11
ATOM     11  C   UNL     1      -3.788   0.678  -3.390  1.00  0.00     0.041 C 
ATOM     12  O   UNL     1      -3.595  -0.564  -3.323  1.00  0.00    -0.550 OA
ATOM     13  O   UNL     1      -5.062   1.190  -3.169  1.00  0.00    -0.550 OA
ENDBRANCH  10  11
ENDBRANCH   9  10
ENDBRANCH   8   9
ENDBRANCH   1   8
TORSDOF 8
ENDMDL
MODEL 2
REMARK VINA RESULT:    -4.153      1.250      6.567
REMARK INTER + INTRA:          -6.474
REMARK INTER:                  -6.010
REMARK INTRA:                  -0.463
REMARK UNBOUND:                -0.378
REMARK SMILES O=C([O-])CCCCCCCC(=O)[O-]
REMARK SMILES IDX 7 1 6 2 5 3 4 4 2 5 1 6 3 7 8 8 9 9 10 10 11 11 12 12 13 13
REMARK H PARENT
REMARK Flexibility Score: inf
ROOT
ATOM      1  C   UNL     1       1.575   3.473  -4.902  1.00  0.00     0.000 C 
ENDROOT
BRANCH   1   2
ATOM      2  C   UNL     1       0.106   3.607  -5.340  1.00  0.00     0.000 C 
BRANCH   2   3
ATOM      3  C   UNL     1      -0.879   3.471  -4.165  1.00  0.00     0.006 C 
BRANCH   3   4
ATOM      4  C   UNL     1      -1.992   2.436  -4.392  1.00  0.00     0.053 C 
BRANCH   4   5
ATOM      5  C   UNL     1      -2.447   1.809  -3.110  1.00  0.00     0.041 C 
ATOM      6  O   UNL     1      -3.032   0.694  -3.122  1.00  0.00    -0.550 OA
ATOM      7  O   UNL     1      -2.258   2.474  -1.904  1.00  0.00    -0.550 OA
ENDBRANCH   4   5
ENDBRANCH   3   4
ENDBRANCH   2   3
ENDBRANCH   1   2
BRANCH   1   8
ATOM      8  C   UNL     1       1.719   3.208  -3.395  1.00  0.00     0.000 C 
BRANCH   8   9
ATOM      9  C   UNL     1       2.474   1.904  -3.095  1.00  0.00     0.006 C 
BRANCH   9  10
ATOM     10  C   UNL     1       3.746   1.798  -3.943  1.00  0.00     0.053 C 
BRANCH  10  11
ATOM     11  C   UNL     1       4.895   2.456  -3.247  1.00  0.00     0.041 C 
ATOM     12  O   UNL     1       5.432   1.906  -2.250  1.00  0.00    -0.550 OA
ATOM     13  O   UNL     1       5.342   3.703  -3.670  1.00  0.00    -0.550 OA
ENDBRANCH  10  11
ENDBRANCH   9  10
ENDBRANCH   8   9
ENDBRANCH   1   8
TORSDOF 8
ENDMDL
MODEL 3
REMARK VINA RESULT:    -4.133      0.735      6.986
REMARK INTER + INTRA:          -6.444
REMARK INTER:                  -6.148
REMARK INTRA:                  -0.296
REMARK UNBOUND:                -0.378
REMARK SMILES O=C([O-])CCCCCCCC(=O)[O-]
REMARK SMILES IDX 7 1 6 2 5 3 4 4 2 5 1 6 3 7 8 8 9 9 10 10 11 11 12 12 13 13
REMARK H PARENT
REMARK Flexibility Score: inf
ROOT
ATOM      1  C   UNL     1       0.207   3.011  -3.203  1.00  0.00     0.000 C 
ENDROOT
BRANCH   1   2
ATOM      2  C   UNL     1      -0.553   3.061  -4.540  1.00  0.00     0.000 C 
BRANCH   2   3
ATOM      3  C   UNL     1      -2.000   2.552  -4.420  1.00  0.00     0.006 C 
BRANCH   3   4
ATOM      4  C   UNL     1      -2.312   1.843  -3.092  1.00  0.00     0.053 C 
BRANCH   4   5
ATOM      5  C   UNL     1      -3.497   0.933  -3.205  1.00  0.00     0.041 C 
ATOM      6  O   UNL     1      -4.662   1.390  -3.071  1.00  0.00    -0.550 OA
ATOM      7  O   UNL     1      -3.311  -0.427  -3.422  1.00  0.00    -0.550 OA
ENDBRANCH   4   5
ENDBRANCH   3   4
ENDBRANCH   2   3
ENDBRANCH   1   2
BRANCH   1   8
ATOM      8  C   UNL     1       1.725   3.168  -3.380  1.00  0.00     0.000 C 
BRANCH   8   9
ATOM      9  C   UNL     1       2.488   1.861  -3.117  1.00  0.00     0.006 C 
BRANCH   9  10
ATOM     10  C   UNL     1       3.779   1.805  -3.940  1.00  0.00     0.053 C 
BRANCH  10  11
ATOM     11  C   UNL     1       4.907   2.441  -3.190  1.00  0.00     0.041 C 
ATOM     12  O   UNL     1       5.250   1.995  -2.063  1.00  0.00    -0.550 OA
ATOM     13  O   UNL     1       5.547   3.558  -3.712  1.00  0.00    -0.550 OA
ENDBRANCH  10  11
ENDBRANCH   9  10
ENDBRANCH   8   9
ENDBRANCH   1   8
TORSDOF 8
ENDMDL
MODEL 4
REMARK VINA RESULT:    -4.117      1.093      1.645
REMARK INTER + INTRA:          -6.420
REMARK INTER:                  -6.077
REMARK INTRA:                  -0.343
REMARK UNBOUND:                -0.378
REMARK SMILES O=C([O-])CCCCCCCC(=O)[O-]
REMARK SMILES IDX 7 1 6 2 5 3 4 4 2 5 1 6 3 7 8 8 9 9 10 10 11 11 12 12 13 13
REMARK H PARENT
REMARK Flexibility Score: inf
ROOT
ATOM      1  C   UNL     1      -0.557   3.180  -4.416  1.00  0.00     0.000 C 
ENDROOT
BRANCH   1   2
ATOM      2  C   UNL     1       0.331   2.940  -3.183  1.00  0.00     0.000 C 
BRANCH   2   3
ATOM      3  C   UNL     1       1.828   3.143  -3.479  1.00  0.00     0.006 C 
BRANCH   3   4
ATOM      4  C   UNL     1       2.694   1.896  -3.237  1.00  0.00     0.053 C 
BRANCH   4   5
ATOM      5  C   UNL     1       4.142   2.154  -3.520  1.00  0.00     0.041 C 
ATOM      6  O   UNL     1       4.493   2.660  -4.619  1.00  0.00    -0.550 OA
ATOM      7  O   UNL     1       5.108   1.802  -2.585  1.00  0.00    -0.550 OA
ENDBRANCH   4   5
ENDBRANCH   3   4
ENDBRANCH   2   3
ENDBRANCH   1   2
BRANCH   1   8
ATOM      8  C   UNL     1      -1.920   2.479  -4.307  1.00  0.00     0.000 C 
BRANCH   8   9
ATOM      9  C   UNL     1      -2.148   1.842  -2.928  1.00  0.00     0.006 C 
BRANCH   9  10
ATOM     10  C   UNL     1      -3.231   2.596  -2.149  1.00  0.00     0.053 C 
BRANCH  10  11
ATOM     11  C   UNL     1      -4.538   2.531  -2.873  1.00  0.00     0.041 C 
ATOM     12  O   UNL     1      -5.121   3.589  -3.225  1.00  0.00    -0.550 OA
ATOM     13  O   UNL     1      -5.138   1.301  -3.115  1.00  0.00    -0.550 OA
ENDBRANCH  10  11
ENDBRANCH   9  10
ENDBRANCH   8   9
ENDBRANCH   1   8
TORSDOF 8
ENDMDL
MODEL 5
REMARK VINA RESULT:    -4.098      0.974      7.006
REMARK INTER + INTRA:          -6.393
REMARK INTER:                  -6.037
REMARK INTRA:                  -0.356
REMARK UNBOUND:                -0.378
REMARK SMILES O=C([O-])CCCCCCCC(=O)[O-]
REMARK SMILES IDX 7 1 6 2 5 3 4 4 2 5 1 6 3 7 8 8 9 9 10 10 11 11 12 12 13 13
REMARK H PARENT
REMARK Flexibility Score: inf
ROOT
ATOM      1  C   UNL     1      -0.761   2.849  -2.638  1.00  0.00     0.000 C 
ENDROOT
BRANCH   1   2
ATOM      2  C   UNL     1      -2.257   2.488  -2.596  1.00  0.00     0.000 C 
BRANCH   2   3
ATOM      3  C   UNL     1      -2.695   1.630  -3.796  1.00  0.00     0.006 C 
BRANCH   3   4
ATOM      4  C   UNL     1      -3.321   0.280  -3.411  1.00  0.00     0.053 C 
BRANCH   4   5
ATOM      5  C   UNL     1      -4.804   0.268  -3.619  1.00  0.00     0.041 C 
ATOM      6  O   UNL     1      -5.505   1.242  -3.239  1.00  0.00    -0.550 OA
ATOM      7  O   UNL     1      -5.417  -0.835  -4.200  1.00  0.00    -0.550 OA
ENDBRANCH   4   5
ENDBRANCH   3   4
ENDBRANCH   2   3
ENDBRANCH   1   2
BRANCH   1   8
ATOM      8  C   UNL     1      -0.254   3.091  -4.068  1.00  0.00     0.000 C 
BRANCH   8   9
ATOM      9  C   UNL     1       1.277   3.012  -4.173  1.00  0.00     0.006 C 
BRANCH   9  10
ATOM     10  C   UNL     1       1.860   2.151  -3.047  1.00  0.00     0.053 C 
BRANCH  10  11
ATOM     11  C   UNL     1       3.311   1.882  -3.291  1.00  0.00     0.041 C 
ATOM     12  O   UNL     1       4.135   1.946  -2.342  1.00  0.00    -0.550 OA
ATOM     13  O   UNL     1       3.760   1.608  -4.577  1.00  0.00    -0.550 OA
ENDBRANCH  10  11
ENDBRANCH   9  10
ENDBRANCH   8   9
ENDBRANCH   1   8
TORSDOF 8
ENDMDL
MODEL 6
REMARK VINA RESULT:    -4.062      1.536      2.305
REMARK INTER + INTRA:          -6.339
REMARK INTER:                  -5.858
REMARK INTRA:                  -0.482
REMARK UNBOUND:                -0.378
REMARK SMILES O=C([O-])CCCCCCCC(=O)[O-]
REMARK SMILES IDX 7 1 6 2 5 3 4 4 2 5 1 6 3 7 8 8 9 9 10 10 11 11 12 12 13 13
REMARK H PARENT
REMARK Flexibility Score: inf
ROOT
ATOM      1  C   UNL     1       1.544   3.596  -4.648  1.00  0.00     0.000 C 
ENDROOT
BRANCH   1   2
ATOM      2  C   UNL     1       2.791   3.187  -5.451  1.00  0.00     0.000 C 
BRANCH   2   3
ATOM      3  C   UNL     1       3.618   2.094  -4.750  1.00  0.00     0.006 C 
BRANCH   3   4
ATOM      4  C   UNL     1       3.338   1.961  -3.244  1.00  0.00     0.053 C 
BRANCH   4   5
ATOM      5  C   UNL     1       4.435   2.553  -2.414  1.00  0.00     0.041 C 
ATOM      6  O   UNL     1       4.335   3.730  -1.978  1.00  0.00    -0.550 OA
ATOM      7  O   UNL     1       5.585   1.818  -2.151  1.00  0.00    -0.550 OA
ENDBRANCH   4   5
ENDBRANCH   3   4
ENDBRANCH   2   3
ENDBRANCH   1   2
BRANCH   1   8
ATOM      8  C   UNL     1       0.263   3.575  -5.495  1.00  0.00     0.000 C 
BRANCH   8   9
ATOM      9  C   UNL     1      -1.010   3.480  -4.640  1.00  0.00     0.006 C 
BRANCH   9  10
ATOM     10  C   UNL     1      -0.717   2.806  -3.295  1.00  0.00     0.053 C 
BRANCH  10  11
ATOM     11  C   UNL     1      -1.962   2.196  -2.733  1.00  0.00     0.041 C 
ATOM     12  O   UNL     1      -2.421   2.595  -1.630  1.00  0.00    -0.550 OA
ATOM     13  O   UNL     1      -2.588   1.152  -3.402  1.00  0.00    -0.550 OA
ENDBRANCH  10  11
ENDBRANCH   9  10
ENDBRANCH   8   9
ENDBRANCH   1   8
TORSDOF 8
ENDMDL
MODEL 7
REMARK VINA RESULT:    -4.036      1.246      6.967
REMARK INTER + INTRA:          -6.301
REMARK INTER:                  -5.937
REMARK INTRA:                  -0.365
REMARK UNBOUND:                -0.378
REMARK SMILES O=C([O-])CCCCCCCC(=O)[O-]
REMARK SMILES IDX 7 1 6 2 5 3 4 4 2 5 1 6 3 7 8 8 9 9 10 10 11 11 12 12 13 13
REMARK H PARENT
REMARK Flexibility Score: inf
ROOT
ATOM      1  C   UNL     1      -0.806   3.233  -4.308  1.00  0.00     0.000 C 
ENDROOT
BRANCH   1   2
ATOM      2  C   UNL     1      -2.002   2.267  -4.255  1.00  0.00     0.000 C 
BRANCH   2   3
ATOM      3  C   UNL     1      -2.310   1.781  -2.827  1.00  0.00     0.006 C 
BRANCH   3   4
ATOM      4  C   UNL     1      -3.412   2.580  -2.112  1.00  0.00     0.053 C 
BRANCH   4   5
ATOM      5  C   UNL     1      -4.677   2.634  -2.913  1.00  0.00     0.041 C 
ATOM      6  O   UNL     1      -5.387   1.603  -3.044  1.00  0.00    -0.550 OA
ATOM      7  O   UNL     1      -5.053   3.814  -3.542  1.00  0.00    -0.550 OA
ENDBRANCH   4   5
ENDBRANCH   3   4
ENDBRANCH   2   3
ENDBRANCH   1   2
BRANCH   1   8
ATOM      8  C   UNL     1       0.138   3.070  -3.106  1.00  0.00     0.000 C 
BRANCH   8   9
ATOM      9  C   UNL     1       1.620   3.109  -3.510  1.00  0.00     0.006 C 
BRANCH   9  10
ATOM     10  C   UNL     1       2.366   1.882  -2.977  1.00  0.00     0.053 C 
BRANCH  10  11
ATOM     11  C   UNL     1       3.778   1.872  -3.470  1.00  0.00     0.041 C 
ATOM     12  O   UNL     1       4.735   1.846  -2.652  1.00  0.00    -0.550 OA
ATOM     13  O   UNL     1       4.039   1.941  -4.833  1.00  0.00    -0.550 OA
ENDBRANCH  10  11
ENDBRANCH   9  10
ENDBRANCH   8   9
ENDBRANCH   1   8
TORSDOF 8
ENDMDL
MODEL 8
REMARK VINA RESULT:    -3.980      0.999      1.820
REMARK INTER + INTRA:          -6.220
REMARK INTER:                  -5.886
REMARK INTRA:                  -0.334
REMARK UNBOUND:                -0.378
REMARK SMILES O=C([O-])CCCCCCCC(=O)[O-]
REMARK SMILES IDX 7 1 6 2 5 3 4 4 2 5 1 6 3 7 8 8 9 9 10 10 11 11 12 12 13 13
REMARK H PARENT
REMARK Flexibility Score: inf
ROOT
ATOM      1  C   UNL     1      -0.791   2.686  -2.679  1.00  0.00     0.000 C 
ENDROOT
BRANCH   1   2
ATOM      2  C   UNL     1      -0.275   3.018  -4.091  1.00  0.00     0.000 C 
BRANCH   2   3
ATOM      3  C   UNL     1       1.260   2.973  -4.187  1.00  0.00     0.006 C 
BRANCH   3   4
ATOM      4  C   UNL     1       1.949   2.320  -2.978  1.00  0.00     0.053 C 
BRANCH   4   5
ATOM      5  C   UNL     1       3.355   1.905  -3.288  1.00  0.00     0.041 C 
ATOM      6  O   UNL     1       4.219   1.859  -2.373  1.00  0.00    -0.550 OA
ATOM      7  O   UNL     1       3.720   1.605  -4.595  1.00  0.00    -0.550 OA
ENDBRANCH   4   5
ENDBRANCH   3   4
ENDBRANCH   2   3
ENDBRANCH   1   2
BRANCH   1   8
ATOM      8  C   UNL     1      -2.307   2.438  -2.649  1.00  0.00     0.000 C 
BRANCH   8   9
ATOM      9  C   UNL     1      -2.793   1.602  -3.843  1.00  0.00     0.006 C 
BRANCH   9  10
ATOM     10  C   UNL     1      -3.367   0.260  -3.375  1.00  0.00     0.053 C 
BRANCH  10  11
ATOM     11  C   UNL     1      -4.769   0.090  -3.868  1.00  0.00     0.041 C 
ATOM     12  O   UNL     1      -5.692   0.817  -3.418  1.00  0.00    -0.550 OA
ATOM     13  O   UNL     1      -5.065  -0.908  -4.789  1.00  0.00    -0.550 OA
ENDBRANCH  10  11
ENDBRANCH   9  10
ENDBRANCH   8   9
ENDBRANCH   1   8
TORSDOF 8
ENDMDL
MODEL 9
REMARK VINA RESULT:    -3.930      1.861      2.270
REMARK INTER + INTRA:          -6.147
REMARK INTER:                  -5.393
REMARK INTRA:                  -0.753
REMARK UNBOUND:                -0.378
REMARK SMILES O=C([O-])CCCCCCCC(=O)[O-]
REMARK SMILES IDX 7 1 6 2 5 3 4 4 2 5 1 6 3 7 8 8 9 9 10 10 11 11 12 12 13 13
REMARK H PARENT
REMARK Flexibility Score: inf
ROOT
ATOM      1  C   UNL     1      -0.770   3.351  -5.397  1.00  0.00     0.000 C 
ENDROOT
BRANCH   1   2
ATOM      2  C   UNL     1      -0.468   4.587  -4.532  1.00  0.00     0.000 C 
BRANCH   2   3
ATOM      3  C   UNL     1       0.401   4.255  -3.306  1.00  0.00     0.006 C 
BRANCH   3   4
ATOM      4  C   UNL     1       0.835   2.783  -3.219  1.00  0.00     0.053 C 
BRANCH   4   5
ATOM      5  C   UNL     1       2.312   2.619  -3.412  1.00  0.00     0.041 C 
ATOM      6  O   UNL     1       2.966   3.482  -4.055  1.00  0.00    -0.550 OA
ATOM      7  O   UNL     1       2.959   1.496  -2.912  1.00  0.00    -0.550 OA
ENDBRANCH   4   5
ENDBRANCH   3   4
ENDBRANCH   2   3
ENDBRANCH   1   2
BRANCH   1   8
ATOM      8  C   UNL     1      -2.273   3.038  -5.474  1.00  0.00     0.000 C 
BRANCH   8   9
ATOM      9  C   UNL     1      -3.100   3.868  -4.480  1.00  0.00     0.006 C 
BRANCH   9  10
ATOM     10  C   UNL     1      -3.945   2.960  -3.579  1.00  0.00     0.053 C 
BRANCH  10  11
ATOM     11  C   UNL     1      -3.066   2.058  -2.772  1.00  0.00     0.041 C 
ATOM     12  O   UNL     1      -2.391   2.521  -1.814  1.00  0.00    -0.550 OA
ATOM     13  O   UNL     1      -2.952   0.715  -3.108  1.00  0.00    -0.550 OA
ENDBRANCH  10  11
ENDBRANCH   9  10
ENDBRANCH   8   9
ENDBRANCH   1   8
TORSDOF 8
ENDMDL
