MODEL 1
REMARK VINA RESULT:    -5.052      0.000      0.000
REMARK INTER + INTRA:          -6.385
REMARK INTER:                  -6.086
REMARK INTRA:                  -0.299
REMARK UNBOUND:                -0.299
REMARK SMILES [NH3+][C@H](Cc1c[nH]c2ccccc12)C(=O)[O-]
REMARK SMILES IDX 3 1 2 2 1 3 13 7 14 8 15 9 4 10 12 11 5 12 7 13 11 14 6 15
REMARK SMILES IDX 8 16 10 17 9 19
REMARK H PARENT 1 4 1 5 1 6 6 18
REMARK Flexibility Score: inf
ROOT
ATOM      1  C   UNL     1     -22.733   3.083  24.375  1.00  0.00     0.109 C 
ENDROOT
BRANCH   1   2
ATOM      2  C   UNL     1     -21.244   2.996  23.987  1.00  0.00     0.232 C 
BRANCH   2   3
ATOM      3  N   UNL     1     -20.372   3.385  25.104  1.00  0.00    -0.350 N 
ATOM      4  H   UNL     1     -20.697   4.294  25.507  1.00  0.00     0.345 HD
ATOM      5  H   UNL     1     -20.416   2.665  25.861  1.00  0.00     0.345 HD
ATOM      6  H   UNL     1     -19.381   3.488  24.782  1.00  0.00     0.345 HD
ENDBRANCH   2   3
BRANCH   2   7
ATOM      7  C   UNL     1     -20.920   1.594  23.544  1.00  0.00     0.099 C 
ATOM      8  O   UNL     1     -21.244   1.204  22.390  1.00  0.00    -0.544 OA
ATOM      9  O   UNL     1     -20.279   0.716  24.409  1.00  0.00    -0.544 OA
ENDBRANCH   2   7
ENDBRANCH   1   2
BRANCH   1  10
ATOM     10  C   UNL     1     -23.460   4.120  23.567  1.00  0.00    -0.016 A 
ATOM     11  C   UNL     1     -24.020   3.977  22.313  1.00  0.00     0.003 A 
ATOM     12  C   UNL     1     -23.776   5.412  23.977  1.00  0.00     0.087 A 
ATOM     13  C   UNL     1     -24.631   5.170  22.014  1.00  0.00     0.046 A 
ATOM     14  C   UNL     1     -24.051   2.895  21.430  1.00  0.00     0.010 A 
ATOM     15  N   UNL     1     -24.487   6.049  23.019  1.00  0.00    -0.361 N 
ATOM     16  C   UNL     1     -25.308   5.365  20.810  1.00  0.00     0.026 A 
ATOM     17  C   UNL     1     -24.727   3.065  20.208  1.00  0.00     0.001 A 
ATOM     18  H   UNL     1     -24.858   7.026  23.061  1.00  0.00     0.166 HD
ATOM     19  C   UNL     1     -25.352   4.293  19.899  1.00  0.00     0.002 A 
ENDBRANCH   1  10
TORSDOF 4
ENDMDL
MODEL 2
REMARK VINA RESULT:    -4.890     11.793     12.837
REMARK INTER + INTRA:          -6.190
REMARK INTER:                  -5.932
REMARK INTRA:                  -0.258
REMARK UNBOUND:                -0.299
REMARK SMILES [NH3+][C@H](Cc1c[nH]c2ccccc12)C(=O)[O-]
REMARK SMILES IDX 3 1 2 2 1 3 13 7 14 8 15 9 4 10 12 11 5 12 7 13 11 14 6 15
REMARK SMILES IDX 8 16 10 17 9 19
REMARK H PARENT 1 4 1 5 1 6 6 18
REMARK Flexibility Score: inf
ROOT
ATOM      1  C   UNL     1     -29.356  -3.514  16.296  1.00  0.00     0.109 C 
ENDROOT
BRANCH   1   2
ATOM      2  C   UNL     1     -29.138  -4.105  14.888  1.00  0.00     0.232 C 
BRANCH   2   3
ATOM      3  N   UNL     1     -28.996  -3.049  13.876  1.00  0.00    -0.350 N 
ATOM      4  H   UNL     1     -28.034  -2.640  13.924  1.00  0.00     0.345 HD
ATOM      5  H   UNL     1     -29.125  -3.450  12.920  1.00  0.00     0.345 HD
ATOM      6  H   UNL     1     -29.699  -2.290  14.031  1.00  0.00     0.345 HD
ENDBRANCH   2   3
BRANCH   2   7
ATOM      7  C   UNL     1     -27.914  -4.982  14.894  1.00  0.00     0.099 C 
ATOM      8  O   UNL     1     -26.986  -4.778  14.067  1.00  0.00    -0.544 OA
ATOM      9  O   UNL     1     -27.809  -6.032  15.797  1.00  0.00    -0.544 OA
ENDBRANCH   2   7
ENDBRANCH   1   2
BRANCH   1  10
ATOM     10  C   UNL     1     -30.379  -4.292  17.074  1.00  0.00    -0.016 A 
ATOM     11  C   UNL     1     -30.216  -4.929  18.288  1.00  0.00     0.003 A 
ATOM     12  C   UNL     1     -31.723  -4.445  16.744  1.00  0.00     0.087 A 
ATOM     13  C   UNL     1     -31.440  -5.443  18.633  1.00  0.00     0.046 A 
ATOM     14  C   UNL     1     -29.098  -5.079  19.112  1.00  0.00     0.010 A 
ATOM     15  N   UNL     1     -32.364  -5.156  17.700  1.00  0.00    -0.361 N 
ATOM     16  C   UNL     1     -31.631  -6.148  19.822  1.00  0.00     0.026 A 
ATOM     17  C   UNL     1     -29.262  -5.786  20.317  1.00  0.00     0.001 A 
ATOM     18  H   UNL     1     -33.376  -5.416  17.713  1.00  0.00     0.166 HD
ATOM     19  C   UNL     1     -30.522  -6.319  20.670  1.00  0.00     0.002 A 
ENDBRANCH   1  10
TORSDOF 4
ENDMDL
MODEL 3
REMARK VINA RESULT:    -4.827     10.618     12.305
REMARK INTER + INTRA:          -6.113
REMARK INTER:                  -5.836
REMARK INTRA:                  -0.278
REMARK UNBOUND:                -0.299
REMARK SMILES [NH3+][C@H](Cc1c[nH]c2ccccc12)C(=O)[O-]
REMARK SMILES IDX 3 1 2 2 1 3 13 7 14 8 15 9 4 10 12 11 5 12 7 13 11 14 6 15
REMARK SMILES IDX 8 16 10 17 9 19
REMARK H PARENT 1 4 1 5 1 6 6 18
REMARK Flexibility Score: inf
ROOT
ATOM      1  C   UNL     1     -30.822  -4.964  18.473  1.00  0.00     0.109 C 
ENDROOT
BRANCH   1   2
ATOM      2  C   UNL     1     -32.292  -4.528  18.320  1.00  0.00     0.232 C 
BRANCH   2   3
ATOM      3  N   UNL     1     -33.147  -5.649  17.905  1.00  0.00    -0.350 N 
ATOM      4  H   UNL     1     -33.348  -6.265  18.727  1.00  0.00     0.345 HD
ATOM      5  H   UNL     1     -34.060  -5.289  17.545  1.00  0.00     0.345 HD
ATOM      6  H   UNL     1     -32.681  -6.215  17.158  1.00  0.00     0.345 HD
ENDBRANCH   2   3
BRANCH   2   7
ATOM      7  C   UNL     1     -32.786  -3.957  19.623  1.00  0.00     0.099 C 
ATOM      8  O   UNL     1     -33.136  -4.726  20.558  1.00  0.00    -0.544 OA
ATOM      9  O   UNL     1     -32.878  -2.582  19.796  1.00  0.00    -0.544 OA
ENDBRANCH   2   7
ENDBRANCH   1   2
BRANCH   1  10
ATOM     10  C   UNL     1     -29.877  -3.956  17.882  1.00  0.00    -0.016 A 
ATOM     11  C   UNL     1     -29.314  -3.960  16.620  1.00  0.00     0.003 A 
ATOM     12  C   UNL     1     -29.454  -2.774  18.480  1.00  0.00     0.087 A 
ATOM     13  C   UNL     1     -28.577  -2.808  16.512  1.00  0.00     0.046 A 
ATOM     14  C   UNL     1     -29.408  -4.873  15.568  1.00  0.00     0.010 A 
ATOM     15  N   UNL     1     -28.654  -2.079  17.639  1.00  0.00    -0.361 N 
ATOM     16  C   UNL     1     -27.878  -2.492  15.348  1.00  0.00     0.026 A 
ATOM     17  C   UNL     1     -28.712  -4.579  14.381  1.00  0.00     0.001 A 
ATOM     18  H   UNL     1     -28.199  -1.157  17.826  1.00  0.00     0.166 HD
ATOM     19  C   UNL     1     -27.950  -3.395  14.271  1.00  0.00     0.002 A 
ENDBRANCH   1  10
TORSDOF 4
ENDMDL
MODEL 4
REMARK VINA RESULT:    -4.794     10.318     11.825
REMARK INTER + INTRA:          -6.075
REMARK INTER:                  -5.800
REMARK INTRA:                  -0.275
REMARK UNBOUND:                -0.299
REMARK SMILES [NH3+][C@H](Cc1c[nH]c2ccccc12)C(=O)[O-]
REMARK SMILES IDX 3 1 2 2 1 3 13 7 14 8 15 9 4 10 12 11 5 12 7 13 11 14 6 15
REMARK SMILES IDX 8 16 10 17 9 19
REMARK H PARENT 1 4 1 5 1 6 6 18
REMARK Flexibility Score: inf
ROOT
ATOM      1  C   UNL     1     -34.492   2.183  23.067  1.00  0.00     0.109 C 
ENDROOT
BRANCH   1   2
ATOM      2  C   UNL     1     -35.897   2.612  23.534  1.00  0.00     0.232 C 
BRANCH   2   3
ATOM      3  N   UNL     1     -36.929   2.233  22.558  1.00  0.00    -0.350 N 
ATOM      4  H   UNL     1     -36.531   1.554  21.868  1.00  0.00     0.345 HD
ATOM      5  H   UNL     1     -37.727   1.764  23.045  1.00  0.00     0.345 HD
ATOM      6  H   UNL     1     -37.283   3.074  22.046  1.00  0.00     0.345 HD
ENDBRANCH   2   3
BRANCH   2   7
ATOM      7  C   UNL     1     -36.197   1.988  24.871  1.00  0.00     0.099 C 
ATOM      8  O   UNL     1     -35.558   2.348  25.894  1.00  0.00    -0.544 OA
ATOM      9  O   UNL     1     -37.165   0.998  24.980  1.00  0.00    -0.544 OA
ENDBRANCH   2   7
ENDBRANCH   1   2
BRANCH   1  10
ATOM     10  C   UNL     1     -33.735   3.327  22.453  1.00  0.00    -0.016 A 
ATOM     11  C   UNL     1     -33.132   4.388  23.100  1.00  0.00     0.003 A 
ATOM     12  C   UNL     1     -33.432   3.485  21.104  1.00  0.00     0.087 A 
ATOM     13  C   UNL     1     -32.509   5.138  22.134  1.00  0.00     0.046 A 
ATOM     14  C   UNL     1     -33.072   4.735  24.451  1.00  0.00     0.010 A 
ATOM     15  N   UNL     1     -32.687   4.598  20.916  1.00  0.00    -0.361 N 
ATOM     16  C   UNL     1     -31.790   6.289  22.451  1.00  0.00     0.026 A 
ATOM     17  C   UNL     1     -32.354   5.893  24.799  1.00  0.00     0.001 A 
ATOM     18  H   UNL     1     -32.316   4.956  20.007  1.00  0.00     0.166 HD
ATOM     19  C   UNL     1     -31.716   6.667  23.804  1.00  0.00     0.002 A 
ENDBRANCH   1  10
TORSDOF 4
ENDMDL
MODEL 5
REMARK VINA RESULT:    -4.779     10.730     12.099
REMARK INTER + INTRA:          -6.056
REMARK INTER:                  -5.812
REMARK INTRA:                  -0.244
REMARK UNBOUND:                -0.299
REMARK SMILES [NH3+][C@H](Cc1c[nH]c2ccccc12)C(=O)[O-]
REMARK SMILES IDX 3 1 2 2 1 3 13 7 14 8 15 9 4 10 12 11 5 12 7 13 11 14 6 15
REMARK SMILES IDX 8 16 10 17 9 19
REMARK H PARENT 1 4 1 5 1 6 6 18
REMARK Flexibility Score: inf
ROOT
ATOM      1  C   UNL     1     -28.646  -3.307  16.985  1.00  0.00     0.109 C 
ENDROOT
BRANCH   1   2
ATOM      2  C   UNL     1     -28.441  -2.912  15.509  1.00  0.00     0.232 C 
BRANCH   2   3
ATOM      3  N   UNL     1     -27.930  -1.539  15.384  1.00  0.00    -0.350 N 
ATOM      4  H   UNL     1     -27.144  -1.392  16.058  1.00  0.00     0.345 HD
ATOM      5  H   UNL     1     -27.559  -1.382  14.420  1.00  0.00     0.345 HD
ATOM      6  H   UNL     1     -28.686  -0.843  15.582  1.00  0.00     0.345 HD
ENDBRANCH   2   3
BRANCH   2   7
ATOM      7  C   UNL     1     -27.489  -3.878  14.856  1.00  0.00     0.099 C 
ATOM      8  O   UNL     1     -27.932  -4.821  14.147  1.00  0.00    -0.544 OA
ATOM      9  O   UNL     1     -26.119  -3.748  15.045  1.00  0.00    -0.544 OA
ENDBRANCH   2   7
ENDBRANCH   1   2
BRANCH   1  10
ATOM     10  C   UNL     1     -30.024  -3.854  17.229  1.00  0.00    -0.016 A 
ATOM     11  C   UNL     1     -30.807  -3.705  18.358  1.00  0.00     0.003 A 
ATOM     12  C   UNL     1     -30.807  -4.553  16.316  1.00  0.00     0.087 A 
ATOM     13  C   UNL     1     -32.005  -4.319  18.092  1.00  0.00     0.046 A 
ATOM     14  C   UNL     1     -30.562  -3.069  19.577  1.00  0.00     0.010 A 
ATOM     15  N   UNL     1     -32.015  -4.840  16.853  1.00  0.00    -0.361 N 
ATOM     16  C   UNL     1     -33.038  -4.346  19.029  1.00  0.00     0.026 A 
ATOM     17  C   UNL     1     -31.586  -3.082  20.540  1.00  0.00     0.001 A 
ATOM     18  H   UNL     1     -32.799  -5.352  16.391  1.00  0.00     0.166 HD
ATOM     19  C   UNL     1     -32.819  -3.717  20.268  1.00  0.00     0.002 A 
ENDBRANCH   1  10
TORSDOF 4
ENDMDL
MODEL 6
REMARK VINA RESULT:    -4.768      2.749      5.017
REMARK INTER + INTRA:          -6.042
REMARK INTER:                  -5.872
REMARK INTRA:                  -0.170
REMARK UNBOUND:                -0.299
REMARK SMILES [NH3+][C@H](Cc1c[nH]c2ccccc12)C(=O)[O-]
REMARK SMILES IDX 3 1 2 2 1 3 13 7 14 8 15 9 4 10 12 11 5 12 7 13 11 14 6 15
REMARK SMILES IDX 8 16 10 17 9 19
REMARK H PARENT 1 4 1 5 1 6 6 18
REMARK Flexibility Score: inf
ROOT
ATOM      1  C   UNL     1     -24.154   3.874  21.474  1.00  0.00     0.109 C 
ENDROOT
BRANCH   1   2
ATOM      2  C   UNL     1     -25.414   4.157  20.633  1.00  0.00     0.232 C 
BRANCH   2   3
ATOM      3  N   UNL     1     -25.256   5.370  19.817  1.00  0.00    -0.350 N 
ATOM      4  H   UNL     1     -25.633   6.197  20.335  1.00  0.00     0.345 HD
ATOM      5  H   UNL     1     -24.243   5.545  19.628  1.00  0.00     0.345 HD
ATOM      6  H   UNL     1     -25.766   5.274  18.908  1.00  0.00     0.345 HD
ENDBRANCH   2   3
BRANCH   2   7
ATOM      7  C   UNL     1     -25.706   2.975  19.748  1.00  0.00     0.099 C 
ATOM      8  O   UNL     1     -26.875   2.779  19.319  1.00  0.00    -0.544 OA
ATOM      9  O   UNL     1     -24.695   2.083  19.414  1.00  0.00    -0.544 OA
ENDBRANCH   2   7
ENDBRANCH   1   2
BRANCH   1  10
ATOM     10  C   UNL     1     -24.265   4.452  22.856  1.00  0.00    -0.016 A 
ATOM     11  C   UNL     1     -23.361   4.343  23.895  1.00  0.00     0.003 A 
ATOM     12  C   UNL     1     -25.279   5.283  23.323  1.00  0.00     0.087 A 
ATOM     13  C   UNL     1     -23.860   5.089  24.934  1.00  0.00     0.046 A 
ATOM     14  C   UNL     1     -22.144   3.665  23.996  1.00  0.00     0.010 A 
ATOM     15  N   UNL     1     -25.027   5.663  24.597  1.00  0.00    -0.361 N 
ATOM     16  C   UNL     1     -23.181   5.203  26.146  1.00  0.00     0.026 A 
ATOM     17  C   UNL     1     -21.438   3.763  25.209  1.00  0.00     0.001 A 
ATOM     18  H   UNL     1     -25.617   6.288  25.191  1.00  0.00     0.166 HD
ATOM     19  C   UNL     1     -21.954   4.527  26.280  1.00  0.00     0.002 A 
ENDBRANCH   1  10
TORSDOF 4
ENDMDL
MODEL 7
REMARK VINA RESULT:    -4.732      9.895     11.220
REMARK INTER + INTRA:          -6.000
REMARK INTER:                  -5.754
REMARK INTRA:                  -0.246
REMARK UNBOUND:                -0.299
REMARK SMILES [NH3+][C@H](Cc1c[nH]c2ccccc12)C(=O)[O-]
REMARK SMILES IDX 3 1 2 2 1 3 13 7 14 8 15 9 4 10 12 11 5 12 7 13 11 14 6 15
REMARK SMILES IDX 8 16 10 17 9 19
REMARK H PARENT 1 4 1 5 1 6 6 18
REMARK Flexibility Score: inf
ROOT
ATOM      1  C   UNL     1     -26.226   4.869  33.662  1.00  0.00     0.109 C 
ENDROOT
BRANCH   1   2
ATOM      2  C   UNL     1     -24.907   4.506  32.952  1.00  0.00     0.232 C 
BRANCH   2   3
ATOM      3  N   UNL     1     -23.738   4.894  33.753  1.00  0.00    -0.350 N 
ATOM      4  H   UNL     1     -23.856   5.875  34.099  1.00  0.00     0.345 HD
ATOM      5  H   UNL     1     -23.652   4.270  34.587  1.00  0.00     0.345 HD
ATOM      6  H   UNL     1     -22.862   4.834  33.184  1.00  0.00     0.345 HD
ENDBRANCH   2   3
BRANCH   2   7
ATOM      7  C   UNL     1     -24.875   3.026  32.676  1.00  0.00     0.099 C 
ATOM      8  O   UNL     1     -25.766   2.274  33.154  1.00  0.00    -0.544 OA
ATOM      9  O   UNL     1     -23.855   2.478  31.910  1.00  0.00    -0.544 OA
ENDBRANCH   2   7
ENDBRANCH   1   2
BRANCH   1  10
ATOM     10  C   UNL     1     -27.133   5.677  32.776  1.00  0.00    -0.016 A 
ATOM     11  C   UNL     1     -27.660   6.929  33.020  1.00  0.00     0.003 A 
ATOM     12  C   UNL     1     -27.547   5.336  31.492  1.00  0.00     0.087 A 
ATOM     13  C   UNL     1     -28.369   7.285  31.901  1.00  0.00     0.046 A 
ATOM     14  C   UNL     1     -27.557   7.778  34.124  1.00  0.00     0.010 A 
ATOM     15  N   UNL     1     -28.308   6.322  30.965  1.00  0.00    -0.361 N 
ATOM     16  C   UNL     1     -29.029   8.510  31.810  1.00  0.00     0.026 A 
ATOM     17  C   UNL     1     -28.214   9.020  34.060  1.00  0.00     0.001 A 
ATOM     18  H   UNL     1     -28.748   6.334  30.017  1.00  0.00     0.166 HD
ATOM     19  C   UNL     1     -28.947   9.385  32.909  1.00  0.00     0.002 A 
ENDBRANCH   1  10
TORSDOF 4
ENDMDL
MODEL 8
REMARK VINA RESULT:    -4.706     10.169     12.048
REMARK INTER + INTRA:          -5.968
REMARK INTER:                  -5.631
REMARK INTRA:                  -0.337
REMARK UNBOUND:                -0.299
REMARK SMILES [NH3+][C@H](Cc1c[nH]c2ccccc12)C(=O)[O-]
REMARK SMILES IDX 3 1 2 2 1 3 13 7 14 8 15 9 4 10 12 11 5 12 7 13 11 14 6 15
REMARK SMILES IDX 8 16 10 17 9 19
REMARK H PARENT 1 4 1 5 1 6 6 18
REMARK Flexibility Score: inf
ROOT
ATOM      1  C   UNL     1     -30.571  -5.043  17.780  1.00  0.00     0.109 C 
ENDROOT
BRANCH   1   2
ATOM      2  C   UNL     1     -32.007  -4.508  17.941  1.00  0.00     0.232 C 
BRANCH   2   3
ATOM      3  N   UNL     1     -32.994  -5.597  17.921  1.00  0.00    -0.350 N 
ATOM      4  H   UNL     1     -32.676  -6.351  17.269  1.00  0.00     0.345 HD
ATOM      5  H   UNL     1     -33.084  -6.016  18.875  1.00  0.00     0.345 HD
ATOM      6  H   UNL     1     -33.929  -5.245  17.609  1.00  0.00     0.345 HD
ENDBRANCH   2   3
BRANCH   2   7
ATOM      7  C   UNL     1     -32.116  -3.737  19.230  1.00  0.00     0.099 C 
ATOM      8  O   UNL     1     -31.220  -3.845  20.109  1.00  0.00    -0.544 OA
ATOM      9  O   UNL     1     -33.212  -2.918  19.466  1.00  0.00    -0.544 OA
ENDBRANCH   2   7
ENDBRANCH   1   2
BRANCH   1  10
ATOM     10  C   UNL     1     -29.807  -4.282  16.734  1.00  0.00    -0.016 A 
ATOM     11  C   UNL     1     -28.960  -3.206  16.919  1.00  0.00     0.003 A 
ATOM     12  C   UNL     1     -29.751  -4.578  15.375  1.00  0.00     0.087 A 
ATOM     13  C   UNL     1     -28.444  -2.893  15.686  1.00  0.00     0.046 A 
ATOM     14  C   UNL     1     -28.598  -2.500  18.067  1.00  0.00     0.010 A 
ATOM     15  N   UNL     1     -28.920  -3.720  14.740  1.00  0.00    -0.361 N 
ATOM     16  C   UNL     1     -27.536  -1.848  15.516  1.00  0.00     0.026 A 
ATOM     17  C   UNL     1     -27.684  -1.440  17.924  1.00  0.00     0.001 A 
ATOM     18  H   UNL     1     -28.688  -3.713  13.721  1.00  0.00     0.166 HD
ATOM     19  C   UNL     1     -27.156  -1.115  16.655  1.00  0.00     0.002 A 
ENDBRANCH   1  10
TORSDOF 4
ENDMDL
MODEL 9
REMARK VINA RESULT:    -4.634      2.816      4.024
REMARK INTER + INTRA:          -5.881
REMARK INTER:                  -5.608
REMARK INTRA:                  -0.274
REMARK UNBOUND:                -0.299
REMARK SMILES [NH3+][C@H](Cc1c[nH]c2ccccc12)C(=O)[O-]
REMARK SMILES IDX 3 1 2 2 1 3 13 7 14 8 15 9 4 10 12 11 5 12 7 13 11 14 6 15
REMARK SMILES IDX 8 16 10 17 9 19
REMARK H PARENT 1 4 1 5 1 6 6 18
REMARK Flexibility Score: inf
ROOT
ATOM      1  C   UNL     1     -23.614   3.918  24.535  1.00  0.00     0.109 C 
ENDROOT
BRANCH   1   2
ATOM      2  C   UNL     1     -23.043   5.340  24.707  1.00  0.00     0.232 C 
BRANCH   2   3
ATOM      3  N   UNL     1     -23.810   6.326  23.933  1.00  0.00    -0.350 N 
ATOM      4  H   UNL     1     -24.036   5.937  22.988  1.00  0.00     0.345 HD
ATOM      5  H   UNL     1     -24.713   6.536  24.416  1.00  0.00     0.345 HD
ATOM      6  H   UNL     1     -23.266   7.212  23.818  1.00  0.00     0.345 HD
ENDBRANCH   2   3
BRANCH   2   7
ATOM      7  C   UNL     1     -23.048   5.712  26.166  1.00  0.00     0.099 C 
ATOM      8  O   UNL     1     -23.625   6.764  26.548  1.00  0.00    -0.544 OA
ATOM      9  O   UNL     1     -22.401   4.909  27.096  1.00  0.00    -0.544 OA
ENDBRANCH   2   7
ENDBRANCH   1   2
BRANCH   1  10
ATOM     10  C   UNL     1     -22.797   3.101  23.575  1.00  0.00    -0.016 A 
ATOM     11  C   UNL     1     -23.006   2.924  22.221  1.00  0.00     0.003 A 
ATOM     12  C   UNL     1     -21.614   2.428  23.866  1.00  0.00     0.087 A 
ATOM     13  C   UNL     1     -21.968   2.155  21.758  1.00  0.00     0.046 A 
ATOM     14  C   UNL     1     -24.012   3.390  21.372  1.00  0.00     0.010 A 
ATOM     15  N   UNL     1     -21.116   1.847  22.750  1.00  0.00    -0.361 N 
ATOM     16  C   UNL     1     -21.867   1.794  20.414  1.00  0.00     0.026 A 
ATOM     17  C   UNL     1     -23.935   3.039  20.012  1.00  0.00     0.001 A 
ATOM     18  H   UNL     1     -20.240   1.283  22.677  1.00  0.00     0.166 HD
ATOM     19  C   UNL     1     -22.869   2.245  19.535  1.00  0.00     0.002 A 
ENDBRANCH   1  10
TORSDOF 4
ENDMDL
