MODEL 1
REMARK VINA RESULT:    -2.652      0.000      0.000
REMARK INTER + INTRA:          -3.145
REMARK INTER:                  -3.117
REMARK INTRA:                  -0.028
REMARK UNBOUND:                -0.028
REMARK SMILES CCCCC(=O)[O-]
REMARK SMILES IDX 4 1 5 2 6 3 7 4 3 5 2 6 1 7
REMARK H PARENT
REMARK Flexibility Score: inf
ROOT
ATOM      1  C   UNL     1      -2.564   9.077  38.926  1.00  0.00     0.053 C 
ENDROOT
BRANCH   1   2
ATOM      2  C   UNL     1      -1.865   8.595  37.695  1.00  0.00     0.041 C 
ATOM      3  O   UNL     1      -2.253   8.970  36.557  1.00  0.00    -0.550 OA
ATOM      4  O   UNL     1      -0.814   7.692  37.801  1.00  0.00    -0.550 OA
ENDBRANCH   1   2
BRANCH   1   5
ATOM      5  C   UNL     1      -2.467   8.033  40.042  1.00  0.00     0.006 C 
BRANCH   5   6
ATOM      6  C   UNL     1      -3.860   7.623  40.534  1.00  0.00    -0.003 C 
ATOM      7  C   UNL     1      -3.898   7.520  42.056  1.00  0.00     0.004 C 
ENDBRANCH   5   6
ENDBRANCH   1   5
TORSDOF 3
ENDMDL
MODEL 2
REMARK VINA RESULT:    -2.614      0.270      1.215
REMARK INTER + INTRA:          -3.100
REMARK INTER:                  -3.056
REMARK INTRA:                  -0.044
REMARK UNBOUND:                -0.028
REMARK SMILES CCCCC(=O)[O-]
REMARK SMILES IDX 4 1 5 2 6 3 7 4 3 5 2 6 1 7
REMARK H PARENT
REMARK Flexibility Score: inf
ROOT
ATOM      1  C   UNL     1      -2.446   9.059  39.004  1.00  0.00     0.053 C 
ENDROOT
BRANCH   1   2
ATOM      2  C   UNL     1      -1.812   8.418  37.811  1.00  0.00     0.041 C 
ATOM      3  O   UNL     1      -1.163   7.347  37.937  1.00  0.00    -0.550 OA
ATOM      4  O   UNL     1      -1.895   9.031  36.567  1.00  0.00    -0.550 OA
ENDBRANCH   1   2
BRANCH   1   5
ATOM      5  C   UNL     1      -2.409   8.111  40.206  1.00  0.00     0.006 C 
BRANCH   5   6
ATOM      6  C   UNL     1      -3.823   7.672  40.604  1.00  0.00    -0.003 C 
ATOM      7  C   UNL     1      -3.954   7.542  42.119  1.00  0.00     0.004 C 
ENDBRANCH   5   6
ENDBRANCH   1   5
TORSDOF 3
ENDMDL
MODEL 3
REMARK VINA RESULT:    -2.557      3.080      4.486
REMARK INTER + INTRA:          -3.033
REMARK INTER:                  -3.012
REMARK INTRA:                  -0.021
REMARK UNBOUND:                -0.028
REMARK SMILES CCCCC(=O)[O-]
REMARK SMILES IDX 4 1 5 2 6 3 7 4 3 5 2 6 1 7
REMARK H PARENT
REMARK Flexibility Score: inf
ROOT
ATOM      1  C   UNL     1      -3.863   7.518  40.561  1.00  0.00     0.053 C 
ENDROOT
BRANCH   1   2
ATOM      2  C   UNL     1      -3.584   7.372  42.024  1.00  0.00     0.041 C 
ATOM      3  O   UNL     1      -2.657   6.619  42.420  1.00  0.00    -0.550 OA
ATOM      4  O   UNL     1      -4.380   8.031  42.952  1.00  0.00    -0.550 OA
ENDBRANCH   1   2
BRANCH   1   5
ATOM      5  C   UNL     1      -2.575   7.842  39.799  1.00  0.00     0.006 C 
BRANCH   5   6
ATOM      6  C   UNL     1      -2.741   9.110  38.953  1.00  0.00    -0.003 C 
ATOM      7  C   UNL     1      -1.977   8.999  37.636  1.00  0.00     0.004 C 
ENDBRANCH   5   6
ENDBRANCH   1   5
TORSDOF 3
ENDMDL
MODEL 4
REMARK VINA RESULT:    -2.486      2.558      3.915
REMARK INTER + INTRA:          -2.949
REMARK INTER:                  -2.893
REMARK INTRA:                  -0.057
REMARK UNBOUND:                -0.028
REMARK SMILES CCCCC(=O)[O-]
REMARK SMILES IDX 4 1 5 2 6 3 7 4 3 5 2 6 1 7
REMARK H PARENT
REMARK Flexibility Score: inf
ROOT
ATOM      1  C   UNL     1      -2.132   7.970  39.836  1.00  0.00     0.053 C 
ENDROOT
BRANCH   1   2
ATOM      2  C   UNL     1      -3.163   7.627  40.865  1.00  0.00     0.041 C 
ATOM      3  O   UNL     1      -4.254   7.103  40.519  1.00  0.00    -0.550 OA
ATOM      4  O   UNL     1      -2.937   7.930  42.202  1.00  0.00    -0.550 OA
ENDBRANCH   1   2
BRANCH   1   5
ATOM      5  C   UNL     1      -2.617   9.125  38.955  1.00  0.00     0.006 C 
BRANCH   5   6
ATOM      6  C   UNL     1      -2.028   9.025  37.544  1.00  0.00    -0.003 C 
ATOM      7  C   UNL     1      -1.646   7.586  37.206  1.00  0.00     0.004 C 
ENDBRANCH   5   6
ENDBRANCH   1   5
TORSDOF 3
ENDMDL
MODEL 5
REMARK VINA RESULT:    -2.482      2.483      3.887
REMARK INTER + INTRA:          -2.945
REMARK INTER:                  -2.839
REMARK INTRA:                  -0.106
REMARK UNBOUND:                -0.028
REMARK SMILES CCCCC(=O)[O-]
REMARK SMILES IDX 4 1 5 2 6 3 7 4 3 5 2 6 1 7
REMARK H PARENT
REMARK Flexibility Score: inf
ROOT
ATOM      1  C   UNL     1      -3.747   7.599  40.435  1.00  0.00     0.053 C 
ENDROOT
BRANCH   1   2
ATOM      2  C   UNL     1      -3.647   6.107  40.400  1.00  0.00     0.041 C 
ATOM      3  O   UNL     1      -3.957   5.428  41.414  1.00  0.00    -0.550 OA
ATOM      4  O   UNL     1      -3.165   5.469  39.264  1.00  0.00    -0.550 OA
ENDBRANCH   1   2
BRANCH   1   5
ATOM      5  C   UNL     1      -2.396   8.236  40.094  1.00  0.00     0.006 C 
BRANCH   5   6
ATOM      6  C   UNL     1      -2.496   9.092  38.826  1.00  0.00    -0.003 C 
ATOM      7  C   UNL     1      -1.811   8.411  37.645  1.00  0.00     0.004 C 
ENDBRANCH   5   6
ENDBRANCH   1   5
TORSDOF 3
ENDMDL
MODEL 6
REMARK VINA RESULT:    -2.389      1.604      2.133
REMARK INTER + INTRA:          -2.836
REMARK INTER:                  -2.756
REMARK INTRA:                  -0.080
REMARK UNBOUND:                -0.028
REMARK SMILES CCCCC(=O)[O-]
REMARK SMILES IDX 4 1 5 2 6 3 7 4 3 5 2 6 1 7
REMARK H PARENT
REMARK Flexibility Score: inf
ROOT
ATOM      1  C   UNL     1      -2.190   7.951  40.979  1.00  0.00     0.053 C 
ENDROOT
BRANCH   1   2
ATOM      2  C   UNL     1      -1.919   8.466  39.600  1.00  0.00     0.041 C 
ATOM      3  O   UNL     1      -2.831   9.038  38.948  1.00  0.00    -0.550 OA
ATOM      4  O   UNL     1      -0.673   8.270  39.018  1.00  0.00    -0.550 OA
ENDBRANCH   1   2
BRANCH   1   5
ATOM      5  C   UNL     1      -3.666   7.575  41.131  1.00  0.00     0.006 C 
BRANCH   5   6
ATOM      6  C   UNL     1      -3.833   6.062  41.311  1.00  0.00    -0.003 C 
ATOM      7  C   UNL     1      -4.287   5.398  40.014  1.00  0.00     0.004 C 
ENDBRANCH   5   6
ENDBRANCH   1   5
TORSDOF 3
ENDMDL
MODEL 7
REMARK VINA RESULT:    -2.321     11.551     12.572
REMARK INTER + INTRA:          -2.757
REMARK INTER:                  -2.680
REMARK INTRA:                  -0.076
REMARK UNBOUND:                -0.028
REMARK SMILES CCCCC(=O)[O-]
REMARK SMILES IDX 4 1 5 2 6 3 7 4 3 5 2 6 1 7
REMARK H PARENT
REMARK Flexibility Score: inf
ROOT
ATOM      1  C   UNL     1       3.143   9.125  27.994  1.00  0.00     0.053 C 
ENDROOT
BRANCH   1   2
ATOM      2  C   UNL     1       3.367   8.503  26.652  1.00  0.00     0.041 C 
ATOM      3  O   UNL     1       4.148   7.524  26.530  1.00  0.00    -0.550 OA
ATOM      4  O   UNL     1       2.749   9.036  25.527  1.00  0.00    -0.550 OA
ENDBRANCH   1   2
BRANCH   1   5
ATOM      5  C   UNL     1       1.673   8.999  28.405  1.00  0.00     0.006 C 
BRANCH   5   6
ATOM      6  C   UNL     1       1.519   8.071  29.616  1.00  0.00    -0.003 C 
ATOM      7  C   UNL     1       1.374   6.616  29.180  1.00  0.00     0.004 C 
ENDBRANCH   5   6
ENDBRANCH   1   5
TORSDOF 3
ENDMDL
MODEL 8
REMARK VINA RESULT:    -2.263     10.311     12.238
REMARK INTER + INTRA:          -2.688
REMARK INTER:                  -2.576
REMARK INTRA:                  -0.112
REMARK UNBOUND:                -0.028
REMARK SMILES CCCCC(=O)[O-]
REMARK SMILES IDX 4 1 5 2 6 3 7 4 3 5 2 6 1 7
REMARK H PARENT
REMARK Flexibility Score: inf
ROOT
ATOM      1  C   UNL     1       1.523   8.966  28.790  1.00  0.00     0.053 C 
ENDROOT
BRANCH   1   2
ATOM      2  C   UNL     1       1.364   7.673  29.525  1.00  0.00     0.041 C 
ATOM      3  O   UNL     1       1.328   7.659  30.783  1.00  0.00    -0.550 OA
ATOM      4  O   UNL     1       1.305   6.477  28.821  1.00  0.00    -0.550 OA
ENDBRANCH   1   2
BRANCH   1   5
ATOM      5  C   UNL     1       1.754   8.711  27.298  1.00  0.00     0.006 C 
BRANCH   5   6
ATOM      6  C   UNL     1       3.230   8.896  26.930  1.00  0.00    -0.003 C 
ATOM      7  C   UNL     1       3.896   7.556  26.630  1.00  0.00     0.004 C 
ENDBRANCH   5   6
ENDBRANCH   1   5
TORSDOF 3
ENDMDL
