MODEL 1
REMARK VINA RESULT:     1.909      0.000      0.000
REMARK INTER + INTRA:           2.374
REMARK INTER:                   2.077
REMARK INTRA:                   0.298
REMARK UNBOUND:                 0.298
REMARK SMILES C[C@@H]1[C@@H](C)CC[C@]2(C(=O)[O-])CC[C@@]3(C)C(=CC[C@H]4[C@@]5(C)CC[C@H](O)C(C)(C)[C@H]5CC[C@@]43C)[C@@H]12
REMARK SMILES IDX 7 1 6 2 11 3 33 4 5 5 12 6 15 7 2 8 3 9 13 10 16 11 1 12
REMARK SMILES IDX 4 13 14 14 31 15 17 16 18 17 30 18 32 19 19 20 29 21 28 22
REMARK SMILES IDX 21 23 20 24 25 25 22 26 23 27 26 28 27 29 8 30 9 31 10 32
REMARK SMILES IDX 24 33
REMARK H PARENT 24 34
REMARK Flexibility Score: inf
ROOT
ATOM      1  C   UNL     1      21.675 -35.800 157.064  1.00  0.00     0.017 C 
ATOM      2  C   UNL     1      22.798 -34.943 156.360  1.00  0.00     0.014 C 
ATOM      3  C   UNL     1      20.364 -35.761 156.180  1.00  0.00     0.014 C 
ATOM      4  C   UNL     1      21.336 -35.258 158.500  1.00  0.00     0.030 C 
ATOM      5  C   UNL     1      23.440 -33.877 157.249  1.00  0.00     0.004 C 
ATOM      6  C   UNL     1      19.029 -35.622 156.954  1.00  0.00     0.013 C 
ATOM      7  C   UNL     1      20.211 -36.118 159.131  1.00  0.00    -0.063 C 
ATOM      8  C   UNL     1      22.594 -34.970 159.407  1.00  0.00    -0.003 C 
ATOM      9  C   UNL     1      23.834 -34.435 158.619  1.00  0.00    -0.011 C 
ATOM     10  C   UNL     1      18.966 -36.426 158.295  1.00  0.00    -0.006 C 
ATOM     11  C   UNL     1      20.245 -36.550 160.416  1.00  0.00    -0.027 C 
ATOM     12  C   UNL     1      22.233 -33.944 160.507  1.00  0.00     0.008 C 
ATOM     13  C   UNL     1      24.960 -35.481 158.513  1.00  0.00     0.008 C 
ATOM     14  C   UNL     1      19.002 -37.952 157.929  1.00  0.00     0.017 C 
ATOM     15  C   UNL     1      17.671 -36.059 159.174  1.00  0.00    -0.020 C 
ATOM     16  C   UNL     1      19.038 -37.030 161.192  1.00  0.00     0.032 C 
ATOM     17  C   UNL     1      17.664 -36.997 160.443  1.00  0.00     0.006 C 
ATOM     18  C   UNL     1      16.346 -36.245 158.345  1.00  0.00     0.008 C 
ATOM     19  C   UNL     1      17.734 -34.572 159.635  1.00  0.00     0.012 C 
ATOM     20  C   UNL     1      16.384 -36.909 161.397  1.00  0.00    -0.025 C 
ATOM     21  C   UNL     1      15.237 -37.038 159.053  1.00  0.00     0.005 C 
ATOM     22  C   UNL     1      15.038 -36.686 160.550  1.00  0.00     0.003 C 
ATOM     23  C   UNL     1      16.569 -35.866 162.546  1.00  0.00     0.010 C 
ATOM     24  C   UNL     1      16.276 -38.298 162.114  1.00  0.00     0.012 C 
ATOM     25  C   UNL     1      14.055 -35.437 160.861  1.00  0.00    -0.006 C 
ATOM     26  C   UNL     1      15.253 -35.372 163.124  1.00  0.00     0.033 C 
ATOM     27  C   UNL     1      14.529 -34.553 162.066  1.00  0.00     0.120 C 
ATOM     28  C   UNL     1      13.859 -34.472 159.659  1.00  0.00     0.014 C 
ATOM     29  C   UNL     1      12.636 -36.004 161.174  1.00  0.00     0.014 C 
ENDROOT
BRANCH   1  30
ATOM     30  C   UNL     1      22.173 -37.246 157.134  1.00  0.00     0.048 C 
ATOM     31  O   UNL     1      21.989 -38.023 156.159  1.00  0.00    -0.550 OA
ATOM     32  O   UNL     1      22.852 -37.731 158.247  1.00  0.00    -0.550 OA
ENDBRANCH   1  30
BRANCH  27  33
ATOM     33  O   UNL     1      13.445 -33.875 162.657  1.00  0.00    -0.393 OA
ATOM     34  H   UNL     1      13.193 -33.132 162.048  1.00  0.00     0.210 HD
ENDBRANCH  27  33
TORSDOF 2
ENDMDL
MODEL 2
REMARK VINA RESULT:     2.749      1.828      7.889
REMARK INTER + INTRA:           3.287
REMARK INTER:                   2.470
REMARK INTRA:                   0.817
REMARK UNBOUND:                 0.298
REMARK SMILES C[C@@H]1[C@@H](C)CC[C@]2(C(=O)[O-])CC[C@@]3(C)C(=CC[C@H]4[C@@]5(C)CC[C@H](O)C(C)(C)[C@H]5CC[C@@]43C)[C@@H]12
REMARK SMILES IDX 7 1 6 2 11 3 33 4 5 5 12 6 15 7 2 8 3 9 13 10 16 11 1 12
REMARK SMILES IDX 4 13 14 14 31 15 17 16 18 17 30 18 32 19 19 20 29 21 28 22
REMARK SMILES IDX 21 23 20 24 25 25 22 26 23 27 26 28 27 29 8 30 9 31 10 32
REMARK SMILES IDX 24 33
REMARK H PARENT 24 34
REMARK Flexibility Score: inf
ROOT
ATOM      1  C   UNL     1      15.899 -36.372 162.305  1.00  0.00     0.017 C 
ATOM      2  C   UNL     1      14.687 -35.615 162.974  1.00  0.00     0.014 C 
ATOM      3  C   UNL     1      17.216 -36.067 163.125  1.00  0.00     0.014 C 
ATOM      4  C   UNL     1      16.116 -35.930 160.812  1.00  0.00     0.030 C 
ATOM      5  C   UNL     1      13.875 -34.738 162.020  1.00  0.00     0.004 C 
ATOM      6  C   UNL     1      18.495 -35.821 162.286  1.00  0.00     0.013 C 
ATOM      7  C   UNL     1      17.333 -36.683 160.215  1.00  0.00    -0.063 C 
ATOM      8  C   UNL     1      14.805 -35.906 159.936  1.00  0.00    -0.003 C 
ATOM      9  C   UNL     1      13.524 -35.475 160.723  1.00  0.00    -0.011 C 
ATOM     10  C   UNL     1      18.633 -36.734 161.023  1.00  0.00    -0.006 C 
ATOM     11  C   UNL     1      17.323 -37.236 158.977  1.00  0.00    -0.027 C 
ATOM     12  C   UNL     1      14.985 -34.951 158.733  1.00  0.00     0.008 C 
ATOM     13  C   UNL     1      12.562 -36.651 160.972  1.00  0.00     0.008 C 
ATOM     14  C   UNL     1      18.823 -38.207 161.528  1.00  0.00     0.017 C 
ATOM     15  C   UNL     1      19.837 -36.277 160.061  1.00  0.00    -0.020 C 
ATOM     16  C   UNL     1      18.564 -37.617 158.199  1.00  0.00     0.032 C 
ATOM     17  C   UNL     1      19.940 -37.323 158.884  1.00  0.00     0.006 C 
ATOM     18  C   UNL     1      21.198 -36.198 160.847  1.00  0.00     0.008 C 
ATOM     19  C   UNL     1      19.551 -34.864 159.469  1.00  0.00     0.012 C 
ATOM     20  C   UNL     1      21.167 -37.151 157.872  1.00  0.00    -0.025 C 
ATOM     21  C   UNL     1      22.387 -36.894 160.168  1.00  0.00     0.005 C 
ATOM     22  C   UNL     1      22.491 -36.664 158.639  1.00  0.00     0.003 C 
ATOM     23  C   UNL     1      20.802 -36.259 156.642  1.00  0.00     0.010 C 
ATOM     24  C   UNL     1      21.450 -38.574 157.281  1.00  0.00     0.012 C 
ATOM     25  C   UNL     1      23.278 -35.327 158.173  1.00  0.00    -0.006 C 
ATOM     26  C   UNL     1      22.019 -35.645 155.966  1.00  0.00     0.033 C 
ATOM     27  C   UNL     1      22.649 -34.637 156.914  1.00  0.00     0.120 C 
ATOM     28  C   UNL     1      23.370 -34.232 159.274  1.00  0.00     0.014 C 
ATOM     29  C   UNL     1      24.754 -35.719 157.854  1.00  0.00     0.014 C 
ENDROOT
BRANCH   1  30
ATOM     30  C   UNL     1      15.608 -37.873 162.388  1.00  0.00     0.048 C 
ATOM     31  O   UNL     1      16.317 -38.611 163.124  1.00  0.00    -0.550 OA
ATOM     32  O   UNL     1      14.559 -38.454 161.683  1.00  0.00    -0.550 OA
ENDBRANCH   1  30
BRANCH  27  33
ATOM     33  O   UNL     1      23.608 -33.876 156.218  1.00  0.00    -0.393 OA
ATOM     34  H   UNL     1      24.501 -34.252 156.439  1.00  0.00     0.210 HD
ENDBRANCH  27  33
TORSDOF 2
ENDMDL
MODEL 3
REMARK VINA RESULT:     3.005      2.019      3.706
REMARK INTER + INTRA:           3.566
REMARK INTER:                   1.985
REMARK INTRA:                   1.581
REMARK UNBOUND:                 0.298
REMARK SMILES C[C@@H]1[C@@H](C)CC[C@]2(C(=O)[O-])CC[C@@]3(C)C(=CC[C@H]4[C@@]5(C)CC[C@H](O)C(C)(C)[C@H]5CC[C@@]43C)[C@@H]12
REMARK SMILES IDX 7 1 6 2 11 3 33 4 5 5 12 6 15 7 2 8 3 9 13 10 16 11 1 12
REMARK SMILES IDX 4 13 14 14 31 15 17 16 18 17 30 18 32 19 19 20 29 21 28 22
REMARK SMILES IDX 21 23 20 24 25 25 22 26 23 27 26 28 27 29 8 30 9 31 10 32
REMARK SMILES IDX 24 33
REMARK H PARENT 24 34
REMARK Flexibility Score: inf
ROOT
ATOM      1  C   UNL     1      21.754 -35.946 159.263  1.00  0.00     0.017 C 
ATOM      2  C   UNL     1      22.984 -36.394 158.382  1.00  0.00     0.014 C 
ATOM      3  C   UNL     1      21.627 -36.915 160.506  1.00  0.00     0.014 C 
ATOM      4  C   UNL     1      20.407 -35.980 158.453  1.00  0.00     0.030 C 
ATOM      5  C   UNL     1      22.664 -36.614 156.903  1.00  0.00     0.004 C 
ATOM      6  C   UNL     1      20.187 -37.335 160.894  1.00  0.00     0.013 C 
ATOM      7  C   UNL     1      19.233 -35.558 159.373  1.00  0.00    -0.063 C 
ATOM      8  C   UNL     1      20.475 -35.288 157.037  1.00  0.00    -0.003 C 
ATOM      9  C   UNL     1      21.851 -35.457 156.314  1.00  0.00    -0.011 C 
ATOM     10  C   UNL     1      19.117 -36.201 160.758  1.00  0.00    -0.006 C 
ATOM     11  C   UNL     1      18.259 -34.700 158.980  1.00  0.00    -0.027 C 
ATOM     12  C   UNL     1      19.366 -35.851 156.116  1.00  0.00     0.008 C 
ATOM     13  C   UNL     1      22.659 -34.147 156.274  1.00  0.00     0.008 C 
ATOM     14  C   UNL     1      19.462 -35.102 161.824  1.00  0.00     0.017 C 
ATOM     15  C   UNL     1      17.616 -36.745 160.933  1.00  0.00    -0.020 C 
ATOM     16  C   UNL     1      16.911 -34.565 159.655  1.00  0.00     0.032 C 
ATOM     17  C   UNL     1      16.641 -35.505 160.876  1.00  0.00     0.006 C 
ATOM     18  C   UNL     1      17.443 -37.519 162.292  1.00  0.00     0.008 C 
ATOM     19  C   UNL     1      17.260 -37.732 159.780  1.00  0.00     0.012 C 
ATOM     20  C   UNL     1      15.095 -35.790 161.171  1.00  0.00    -0.025 C 
ATOM     21  C   UNL     1      16.216 -37.114 163.124  1.00  0.00     0.005 C 
ATOM     22  C   UNL     1      14.914 -36.909 162.309  1.00  0.00     0.003 C 
ATOM     23  C   UNL     1      14.288 -36.099 159.869  1.00  0.00     0.010 C 
ATOM     24  C   UNL     1      14.499 -34.448 161.718  1.00  0.00     0.012 C 
ATOM     25  C   UNL     1      14.029 -38.238 162.037  1.00  0.00    -0.006 C 
ATOM     26  C   UNL     1      13.005 -36.872 160.129  1.00  0.00     0.033 C 
ATOM     27  C   UNL     1      13.363 -38.266 160.618  1.00  0.00     0.120 C 
ATOM     28  C   UNL     1      14.826 -39.566 162.174  1.00  0.00     0.014 C 
ATOM     29  C   UNL     1      12.913 -38.309 163.125  1.00  0.00     0.014 C 
ENDROOT
BRANCH   1  30
ATOM     30  C   UNL     1      22.043 -34.532 159.774  1.00  0.00     0.048 C 
ATOM     31  O   UNL     1      21.139 -33.877 160.360  1.00  0.00    -0.550 OA
ATOM     32  O   UNL     1      23.295 -33.945 159.629  1.00  0.00    -0.550 OA
ENDBRANCH   1  30
BRANCH  27  33
ATOM     33  O   UNL     1      12.209 -39.075 160.614  1.00  0.00    -0.393 OA
ATOM     34  H   UNL     1      12.372 -39.825 161.245  1.00  0.00     0.210 HD
ENDBRANCH  27  33
TORSDOF 2
ENDMDL
MODEL 4
REMARK VINA RESULT:     3.210      1.580      2.930
REMARK INTER + INTRA:           3.789
REMARK INTER:                   3.435
REMARK INTRA:                   0.354
REMARK UNBOUND:                 0.298
REMARK SMILES C[C@@H]1[C@@H](C)CC[C@]2(C(=O)[O-])CC[C@@]3(C)C(=CC[C@H]4[C@@]5(C)CC[C@H](O)C(C)(C)[C@H]5CC[C@@]43C)[C@@H]12
REMARK SMILES IDX 7 1 6 2 11 3 33 4 5 5 12 6 15 7 2 8 3 9 13 10 16 11 1 12
REMARK SMILES IDX 4 13 14 14 31 15 17 16 18 17 30 18 32 19 19 20 29 21 28 22
REMARK SMILES IDX 21 23 20 24 25 25 22 26 23 27 26 28 27 29 8 30 9 31 10 32
REMARK SMILES IDX 24 33
REMARK H PARENT 24 34
REMARK Flexibility Score: inf
ROOT
ATOM      1  C   UNL     1      21.559 -36.662 157.469  1.00  0.00     0.017 C 
ATOM      2  C   UNL     1      22.231 -36.876 156.057  1.00  0.00     0.014 C 
ATOM      3  C   UNL     1      21.126 -38.065 158.054  1.00  0.00     0.014 C 
ATOM      4  C   UNL     1      20.292 -35.735 157.382  1.00  0.00     0.030 C 
ATOM      5  C   UNL     1      21.633 -36.033 154.930  1.00  0.00     0.004 C 
ATOM      6  C   UNL     1      19.753 -38.107 158.771  1.00  0.00     0.013 C 
ATOM      7  C   UNL     1      19.658 -35.582 158.789  1.00  0.00    -0.063 C 
ATOM      8  C   UNL     1      20.505 -34.407 156.559  1.00  0.00    -0.003 C 
ATOM      9  C   UNL     1      21.468 -34.565 155.338  1.00  0.00    -0.011 C 
ATOM     10  C   UNL     1      19.427 -36.840 159.631  1.00  0.00    -0.006 C 
ATOM     11  C   UNL     1      19.231 -34.393 159.280  1.00  0.00    -0.027 C 
ATOM     12  C   UNL     1      19.146 -33.876 156.044  1.00  0.00     0.008 C 
ATOM     13  C   UNL     1      22.826 -33.876 155.566  1.00  0.00     0.008 C 
ATOM     14  C   UNL     1      20.445 -36.810 160.824  1.00  0.00     0.017 C 
ATOM     15  C   UNL     1      17.906 -36.822 160.148  1.00  0.00    -0.020 C 
ATOM     16  C   UNL     1      18.267 -34.239 160.437  1.00  0.00     0.032 C 
ATOM     17  C   UNL     1      17.725 -35.560 161.079  1.00  0.00     0.006 C 
ATOM     18  C   UNL     1      17.553 -38.139 160.934  1.00  0.00     0.008 C 
ATOM     19  C   UNL     1      16.924 -36.715 158.942  1.00  0.00     0.012 C 
ATOM     20  C   UNL     1      16.320 -35.412 161.828  1.00  0.00    -0.025 C 
ATOM     21  C   UNL     1      16.854 -37.928 162.286  1.00  0.00     0.005 C 
ATOM     22  C   UNL     1      15.749 -36.841 162.286  1.00  0.00     0.003 C 
ATOM     23  C   UNL     1      15.292 -34.571 161.003  1.00  0.00     0.010 C 
ATOM     24  C   UNL     1      16.600 -34.571 163.120  1.00  0.00     0.012 C 
ATOM     25  C   UNL     1      14.272 -37.330 161.836  1.00  0.00    -0.006 C 
ATOM     26  C   UNL     1      13.848 -34.844 161.392  1.00  0.00     0.033 C 
ATOM     27  C   UNL     1      13.491 -36.266 160.989  1.00  0.00     0.120 C 
ATOM     28  C   UNL     1      14.267 -38.643 161.003  1.00  0.00     0.014 C 
ATOM     29  C   UNL     1      13.455 -37.653 163.125  1.00  0.00     0.014 C 
ENDROOT
BRANCH   1  30
ATOM     30  C   UNL     1      22.614 -36.051 158.395  1.00  0.00     0.048 C 
ATOM     31  O   UNL     1      23.649 -36.708 158.689  1.00  0.00    -0.550 OA
ATOM     32  O   UNL     1      22.477 -34.767 158.912  1.00  0.00    -0.550 OA
ENDBRANCH   1  30
BRANCH  27  33
ATOM     33  O   UNL     1      12.099 -36.450 161.100  1.00  0.00    -0.393 OA
ATOM     34  H   UNL     1      11.939 -37.030 161.891  1.00  0.00     0.210 HD
ENDBRANCH  27  33
TORSDOF 2
ENDMDL
