MODEL 1
REMARK VINA RESULT:    -4.921      0.000      0.000
REMARK INTER + INTRA:          -7.311
REMARK INTER:                  -6.647
REMARK INTRA:                  -0.664
REMARK UNBOUND:                -0.664
REMARK SMILES COc1ccc(-c2cc(=O)c3c(OC)c(OC)c(OC)c(OC)c3o2)cc1
REMARK SMILES IDX 7 1 8 2 9 3 10 4 11 5 24 6 25 7 21 8 18 9 15 10 12 11 6 12
REMARK SMILES IDX 3 13 4 14 27 15 5 16 26 17 2 18 1 19 22 20 23 21 13 22 14 23
REMARK SMILES IDX 19 24 20 25 16 26 17 27
REMARK H PARENT
REMARK Flexibility Score: inf
ROOT
ATOM      1  C   UNL     1       7.710  26.209  58.886  1.00  0.00     0.138 A 
ATOM      2  C   UNL     1       9.093  26.420  58.803  1.00  0.00     0.100 A 
ATOM      3  C   UNL     1       9.951  25.656  59.592  1.00  0.00     0.197 A 
ATOM      4  O   UNL     1      11.194  25.853  59.503  1.00  0.00    -0.289 OA
ATOM      5  C   UNL     1       9.418  24.686  60.467  1.00  0.00     0.115 A 
ATOM      6  C   UNL     1       8.015  24.553  60.521  1.00  0.00     0.188 A 
ATOM      7  O   UNL     1       7.240  25.304  59.741  1.00  0.00    -0.452 OA
ATOM      8  C   UNL     1       7.420  23.619  61.384  1.00  0.00     0.209 A 
ATOM      9  C   UNL     1       8.226  22.736  62.146  1.00  0.00     0.211 A 
ATOM     10  C   UNL     1       9.640  22.867  62.089  1.00  0.00     0.208 A 
ATOM     11  C   UNL     1      10.224  23.863  61.282  1.00  0.00     0.179 A 
ENDROOT
BRANCH   1  12
ATOM     12  C   UNL     1       6.751  26.977  58.051  1.00  0.00     0.018 A 
ATOM     13  C   UNL     1       4.956  28.489  56.477  1.00  0.00     0.118 A 
ATOM     14  C   UNL     1       4.532  27.298  57.093  1.00  0.00     0.047 A 
ATOM     15  C   UNL     1       6.274  28.918  56.661  1.00  0.00     0.047 A 
ATOM     16  C   UNL     1       5.420  26.552  57.875  1.00  0.00     0.016 A 
ATOM     17  C   UNL     1       7.162  28.176  57.443  1.00  0.00     0.016 A 
BRANCH  13  18
ATOM     18  O   UNL     1       4.105  29.271  55.682  1.00  0.00    -0.497 OA
ATOM     19  C   UNL     1       4.525  30.403  54.928  1.00  0.00     0.278 C 
ENDBRANCH  13  18
ENDBRANCH   1  12
BRANCH   8  20
ATOM     20  O   UNL     1       6.027  23.562  61.466  1.00  0.00    -0.490 OA
ATOM     21  C   UNL     1       5.300  24.253  62.477  1.00  0.00     0.278 C 
ENDBRANCH   8  20
BRANCH  11  22
ATOM     22  O   UNL     1      11.617  24.014  61.260  1.00  0.00    -0.492 OA
ATOM     23  C   UNL     1      12.340  24.621  62.327  1.00  0.00     0.278 C 
ENDBRANCH  11  22
BRANCH   9  24
ATOM     24  O   UNL     1       7.678  21.730  62.963  1.00  0.00    -0.490 OA
ATOM     25  C   UNL     1       7.246  20.435  62.561  1.00  0.00     0.279 C 
ENDBRANCH   9  24
BRANCH  10  26
ATOM     26  O   UNL     1      10.526  22.022  62.788  1.00  0.00    -0.490 OA
ATOM     27  C   UNL     1      11.019  20.754  62.370  1.00  0.00     0.278 C 
ENDBRANCH  10  26
TORSDOF 6
ENDMDL
MODEL 2
REMARK VINA RESULT:    -4.745      1.085      1.157
REMARK INTER + INTRA:          -7.073
REMARK INTER:                  -6.524
REMARK INTRA:                  -0.549
REMARK UNBOUND:                -0.664
REMARK SMILES COc1ccc(-c2cc(=O)c3c(OC)c(OC)c(OC)c(OC)c3o2)cc1
REMARK SMILES IDX 7 1 8 2 9 3 10 4 11 5 24 6 25 7 21 8 18 9 15 10 12 11 6 12
REMARK SMILES IDX 3 13 4 14 27 15 5 16 26 17 2 18 1 19 22 20 23 21 13 22 14 23
REMARK SMILES IDX 19 24 20 25 16 26 17 27
REMARK H PARENT
REMARK Flexibility Score: inf
ROOT
ATOM      1  C   UNL     1       7.749  26.300  58.884  1.00  0.00     0.138 A 
ATOM      2  C   UNL     1       9.118  26.286  58.584  1.00  0.00     0.100 A 
ATOM      3  C   UNL     1       9.990  25.560  59.393  1.00  0.00     0.197 A 
ATOM      4  O   UNL     1      11.218  25.553  59.108  1.00  0.00    -0.289 OA
ATOM      5  C   UNL     1       9.486  24.854  60.506  1.00  0.00     0.115 A 
ATOM      6  C   UNL     1       8.102  24.941  60.765  1.00  0.00     0.188 A 
ATOM      7  O   UNL     1       7.311  25.643  59.957  1.00  0.00    -0.452 OA
ATOM      8  C   UNL     1       7.540  24.276  61.867  1.00  0.00     0.209 A 
ATOM      9  C   UNL     1       8.343  23.438  62.680  1.00  0.00     0.211 A 
ATOM     10  C   UNL     1       9.736  23.348  62.418  1.00  0.00     0.208 A 
ATOM     11  C   UNL     1      10.303  24.084  61.360  1.00  0.00     0.179 A 
ENDROOT
BRANCH   1  12
ATOM     12  C   UNL     1       6.771  27.035  58.042  1.00  0.00     0.018 A 
ATOM     13  C   UNL     1       4.939  28.487  56.454  1.00  0.00     0.118 A 
ATOM     14  C   UNL     1       4.543  27.294  57.086  1.00  0.00     0.047 A 
ATOM     15  C   UNL     1       6.247  28.948  56.630  1.00  0.00     0.047 A 
ATOM     16  C   UNL     1       5.449  26.578  57.875  1.00  0.00     0.016 A 
ATOM     17  C   UNL     1       7.153  28.236  57.419  1.00  0.00     0.016 A 
BRANCH  13  18
ATOM     18  O   UNL     1       4.068  29.240  55.652  1.00  0.00    -0.497 OA
ATOM     19  C   UNL     1       4.460  30.375  54.887  1.00  0.00     0.278 C 
ENDBRANCH  13  18
ENDBRANCH   1  12
BRANCH   8  20
ATOM     20  O   UNL     1       6.180  24.441  62.137  1.00  0.00    -0.490 OA
ATOM     21  C   UNL     1       5.696  25.479  62.983  1.00  0.00     0.278 C 
ENDBRANCH   8  20
BRANCH  11  22
ATOM     22  O   UNL     1      11.685  24.021  61.129  1.00  0.00    -0.492 OA
ATOM     23  C   UNL     1      12.315  22.884  60.547  1.00  0.00     0.278 C 
ENDBRANCH  11  22
BRANCH   9  24
ATOM     24  O   UNL     1       7.811  22.688  63.746  1.00  0.00    -0.490 OA
ATOM     25  C   UNL     1       7.639  23.110  65.095  1.00  0.00     0.279 C 
ENDBRANCH   9  24
BRANCH  10  26
ATOM     26  O   UNL     1      10.612  22.522  63.153  1.00  0.00    -0.490 OA
ATOM     27  C   UNL     1      11.288  22.843  64.364  1.00  0.00     0.278 C 
ENDBRANCH  10  26
TORSDOF 6
ENDMDL
MODEL 3
REMARK VINA RESULT:    -4.711      1.175      3.751
REMARK INTER + INTRA:          -7.027
REMARK INTER:                  -6.394
REMARK INTRA:                  -0.633
REMARK UNBOUND:                -0.664
REMARK SMILES COc1ccc(-c2cc(=O)c3c(OC)c(OC)c(OC)c(OC)c3o2)cc1
REMARK SMILES IDX 7 1 8 2 9 3 10 4 11 5 24 6 25 7 21 8 18 9 15 10 12 11 6 12
REMARK SMILES IDX 3 13 4 14 27 15 5 16 26 17 2 18 1 19 22 20 23 21 13 22 14 23
REMARK SMILES IDX 19 24 20 25 16 26 17 27
REMARK H PARENT
REMARK Flexibility Score: inf
ROOT
ATOM      1  C   UNL     1       7.066  26.056  59.262  1.00  0.00     0.138 A 
ATOM      2  C   UNL     1       6.378  25.190  60.123  1.00  0.00     0.100 A 
ATOM      3  C   UNL     1       7.097  24.411  61.028  1.00  0.00     0.197 A 
ATOM      4  O   UNL     1       6.465  23.640  61.801  1.00  0.00    -0.289 OA
ATOM      5  C   UNL     1       8.505  24.500  61.063  1.00  0.00     0.115 A 
ATOM      6  C   UNL     1       9.130  25.368  60.144  1.00  0.00     0.188 A 
ATOM      7  O   UNL     1       8.396  26.095  59.304  1.00  0.00    -0.452 OA
ATOM      8  C   UNL     1      10.528  25.489  60.115  1.00  0.00     0.209 A 
ATOM      9  C   UNL     1      11.324  24.806  61.068  1.00  0.00     0.211 A 
ATOM     10  C   UNL     1      10.695  23.933  61.996  1.00  0.00     0.208 A 
ATOM     11  C   UNL     1       9.298  23.757  61.963  1.00  0.00     0.179 A 
ENDROOT
BRANCH   1  12
ATOM     12  C   UNL     1       6.350  26.927  58.295  1.00  0.00     0.018 A 
ATOM     13  C   UNL     1       4.953  28.537  56.440  1.00  0.00     0.118 A 
ATOM     14  C   UNL     1       6.307  28.792  56.725  1.00  0.00     0.047 A 
ATOM     15  C   UNL     1       4.312  27.472  57.081  1.00  0.00     0.047 A 
ATOM     16  C   UNL     1       6.999  27.992  57.640  1.00  0.00     0.016 A 
ATOM     17  C   UNL     1       5.001  26.672  57.994  1.00  0.00     0.016 A 
BRANCH  13  18
ATOM     18  O   UNL     1       4.215  29.311  55.532  1.00  0.00    -0.497 OA
ATOM     19  C   UNL     1       4.712  30.475  54.880  1.00  0.00     0.278 C 
ENDBRANCH  13  18
ENDBRANCH   1  12
BRANCH   8  20
ATOM     20  O   UNL     1      11.119  26.303  59.145  1.00  0.00    -0.490 OA
ATOM     21  C   UNL     1      11.678  25.771  57.949  1.00  0.00     0.278 C 
ENDBRANCH   8  20
BRANCH  11  22
ATOM     22  O   UNL     1       8.687  22.865  62.855  1.00  0.00    -0.492 OA
ATOM     23  C   UNL     1       8.735  21.452  62.680  1.00  0.00     0.278 C 
ENDBRANCH  11  22
BRANCH   9  24
ATOM     24  O   UNL     1      12.722  24.957  61.131  1.00  0.00    -0.490 OA
ATOM     25  C   UNL     1      13.448  25.976  61.810  1.00  0.00     0.279 C 
ENDBRANCH   9  24
BRANCH  10  26
ATOM     26  O   UNL     1      11.396  23.231  62.998  1.00  0.00    -0.490 OA
ATOM     27  C   UNL     1      11.629  23.645  64.340  1.00  0.00     0.278 C 
ENDBRANCH  10  26
TORSDOF 6
ENDMDL
MODEL 4
REMARK VINA RESULT:    -4.626      5.511      7.509
REMARK INTER + INTRA:          -6.912
REMARK INTER:                  -6.357
REMARK INTRA:                  -0.554
REMARK UNBOUND:                -0.664
REMARK SMILES COc1ccc(-c2cc(=O)c3c(OC)c(OC)c(OC)c(OC)c3o2)cc1
REMARK SMILES IDX 7 1 8 2 9 3 10 4 11 5 24 6 25 7 21 8 18 9 15 10 12 11 6 12
REMARK SMILES IDX 3 13 4 14 27 15 5 16 26 17 2 18 1 19 22 20 23 21 13 22 14 23
REMARK SMILES IDX 19 24 20 25 16 26 17 27
REMARK H PARENT
REMARK Flexibility Score: inf
ROOT
ATOM      1  C   UNL     1       5.344  30.927  62.213  1.00  0.00     0.138 A 
ATOM      2  C   UNL     1       4.740  30.361  63.345  1.00  0.00     0.100 A 
ATOM      3  C   UNL     1       4.344  29.026  63.314  1.00  0.00     0.197 A 
ATOM      4  O   UNL     1       3.807  28.529  64.341  1.00  0.00    -0.289 OA
ATOM      5  C   UNL     1       4.550  28.262  62.145  1.00  0.00     0.115 A 
ATOM      6  C   UNL     1       5.133  28.907  61.035  1.00  0.00     0.188 A 
ATOM      7  O   UNL     1       5.499  30.185  61.118  1.00  0.00    -0.452 OA
ATOM      8  C   UNL     1       5.348  28.210  59.836  1.00  0.00     0.209 A 
ATOM      9  C   UNL     1       5.063  26.823  59.757  1.00  0.00     0.211 A 
ATOM     10  C   UNL     1       4.479  26.171  60.876  1.00  0.00     0.208 A 
ATOM     11  C   UNL     1       4.192  26.901  62.045  1.00  0.00     0.179 A 
ENDROOT
BRANCH   1  12
ATOM     12  C   UNL     1       5.809  32.337  62.198  1.00  0.00     0.018 A 
ATOM     13  C   UNL     1       6.750  35.002  62.190  1.00  0.00     0.118 A 
ATOM     14  C   UNL     1       5.397  34.726  62.460  1.00  0.00     0.047 A 
ATOM     15  C   UNL     1       7.623  33.941  61.936  1.00  0.00     0.047 A 
ATOM     16  C   UNL     1       4.933  33.407  62.468  1.00  0.00     0.016 A 
ATOM     17  C   UNL     1       7.162  32.622  61.944  1.00  0.00     0.016 A 
BRANCH  13  18
ATOM     18  O   UNL     1       7.262  36.308  62.169  1.00  0.00    -0.497 OA
ATOM     19  C   UNL     1       7.593  37.061  63.332  1.00  0.00     0.278 C 
ENDBRANCH  13  18
ENDBRANCH   1  12
BRANCH   8  20
ATOM     20  O   UNL     1       5.860  28.897  58.733  1.00  0.00    -0.490 OA
ATOM     21  C   UNL     1       5.081  29.148  57.569  1.00  0.00     0.278 C 
ENDBRANCH   8  20
BRANCH  11  22
ATOM     22  O   UNL     1       3.579  26.262  63.132  1.00  0.00    -0.492 OA
ATOM     23  C   UNL     1       2.190  25.949  63.155  1.00  0.00     0.278 C 
ENDBRANCH  11  22
BRANCH   9  24
ATOM     24  O   UNL     1       5.337  26.062  58.604  1.00  0.00    -0.490 OA
ATOM     25  C   UNL     1       6.562  25.422  58.266  1.00  0.00     0.279 C 
ENDBRANCH   9  24
BRANCH  10  26
ATOM     26  O   UNL     1       4.184  24.793  60.904  1.00  0.00    -0.490 OA
ATOM     27  C   UNL     1       5.053  23.732  61.284  1.00  0.00     0.278 C 
ENDBRANCH  10  26
TORSDOF 6
ENDMDL
MODEL 5
REMARK VINA RESULT:    -4.364      1.287      3.563
REMARK INTER + INTRA:          -6.558
REMARK INTER:                  -5.998
REMARK INTRA:                  -0.560
REMARK UNBOUND:                -0.664
REMARK SMILES COc1ccc(-c2cc(=O)c3c(OC)c(OC)c(OC)c(OC)c3o2)cc1
REMARK SMILES IDX 7 1 8 2 9 3 10 4 11 5 24 6 25 7 21 8 18 9 15 10 12 11 6 12
REMARK SMILES IDX 3 13 4 14 27 15 5 16 26 17 2 18 1 19 22 20 23 21 13 22 14 23
REMARK SMILES IDX 19 24 20 25 16 26 17 27
REMARK H PARENT
REMARK Flexibility Score: inf
ROOT
ATOM      1  C   UNL     1       6.290  25.519  59.487  1.00  0.00     0.138 A 
ATOM      2  C   UNL     1       5.210  24.804  60.024  1.00  0.00     0.100 A 
ATOM      3  C   UNL     1       5.450  23.812  60.973  1.00  0.00     0.197 A 
ATOM      4  O   UNL     1       4.469  23.180  61.451  1.00  0.00    -0.289 OA
ATOM      5  C   UNL     1       6.774  23.537  61.377  1.00  0.00     0.115 A 
ATOM      6  C   UNL     1       7.811  24.274  60.770  1.00  0.00     0.188 A 
ATOM      7  O   UNL     1       7.528  25.216  59.872  1.00  0.00    -0.452 OA
ATOM      8  C   UNL     1       9.151  24.037  61.115  1.00  0.00     0.209 A 
ATOM      9  C   UNL     1       9.471  23.115  62.142  1.00  0.00     0.211 A 
ATOM     10  C   UNL     1       8.426  22.374  62.757  1.00  0.00     0.208 A 
ATOM     11  C   UNL     1       7.093  22.561  62.345  1.00  0.00     0.179 A 
ENDROOT
BRANCH   1  12
ATOM     12  C   UNL     1       6.091  26.604  58.492  1.00  0.00     0.018 A 
ATOM     13  C   UNL     1       5.756  28.701  56.627  1.00  0.00     0.118 A 
ATOM     14  C   UNL     1       4.667  27.886  56.985  1.00  0.00     0.047 A 
ATOM     15  C   UNL     1       7.003  28.465  57.213  1.00  0.00     0.047 A 
ATOM     16  C   UNL     1       4.832  26.851  57.911  1.00  0.00     0.016 A 
ATOM     17  C   UNL     1       7.170  27.432  58.139  1.00  0.00     0.016 A 
BRANCH  13  18
ATOM     18  O   UNL     1       5.641  29.749  55.702  1.00  0.00    -0.497 OA
ATOM     19  C   UNL     1       4.413  30.181  55.126  1.00  0.00     0.278 C 
ENDBRANCH  13  18
ENDBRANCH   1  12
BRANCH   8  20
ATOM     20  O   UNL     1      10.158  24.734  60.443  1.00  0.00    -0.490 OA
ATOM     21  C   UNL     1      10.652  25.985  60.907  1.00  0.00     0.278 C 
ENDBRANCH   8  20
BRANCH  11  22
ATOM     22  O   UNL     1       6.070  21.799  62.927  1.00  0.00    -0.492 OA
ATOM     23  C   UNL     1       5.777  20.467  62.517  1.00  0.00     0.278 C 
ENDBRANCH  11  22
BRANCH   9  24
ATOM     24  O   UNL     1      10.792  22.901  62.579  1.00  0.00    -0.490 OA
ATOM     25  C   UNL     1      11.466  23.568  63.641  1.00  0.00     0.279 C 
ENDBRANCH   9  24
BRANCH  10  26
ATOM     26  O   UNL     1       8.640  21.454  63.804  1.00  0.00    -0.490 OA
ATOM     27  C   UNL     1       9.205  20.151  63.707  1.00  0.00     0.278 C 
ENDBRANCH  10  26
TORSDOF 6
ENDMDL
MODEL 6
REMARK VINA RESULT:    -4.329      8.911     11.801
REMARK INTER + INTRA:          -6.511
REMARK INTER:                  -5.993
REMARK INTRA:                  -0.518
REMARK UNBOUND:                -0.664
REMARK SMILES COc1ccc(-c2cc(=O)c3c(OC)c(OC)c(OC)c(OC)c3o2)cc1
REMARK SMILES IDX 7 1 8 2 9 3 10 4 11 5 24 6 25 7 21 8 18 9 15 10 12 11 6 12
REMARK SMILES IDX 3 13 4 14 27 15 5 16 26 17 2 18 1 19 22 20 23 21 13 22 14 23
REMARK SMILES IDX 19 24 20 25 16 26 17 27
REMARK H PARENT
REMARK Flexibility Score: inf
ROOT
ATOM      1  C   UNL     1       9.386  33.941  61.711  1.00  0.00     0.138 A 
ATOM      2  C   UNL     1       8.857  32.643  61.702  1.00  0.00     0.100 A 
ATOM      3  C   UNL     1       7.510  32.450  62.002  1.00  0.00     0.197 A 
ATOM      4  O   UNL     1       7.047  31.277  61.984  1.00  0.00    -0.289 OA
ATOM      5  C   UNL     1       6.698  33.561  62.315  1.00  0.00     0.115 A 
ATOM      6  C   UNL     1       7.307  34.832  62.337  1.00  0.00     0.188 A 
ATOM      7  O   UNL     1       8.597  34.963  62.036  1.00  0.00    -0.452 OA
ATOM      8  C   UNL     1       6.559  35.975  62.659  1.00  0.00     0.209 A 
ATOM      9  C   UNL     1       5.162  35.876  62.879  1.00  0.00     0.211 A 
ATOM     10  C   UNL     1       4.547  34.595  62.855  1.00  0.00     0.208 A 
ATOM     11  C   UNL     1       5.323  33.445  62.611  1.00  0.00     0.179 A 
ENDROOT
BRANCH   1  12
ATOM     12  C   UNL     1      10.808  34.208  61.374  1.00  0.00     0.018 A 
ATOM     13  C   UNL     1      13.501  34.700  60.675  1.00  0.00     0.118 A 
ATOM     14  C   UNL     1      13.174  34.234  61.961  1.00  0.00     0.047 A 
ATOM     15  C   UNL     1      12.477  34.907  59.745  1.00  0.00     0.047 A 
ATOM     16  C   UNL     1      11.841  33.986  62.305  1.00  0.00     0.016 A 
ATOM     17  C   UNL     1      11.146  34.660  60.087  1.00  0.00     0.016 A 
BRANCH  13  18
ATOM     18  O   UNL     1      14.822  34.964  60.283  1.00  0.00    -0.497 OA
ATOM     19  C   UNL     1      15.971  34.361  60.870  1.00  0.00     0.278 C 
ENDBRANCH  13  18
ENDBRANCH   1  12
BRANCH   8  20
ATOM     20  O   UNL     1       7.207  37.210  62.742  1.00  0.00    -0.490 OA
ATOM     21  C   UNL     1       7.767  37.690  63.959  1.00  0.00     0.278 C 
ENDBRANCH   8  20
BRANCH  11  22
ATOM     22  O   UNL     1       4.718  32.181  62.627  1.00  0.00    -0.492 OA
ATOM     23  C   UNL     1       4.433  31.482  63.834  1.00  0.00     0.278 C 
ENDBRANCH  11  22
BRANCH   9  24
ATOM     24  O   UNL     1       4.355  37.003  63.125  1.00  0.00    -0.490 OA
ATOM     25  C   UNL     1       3.844  37.922  62.167  1.00  0.00     0.279 C 
ENDBRANCH   9  24
BRANCH  10  26
ATOM     26  O   UNL     1       3.163  34.395  63.036  1.00  0.00    -0.490 OA
ATOM     27  C   UNL     1       2.426  34.511  64.248  1.00  0.00     0.278 C 
ENDBRANCH  10  26
TORSDOF 6
ENDMDL
MODEL 7
REMARK VINA RESULT:    -4.297      8.165     10.715
REMARK INTER + INTRA:          -6.468
REMARK INTER:                  -5.978
REMARK INTRA:                  -0.490
REMARK UNBOUND:                -0.664
REMARK SMILES COc1ccc(-c2cc(=O)c3c(OC)c(OC)c(OC)c(OC)c3o2)cc1
REMARK SMILES IDX 7 1 8 2 9 3 10 4 11 5 24 6 25 7 21 8 18 9 15 10 12 11 6 12
REMARK SMILES IDX 3 13 4 14 27 15 5 16 26 17 2 18 1 19 22 20 23 21 13 22 14 23
REMARK SMILES IDX 19 24 20 25 16 26 17 27
REMARK H PARENT
REMARK Flexibility Score: inf
ROOT
ATOM      1  C   UNL     1       5.918  31.754  61.766  1.00  0.00     0.138 A 
ATOM      2  C   UNL     1       7.250  32.177  61.652  1.00  0.00     0.100 A 
ATOM      3  C   UNL     1       7.593  33.470  62.043  1.00  0.00     0.197 A 
ATOM      4  O   UNL     1       8.796  33.836  61.940  1.00  0.00    -0.289 OA
ATOM      5  C   UNL     1       6.597  34.337  62.542  1.00  0.00     0.115 A 
ATOM      6  C   UNL     1       5.274  33.853  62.597  1.00  0.00     0.188 A 
ATOM      7  O   UNL     1       5.000  32.606  62.216  1.00  0.00    -0.452 OA
ATOM      8  C   UNL     1       4.234  34.670  63.066  1.00  0.00     0.209 A 
ATOM      9  C   UNL     1       4.517  35.963  63.575  1.00  0.00     0.211 A 
ATOM     10  C   UNL     1       5.850  36.451  63.523  1.00  0.00     0.208 A 
ATOM     11  C   UNL     1       6.872  35.652  62.974  1.00  0.00     0.179 A 
ENDROOT
BRANCH   1  12
ATOM     12  C   UNL     1       5.501  30.379  61.388  1.00  0.00     0.018 A 
ATOM     13  C   UNL     1       4.689  27.786  60.614  1.00  0.00     0.118 A 
ATOM     14  C   UNL     1       4.618  28.181  61.962  1.00  0.00     0.047 A 
ATOM     15  C   UNL     1       5.157  28.696  59.662  1.00  0.00     0.047 A 
ATOM     16  C   UNL     1       5.016  29.466  62.344  1.00  0.00     0.016 A 
ATOM     17  C   UNL     1       5.555  29.981  60.041  1.00  0.00     0.016 A 
BRANCH  13  18
ATOM     18  O   UNL     1       4.303  26.508  60.182  1.00  0.00    -0.497 OA
ATOM     19  C   UNL     1       5.212  25.488  59.778  1.00  0.00     0.278 C 
ENDBRANCH  13  18
ENDBRANCH   1  12
BRANCH   8  20
ATOM     20  O   UNL     1       2.925  34.185  63.040  1.00  0.00    -0.490 OA
ATOM     21  C   UNL     1       2.308  33.609  64.186  1.00  0.00     0.278 C 
ENDBRANCH   8  20
BRANCH  11  22
ATOM     22  O   UNL     1       8.178  36.153  62.890  1.00  0.00    -0.492 OA
ATOM     23  C   UNL     1       9.018  36.300  64.031  1.00  0.00     0.278 C 
ENDBRANCH  11  22
BRANCH   9  24
ATOM     24  O   UNL     1       3.521  36.788  64.130  1.00  0.00    -0.490 OA
ATOM     25  C   UNL     1       2.649  37.672  63.435  1.00  0.00     0.279 C 
ENDBRANCH   9  24
BRANCH  10  26
ATOM     26  O   UNL     1       6.236  37.710  64.027  1.00  0.00    -0.490 OA
ATOM     27  C   UNL     1       6.188  38.961  63.350  1.00  0.00     0.278 C 
ENDBRANCH  10  26
TORSDOF 6
ENDMDL
MODEL 8
REMARK VINA RESULT:    -4.285      2.691      4.075
REMARK INTER + INTRA:          -6.451
REMARK INTER:                  -5.839
REMARK INTRA:                  -0.612
REMARK UNBOUND:                -0.664
REMARK SMILES COc1ccc(-c2cc(=O)c3c(OC)c(OC)c(OC)c(OC)c3o2)cc1
REMARK SMILES IDX 7 1 8 2 9 3 10 4 11 5 24 6 25 7 21 8 18 9 15 10 12 11 6 12
REMARK SMILES IDX 3 13 4 14 27 15 5 16 26 17 2 18 1 19 22 20 23 21 13 22 14 23
REMARK SMILES IDX 19 24 20 25 16 26 17 27
REMARK H PARENT
REMARK Flexibility Score: inf
ROOT
ATOM      1  C   UNL     1      10.050  25.440  59.381  1.00  0.00     0.138 A 
ATOM      2  C   UNL     1      10.879  25.521  58.253  1.00  0.00     0.100 A 
ATOM      3  C   UNL     1      12.084  24.821  58.238  1.00  0.00     0.197 A 
ATOM      4  O   UNL     1      12.818  24.898  57.215  1.00  0.00    -0.289 OA
ATOM      5  C   UNL     1      12.457  24.046  59.358  1.00  0.00     0.115 A 
ATOM      6  C   UNL     1      11.588  24.040  60.468  1.00  0.00     0.188 A 
ATOM      7  O   UNL     1      10.445  24.721  60.429  1.00  0.00    -0.452 OA
ATOM      8  C   UNL     1      11.909  23.304  61.620  1.00  0.00     0.209 A 
ATOM      9  C   UNL     1      13.067  22.488  61.646  1.00  0.00     0.211 A 
ATOM     10  C   UNL     1      13.942  22.492  60.526  1.00  0.00     0.208 A 
ATOM     11  C   UNL     1      13.652  23.297  59.408  1.00  0.00     0.179 A 
ENDROOT
BRANCH   1  12
ATOM     12  C   UNL     1       8.744  26.144  59.441  1.00  0.00     0.018 A 
ATOM     13  C   UNL     1       6.276  27.520  59.509  1.00  0.00     0.118 A 
ATOM     14  C   UNL     1       6.830  26.994  60.690  1.00  0.00     0.047 A 
ATOM     15  C   UNL     1       6.967  27.360  58.304  1.00  0.00     0.047 A 
ATOM     16  C   UNL     1       8.054  26.318  60.657  1.00  0.00     0.016 A 
ATOM     17  C   UNL     1       8.189  26.685  58.268  1.00  0.00     0.016 A 
BRANCH  13  18
ATOM     18  O   UNL     1       5.051  28.204  59.490  1.00  0.00    -0.497 OA
ATOM     19  C   UNL     1       4.576  28.971  58.388  1.00  0.00     0.278 C 
ENDBRANCH  13  18
ENDBRANCH   1  12
BRANCH   8  20
ATOM     20  O   UNL     1      11.063  23.377  62.729  1.00  0.00    -0.490 OA
ATOM     21  C   UNL     1       9.997  22.455  62.929  1.00  0.00     0.278 C 
ENDBRANCH   8  20
BRANCH  11  22
ATOM     22  O   UNL     1      14.537  23.327  58.322  1.00  0.00    -0.492 OA
ATOM     23  C   UNL     1      15.795  23.994  58.376  1.00  0.00     0.278 C 
ENDBRANCH  11  22
BRANCH   9  24
ATOM     24  O   UNL     1      13.389  21.670  62.746  1.00  0.00    -0.490 OA
ATOM     25  C   UNL     1      13.023  20.309  62.943  1.00  0.00     0.279 C 
ENDBRANCH   9  24
BRANCH  10  26
ATOM     26  O   UNL     1      15.103  21.695  60.445  1.00  0.00    -0.490 OA
ATOM     27  C   UNL     1      15.206  20.370  59.937  1.00  0.00     0.278 C 
ENDBRANCH  10  26
TORSDOF 6
ENDMDL
MODEL 9
REMARK VINA RESULT:    -4.238      1.592      2.191
REMARK INTER + INTRA:          -6.388
REMARK INTER:                  -6.004
REMARK INTRA:                  -0.384
REMARK UNBOUND:                -0.664
REMARK SMILES COc1ccc(-c2cc(=O)c3c(OC)c(OC)c(OC)c(OC)c3o2)cc1
REMARK SMILES IDX 7 1 8 2 9 3 10 4 11 5 24 6 25 7 21 8 18 9 15 10 12 11 6 12
REMARK SMILES IDX 3 13 4 14 27 15 5 16 26 17 2 18 1 19 22 20 23 21 13 22 14 23
REMARK SMILES IDX 19 24 20 25 16 26 17 27
REMARK H PARENT
REMARK Flexibility Score: inf
ROOT
ATOM      1  C   UNL     1       8.942  25.609  59.251  1.00  0.00     0.138 A 
ATOM      2  C   UNL     1      10.197  25.837  58.671  1.00  0.00     0.100 A 
ATOM      3  C   UNL     1      11.328  25.246  59.231  1.00  0.00     0.197 A 
ATOM      4  O   UNL     1      12.451  25.456  58.695  1.00  0.00    -0.289 OA
ATOM      5  C   UNL     1      11.197  24.432  60.377  1.00  0.00     0.115 A 
ATOM      6  C   UNL     1       9.907  24.275  60.925  1.00  0.00     0.188 A 
ATOM      7  O   UNL     1       8.858  24.857  60.347  1.00  0.00    -0.452 OA
ATOM      8  C   UNL     1       9.711  23.493  62.073  1.00  0.00     0.209 A 
ATOM      9  C   UNL     1      10.795  22.780  62.645  1.00  0.00     0.211 A 
ATOM     10  C   UNL     1      12.094  22.935  62.092  1.00  0.00     0.208 A 
ATOM     11  C   UNL     1      12.293  23.787  60.988  1.00  0.00     0.179 A 
ENDROOT
BRANCH   1  12
ATOM     12  C   UNL     1       7.700  26.192  58.682  1.00  0.00     0.018 A 
ATOM     13  C   UNL     1       5.362  27.358  57.606  1.00  0.00     0.118 A 
ATOM     14  C   UNL     1       5.291  26.144  58.314  1.00  0.00     0.047 A 
ATOM     15  C   UNL     1       6.603  27.983  57.450  1.00  0.00     0.047 A 
ATOM     16  C   UNL     1       6.448  25.570  58.849  1.00  0.00     0.016 A 
ATOM     17  C   UNL     1       7.760  27.412  57.985  1.00  0.00     0.016 A 
BRANCH  13  18
ATOM     18  O   UNL     1       4.231  27.972  57.048  1.00  0.00    -0.497 OA
ATOM     19  C   UNL     1       4.264  28.850  55.927  1.00  0.00     0.278 C 
ENDBRANCH  13  18
ENDBRANCH   1  12
BRANCH   8  20
ATOM     20  O   UNL     1       8.433  23.417  62.633  1.00  0.00    -0.490 OA
ATOM     21  C   UNL     1       7.493  22.424  62.238  1.00  0.00     0.278 C 
ENDBRANCH   8  20
BRANCH  11  22
ATOM     22  O   UNL     1      13.583  23.967  60.471  1.00  0.00    -0.492 OA
ATOM     23  C   UNL     1      14.182  23.043  59.566  1.00  0.00     0.278 C 
ENDBRANCH  11  22
BRANCH   9  24
ATOM     24  O   UNL     1      10.633  21.920  63.748  1.00  0.00    -0.490 OA
ATOM     25  C   UNL     1      10.267  20.545  63.721  1.00  0.00     0.279 C 
ENDBRANCH   9  24
BRANCH  10  26
ATOM     26  O   UNL     1      13.229  22.249  62.572  1.00  0.00    -0.490 OA
ATOM     27  C   UNL     1      13.601  20.902  62.301  1.00  0.00     0.278 C 
ENDBRANCH  10  26
TORSDOF 6
ENDMDL
