MODEL 1
REMARK VINA RESULT:    -2.649      0.000      0.000
REMARK INTER + INTRA:          -2.649
REMARK INTER:                  -2.649
REMARK INTRA:                   0.000
REMARK UNBOUND:                 0.000
REMARK SMILES CC(=O)[O-]
REMARK SMILES IDX 1 1 2 2 3 3 4 4
REMARK H PARENT
REMARK Flexibility Score: inf
ROOT
ATOM      1  C   UNL     1      -6.253  17.525 -10.696  1.00  0.00     0.063 C 
ATOM      2  C   UNL     1      -7.499  17.768 -11.476  1.00  0.00     0.038 C 
ATOM      3  O   UNL     1      -8.190  16.797 -11.883  1.00  0.00    -0.550 OA
ATOM      4  O   UNL     1      -7.874  19.065 -11.805  1.00  0.00    -0.550 OA
ENDROOT
TORSDOF 0
ENDMDL
MODEL 2
REMARK VINA RESULT:    -2.486      1.414      2.052
REMARK INTER + INTRA:          -2.486
REMARK INTER:                  -2.486
REMARK INTRA:                   0.000
REMARK UNBOUND:                 0.000
REMARK SMILES CC(=O)[O-]
REMARK SMILES IDX 1 1 2 2 3 3 4 4
REMARK H PARENT
REMARK Flexibility Score: inf
ROOT
ATOM      1  C   UNL     1      -8.111  16.657 -11.846  1.00  0.00     0.063 C 
ATOM      2  C   UNL     1      -7.311  17.844 -11.429  1.00  0.00     0.038 C 
ATOM      3  O   UNL     1      -7.630  18.994 -11.833  1.00  0.00    -0.550 OA
ATOM      4  O   UNL     1      -6.181  17.681 -10.639  1.00  0.00    -0.550 OA
ENDROOT
TORSDOF 0
ENDMDL
MODEL 3
REMARK VINA RESULT:    -2.429      4.253      4.630
REMARK INTER + INTRA:          -2.429
REMARK INTER:                  -2.429
REMARK INTRA:                   0.000
REMARK UNBOUND:                 0.000
REMARK SMILES CC(=O)[O-]
REMARK SMILES IDX 1 1 2 2 3 3 4 4
REMARK H PARENT
REMARK Flexibility Score: inf
ROOT
ATOM      1  C   UNL     1      -2.341  15.830 -10.197  1.00  0.00     0.063 C 
ATOM      2  C   UNL     1      -3.625  16.420  -9.722  1.00  0.00     0.038 C 
ATOM      3  O   UNL     1      -3.872  16.487  -8.490  1.00  0.00    -0.550 OA
ATOM      4  O   UNL     1      -4.577  16.846 -10.639  1.00  0.00    -0.550 OA
ENDROOT
TORSDOF 0
ENDMDL
MODEL 4
REMARK VINA RESULT:    -2.307     17.818     18.268
REMARK INTER + INTRA:          -2.307
REMARK INTER:                  -2.307
REMARK INTRA:                   0.000
REMARK UNBOUND:                 0.000
REMARK SMILES CC(=O)[O-]
REMARK SMILES IDX 1 1 2 2 3 3 4 4
REMARK H PARENT
REMARK Flexibility Score: inf
ROOT
ATOM      1  C   UNL     1      -0.771   0.746  -8.806  1.00  0.00     0.063 C 
ATOM      2  C   UNL     1      -2.189   0.660  -8.355  1.00  0.00     0.038 C 
ATOM      3  O   UNL     1      -3.113   1.098  -9.089  1.00  0.00    -0.550 OA
ATOM      4  O   UNL     1      -2.491   0.146  -7.101  1.00  0.00    -0.550 OA
ENDROOT
TORSDOF 0
ENDMDL
MODEL 5
REMARK VINA RESULT:    -2.297     18.688     19.212
REMARK INTER + INTRA:          -2.297
REMARK INTER:                  -2.297
REMARK INTRA:                   0.000
REMARK UNBOUND:                 0.000
REMARK SMILES CC(=O)[O-]
REMARK SMILES IDX 1 1 2 2 3 3 4 4
REMARK H PARENT
REMARK Flexibility Score: inf
ROOT
ATOM      1  C   UNL     1      -1.662  -0.762  -5.120  1.00  0.00     0.063 C 
ATOM      2  C   UNL     1      -2.607   0.374  -5.319  1.00  0.00     0.038 C 
ATOM      3  O   UNL     1      -2.218   1.558  -5.142  1.00  0.00    -0.550 OA
ATOM      4  O   UNL     1      -3.934   0.127  -5.647  1.00  0.00    -0.550 OA
ENDROOT
TORSDOF 0
ENDMDL
MODEL 6
REMARK VINA RESULT:    -2.262     18.454     18.895
REMARK INTER + INTRA:          -2.262
REMARK INTER:                  -2.262
REMARK INTRA:                   0.000
REMARK UNBOUND:                 0.000
REMARK SMILES CC(=O)[O-]
REMARK SMILES IDX 1 1 2 2 3 3 4 4
REMARK H PARENT
REMARK Flexibility Score: inf
ROOT
ATOM      1  C   UNL     1      -3.018   0.387  -4.850  1.00  0.00     0.063 C 
ATOM      2  C   UNL     1      -2.535   0.343  -6.260  1.00  0.00     0.038 C 
ATOM      3  O   UNL     1      -1.354  -0.012  -6.513  1.00  0.00    -0.550 OA
ATOM      4  O   UNL     1      -3.369   0.747  -7.294  1.00  0.00    -0.550 OA
ENDROOT
TORSDOF 0
ENDMDL
MODEL 7
REMARK VINA RESULT:    -2.260     18.249     18.612
REMARK INTER + INTRA:          -2.260
REMARK INTER:                  -2.260
REMARK INTRA:                   0.000
REMARK UNBOUND:                 0.000
REMARK SMILES CC(=O)[O-]
REMARK SMILES IDX 1 1 2 2 3 3 4 4
REMARK H PARENT
REMARK Flexibility Score: inf
ROOT
ATOM      1  C   UNL     1      -2.928   0.880  -8.523  1.00  0.00     0.063 C 
ATOM      2  C   UNL     1      -2.628   0.437  -7.132  1.00  0.00     0.038 C 
ATOM      3  O   UNL     1      -1.454   0.112  -6.812  1.00  0.00    -0.550 OA
ATOM      4  O   UNL     1      -3.651   0.328  -6.199  1.00  0.00    -0.550 OA
ENDROOT
TORSDOF 0
ENDMDL
MODEL 8
REMARK VINA RESULT:    -2.166     19.788     20.423
REMARK INTER + INTRA:          -2.166
REMARK INTER:                  -2.166
REMARK INTRA:                   0.000
REMARK UNBOUND:                 0.000
REMARK SMILES CC(=O)[O-]
REMARK SMILES IDX 1 1 2 2 3 3 4 4
REMARK H PARENT
REMARK Flexibility Score: inf
ROOT
ATOM      1  C   UNL     1       0.673  -1.125  -5.169  1.00  0.00     0.063 C 
ATOM      2  C   UNL     1      -0.570  -0.370  -5.492  1.00  0.00     0.038 C 
ATOM      3  O   UNL     1      -0.503   0.722  -6.116  1.00  0.00    -0.550 OA
ATOM      4  O   UNL     1      -1.803  -0.839  -5.057  1.00  0.00    -0.550 OA
ENDROOT
TORSDOF 0
ENDMDL
