MODEL 1
REMARK VINA RESULT:    -4.512      0.000      0.000
REMARK INTER + INTRA:          -7.224
REMARK INTER:                  -6.886
REMARK INTRA:                  -0.338
REMARK UNBOUND:                -0.338
REMARK SMILES O=C([O-])CCCCCCCCC(=O)[O-]
REMARK SMILES IDX 7 1 6 2 5 3 4 4 2 5 1 6 3 7 8 8 9 9 10 10 11 11 12 12 13 13
REMARK SMILES IDX 14 14
REMARK H PARENT
REMARK Flexibility Score: inf
ROOT
ATOM      1  C   UNL     1      -0.549  -0.610  -0.765  1.00  0.00     0.000 C 
ENDROOT
BRANCH   1   2
ATOM      2  C   UNL     1      -1.836  -0.843  -1.575  1.00  0.00     0.000 C 
BRANCH   2   3
ATOM      3  C   UNL     1      -2.899  -1.623  -0.785  1.00  0.00     0.006 C 
BRANCH   3   4
ATOM      4  C   UNL     1      -3.273  -2.952  -1.453  1.00  0.00     0.053 C 
BRANCH   4   5
ATOM      5  C   UNL     1      -2.876  -4.103  -0.585  1.00  0.00     0.041 C 
ATOM      6  O   UNL     1      -3.756  -4.820  -0.042  1.00  0.00    -0.550 OA
ATOM      7  O   UNL     1      -1.532  -4.413  -0.413  1.00  0.00    -0.550 OA
ENDBRANCH   4   5
ENDBRANCH   3   4
ENDBRANCH   2   3
ENDBRANCH   1   2
BRANCH   1   8
ATOM      8  C   UNL     1       0.110   0.742  -1.079  1.00  0.00     0.000 C 
BRANCH   8   9
ATOM      9  C   UNL     1       1.540   0.591  -1.622  1.00  0.00     0.000 C 
BRANCH   9  10
ATOM     10  C   UNL     1       2.552   1.281  -0.700  1.00  0.00     0.006 C 
BRANCH  10  11
ATOM     11  C   UNL     1       3.045   2.596  -1.312  1.00  0.00     0.053 C 
BRANCH  11  12
ATOM     12  C   UNL     1       2.650   3.754  -0.451  1.00  0.00     0.041 C 
ATOM     13  O   UNL     1       3.529   4.523   0.018  1.00  0.00    -0.550 OA
ATOM     14  O   UNL     1       1.307   4.015  -0.208  1.00  0.00    -0.550 OA
ENDBRANCH  11  12
ENDBRANCH  10  11
ENDBRANCH   9  10
ENDBRANCH   8   9
ENDBRANCH   1   8
TORSDOF 9
ENDMDL
MODEL 2
REMARK VINA RESULT:    -4.497      0.158      7.829
REMARK INTER + INTRA:          -7.201
REMARK INTER:                  -6.842
REMARK INTRA:                  -0.359
REMARK UNBOUND:                -0.338
REMARK SMILES O=C([O-])CCCCCCCCC(=O)[O-]
REMARK SMILES IDX 7 1 6 2 5 3 4 4 2 5 1 6 3 7 8 8 9 9 10 10 11 11 12 12 13 13
REMARK SMILES IDX 14 14
REMARK H PARENT
REMARK Flexibility Score: inf
ROOT
ATOM      1  C   UNL     1       0.211   0.503  -0.768  1.00  0.00     0.000 C 
ENDROOT
BRANCH   1   2
ATOM      2  C   UNL     1       1.546   0.542  -1.534  1.00  0.00     0.000 C 
BRANCH   2   3
ATOM      3  C   UNL     1       2.661   1.241  -0.739  1.00  0.00     0.006 C 
BRANCH   3   4
ATOM      4  C   UNL     1       3.042   2.603  -1.333  1.00  0.00     0.053 C 
BRANCH   4   5
ATOM      5  C   UNL     1       2.651   3.707  -0.402  1.00  0.00     0.041 C 
ATOM      6  O   UNL     1       3.534   4.401   0.164  1.00  0.00    -0.550 OA
ATOM      7  O   UNL     1       1.308   3.999  -0.196  1.00  0.00    -0.550 OA
ENDBRANCH   4   5
ENDBRANCH   3   4
ENDBRANCH   2   3
ENDBRANCH   1   2
BRANCH   1   8
ATOM      8  C   UNL     1      -0.479  -0.868  -0.855  1.00  0.00     0.000 C 
BRANCH   8   9
ATOM      9  C   UNL     1      -1.839  -0.801  -1.566  1.00  0.00     0.000 C 
BRANCH   9  10
ATOM     10  C   UNL     1      -2.898  -1.604  -0.801  1.00  0.00     0.006 C 
BRANCH  10  11
ATOM     11  C   UNL     1      -3.181  -2.940  -1.494  1.00  0.00     0.053 C 
BRANCH  11  12
ATOM     12  C   UNL     1      -2.808  -4.082  -0.603  1.00  0.00     0.041 C 
ATOM     13  O   UNL     1      -1.597  -4.325  -0.358  1.00  0.00    -0.550 OA
ATOM     14  O   UNL     1      -3.798  -4.849  -0.003  1.00  0.00    -0.550 OA
ENDBRANCH  11  12
ENDBRANCH  10  11
ENDBRANCH   9  10
ENDBRANCH   8   9
ENDBRANCH   1   8
TORSDOF 9
ENDMDL
MODEL 3
REMARK VINA RESULT:    -4.187      1.238      1.882
REMARK INTER + INTRA:          -6.727
REMARK INTER:                  -6.277
REMARK INTRA:                  -0.450
REMARK UNBOUND:                -0.338
REMARK SMILES O=C([O-])CCCCCCCCC(=O)[O-]
REMARK SMILES IDX 7 1 6 2 5 3 4 4 2 5 1 6 3 7 8 8 9 9 10 10 11 11 12 12 13 13
REMARK SMILES IDX 14 14
REMARK H PARENT
REMARK Flexibility Score: inf
ROOT
ATOM      1  C   UNL     1      -1.811  -0.891  -1.762  1.00  0.00     0.000 C 
ENDROOT
BRANCH   1   2
ATOM      2  C   UNL     1      -3.005  -1.421  -0.950  1.00  0.00     0.000 C 
BRANCH   2   3
ATOM      3  C   UNL     1      -3.356  -2.877  -1.298  1.00  0.00     0.006 C 
BRANCH   3   4
ATOM      4  C   UNL     1      -3.117  -3.837  -0.126  1.00  0.00     0.053 C 
BRANCH   4   5
ATOM      5  C   UNL     1      -2.300  -5.009  -0.570  1.00  0.00     0.041 C 
ATOM      6  O   UNL     1      -2.854  -5.990  -1.132  1.00  0.00    -0.550 OA
ATOM      7  O   UNL     1      -0.920  -4.997  -0.407  1.00  0.00    -0.550 OA
ENDBRANCH   4   5
ENDBRANCH   3   4
ENDBRANCH   2   3
ENDBRANCH   1   2
BRANCH   1   8
ATOM      8  C   UNL     1      -0.459  -1.221  -1.108  1.00  0.00     0.000 C 
BRANCH   8   9
ATOM      9  C   UNL     1       0.041  -0.099  -0.185  1.00  0.00     0.000 C 
BRANCH   9  10
ATOM     10  C   UNL     1       0.403   1.153  -0.991  1.00  0.00     0.006 C 
BRANCH  10  11
ATOM     11  C   UNL     1       1.796   1.023  -1.614  1.00  0.00     0.053 C 
BRANCH  11  12
ATOM     12  C   UNL     1       2.788   1.850  -0.859  1.00  0.00     0.041 C 
ATOM     13  O   UNL     1       3.764   1.301  -0.284  1.00  0.00    -0.550 OA
ATOM     14  O   UNL     1       2.662   3.233  -0.830  1.00  0.00    -0.550 OA
ENDBRANCH  11  12
ENDBRANCH  10  11
ENDBRANCH   9  10
ENDBRANCH   8   9
ENDBRANCH   1   8
TORSDOF 9
ENDMDL
MODEL 4
REMARK VINA RESULT:    -4.168      1.241      1.876
REMARK INTER + INTRA:          -6.699
REMARK INTER:                  -6.193
REMARK INTRA:                  -0.506
REMARK UNBOUND:                -0.338
REMARK SMILES O=C([O-])CCCCCCCCC(=O)[O-]
REMARK SMILES IDX 7 1 6 2 5 3 4 4 2 5 1 6 3 7 8 8 9 9 10 10 11 11 12 12 13 13
REMARK SMILES IDX 14 14
REMARK H PARENT
REMARK Flexibility Score: inf
ROOT
ATOM      1  C   UNL     1       0.106   1.107  -1.009  1.00  0.00     0.000 C 
ENDROOT
BRANCH   1   2
ATOM      2  C   UNL     1      -0.512  -0.014  -0.155  1.00  0.00     0.000 C 
BRANCH   2   3
ATOM      3  C   UNL     1      -0.682  -1.326  -0.939  1.00  0.00     0.006 C 
BRANCH   3   4
ATOM      4  C   UNL     1      -2.008  -1.385  -1.708  1.00  0.00     0.053 C 
BRANCH   4   5
ATOM      5  C   UNL     1      -3.047  -2.097  -0.901  1.00  0.00     0.041 C 
ATOM      6  O   UNL     1      -3.935  -1.443  -0.295  1.00  0.00    -0.550 OA
ATOM      7  O   UNL     1      -3.064  -3.485  -0.858  1.00  0.00    -0.550 OA
ENDBRANCH   4   5
ENDBRANCH   3   4
ENDBRANCH   2   3
ENDBRANCH   1   2
BRANCH   1   8
ATOM      8  C   UNL     1       1.410   0.674  -1.698  1.00  0.00     0.000 C 
BRANCH   8   9
ATOM      9  C   UNL     1       2.662   1.090  -0.910  1.00  0.00     0.000 C 
BRANCH   9  10
ATOM     10  C   UNL     1       3.088   2.517  -1.271  1.00  0.00     0.006 C 
BRANCH  10  11
ATOM     11  C   UNL     1       2.949   3.453  -0.068  1.00  0.00     0.053 C 
BRANCH  11  12
ATOM     12  C   UNL     1       2.116   4.645  -0.424  1.00  0.00     0.041 C 
ATOM     13  O   UNL     1       2.661   5.687  -0.873  1.00  0.00    -0.550 OA
ATOM     14  O   UNL     1       0.733   4.587  -0.307  1.00  0.00    -0.550 OA
ENDBRANCH  11  12
ENDBRANCH  10  11
ENDBRANCH   9  10
ENDBRANCH   8   9
ENDBRANCH   1   8
TORSDOF 9
ENDMDL
MODEL 5
REMARK VINA RESULT:    -4.158      1.238      7.626
REMARK INTER + INTRA:          -6.684
REMARK INTER:                  -6.239
REMARK INTRA:                  -0.445
REMARK UNBOUND:                -0.338
REMARK SMILES O=C([O-])CCCCCCCCC(=O)[O-]
REMARK SMILES IDX 7 1 6 2 5 3 4 4 2 5 1 6 3 7 8 8 9 9 10 10 11 11 12 12 13 13
REMARK SMILES IDX 14 14
REMARK H PARENT
REMARK Flexibility Score: inf
ROOT
ATOM      1  C   UNL     1       1.590   0.456  -1.561  1.00  0.00     0.000 C 
ENDROOT
BRANCH   1   2
ATOM      2  C   UNL     1       2.802   1.120  -0.884  1.00  0.00     0.000 C 
BRANCH   2   3
ATOM      3  C   UNL     1       3.004   2.576  -1.332  1.00  0.00     0.006 C 
BRANCH   3   4
ATOM      4  C   UNL     1       3.016   3.559  -0.155  1.00  0.00     0.053 C 
BRANCH   4   5
ATOM      5  C   UNL     1       2.156   4.746  -0.457  1.00  0.00     0.041 C 
ATOM      6  O   UNL     1       0.911   4.685  -0.287  1.00  0.00    -0.550 OA
ATOM      7  O   UNL     1       2.737   5.935  -0.880  1.00  0.00    -0.550 OA
ENDBRANCH   4   5
ENDBRANCH   3   4
ENDBRANCH   2   3
ENDBRANCH   1   2
BRANCH   1   8
ATOM      8  C   UNL     1       0.251   1.020  -1.059  1.00  0.00     0.000 C 
BRANCH   8   9
ATOM      9  C   UNL     1      -0.586  -0.025  -0.305  1.00  0.00     0.000 C 
BRANCH   9  10
ATOM     10  C   UNL     1      -0.756  -1.298  -1.142  1.00  0.00     0.006 C 
BRANCH  10  11
ATOM     11  C   UNL     1      -2.148  -1.358  -1.776  1.00  0.00     0.053 C 
BRANCH  11  12
ATOM     12  C   UNL     1      -3.086  -2.137  -0.910  1.00  0.00     0.041 C 
ATOM     13  O   UNL     1      -3.977  -1.544  -0.248  1.00  0.00    -0.550 OA
ATOM     14  O   UNL     1      -3.009  -3.524  -0.871  1.00  0.00    -0.550 OA
ENDBRANCH  11  12
ENDBRANCH  10  11
ENDBRANCH   9  10
ENDBRANCH   8   9
ENDBRANCH   1   8
TORSDOF 9
ENDMDL
MODEL 6
REMARK VINA RESULT:    -2.473      1.821      6.988
REMARK INTER + INTRA:          -4.111
REMARK INTER:                  -3.785
REMARK INTRA:                  -0.326
REMARK UNBOUND:                -0.338
REMARK SMILES O=C([O-])CCCCCCCCC(=O)[O-]
REMARK SMILES IDX 7 1 6 2 5 3 4 4 2 5 1 6 3 7 8 8 9 9 10 10 11 11 12 12 13 13
REMARK SMILES IDX 14 14
REMARK H PARENT
REMARK Flexibility Score: inf
ROOT
ATOM      1  C   UNL     1      -0.233   2.088  -0.750  1.00  0.00     0.000 C 
ENDROOT
BRANCH   1   2
ATOM      2  C   UNL     1       0.260   3.262   0.114  1.00  0.00     0.000 C 
BRANCH   2   3
ATOM      3  C   UNL     1       1.258   4.164  -0.630  1.00  0.00     0.006 C 
BRANCH   3   4
ATOM      4  C   UNL     1       2.717   3.777  -0.359  1.00  0.00     0.053 C 
BRANCH   4   5
ATOM      5  C   UNL     1       3.026   2.446  -0.967  1.00  0.00     0.041 C 
ATOM      6  O   UNL     1       2.794   2.237  -2.186  1.00  0.00    -0.550 OA
ATOM      7  O   UNL     1       3.614   1.450  -0.197  1.00  0.00    -0.550 OA
ENDBRANCH   4   5
ENDBRANCH   3   4
ENDBRANCH   2   3
ENDBRANCH   1   2
BRANCH   1   8
ATOM      8  C   UNL     1       0.041   0.722  -0.100  1.00  0.00     0.000 C 
BRANCH   8   9
ATOM      9  C   UNL     1       0.514  -0.331  -1.114  1.00  0.00     0.000 C 
BRANCH   9  10
ATOM     10  C   UNL     1      -0.439  -1.530  -1.145  1.00  0.00     0.006 C 
BRANCH  10  11
ATOM     11  C   UNL     1      -1.858  -1.095  -1.526  1.00  0.00     0.053 C 
BRANCH  11  12
ATOM     12  C   UNL     1      -2.865  -2.066  -0.994  1.00  0.00     0.041 C 
ATOM     13  O   UNL     1      -2.650  -3.304  -1.066  1.00  0.00    -0.550 OA
ATOM     14  O   UNL     1      -4.018  -1.602  -0.375  1.00  0.00    -0.550 OA
ENDBRANCH  11  12
ENDBRANCH  10  11
ENDBRANCH   9  10
ENDBRANCH   8   9
ENDBRANCH   1   8
TORSDOF 9
ENDMDL
MODEL 7
REMARK VINA RESULT:    -2.223     13.350     15.889
REMARK INTER + INTRA:          -3.730
REMARK INTER:                  -3.305
REMARK INTRA:                  -0.425
REMARK UNBOUND:                -0.338
REMARK SMILES O=C([O-])CCCCCCCCC(=O)[O-]
REMARK SMILES IDX 7 1 6 2 5 3 4 4 2 5 1 6 3 7 8 8 9 9 10 10 11 11 12 12 13 13
REMARK SMILES IDX 14 14
REMARK H PARENT
REMARK Flexibility Score: inf
ROOT
ATOM      1  C   UNL     1      -8.738  -4.110   7.584  1.00  0.00     0.000 C 
ENDROOT
BRANCH   1   2
ATOM      2  C   UNL     1      -9.543  -3.354   8.655  1.00  0.00     0.000 C 
BRANCH   2   3
ATOM      3  C   UNL     1      -9.151  -1.870   8.750  1.00  0.00     0.006 C 
BRANCH   3   4
ATOM      4  C   UNL     1      -9.740  -1.183   9.988  1.00  0.00     0.053 C 
BRANCH   4   5
ATOM      5  C   UNL     1      -9.231   0.219  10.099  1.00  0.00     0.041 C 
ATOM      6  O   UNL     1      -7.993   0.443  10.124  1.00  0.00    -0.550 OA
ATOM      7  O   UNL     1     -10.124   1.283  10.125  1.00  0.00    -0.550 OA
ENDBRANCH   4   5
ENDBRANCH   3   4
ENDBRANCH   2   3
ENDBRANCH   1   2
BRANCH   1   8
ATOM      8  C   UNL     1      -9.042  -5.617   7.571  1.00  0.00     0.000 C 
BRANCH   8   9
ATOM      9  C   UNL     1      -8.116  -6.414   8.503  1.00  0.00     0.000 C 
BRANCH   9  10
ATOM     10  C   UNL     1      -8.838  -6.793   9.800  1.00  0.00     0.006 C 
BRANCH  10  11
ATOM     11  C   UNL     1      -9.992  -7.761   9.525  1.00  0.00     0.053 C 
BRANCH  11  12
ATOM     12  C   UNL     1      -9.471  -9.070   9.024  1.00  0.00     0.041 C 
ATOM     13  O   UNL     1      -9.887  -9.542   7.934  1.00  0.00    -0.550 OA
ATOM     14  O   UNL     1      -8.488  -9.746   9.735  1.00  0.00    -0.550 OA
ENDBRANCH  11  12
ENDBRANCH  10  11
ENDBRANCH   9  10
ENDBRANCH   8   9
ENDBRANCH   1   8
TORSDOF 9
ENDMDL
MODEL 8
REMARK VINA RESULT:    -1.927      1.973      2.711
REMARK INTER + INTRA:          -3.279
REMARK INTER:                  -3.034
REMARK INTRA:                  -0.245
REMARK UNBOUND:                -0.338
REMARK SMILES O=C([O-])CCCCCCCCC(=O)[O-]
REMARK SMILES IDX 7 1 6 2 5 3 4 4 2 5 1 6 3 7 8 8 9 9 10 10 11 11 12 12 13 13
REMARK SMILES IDX 14 14
REMARK H PARENT
REMARK Flexibility Score: inf
ROOT
ATOM      1  C   UNL     1       0.068  -2.934  -0.104  1.00  0.00     0.000 C 
ENDROOT
BRANCH   1   2
ATOM      2  C   UNL     1      -0.765  -4.004  -0.831  1.00  0.00     0.000 C 
BRANCH   2   3
ATOM      3  C   UNL     1      -2.169  -4.169  -0.228  1.00  0.00     0.006 C 
BRANCH   3   4
ATOM      4  C   UNL     1      -3.269  -3.593  -1.129  1.00  0.00     0.053 C 
BRANCH   4   5
ATOM      5  C   UNL     1      -3.167  -2.102  -1.188  1.00  0.00     0.041 C 
ATOM      6  O   UNL     1      -2.590  -1.545  -2.158  1.00  0.00    -0.550 OA
ATOM      7  O   UNL     1      -3.751  -1.325  -0.195  1.00  0.00    -0.550 OA
ENDBRANCH   4   5
ENDBRANCH   3   4
ENDBRANCH   2   3
ENDBRANCH   1   2
BRANCH   1   8
ATOM      8  C   UNL     1       0.285  -1.674  -0.958  1.00  0.00     0.000 C 
BRANCH   8   9
ATOM      9  C   UNL     1      -0.008  -0.379  -0.185  1.00  0.00     0.000 C 
BRANCH   9  10
ATOM     10  C   UNL     1       0.257   0.853  -1.058  1.00  0.00     0.006 C 
BRANCH  10  11
ATOM     11  C   UNL     1       1.646   0.784  -1.700  1.00  0.00     0.053 C 
BRANCH  11  12
ATOM     12  C   UNL     1       2.614   1.645  -0.951  1.00  0.00     0.041 C 
ATOM     13  O   UNL     1       3.562   1.122  -0.309  1.00  0.00    -0.550 OA
ATOM     14  O   UNL     1       2.497   3.028  -1.002  1.00  0.00    -0.550 OA
ENDBRANCH  11  12
ENDBRANCH  10  11
ENDBRANCH   9  10
ENDBRANCH   8   9
ENDBRANCH   1   8
TORSDOF 9
ENDMDL
MODEL 9
REMARK VINA RESULT:    -1.714      1.751      2.351
REMARK INTER + INTRA:          -2.953
REMARK INTER:                  -2.841
REMARK INTRA:                  -0.112
REMARK UNBOUND:                -0.338
REMARK SMILES O=C([O-])CCCCCCCCC(=O)[O-]
REMARK SMILES IDX 7 1 6 2 5 3 4 4 2 5 1 6 3 7 8 8 9 9 10 10 11 11 12 12 13 13
REMARK SMILES IDX 14 14
REMARK H PARENT
REMARK Flexibility Score: inf
ROOT
ATOM      1  C   UNL     1       0.204   0.923  -1.141  1.00  0.00     0.000 C 
ENDROOT
BRANCH   1   2
ATOM      2  C   UNL     1      -0.596  -0.237  -0.523  1.00  0.00     0.000 C 
BRANCH   2   3
ATOM      3  C   UNL     1      -1.725  -0.731  -1.443  1.00  0.00     0.006 C 
BRANCH   3   4
ATOM      4  C   UNL     1      -1.850  -2.259  -1.455  1.00  0.00     0.053 C 
BRANCH   4   5
ATOM      5  C   UNL     1      -3.088  -2.688  -0.733  1.00  0.00     0.041 C 
ATOM      6  O   UNL     1      -3.255  -3.896  -0.424  1.00  0.00    -0.550 OA
ATOM      7  O   UNL     1      -4.036  -1.744  -0.358  1.00  0.00    -0.550 OA
ENDBRANCH   4   5
ENDBRANCH   3   4
ENDBRANCH   2   3
ENDBRANCH   1   2
BRANCH   1   8
ATOM      8  C   UNL     1      -0.399   2.298  -0.810  1.00  0.00     0.000 C 
BRANCH   8   9
ATOM      9  C   UNL     1       0.463   3.099   0.178  1.00  0.00     0.000 C 
BRANCH   9  10
ATOM     10  C   UNL     1       1.264   4.185  -0.548  1.00  0.00     0.006 C 
BRANCH  10  11
ATOM     11  C   UNL     1       2.768   3.908  -0.464  1.00  0.00     0.053 C 
BRANCH  11  12
ATOM     12  C   UNL     1       3.083   2.552  -1.014  1.00  0.00     0.041 C 
ATOM     13  O   UNL     1       2.954   2.323  -2.245  1.00  0.00    -0.550 OA
ATOM     14  O   UNL     1       3.566   1.556  -0.175  1.00  0.00    -0.550 OA
ENDBRANCH  11  12
ENDBRANCH  10  11
ENDBRANCH   9  10
ENDBRANCH   8   9
ENDBRANCH   1   8
TORSDOF 9
ENDMDL
