MODEL 1
REMARK VINA RESULT:    -4.776      0.000      0.000
REMARK INTER + INTRA:          -5.154
REMARK INTER:                  -5.056
REMARK INTRA:                  -0.098
REMARK UNBOUND:                -0.098
REMARK SMILES C=C(C)[C@@H]1CC=C(C)C(=O)C1
REMARK SMILES IDX 8 1 7 2 6 3 5 4 4 5 11 6 9 7 10 8 2 9 1 10 3 11
REMARK H PARENT
REMARK Flexibility Score: inf
ROOT
ATOM      1  C   UNL     1      -3.497  37.348   4.732  1.00  0.00     0.048 C 
ATOM      2  C   UNL     1      -3.898  35.923   4.996  1.00  0.00    -0.012 C 
ATOM      3  C   UNL     1      -3.133  35.148   5.784  1.00  0.00    -0.019 C 
ATOM      4  C   UNL     1      -3.497  33.721   6.096  1.00  0.00     0.036 C 
ATOM      5  C   UNL     1      -4.232  33.065   4.911  1.00  0.00     0.025 C 
ATOM      6  C   UNL     1      -5.459  33.906   4.511  1.00  0.00     0.089 C 
ATOM      7  C   UNL     1      -5.067  35.340   4.289  1.00  0.00     0.158 C 
ATOM      8  O   UNL     1      -5.765  36.056   3.521  1.00  0.00    -0.295 OA
ENDROOT
BRANCH   5   9
ATOM      9  C   UNL     1      -4.622  31.627   5.226  1.00  0.00    -0.077 C 
ATOM     10  C   UNL     1      -4.306  31.088   6.415  1.00  0.00     0.008 C 
ATOM     11  C   UNL     1      -5.362  30.776   4.224  1.00  0.00     0.039 C 
ENDBRANCH   5   9
TORSDOF 1
ENDMDL
MODEL 2
REMARK VINA RESULT:    -4.719      2.330      4.717
REMARK INTER + INTRA:          -5.094
REMARK INTER:                  -5.001
REMARK INTRA:                  -0.093
REMARK UNBOUND:                -0.098
REMARK SMILES C=C(C)[C@@H]1CC=C(C)C(=O)C1
REMARK SMILES IDX 8 1 7 2 6 3 5 4 4 5 11 6 9 7 10 8 2 9 1 10 3 11
REMARK H PARENT
REMARK Flexibility Score: inf
ROOT
ATOM      1  C   UNL     1      -5.348  30.641   4.005  1.00  0.00     0.048 C 
ATOM      2  C   UNL     1      -5.143  31.865   4.855  1.00  0.00    -0.012 C 
ATOM      3  C   UNL     1      -5.452  33.078   4.366  1.00  0.00    -0.019 C 
ATOM      4  C   UNL     1      -5.283  34.334   5.179  1.00  0.00     0.036 C 
ATOM      5  C   UNL     1      -4.087  34.214   6.143  1.00  0.00     0.025 C 
ATOM      6  C   UNL     1      -4.237  32.961   7.027  1.00  0.00     0.089 C 
ATOM      7  C   UNL     1      -4.486  31.744   6.180  1.00  0.00     0.158 C 
ATOM      8  O   UNL     1      -4.162  30.610   6.626  1.00  0.00    -0.295 OA
ENDROOT
BRANCH   5   9
ATOM      9  C   UNL     1      -3.921  35.472   6.984  1.00  0.00    -0.077 C 
ATOM     10  C   UNL     1      -3.696  36.654   6.389  1.00  0.00     0.008 C 
ATOM     11  C   UNL     1      -4.001  35.427   8.490  1.00  0.00     0.039 C 
ENDBRANCH   5   9
TORSDOF 1
ENDMDL
MODEL 3
REMARK VINA RESULT:    -4.700      2.636      3.520
REMARK INTER + INTRA:          -5.073
REMARK INTER:                  -4.976
REMARK INTRA:                  -0.097
REMARK UNBOUND:                -0.098
REMARK SMILES C=C(C)[C@@H]1CC=C(C)C(=O)C1
REMARK SMILES IDX 8 1 7 2 6 3 5 4 4 5 11 6 9 7 10 8 2 9 1 10 3 11
REMARK H PARENT
REMARK Flexibility Score: inf
ROOT
ATOM      1  C   UNL     1      -2.256  35.643   9.605  1.00  0.00     0.048 C 
ATOM      2  C   UNL     1      -2.934  35.124   8.367  1.00  0.00    -0.012 C 
ATOM      3  C   UNL     1      -4.251  34.857   8.387  1.00  0.00    -0.019 C 
ATOM      4  C   UNL     1      -4.983  34.353   7.171  1.00  0.00     0.036 C 
ATOM      5  C   UNL     1      -4.068  33.471   6.300  1.00  0.00     0.025 C 
ATOM      6  C   UNL     1      -2.782  34.234   5.933  1.00  0.00     0.089 C 
ATOM      7  C   UNL     1      -2.127  34.791   7.166  1.00  0.00     0.158 C 
ATOM      8  O   UNL     1      -0.885  35.007   7.157  1.00  0.00    -0.295 OA
ENDROOT
BRANCH   5   9
ATOM      9  C   UNL     1      -4.794  32.973   5.058  1.00  0.00    -0.077 C 
ATOM     10  C   UNL     1      -5.304  33.851   4.179  1.00  0.00     0.008 C 
ATOM     11  C   UNL     1      -4.961  31.500   4.782  1.00  0.00     0.039 C 
ENDBRANCH   5   9
TORSDOF 1
ENDMDL
MODEL 4
REMARK VINA RESULT:    -4.510      2.129      3.286
REMARK INTER + INTRA:          -4.872
REMARK INTER:                  -4.782
REMARK INTRA:                  -0.089
REMARK UNBOUND:                -0.098
REMARK SMILES C=C(C)[C@@H]1CC=C(C)C(=O)C1
REMARK SMILES IDX 8 1 7 2 6 3 5 4 4 5 11 6 9 7 10 8 2 9 1 10 3 11
REMARK H PARENT
REMARK Flexibility Score: inf
ROOT
ATOM      1  C   UNL     1      -8.435  36.433   2.476  1.00  0.00     0.048 C 
ATOM      2  C   UNL     1      -7.420  35.678   3.289  1.00  0.00    -0.012 C 
ATOM      3  C   UNL     1      -6.139  35.635   2.886  1.00  0.00    -0.019 C 
ATOM      4  C   UNL     1      -5.079  34.908   3.671  1.00  0.00     0.036 C 
ATOM      5  C   UNL     1      -5.665  33.676   4.387  1.00  0.00     0.025 C 
ATOM      6  C   UNL     1      -6.862  34.087   5.264  1.00  0.00     0.089 C 
ATOM      7  C   UNL     1      -7.857  34.881   4.463  1.00  0.00     0.158 C 
ATOM      8  O   UNL     1      -9.066  34.891   4.822  1.00  0.00    -0.295 OA
ENDROOT
BRANCH   5   9
ATOM      9  C   UNL     1      -4.604  32.947   5.199  1.00  0.00    -0.077 C 
ATOM     10  C   UNL     1      -4.587  31.604   5.231  1.00  0.00     0.008 C 
ATOM     11  C   UNL     1      -3.558  33.699   5.983  1.00  0.00     0.039 C 
ENDBRANCH   5   9
TORSDOF 1
ENDMDL
MODEL 5
REMARK VINA RESULT:    -4.472      2.487      3.780
REMARK INTER + INTRA:          -4.832
REMARK INTER:                  -4.734
REMARK INTRA:                  -0.098
REMARK UNBOUND:                -0.098
REMARK SMILES C=C(C)[C@@H]1CC=C(C)C(=O)C1
REMARK SMILES IDX 8 1 7 2 6 3 5 4 4 5 11 6 9 7 10 8 2 9 1 10 3 11
REMARK H PARENT
REMARK Flexibility Score: inf
ROOT
ATOM      1  C   UNL     1      -2.364  34.522   4.437  1.00  0.00     0.048 C 
ATOM      2  C   UNL     1      -3.863  34.439   4.348  1.00  0.00    -0.012 C 
ATOM      3  C   UNL     1      -4.545  35.370   3.660  1.00  0.00    -0.019 C 
ATOM      4  C   UNL     1      -6.044  35.326   3.524  1.00  0.00     0.036 C 
ATOM      5  C   UNL     1      -6.696  34.717   4.780  1.00  0.00     0.025 C 
ATOM      6  C   UNL     1      -6.095  33.330   5.076  1.00  0.00     0.089 C 
ATOM      7  C   UNL     1      -4.594  33.403   5.121  1.00  0.00     0.158 C 
ATOM      8  O   UNL     1      -3.958  32.550   5.797  1.00  0.00    -0.295 OA
ENDROOT
BRANCH   5   9
ATOM      9  C   UNL     1      -8.211  34.649   4.643  1.00  0.00    -0.077 C 
ATOM     10  C   UNL     1      -8.918  33.802   5.410  1.00  0.00     0.008 C 
ATOM     11  C   UNL     1      -8.951  35.516   3.656  1.00  0.00     0.039 C 
ENDBRANCH   5   9
TORSDOF 1
ENDMDL
MODEL 6
REMARK VINA RESULT:    -4.399      2.744      3.607
REMARK INTER + INTRA:          -4.754
REMARK INTER:                  -4.656
REMARK INTRA:                  -0.098
REMARK UNBOUND:                -0.098
REMARK SMILES C=C(C)[C@@H]1CC=C(C)C(=O)C1
REMARK SMILES IDX 8 1 7 2 6 3 5 4 4 5 11 6 9 7 10 8 2 9 1 10 3 11
REMARK H PARENT
REMARK Flexibility Score: inf
ROOT
ATOM      1  C   UNL     1      -1.478  35.871   8.982  1.00  0.00     0.048 C 
ATOM      2  C   UNL     1      -2.499  35.184   8.118  1.00  0.00    -0.012 C 
ATOM      3  C   UNL     1      -2.158  34.761   6.888  1.00  0.00    -0.019 C 
ATOM      4  C   UNL     1      -3.135  34.052   5.988  1.00  0.00     0.036 C 
ATOM      5  C   UNL     1      -4.570  34.562   6.217  1.00  0.00     0.025 C 
ATOM      6  C   UNL     1      -4.951  34.438   7.705  1.00  0.00     0.089 C 
ATOM      7  C   UNL     1      -3.908  35.086   8.573  1.00  0.00     0.158 C 
ATOM      8  O   UNL     1      -4.238  35.516   9.711  1.00  0.00    -0.295 OA
ENDROOT
BRANCH   5   9
ATOM      9  C   UNL     1      -5.568  33.836   5.325  1.00  0.00    -0.077 C 
ATOM     10  C   UNL     1      -5.198  32.727   4.665  1.00  0.00     0.008 C 
ATOM     11  C   UNL     1      -6.981  34.336   5.158  1.00  0.00     0.039 C 
ENDBRANCH   5   9
TORSDOF 1
ENDMDL
MODEL 7
REMARK VINA RESULT:    -4.389      7.522      9.039
REMARK INTER + INTRA:          -4.744
REMARK INTER:                  -4.647
REMARK INTRA:                  -0.096
REMARK UNBOUND:                -0.098
REMARK SMILES C=C(C)[C@@H]1CC=C(C)C(=O)C1
REMARK SMILES IDX 8 1 7 2 6 3 5 4 4 5 11 6 9 7 10 8 2 9 1 10 3 11
REMARK H PARENT
REMARK Flexibility Score: inf
ROOT
ATOM      1  C   UNL     1      -9.882  37.508  -4.979  1.00  0.00     0.048 C 
ATOM      2  C   UNL     1      -8.971  37.420  -3.786  1.00  0.00    -0.012 C 
ATOM      3  C   UNL     1      -7.688  37.806  -3.894  1.00  0.00    -0.019 C 
ATOM      4  C   UNL     1      -6.737  37.755  -2.727  1.00  0.00     0.036 C 
ATOM      5  C   UNL     1      -7.074  36.580  -1.790  1.00  0.00     0.025 C 
ATOM      6  C   UNL     1      -8.545  36.658  -1.341  1.00  0.00     0.089 C 
ATOM      7  C   UNL     1      -9.454  36.792  -2.531  1.00  0.00     0.158 C 
ATOM      8  O   UNL     1     -10.647  36.395  -2.439  1.00  0.00    -0.295 OA
ENDROOT
BRANCH   5   9
ATOM      9  C   UNL     1      -6.129  36.533  -0.596  1.00  0.00    -0.077 C 
ATOM     10  C   UNL     1      -6.360  35.674   0.411  1.00  0.00     0.008 C 
ATOM     11  C   UNL     1      -4.925  37.437  -0.509  1.00  0.00     0.039 C 
ENDBRANCH   5   9
TORSDOF 1
ENDMDL
MODEL 8
REMARK VINA RESULT:    -4.384      1.958      4.141
REMARK INTER + INTRA:          -4.739
REMARK INTER:                  -4.650
REMARK INTRA:                  -0.089
REMARK UNBOUND:                -0.098
REMARK SMILES C=C(C)[C@@H]1CC=C(C)C(=O)C1
REMARK SMILES IDX 8 1 7 2 6 3 5 4 4 5 11 6 9 7 10 8 2 9 1 10 3 11
REMARK H PARENT
REMARK Flexibility Score: inf
ROOT
ATOM      1  C   UNL     1      -5.386  31.130   4.378  1.00  0.00     0.048 C 
ATOM      2  C   UNL     1      -4.923  32.328   5.160  1.00  0.00    -0.012 C 
ATOM      3  C   UNL     1      -3.742  32.294   5.800  1.00  0.00    -0.019 C 
ATOM      4  C   UNL     1      -3.222  33.471   6.582  1.00  0.00     0.036 C 
ATOM      5  C   UNL     1      -4.378  34.268   7.216  1.00  0.00     0.025 C 
ATOM      6  C   UNL     1      -5.394  34.687   6.137  1.00  0.00     0.089 C 
ATOM      7  C   UNL     1      -5.824  33.496   5.325  1.00  0.00     0.158 C 
ATOM      8  O   UNL     1      -6.948  33.516   4.755  1.00  0.00    -0.295 OA
ENDROOT
BRANCH   5   9
ATOM      9  C   UNL     1      -3.863  35.472   7.992  1.00  0.00    -0.077 C 
ATOM     10  C   UNL     1      -3.391  35.317   9.240  1.00  0.00     0.008 C 
ATOM     11  C   UNL     1      -3.868  36.856   7.392  1.00  0.00     0.039 C 
ENDBRANCH   5   9
TORSDOF 1
ENDMDL
MODEL 9
REMARK VINA RESULT:    -4.325      6.486      7.671
REMARK INTER + INTRA:          -4.677
REMARK INTER:                  -4.589
REMARK INTRA:                  -0.087
REMARK UNBOUND:                -0.098
REMARK SMILES C=C(C)[C@@H]1CC=C(C)C(=O)C1
REMARK SMILES IDX 8 1 7 2 6 3 5 4 4 5 11 6 9 7 10 8 2 9 1 10 3 11
REMARK H PARENT
REMARK Flexibility Score: inf
ROOT
ATOM      1  C   UNL     1      -5.056  38.183  -2.408  1.00  0.00     0.048 C 
ATOM      2  C   UNL     1      -6.207  37.360  -1.900  1.00  0.00    -0.012 C 
ATOM      3  C   UNL     1      -7.425  37.502  -2.451  1.00  0.00    -0.019 C 
ATOM      4  C   UNL     1      -8.608  36.692  -1.993  1.00  0.00     0.036 C 
ATOM      5  C   UNL     1      -8.515  36.377  -0.488  1.00  0.00     0.025 C 
ATOM      6  C   UNL     1      -7.176  35.687  -0.168  1.00  0.00     0.089 C 
ATOM      7  C   UNL     1      -6.026  36.486  -0.714  1.00  0.00     0.158 C 
ATOM      8  O   UNL     1      -4.892  36.379  -0.173  1.00  0.00    -0.295 OA
ENDROOT
BRANCH   5   9
ATOM      9  C   UNL     1      -9.698  35.540  -0.020  1.00  0.00    -0.077 C 
ATOM     10  C   UNL     1     -10.572  36.046   0.865  1.00  0.00     0.008 C 
ATOM     11  C   UNL     1      -9.919  34.137  -0.529  1.00  0.00     0.039 C 
ENDBRANCH   5   9
TORSDOF 1
ENDMDL
