MODEL 1
REMARK VINA RESULT:    -3.204      0.000      0.000
REMARK INTER + INTRA:          -3.407
REMARK INTER:                  -3.391
REMARK INTRA:                  -0.016
REMARK UNBOUND:                -0.016
REMARK SMILES O=C([O-])c1cccnc1
REMARK SMILES IDX 4 1 5 2 9 3 6 4 8 5 7 6 2 7 1 8 3 9
REMARK H PARENT
REMARK Flexibility Score: inf
ROOT
ATOM      1  C   UNL     1      63.584  34.255  60.885  1.00  0.00     0.016 A 
ATOM      2  C   UNL     1      64.389  35.209  61.529  1.00  0.00     0.013 A 
ATOM      3  C   UNL     1      62.268  34.612  60.543  1.00  0.00     0.120 A 
ATOM      4  C   UNL     1      63.880  36.477  61.815  1.00  0.00     0.021 A 
ATOM      5  N   UNL     1      61.797  35.855  60.833  1.00  0.00    -0.264 NA
ATOM      6  C   UNL     1      62.567  36.786  61.455  1.00  0.00     0.111 A 
ENDROOT
BRANCH   1   7
ATOM      7  C   UNL     1      64.112  32.908  60.578  1.00  0.00     0.073 C 
ATOM      8  O   UNL     1      63.953  31.958  61.390  1.00  0.00    -0.545 OA
ATOM      9  O   UNL     1      64.788  32.672  59.387  1.00  0.00    -0.545 OA
ENDBRANCH   1   7
TORSDOF 1
ENDMDL
MODEL 2
REMARK VINA RESULT:    -3.187      1.793      2.321
REMARK INTER + INTRA:          -3.389
REMARK INTER:                  -3.366
REMARK INTRA:                  -0.024
REMARK UNBOUND:                -0.016
REMARK SMILES O=C([O-])c1cccnc1
REMARK SMILES IDX 4 1 5 2 9 3 6 4 8 5 7 6 2 7 1 8 3 9
REMARK H PARENT
REMARK Flexibility Score: inf
ROOT
ATOM      1  C   UNL     1      62.810  34.745  60.947  1.00  0.00     0.016 A 
ATOM      2  C   UNL     1      62.111  35.962  60.985  1.00  0.00     0.013 A 
ATOM      3  C   UNL     1      64.128  34.716  61.436  1.00  0.00     0.120 A 
ATOM      4  C   UNL     1      62.723  37.107  61.498  1.00  0.00     0.021 A 
ATOM      5  N   UNL     1      64.701  35.845  61.931  1.00  0.00    -0.264 NA
ATOM      6  C   UNL     1      64.033  37.028  61.972  1.00  0.00     0.111 A 
ENDROOT
BRANCH   1   7
ATOM      7  C   UNL     1      62.173  33.526  60.404  1.00  0.00     0.073 C 
ATOM      8  O   UNL     1      61.083  33.598  59.777  1.00  0.00    -0.545 OA
ATOM      9  O   UNL     1      62.770  32.283  60.578  1.00  0.00    -0.545 OA
ENDBRANCH   1   7
TORSDOF 1
ENDMDL
MODEL 3
REMARK VINA RESULT:    -3.146     14.684     15.659
REMARK INTER + INTRA:          -3.346
REMARK INTER:                  -3.326
REMARK INTRA:                  -0.020
REMARK UNBOUND:                -0.016
REMARK SMILES O=C([O-])c1cccnc1
REMARK SMILES IDX 4 1 5 2 9 3 6 4 8 5 7 6 2 7 1 8 3 9
REMARK H PARENT
REMARK Flexibility Score: inf
ROOT
ATOM      1  C   UNL     1      55.434  27.608  50.089  1.00  0.00     0.016 A 
ATOM      2  C   UNL     1      54.376  28.531  50.108  1.00  0.00     0.013 A 
ATOM      3  C   UNL     1      55.165  26.291  49.675  1.00  0.00     0.120 A 
ATOM      4  C   UNL     1      53.094  28.135  49.722  1.00  0.00     0.021 A 
ATOM      5  N   UNL     1      53.907  25.932  49.304  1.00  0.00    -0.264 NA
ATOM      6  C   UNL     1      52.876  26.817  49.318  1.00  0.00     0.111 A 
ENDROOT
BRANCH   1   7
ATOM      7  C   UNL     1      56.796  28.014  50.497  1.00  0.00     0.073 C 
ATOM      8  O   UNL     1      57.488  27.275  51.247  1.00  0.00    -0.545 OA
ATOM      9  O   UNL     1      57.332  29.219  50.057  1.00  0.00    -0.545 OA
ENDBRANCH   1   7
TORSDOF 1
ENDMDL
MODEL 4
REMARK VINA RESULT:    -3.119     14.280     15.134
REMARK INTER + INTRA:          -3.317
REMARK INTER:                  -3.300
REMARK INTRA:                  -0.018
REMARK UNBOUND:                -0.016
REMARK SMILES O=C([O-])c1cccnc1
REMARK SMILES IDX 4 1 5 2 9 3 6 4 8 5 7 6 2 7 1 8 3 9
REMARK H PARENT
REMARK Flexibility Score: inf
ROOT
ATOM      1  C   UNL     1      56.393  26.996  50.135  1.00  0.00     0.016 A 
ATOM      2  C   UNL     1      55.202  26.361  49.751  1.00  0.00     0.013 A 
ATOM      3  C   UNL     1      56.350  28.367  50.446  1.00  0.00     0.120 A 
ATOM      4  C   UNL     1      54.011  27.086  49.684  1.00  0.00     0.021 A 
ATOM      5  N   UNL     1      55.177  29.050  50.372  1.00  0.00    -0.264 NA
ATOM      6  C   UNL     1      54.017  28.445  50.002  1.00  0.00     0.111 A 
ENDROOT
BRANCH   1   7
ATOM      7  C   UNL     1      57.662  26.239  50.209  1.00  0.00     0.073 C 
ATOM      8  O   UNL     1      57.792  25.285  51.021  1.00  0.00    -0.545 OA
ATOM      9  O   UNL     1      58.727  26.570  49.380  1.00  0.00    -0.545 OA
ENDBRANCH   1   7
TORSDOF 1
ENDMDL
MODEL 5
REMARK VINA RESULT:    -3.094      2.251      2.927
REMARK INTER + INTRA:          -3.291
REMARK INTER:                  -3.272
REMARK INTRA:                  -0.019
REMARK UNBOUND:                -0.016
REMARK SMILES O=C([O-])c1cccnc1
REMARK SMILES IDX 4 1 5 2 9 3 6 4 8 5 7 6 2 7 1 8 3 9
REMARK H PARENT
REMARK Flexibility Score: inf
ROOT
ATOM      1  C   UNL     1      62.309  35.092  60.663  1.00  0.00     0.016 A 
ATOM      2  C   UNL     1      62.158  36.446  61.001  1.00  0.00     0.013 A 
ATOM      3  C   UNL     1      63.514  34.449  60.999  1.00  0.00     0.120 A 
ATOM      4  C   UNL     1      63.187  37.124  61.656  1.00  0.00     0.021 A 
ATOM      5  N   UNL     1      64.501  35.133  61.637  1.00  0.00    -0.264 NA
ATOM      6  C   UNL     1      64.365  36.444  61.969  1.00  0.00     0.111 A 
ENDROOT
BRANCH   1   7
ATOM      7  C   UNL     1      61.226  34.362  59.968  1.00  0.00     0.073 C 
ATOM      8  O   UNL     1      60.679  34.851  58.944  1.00  0.00    -0.545 OA
ATOM      9  O   UNL     1      60.798  33.126  60.436  1.00  0.00    -0.545 OA
ENDBRANCH   1   7
TORSDOF 1
ENDMDL
MODEL 6
REMARK VINA RESULT:    -3.049     14.508     15.444
REMARK INTER + INTRA:          -3.243
REMARK INTER:                  -3.219
REMARK INTRA:                  -0.024
REMARK UNBOUND:                -0.016
REMARK SMILES O=C([O-])c1cccnc1
REMARK SMILES IDX 4 1 5 2 9 3 6 4 8 5 7 6 2 7 1 8 3 9
REMARK H PARENT
REMARK Flexibility Score: inf
ROOT
ATOM      1  C   UNL     1      54.548  27.861  50.203  1.00  0.00     0.016 A 
ATOM      2  C   UNL     1      53.324  28.373  49.745  1.00  0.00     0.013 A 
ATOM      3  C   UNL     1      55.298  28.631  51.110  1.00  0.00     0.120 A 
ATOM      4  C   UNL     1      52.875  29.618  50.188  1.00  0.00     0.021 A 
ATOM      5  N   UNL     1      54.838  29.841  51.526  1.00  0.00    -0.264 NA
ATOM      6  C   UNL     1      53.654  30.346  51.089  1.00  0.00     0.111 A 
ENDROOT
BRANCH   1   7
ATOM      7  C   UNL     1      55.035  26.543  49.740  1.00  0.00     0.073 C 
ATOM      8  O   UNL     1      54.310  25.810  49.017  1.00  0.00    -0.545 OA
ATOM      9  O   UNL     1      56.302  26.097  50.096  1.00  0.00    -0.545 OA
ENDBRANCH   1   7
TORSDOF 1
ENDMDL
MODEL 7
REMARK VINA RESULT:    -3.037     13.995     14.694
REMARK INTER + INTRA:          -3.230
REMARK INTER:                  -3.214
REMARK INTRA:                  -0.016
REMARK UNBOUND:                -0.016
REMARK SMILES O=C([O-])c1cccnc1
REMARK SMILES IDX 4 1 5 2 9 3 6 4 8 5 7 6 2 7 1 8 3 9
REMARK H PARENT
REMARK Flexibility Score: inf
ROOT
ATOM      1  C   UNL     1      57.219  27.013  50.172  1.00  0.00     0.016 A 
ATOM      2  C   UNL     1      57.172  28.416  50.131  1.00  0.00     0.013 A 
ATOM      3  C   UNL     1      58.399  26.372  49.755  1.00  0.00     0.120 A 
ATOM      4  C   UNL     1      58.278  29.142  49.686  1.00  0.00     0.021 A 
ATOM      5  N   UNL     1      59.462  27.103  49.326  1.00  0.00    -0.264 NA
ATOM      6  C   UNL     1      59.427  28.461  49.283  1.00  0.00     0.111 A 
ENDROOT
BRANCH   1   7
ATOM      7  C   UNL     1      56.053  26.233  50.640  1.00  0.00     0.073 C 
ATOM      8  O   UNL     1      56.046  25.720  51.791  1.00  0.00    -0.545 OA
ATOM      9  O   UNL     1      54.948  26.058  49.817  1.00  0.00    -0.545 OA
ENDBRANCH   1   7
TORSDOF 1
ENDMDL
