MODEL 1
REMARK VINA RESULT:    -2.392      0.000      0.000
REMARK INTER + INTRA:          -6.986
REMARK INTER:                  -4.349
REMARK INTRA:                  -2.636
REMARK UNBOUND:                -2.636
REMARK SMILES CCCCCCCCCCCCCC[C@@H](C)C(=O)[O-]
REMARK SMILES IDX 9 1 10 2 11 3 12 4 13 5 14 6 15 7 16 8 17 9 18 10 19 11 8 12
REMARK SMILES IDX 7 13 6 14 5 15 4 16 3 17 2 18 1 19
REMARK H PARENT
REMARK Flexibility Score: inf
ROOT
ATOM      1  C   UNL     1      -2.243   4.499   8.847  1.00  0.00     0.000 C 
ENDROOT
BRANCH   1   2
ATOM      2  C   UNL     1      -2.239   4.531  10.385  1.00  0.00     0.000 C 
BRANCH   2   3
ATOM      3  C   UNL     1      -1.148   3.629  10.989  1.00  0.00     0.000 C 
BRANCH   3   4
ATOM      4  C   UNL     1       0.019   3.380  10.020  1.00  0.00     0.000 C 
BRANCH   4   5
ATOM      5  C   UNL     1       0.569   1.948  10.106  1.00  0.00     0.001 C 
BRANCH   5   6
ATOM      6  C   UNL     1       2.103   1.943  10.009  1.00  0.00     0.009 C 
BRANCH   6   7
ATOM      7  C   UNL     1       2.689   3.370   9.988  1.00  0.00     0.032 C 
ATOM      8  C   UNL     1       3.577   3.607  11.215  1.00  0.00     0.014 C 
BRANCH   7   9
ATOM      9  C   UNL     1       3.474   3.625   8.729  1.00  0.00     0.044 C 
ATOM     10  O   UNL     1       4.108   4.704   8.577  1.00  0.00    -0.550 OA
ATOM     11  O   UNL     1       3.503   2.666   7.724  1.00  0.00    -0.550 OA
ENDBRANCH   7   9
ENDBRANCH   6   7
ENDBRANCH   5   6
ENDBRANCH   4   5
ENDBRANCH   3   4
ENDBRANCH   2   3
ENDBRANCH   1   2
BRANCH   1  12
ATOM     12  C   UNL     1      -2.380   5.901   8.230  1.00  0.00     0.000 C 
BRANCH  12  13
ATOM     13  C   UNL     1      -1.686   6.995   9.064  1.00  0.00    -0.000 C 
BRANCH  13  14
ATOM     14  C   UNL     1      -0.838   7.994   8.257  1.00  0.00    -0.000 C 
BRANCH  14  15
ATOM     15  C   UNL     1       0.614   8.088   8.757  1.00  0.00    -0.000 C 
BRANCH  15  16
ATOM     16  C   UNL     1       1.129   6.755   9.327  1.00  0.00    -0.000 C 
BRANCH  16  17
ATOM     17  C   UNL     1       1.755   6.915  10.724  1.00  0.00    -0.000 C 
BRANCH  17  18
ATOM     18  C   UNL     1       0.718   6.785  11.851  1.00  0.00    -0.003 C 
ATOM     19  C   UNL     1       1.153   5.813  12.948  1.00  0.00     0.004 C 
ENDBRANCH  17  18
ENDBRANCH  16  17
ENDBRANCH  15  16
ENDBRANCH  14  15
ENDBRANCH  13  14
ENDBRANCH  12  13
ENDBRANCH   1  12
TORSDOF 14
ENDMDL
MODEL 2
REMARK VINA RESULT:    -2.391      2.037      3.845
REMARK INTER + INTRA:          -6.985
REMARK INTER:                  -4.538
REMARK INTRA:                  -2.446
REMARK UNBOUND:                -2.636
REMARK SMILES CCCCCCCCCCCCCC[C@@H](C)C(=O)[O-]
REMARK SMILES IDX 9 1 10 2 11 3 12 4 13 5 14 6 15 7 16 8 17 9 18 10 19 11 8 12
REMARK SMILES IDX 7 13 6 14 5 15 4 16 3 17 2 18 1 19
REMARK H PARENT
REMARK Flexibility Score: inf
ROOT
ATOM      1  C   UNL     1      -0.039   4.477  12.406  1.00  0.00     0.000 C 
ENDROOT
BRANCH   1   2
ATOM      2  C   UNL     1       1.129   5.341  11.903  1.00  0.00     0.000 C 
BRANCH   2   3
ATOM      3  C   UNL     1       2.251   4.501  11.267  1.00  0.00     0.000 C 
BRANCH   3   4
ATOM      4  C   UNL     1       1.967   4.150   9.798  1.00  0.00     0.000 C 
BRANCH   4   5
ATOM      5  C   UNL     1       2.188   2.661   9.489  1.00  0.00     0.001 C 
BRANCH   5   6
ATOM      6  C   UNL     1       0.940   1.836   9.842  1.00  0.00     0.009 C 
BRANCH   6   7
ATOM      7  C   UNL     1       1.221   0.800  10.949  1.00  0.00     0.032 C 
ATOM      8  C   UNL     1      -0.061   0.478  11.726  1.00  0.00     0.014 C 
BRANCH   7   9
ATOM      9  C   UNL     1       1.810  -0.465  10.386  1.00  0.00     0.044 C 
ATOM     10  O   UNL     1       3.046  -0.695  10.481  1.00  0.00    -0.550 OA
ATOM     11  O   UNL     1       0.989  -1.391   9.754  1.00  0.00    -0.550 OA
ENDBRANCH   7   9
ENDBRANCH   6   7
ENDBRANCH   5   6
ENDBRANCH   4   5
ENDBRANCH   3   4
ENDBRANCH   2   3
ENDBRANCH   1   2
BRANCH   1  12
ATOM     12  C   UNL     1      -1.384   4.884  11.781  1.00  0.00     0.000 C 
BRANCH  12  13
ATOM     13  C   UNL     1      -1.884   3.880  10.725  1.00  0.00    -0.000 C 
BRANCH  13  14
ATOM     14  C   UNL     1      -1.745   4.343   9.264  1.00  0.00    -0.000 C 
BRANCH  14  15
ATOM     15  C   UNL     1      -2.638   5.551   8.930  1.00  0.00    -0.000 C 
BRANCH  15  16
ATOM     16  C   UNL     1      -1.842   6.727   8.340  1.00  0.00    -0.000 C 
BRANCH  16  17
ATOM     17  C   UNL     1      -0.364   6.713   8.770  1.00  0.00    -0.000 C 
BRANCH  17  18
ATOM     18  C   UNL     1       0.285   8.103   8.688  1.00  0.00    -0.003 C 
ATOM     19  C   UNL     1       1.799   8.065   8.901  1.00  0.00     0.004 C 
ENDBRANCH  17  18
ENDBRANCH  16  17
ENDBRANCH  15  16
ENDBRANCH  14  15
ENDBRANCH  13  14
ENDBRANCH  12  13
ENDBRANCH   1  12
TORSDOF 14
ENDMDL
MODEL 3
REMARK VINA RESULT:    -2.307      1.747      2.984
REMARK INTER + INTRA:          -6.832
REMARK INTER:                  -4.820
REMARK INTRA:                  -2.012
REMARK UNBOUND:                -2.636
REMARK SMILES CCCCCCCCCCCCCC[C@@H](C)C(=O)[O-]
REMARK SMILES IDX 9 1 10 2 11 3 12 4 13 5 14 6 15 7 16 8 17 9 18 10 19 11 8 12
REMARK SMILES IDX 7 13 6 14 5 15 4 16 3 17 2 18 1 19
REMARK H PARENT
REMARK Flexibility Score: inf
ROOT
ATOM      1  C   UNL     1      -2.494   3.119  12.160  1.00  0.00     0.000 C 
ENDROOT
BRANCH   1   2
ATOM      2  C   UNL     1      -1.205   2.281  12.186  1.00  0.00     0.000 C 
BRANCH   2   3
ATOM      3  C   UNL     1      -0.016   3.009  11.535  1.00  0.00     0.000 C 
BRANCH   3   4
ATOM      4  C   UNL     1       0.194   2.603  10.067  1.00  0.00     0.000 C 
BRANCH   4   5
ATOM      5  C   UNL     1       1.429   1.710   9.868  1.00  0.00     0.001 C 
BRANCH   5   6
ATOM      6  C   UNL     1       2.712   2.555   9.801  1.00  0.00     0.009 C 
BRANCH   6   7
ATOM      7  C   UNL     1       3.446   2.391   8.454  1.00  0.00     0.032 C 
ATOM      8  C   UNL     1       4.161   3.691   8.068  1.00  0.00     0.014 C 
BRANCH   7   9
ATOM      9  C   UNL     1       4.433   1.256   8.497  1.00  0.00     0.044 C 
ATOM     10  O   UNL     1       4.826   0.790   9.600  1.00  0.00    -0.550 OA
ATOM     11  O   UNL     1       4.916   0.713   7.314  1.00  0.00    -0.550 OA
ENDBRANCH   7   9
ENDBRANCH   6   7
ENDBRANCH   5   6
ENDBRANCH   4   5
ENDBRANCH   3   4
ENDBRANCH   2   3
ENDBRANCH   1   2
BRANCH   1  12
ATOM     12  C   UNL     1      -2.213   4.626  12.040  1.00  0.00     0.000 C 
BRANCH  12  13
ATOM     13  C   UNL     1      -3.199   5.348  11.102  1.00  0.00    -0.000 C 
BRANCH  13  14
ATOM     14  C   UNL     1      -3.336   4.733   9.697  1.00  0.00    -0.000 C 
BRANCH  14  15
ATOM     15  C   UNL     1      -2.099   4.976   8.815  1.00  0.00    -0.000 C 
BRANCH  15  16
ATOM     16  C   UNL     1      -1.985   6.437   8.348  1.00  0.00    -0.000 C 
BRANCH  16  17
ATOM     17  C   UNL     1      -0.629   7.067   8.712  1.00  0.00    -0.000 C 
BRANCH  17  18
ATOM     18  C   UNL     1       0.127   6.260   9.779  1.00  0.00    -0.003 C 
ATOM     19  C   UNL     1       1.624   6.148   9.490  1.00  0.00     0.004 C 
ENDBRANCH  17  18
ENDBRANCH  16  17
ENDBRANCH  15  16
ENDBRANCH  14  15
ENDBRANCH  13  14
ENDBRANCH  12  13
ENDBRANCH   1  12
TORSDOF 14
ENDMDL
MODEL 4
REMARK VINA RESULT:    -2.276      2.880      5.608
REMARK INTER + INTRA:          -6.775
REMARK INTER:                  -4.432
REMARK INTRA:                  -2.344
REMARK UNBOUND:                -2.636
REMARK SMILES CCCCCCCCCCCCCC[C@@H](C)C(=O)[O-]
REMARK SMILES IDX 9 1 10 2 11 3 12 4 13 5 14 6 15 7 16 8 17 9 18 10 19 11 8 12
REMARK SMILES IDX 7 13 6 14 5 15 4 16 3 17 2 18 1 19
REMARK H PARENT
REMARK Flexibility Score: inf
ROOT
ATOM      1  C   UNL     1       1.507   4.919  12.203  1.00  0.00     0.000 C 
ENDROOT
BRANCH   1   2
ATOM      2  C   UNL     1       0.184   5.499  11.674  1.00  0.00     0.000 C 
BRANCH   2   3
ATOM      3  C   UNL     1      -0.990   4.515  11.822  1.00  0.00     0.000 C 
BRANCH   3   4
ATOM      4  C   UNL     1      -1.400   3.879  10.484  1.00  0.00     0.000 C 
BRANCH   4   5
ATOM      5  C   UNL     1      -1.039   4.755   9.274  1.00  0.00     0.001 C 
BRANCH   5   6
ATOM      6  C   UNL     1      -2.272   5.515   8.759  1.00  0.00     0.009 C 
BRANCH   6   7
ATOM      7  C   UNL     1      -1.999   7.024   8.597  1.00  0.00     0.032 C 
ATOM      8  C   UNL     1      -0.491   7.299   8.561  1.00  0.00     0.014 C 
BRANCH   7   9
ATOM      9  C   UNL     1      -2.650   7.573   7.356  1.00  0.00     0.044 C 
ATOM     10  O   UNL     1      -3.671   7.017   6.869  1.00  0.00    -0.550 OA
ATOM     11  O   UNL     1      -2.126   8.702   6.740  1.00  0.00    -0.550 OA
ENDBRANCH   7   9
ENDBRANCH   6   7
ENDBRANCH   5   6
ENDBRANCH   4   5
ENDBRANCH   3   4
ENDBRANCH   2   3
ENDBRANCH   1   2
BRANCH   1  12
ATOM     12  C   UNL     1       2.723   5.387  11.386  1.00  0.00     0.000 C 
BRANCH  12  13
ATOM     13  C   UNL     1       2.549   5.170   9.872  1.00  0.00    -0.000 C 
BRANCH  13  14
ATOM     14  C   UNL     1       3.526   4.164   9.238  1.00  0.00    -0.000 C 
BRANCH  14  15
ATOM     15  C   UNL     1       2.825   2.898   8.713  1.00  0.00    -0.000 C 
BRANCH  15  16
ATOM     16  C   UNL     1       2.742   1.788   9.774  1.00  0.00    -0.000 C 
BRANCH  16  17
ATOM     17  C   UNL     1       1.300   1.302  10.005  1.00  0.00    -0.000 C 
BRANCH  17  18
ATOM     18  C   UNL     1       0.910   1.304  11.492  1.00  0.00    -0.003 C 
ATOM     19  C   UNL     1      -0.237   0.344  11.806  1.00  0.00     0.004 C 
ENDBRANCH  17  18
ENDBRANCH  16  17
ENDBRANCH  15  16
ENDBRANCH  14  15
ENDBRANCH  13  14
ENDBRANCH  12  13
ENDBRANCH   1  12
TORSDOF 14
ENDMDL
MODEL 5
REMARK VINA RESULT:    -2.265      1.629      3.304
REMARK INTER + INTRA:          -6.756
REMARK INTER:                  -4.186
REMARK INTRA:                  -2.569
REMARK UNBOUND:                -2.636
REMARK SMILES CCCCCCCCCCCCCC[C@@H](C)C(=O)[O-]
REMARK SMILES IDX 9 1 10 2 11 3 12 4 13 5 14 6 15 7 16 8 17 9 18 10 19 11 8 12
REMARK SMILES IDX 7 13 6 14 5 15 4 16 3 17 2 18 1 19
REMARK H PARENT
REMARK Flexibility Score: inf
ROOT
ATOM      1  C   UNL     1       0.317   5.640  12.805  1.00  0.00     0.000 C 
ENDROOT
BRANCH   1   2
ATOM      2  C   UNL     1      -0.076   4.157  12.911  1.00  0.00     0.000 C 
BRANCH   2   3
ATOM      3  C   UNL     1       0.825   3.247  12.058  1.00  0.00     0.000 C 
BRANCH   3   4
ATOM      4  C   UNL     1       0.024   2.231  11.229  1.00  0.00     0.000 C 
BRANCH   4   5
ATOM      5  C   UNL     1       0.739   1.829   9.929  1.00  0.00     0.001 C 
BRANCH   5   6
ATOM      6  C   UNL     1       1.884   2.803   9.608  1.00  0.00     0.009 C 
BRANCH   6   7
ATOM      7  C   UNL     1       3.106   2.085   9.000  1.00  0.00     0.032 C 
ATOM      8  C   UNL     1       3.772   2.962   7.934  1.00  0.00     0.014 C 
BRANCH   7   9
ATOM      9  C   UNL     1       4.109   1.711  10.058  1.00  0.00     0.044 C 
ATOM     10  O   UNL     1       4.035   2.205  11.215  1.00  0.00    -0.550 OA
ATOM     11  O   UNL     1       5.127   0.814   9.761  1.00  0.00    -0.550 OA
ENDBRANCH   7   9
ENDBRANCH   6   7
ENDBRANCH   5   6
ENDBRANCH   4   5
ENDBRANCH   3   4
ENDBRANCH   2   3
ENDBRANCH   1   2
BRANCH   1  12
ATOM     12  C   UNL     1       1.322   5.904  11.671  1.00  0.00     0.000 C 
BRANCH  12  13
ATOM     13  C   UNL     1       0.755   6.813  10.565  1.00  0.00    -0.000 C 
BRANCH  13  14
ATOM     14  C   UNL     1       0.290   6.083   9.292  1.00  0.00    -0.000 C 
BRANCH  14  15
ATOM     15  C   UNL     1      -0.888   6.785   8.595  1.00  0.00    -0.000 C 
BRANCH  15  16
ATOM     16  C   UNL     1      -2.137   5.892   8.505  1.00  0.00    -0.000 C 
BRANCH  16  17
ATOM     17  C   UNL     1      -1.947   4.541   9.217  1.00  0.00    -0.000 C 
BRANCH  17  18
ATOM     18  C   UNL     1      -2.950   4.334  10.363  1.00  0.00    -0.003 C 
ATOM     19  C   UNL     1      -3.127   5.582  11.230  1.00  0.00     0.004 C 
ENDBRANCH  17  18
ENDBRANCH  16  17
ENDBRANCH  15  16
ENDBRANCH  14  15
ENDBRANCH  13  14
ENDBRANCH  12  13
ENDBRANCH   1  12
TORSDOF 14
ENDMDL
MODEL 6
REMARK VINA RESULT:    -2.260      2.905      5.311
REMARK INTER + INTRA:          -6.746
REMARK INTER:                  -4.535
REMARK INTRA:                  -2.211
REMARK UNBOUND:                -2.636
REMARK SMILES CCCCCCCCCCCCCC[C@@H](C)C(=O)[O-]
REMARK SMILES IDX 9 1 10 2 11 3 12 4 13 5 14 6 15 7 16 8 17 9 18 10 19 11 8 12
REMARK SMILES IDX 7 13 6 14 5 15 4 16 3 17 2 18 1 19
REMARK H PARENT
REMARK Flexibility Score: inf
ROOT
ATOM      1  C   UNL     1       2.054   0.854  10.318  1.00  0.00     0.000 C 
ENDROOT
BRANCH   1   2
ATOM      2  C   UNL     1       0.831   1.733  10.010  1.00  0.00     0.000 C 
BRANCH   2   3
ATOM      3  C   UNL     1       0.313   2.479  11.253  1.00  0.00     0.000 C 
BRANCH   3   4
ATOM      4  C   UNL     1      -0.837   3.446  10.926  1.00  0.00     0.000 C 
BRANCH   4   5
ATOM      5  C   UNL     1      -0.605   4.226   9.623  1.00  0.00     0.001 C 
BRANCH   5   6
ATOM      6  C   UNL     1      -1.941   4.675   9.008  1.00  0.00     0.009 C 
BRANCH   6   7
ATOM      7  C   UNL     1      -2.122   6.205   9.064  1.00  0.00     0.032 C 
ATOM      8  C   UNL     1      -0.892   6.916   8.487  1.00  0.00     0.014 C 
BRANCH   7   9
ATOM      9  C   UNL     1      -3.360   6.642   8.328  1.00  0.00     0.044 C 
ATOM     10  O   UNL     1      -4.426   6.884   8.955  1.00  0.00    -0.550 OA
ATOM     11  O   UNL     1      -3.331   6.781   6.946  1.00  0.00    -0.550 OA
ENDBRANCH   7   9
ENDBRANCH   6   7
ENDBRANCH   5   6
ENDBRANCH   4   5
ENDBRANCH   3   4
ENDBRANCH   2   3
ENDBRANCH   1   2
BRANCH   1  12
ATOM     12  C   UNL     1       3.333   1.362   9.631  1.00  0.00     0.000 C 
BRANCH  12  13
ATOM     13  C   UNL     1       3.057   2.459   8.586  1.00  0.00    -0.000 C 
BRANCH  13  14
ATOM     14  C   UNL     1       3.798   3.788   8.820  1.00  0.00    -0.000 C 
BRANCH  14  15
ATOM     15  C   UNL     1       2.963   4.806   9.617  1.00  0.00    -0.000 C 
BRANCH  15  16
ATOM     16  C   UNL     1       3.353   4.853  11.104  1.00  0.00    -0.000 C 
BRANCH  16  17
ATOM     17  C   UNL     1       2.241   5.448  11.986  1.00  0.00    -0.000 C 
BRANCH  17  18
ATOM     18  C   UNL     1       1.548   6.651  11.326  1.00  0.00    -0.003 C 
ATOM     19  C   UNL     1       2.309   7.961  11.532  1.00  0.00     0.004 C 
ENDBRANCH  17  18
ENDBRANCH  16  17
ENDBRANCH  15  16
ENDBRANCH  14  15
ENDBRANCH  13  14
ENDBRANCH  12  13
ENDBRANCH   1  12
TORSDOF 14
ENDMDL
MODEL 7
REMARK VINA RESULT:    -2.202      3.127      5.975
REMARK INTER + INTRA:          -6.641
REMARK INTER:                  -4.547
REMARK INTRA:                  -2.094
REMARK UNBOUND:                -2.636
REMARK SMILES CCCCCCCCCCCCCC[C@@H](C)C(=O)[O-]
REMARK SMILES IDX 9 1 10 2 11 3 12 4 13 5 14 6 15 7 16 8 17 9 18 10 19 11 8 12
REMARK SMILES IDX 7 13 6 14 5 15 4 16 3 17 2 18 1 19
REMARK H PARENT
REMARK Flexibility Score: inf
ROOT
ATOM      1  C   UNL     1      -1.072   4.151  12.376  1.00  0.00     0.000 C 
ENDROOT
BRANCH   1   2
ATOM      2  C   UNL     1      -0.361   5.465  12.740  1.00  0.00     0.000 C 
BRANCH   2   3
ATOM      3  C   UNL     1      -0.539   6.549  11.663  1.00  0.00     0.000 C 
BRANCH   3   4
ATOM      4  C   UNL     1       0.535   6.475  10.566  1.00  0.00     0.000 C 
BRANCH   4   5
ATOM      5  C   UNL     1      -0.021   5.978   9.222  1.00  0.00     0.001 C 
BRANCH   5   6
ATOM      6  C   UNL     1      -1.104   6.931   8.691  1.00  0.00     0.009 C 
BRANCH   6   7
ATOM      7  C   UNL     1      -2.399   6.185   8.308  1.00  0.00     0.032 C 
ATOM      8  C   UNL     1      -2.322   4.716   8.738  1.00  0.00     0.014 C 
BRANCH   7   9
ATOM      9  C   UNL     1      -3.611   6.836   8.918  1.00  0.00     0.044 C 
ATOM     10  O   UNL     1      -3.715   6.954  10.168  1.00  0.00    -0.550 OA
ATOM     11  O   UNL     1      -4.627   7.313   8.099  1.00  0.00    -0.550 OA
ENDBRANCH   7   9
ENDBRANCH   6   7
ENDBRANCH   5   6
ENDBRANCH   4   5
ENDBRANCH   3   4
ENDBRANCH   2   3
ENDBRANCH   1   2
BRANCH   1  12
ATOM     12  C   UNL     1      -0.086   2.998  12.123  1.00  0.00     0.000 C 
BRANCH  12  13
ATOM     13  C   UNL     1      -0.159   2.449  10.686  1.00  0.00    -0.000 C 
BRANCH  13  14
ATOM     14  C   UNL     1       1.200   2.264   9.986  1.00  0.00    -0.000 C 
BRANCH  14  15
ATOM     15  C   UNL     1       2.291   3.196  10.541  1.00  0.00    -0.000 C 
BRANCH  15  16
ATOM     16  C   UNL     1       3.253   3.693   9.449  1.00  0.00    -0.000 C 
BRANCH  16  17
ATOM     17  C   UNL     1       3.425   2.675   8.308  1.00  0.00    -0.000 C 
BRANCH  17  18
ATOM     18  C   UNL     1       4.367   3.182   7.205  1.00  0.00    -0.003 C 
ATOM     19  C   UNL     1       4.489   2.207   6.033  1.00  0.00     0.004 C 
ENDBRANCH  17  18
ENDBRANCH  16  17
ENDBRANCH  15  16
ENDBRANCH  14  15
ENDBRANCH  13  14
ENDBRANCH  12  13
ENDBRANCH   1  12
TORSDOF 14
ENDMDL
MODEL 8
REMARK VINA RESULT:    -2.192      1.873      3.672
REMARK INTER + INTRA:          -6.623
REMARK INTER:                  -4.543
REMARK INTRA:                  -2.080
REMARK UNBOUND:                -2.636
REMARK SMILES CCCCCCCCCCCCCC[C@@H](C)C(=O)[O-]
REMARK SMILES IDX 9 1 10 2 11 3 12 4 13 5 14 6 15 7 16 8 17 9 18 10 19 11 8 12
REMARK SMILES IDX 7 13 6 14 5 15 4 16 3 17 2 18 1 19
REMARK H PARENT
REMARK Flexibility Score: inf
ROOT
ATOM      1  C   UNL     1      -2.196   5.921   8.449  1.00  0.00     0.000 C 
ENDROOT
BRANCH   1   2
ATOM      2  C   UNL     1      -0.881   6.601   8.868  1.00  0.00     0.000 C 
BRANCH   2   3
ATOM      3  C   UNL     1       0.141   5.602   9.440  1.00  0.00     0.000 C 
BRANCH   3   4
ATOM      4  C   UNL     1       1.532   6.227   9.635  1.00  0.00     0.000 C 
BRANCH   4   5
ATOM      5  C   UNL     1       2.664   5.190   9.568  1.00  0.00     0.001 C 
BRANCH   5   6
ATOM      6  C   UNL     1       2.100   3.760   9.578  1.00  0.00     0.009 C 
BRANCH   6   7
ATOM      7  C   UNL     1       2.975   2.784   8.766  1.00  0.00     0.032 C 
ATOM      8  C   UNL     1       4.219   3.498   8.223  1.00  0.00     0.014 C 
BRANCH   7   9
ATOM      9  C   UNL     1       3.386   1.594   9.590  1.00  0.00     0.044 C 
ATOM     10  O   UNL     1       3.064   1.515  10.806  1.00  0.00    -0.550 OA
ATOM     11  O   UNL     1       4.125   0.570   9.010  1.00  0.00    -0.550 OA
ENDBRANCH   7   9
ENDBRANCH   6   7
ENDBRANCH   5   6
ENDBRANCH   4   5
ENDBRANCH   3   4
ENDBRANCH   2   3
ENDBRANCH   1   2
BRANCH   1  12
ATOM     12  C   UNL     1      -2.422   4.581   9.170  1.00  0.00     0.000 C 
BRANCH  12  13
ATOM     13  C   UNL     1      -3.715   4.560  10.006  1.00  0.00    -0.000 C 
BRANCH  13  14
ATOM     14  C   UNL     1      -3.524   4.240  11.500  1.00  0.00    -0.000 C 
BRANCH  14  15
ATOM     15  C   UNL     1      -2.347   5.006  12.130  1.00  0.00    -0.000 C 
BRANCH  15  16
ATOM     16  C   UNL     1      -1.504   4.124  13.066  1.00  0.00    -0.000 C 
BRANCH  16  17
ATOM     17  C   UNL     1      -0.232   3.591  12.384  1.00  0.00    -0.000 C 
BRANCH  17  18
ATOM     18  C   UNL     1      -0.448   2.218  11.728  1.00  0.00    -0.003 C 
ATOM     19  C   UNL     1      -1.340   1.296  12.561  1.00  0.00     0.004 C 
ENDBRANCH  17  18
ENDBRANCH  16  17
ENDBRANCH  15  16
ENDBRANCH  14  15
ENDBRANCH  13  14
ENDBRANCH  12  13
ENDBRANCH   1  12
TORSDOF 14
ENDMDL
MODEL 9
REMARK VINA RESULT:    -2.158      2.937      5.537
REMARK INTER + INTRA:          -6.560
REMARK INTER:                  -3.865
REMARK INTRA:                  -2.696
REMARK UNBOUND:                -2.636
REMARK SMILES CCCCCCCCCCCCCC[C@@H](C)C(=O)[O-]
REMARK SMILES IDX 9 1 10 2 11 3 12 4 13 5 14 6 15 7 16 8 17 9 18 10 19 11 8 12
REMARK SMILES IDX 7 13 6 14 5 15 4 16 3 17 2 18 1 19
REMARK H PARENT
REMARK Flexibility Score: inf
ROOT
ATOM      1  C   UNL     1       0.774   4.329  12.533  1.00  0.00     0.000 C 
ENDROOT
BRANCH   1   2
ATOM      2  C   UNL     1      -0.224   5.264  11.829  1.00  0.00     0.000 C 
BRANCH   2   3
ATOM      3  C   UNL     1       0.329   6.690  11.653  1.00  0.00     0.000 C 
BRANCH   3   4
ATOM      4  C   UNL     1       0.672   7.015  10.190  1.00  0.00     0.000 C 
BRANCH   4   5
ATOM      5  C   UNL     1       0.007   6.051   9.195  1.00  0.00     0.001 C 
BRANCH   5   6
ATOM      6  C   UNL     1      -1.130   6.750   8.432  1.00  0.00     0.009 C 
BRANCH   6   7
ATOM      7  C   UNL     1      -2.488   6.050   8.644  1.00  0.00     0.032 C 
ATOM      8  C   UNL     1      -2.308   4.530   8.714  1.00  0.00     0.014 C 
BRANCH   7   9
ATOM      9  C   UNL     1      -3.175   6.544   9.889  1.00  0.00     0.044 C 
ATOM     10  O   UNL     1      -2.964   7.710  10.318  1.00  0.00    -0.550 OA
ATOM     11  O   UNL     1      -4.050   5.711  10.574  1.00  0.00    -0.550 OA
ENDBRANCH   7   9
ENDBRANCH   6   7
ENDBRANCH   5   6
ENDBRANCH   4   5
ENDBRANCH   3   4
ENDBRANCH   2   3
ENDBRANCH   1   2
BRANCH   1  12
ATOM     12  C   UNL     1       0.570   2.854  12.148  1.00  0.00     0.000 C 
BRANCH  12  13
ATOM     13  C   UNL     1       0.301   2.657  10.645  1.00  0.00    -0.000 C 
BRANCH  13  14
ATOM     14  C   UNL     1       1.095   1.518   9.981  1.00  0.00    -0.000 C 
BRANCH  14  15
ATOM     15  C   UNL     1       2.489   1.961   9.501  1.00  0.00    -0.000 C 
BRANCH  15  16
ATOM     16  C   UNL     1       2.524   3.439   9.078  1.00  0.00    -0.000 C 
BRANCH  16  17
ATOM     17  C   UNL     1       3.850   4.126   9.449  1.00  0.00    -0.000 C 
BRANCH  17  18
ATOM     18  C   UNL     1       3.756   4.915  10.764  1.00  0.00    -0.003 C 
ATOM     19  C   UNL     1       4.355   6.318  10.658  1.00  0.00     0.004 C 
ENDBRANCH  17  18
ENDBRANCH  16  17
ENDBRANCH  15  16
ENDBRANCH  14  15
ENDBRANCH  13  14
ENDBRANCH  12  13
ENDBRANCH   1  12
TORSDOF 14
ENDMDL
