MODEL 1
REMARK VINA RESULT:    -4.363      0.000      0.000
REMARK INTER + INTRA:          -4.785
REMARK INTER:                  -4.618
REMARK INTRA:                  -0.167
REMARK UNBOUND:                -0.167
REMARK SMILES Cc1ccc(C(C)C)cc1
REMARK SMILES IDX 1 1 2 2 3 3 4 4 5 5 9 6 10 7 6 8 7 9 8 10
REMARK H PARENT
REMARK Flexibility Score: inf
ROOT
ATOM      1  C   UNL     1      57.838  57.763 246.395  1.00  0.00     0.044 C 
ATOM      2  C   UNL     1      56.485  58.248 245.967  1.00  0.00    -0.051 A 
ATOM      3  C   UNL     1      56.355  59.464 245.280  1.00  0.00     0.004 A 
ATOM      4  C   UNL     1      55.092  59.935 244.913  1.00  0.00     0.004 A 
ATOM      5  C   UNL     1      53.934  59.205 245.238  1.00  0.00    -0.045 A 
ATOM      6  C   UNL     1      54.070  57.995 245.943  1.00  0.00     0.004 A 
ATOM      7  C   UNL     1      55.334  57.525 246.309  1.00  0.00     0.004 A 
ENDROOT
BRANCH   5   8
ATOM      8  C   UNL     1      52.568  59.729 244.834  1.00  0.00     0.013 C 
ATOM      9  C   UNL     1      51.532  59.473 245.933  1.00  0.00     0.012 C 
ATOM     10  C   UNL     1      52.633  61.217 244.471  1.00  0.00     0.012 C 
ENDBRANCH   5   8
TORSDOF 1
ENDMDL
MODEL 2
REMARK VINA RESULT:    -4.361      0.108      1.535
REMARK INTER + INTRA:          -4.783
REMARK INTER:                  -4.617
REMARK INTRA:                  -0.167
REMARK UNBOUND:                -0.167
REMARK SMILES Cc1ccc(C(C)C)cc1
REMARK SMILES IDX 1 1 2 2 3 3 4 4 5 5 9 6 10 7 6 8 7 9 8 10
REMARK H PARENT
REMARK Flexibility Score: inf
ROOT
ATOM      1  C   UNL     1      57.822  57.654 246.294  1.00  0.00     0.044 C 
ATOM      2  C   UNL     1      56.458  58.181 245.957  1.00  0.00    -0.051 A 
ATOM      3  C   UNL     1      55.314  57.434 246.274  1.00  0.00     0.004 A 
ATOM      4  C   UNL     1      54.045  57.905 245.927  1.00  0.00     0.004 A 
ATOM      5  C   UNL     1      53.898  59.127 245.246  1.00  0.00    -0.045 A 
ATOM      6  C   UNL     1      55.051  59.863 244.914  1.00  0.00     0.004 A 
ATOM      7  C   UNL     1      56.319  59.390 245.262  1.00  0.00     0.004 A 
ENDROOT
BRANCH   5   8
ATOM      8  C   UNL     1      52.514  59.627 244.875  1.00  0.00     0.013 C 
ATOM      9  C   UNL     1      51.518  59.393 246.015  1.00  0.00     0.012 C 
ATOM     10  C   UNL     1      52.552  61.104 244.468  1.00  0.00     0.012 C 
ENDBRANCH   5   8
TORSDOF 1
ENDMDL
MODEL 3
REMARK VINA RESULT:    -4.348      3.036      5.094
REMARK INTER + INTRA:          -4.770
REMARK INTER:                  -4.615
REMARK INTRA:                  -0.155
REMARK UNBOUND:                -0.167
REMARK SMILES Cc1ccc(C(C)C)cc1
REMARK SMILES IDX 1 1 2 2 3 3 4 4 5 5 9 6 10 7 6 8 7 9 8 10
REMARK H PARENT
REMARK Flexibility Score: inf
ROOT
ATOM      1  C   UNL     1      48.703  57.813 247.892  1.00  0.00     0.044 C 
ATOM      2  C   UNL     1      49.652  58.667 247.104  1.00  0.00    -0.051 A 
ATOM      3  C   UNL     1      49.170  59.741 246.343  1.00  0.00     0.004 A 
ATOM      4  C   UNL     1      50.048  60.515 245.580  1.00  0.00     0.004 A 
ATOM      5  C   UNL     1      51.423  60.221 245.554  1.00  0.00    -0.045 A 
ATOM      6  C   UNL     1      51.898  59.130 246.306  1.00  0.00     0.004 A 
ATOM      7  C   UNL     1      51.019  58.357 247.069  1.00  0.00     0.004 A 
ENDROOT
BRANCH   5   8
ATOM      8  C   UNL     1      52.366  61.068 244.720  1.00  0.00     0.013 C 
ATOM      9  C   UNL     1      53.137  62.061 245.596  1.00  0.00     0.012 C 
ATOM     10  C   UNL     1      53.322  60.191 243.905  1.00  0.00     0.012 C 
ENDBRANCH   5   8
TORSDOF 1
ENDMDL
MODEL 4
REMARK VINA RESULT:    -4.281      2.812      6.302
REMARK INTER + INTRA:          -4.698
REMARK INTER:                  -4.531
REMARK INTRA:                  -0.167
REMARK UNBOUND:                -0.167
REMARK SMILES Cc1ccc(C(C)C)cc1
REMARK SMILES IDX 1 1 2 2 3 3 4 4 5 5 9 6 10 7 6 8 7 9 8 10
REMARK H PARENT
REMARK Flexibility Score: inf
ROOT
ATOM      1  C   UNL     1      55.641  60.920 245.899  1.00  0.00     0.044 C 
ATOM      2  C   UNL     1      57.049  60.432 245.727  1.00  0.00    -0.051 A 
ATOM      3  C   UNL     1      57.295  59.116 245.312  1.00  0.00     0.004 A 
ATOM      4  C   UNL     1      58.606  58.648 245.186  1.00  0.00     0.004 A 
ATOM      5  C   UNL     1      59.695  59.486 245.485  1.00  0.00    -0.045 A 
ATOM      6  C   UNL     1      59.442  60.801 245.919  1.00  0.00     0.004 A 
ATOM      7  C   UNL     1      58.130  61.267 246.043  1.00  0.00     0.004 A 
ENDROOT
BRANCH   5   8
ATOM      8  C   UNL     1      61.114  58.966 245.346  1.00  0.00     0.013 C 
ATOM      9  C   UNL     1      61.969  59.362 246.554  1.00  0.00     0.012 C 
ATOM     10  C   UNL     1      61.127  57.448 245.133  1.00  0.00     0.012 C 
ENDBRANCH   5   8
TORSDOF 1
ENDMDL
MODEL 5
REMARK VINA RESULT:    -4.236      2.396      3.605
REMARK INTER + INTRA:          -4.652
REMARK INTER:                  -4.493
REMARK INTRA:                  -0.159
REMARK UNBOUND:                -0.167
REMARK SMILES Cc1ccc(C(C)C)cc1
REMARK SMILES IDX 1 1 2 2 3 3 4 4 5 5 9 6 10 7 6 8 7 9 8 10
REMARK H PARENT
REMARK Flexibility Score: inf
ROOT
ATOM      1  C   UNL     1      61.189  59.123 245.400  1.00  0.00     0.044 C 
ATOM      2  C   UNL     1      59.771  59.609 245.480  1.00  0.00    -0.051 A 
ATOM      3  C   UNL     1      59.490  60.889 245.978  1.00  0.00     0.004 A 
ATOM      4  C   UNL     1      58.169  61.329 246.089  1.00  0.00     0.004 A 
ATOM      5  C   UNL     1      57.103  60.491 245.713  1.00  0.00    -0.045 A 
ATOM      6  C   UNL     1      57.391  59.201 245.231  1.00  0.00     0.004 A 
ATOM      7  C   UNL     1      58.713  58.763 245.121  1.00  0.00     0.004 A 
ENDROOT
BRANCH   5   8
ATOM      8  C   UNL     1      55.672  60.981 245.839  1.00  0.00     0.013 C 
ATOM      9  C   UNL     1      54.729  60.165 244.948  1.00  0.00     0.012 C 
ATOM     10  C   UNL     1      55.208  60.961 247.299  1.00  0.00     0.012 C 
ENDBRANCH   5   8
TORSDOF 1
ENDMDL
MODEL 6
REMARK VINA RESULT:    -4.222      1.582      5.269
REMARK INTER + INTRA:          -4.636
REMARK INTER:                  -4.470
REMARK INTRA:                  -0.167
REMARK UNBOUND:                -0.167
REMARK SMILES Cc1ccc(C(C)C)cc1
REMARK SMILES IDX 1 1 2 2 3 3 4 4 5 5 9 6 10 7 6 8 7 9 8 10
REMARK H PARENT
REMARK Flexibility Score: inf
ROOT
ATOM      1  C   UNL     1      48.381  60.159 246.978  1.00  0.00     0.044 C 
ATOM      2  C   UNL     1      49.759  59.822 246.490  1.00  0.00    -0.051 A 
ATOM      3  C   UNL     1      50.464  58.749 247.052  1.00  0.00     0.004 A 
ATOM      4  C   UNL     1      51.762  58.456 246.625  1.00  0.00     0.004 A 
ATOM      5  C   UNL     1      52.382  59.239 245.635  1.00  0.00    -0.045 A 
ATOM      6  C   UNL     1      51.675  60.326 245.086  1.00  0.00     0.004 A 
ATOM      7  C   UNL     1      50.377  60.617 245.515  1.00  0.00     0.004 A 
ENDROOT
BRANCH   5   8
ATOM      8  C   UNL     1      53.792  58.911 245.180  1.00  0.00     0.013 C 
ATOM      9  C   UNL     1      54.650  60.178 245.083  1.00  0.00     0.012 C 
ATOM     10  C   UNL     1      54.442  57.873 246.101  1.00  0.00     0.012 C 
ENDBRANCH   5   8
TORSDOF 1
ENDMDL
MODEL 7
REMARK VINA RESULT:    -4.192      1.134      4.593
REMARK INTER + INTRA:          -4.604
REMARK INTER:                  -4.437
REMARK INTRA:                  -0.167
REMARK UNBOUND:                -0.167
REMARK SMILES Cc1ccc(C(C)C)cc1
REMARK SMILES IDX 1 1 2 2 3 3 4 4 5 5 9 6 10 7 6 8 7 9 8 10
REMARK H PARENT
REMARK Flexibility Score: inf
ROOT
ATOM      1  C   UNL     1      50.530  60.588 245.610  1.00  0.00     0.044 C 
ATOM      2  C   UNL     1      52.014  60.400 245.499  1.00  0.00    -0.051 A 
ATOM      3  C   UNL     1      52.543  59.152 245.142  1.00  0.00     0.004 A 
ATOM      4  C   UNL     1      53.927  58.965 245.074  1.00  0.00     0.004 A 
ATOM      5  C   UNL     1      54.806  60.020 245.375  1.00  0.00    -0.045 A 
ATOM      6  C   UNL     1      54.269  61.266 245.751  1.00  0.00     0.004 A 
ATOM      7  C   UNL     1      52.886  61.451 245.818  1.00  0.00     0.004 A 
ENDROOT
BRANCH   5   8
ATOM      8  C   UNL     1      56.306  59.804 245.298  1.00  0.00     0.013 C 
ATOM      9  C   UNL     1      57.065  60.954 245.968  1.00  0.00     0.012 C 
ATOM     10  C   UNL     1      56.701  58.453 245.907  1.00  0.00     0.012 C 
ENDBRANCH   5   8
TORSDOF 1
ENDMDL
MODEL 8
REMARK VINA RESULT:    -4.158      2.859      4.986
REMARK INTER + INTRA:          -4.569
REMARK INTER:                  -4.402
REMARK INTRA:                  -0.167
REMARK UNBOUND:                -0.167
REMARK SMILES Cc1ccc(C(C)C)cc1
REMARK SMILES IDX 1 1 2 2 3 3 4 4 5 5 9 6 10 7 6 8 7 9 8 10
REMARK H PARENT
REMARK Flexibility Score: inf
ROOT
ATOM      1  C   UNL     1      62.749  57.698 246.079  1.00  0.00     0.044 C 
ATOM      2  C   UNL     1      61.304  58.081 245.944  1.00  0.00    -0.051 A 
ATOM      3  C   UNL     1      60.297  57.189 246.339  1.00  0.00     0.004 A 
ATOM      4  C   UNL     1      58.951  57.529 246.180  1.00  0.00     0.004 A 
ATOM      5  C   UNL     1      58.589  58.763 245.611  1.00  0.00    -0.045 A 
ATOM      6  C   UNL     1      59.604  59.646 245.199  1.00  0.00     0.004 A 
ATOM      7  C   UNL     1      60.949  59.304 245.359  1.00  0.00     0.004 A 
ENDROOT
BRANCH   5   8
ATOM      8  C   UNL     1      57.123  59.120 245.442  1.00  0.00     0.013 C 
ATOM      9  C   UNL     1      56.225  58.149 246.217  1.00  0.00     0.012 C 
ATOM     10  C   UNL     1      56.857  60.571 245.858  1.00  0.00     0.012 C 
ENDBRANCH   5   8
TORSDOF 1
ENDMDL
MODEL 9
REMARK VINA RESULT:    -4.115      6.354      8.392
REMARK INTER + INTRA:          -4.523
REMARK INTER:                  -4.365
REMARK INTRA:                  -0.158
REMARK UNBOUND:                -0.167
REMARK SMILES Cc1ccc(C(C)C)cc1
REMARK SMILES IDX 1 1 2 2 3 3 4 4 5 5 9 6 10 7 6 8 7 9 8 10
REMARK H PARENT
REMARK Flexibility Score: inf
ROOT
ATOM      1  C   UNL     1      64.930  60.685 248.494  1.00  0.00     0.044 C 
ATOM      2  C   UNL     1      64.005  59.850 247.657  1.00  0.00    -0.051 A 
ATOM      3  C   UNL     1      62.677  60.252 247.457  1.00  0.00     0.004 A 
ATOM      4  C   UNL     1      61.804  59.457 246.709  1.00  0.00     0.004 A 
ATOM      5  C   UNL     1      62.242  58.240 246.158  1.00  0.00    -0.045 A 
ATOM      6  C   UNL     1      63.571  57.833 246.378  1.00  0.00     0.004 A 
ATOM      7  C   UNL     1      64.442  58.629 247.126  1.00  0.00     0.004 A 
ENDROOT
BRANCH   5   8
ATOM      8  C   UNL     1      61.284  57.385 245.348  1.00  0.00     0.013 C 
ATOM      9  C   UNL     1      60.434  56.493 246.259  1.00  0.00     0.012 C 
ATOM     10  C   UNL     1      60.400  58.252 244.444  1.00  0.00     0.012 C 
ENDBRANCH   5   8
TORSDOF 1
ENDMDL
