MODEL 1
REMARK VINA RESULT:    -4.085      0.000      0.000
REMARK INTER + INTRA:          -5.537
REMARK INTER:                  -5.041
REMARK INTRA:                  -0.496
REMARK UNBOUND:                -0.496
REMARK SMILES C=CC[C@H](C)C(=O)CC
REMARK SMILES IDX 4 1 5 2 6 3 7 4 8 5 9 6 3 7 2 8 1 9
REMARK H PARENT
REMARK Flexibility Score: inf
ROOT
ATOM      1  C   UNL     1     -11.376  19.065   5.790  1.00  0.00     0.057 C 
ATOM      2  C   UNL     1     -12.673  19.838   5.530  1.00  0.00     0.016 C 
ENDROOT
BRANCH   1   3
ATOM      3  C   UNL     1     -10.249  20.036   6.082  1.00  0.00     0.135 C 
ATOM      4  O   UNL     1      -9.729  20.655   5.164  1.00  0.00    -0.299 OA
BRANCH   3   5
ATOM      5  C   UNL     1      -9.769  20.272   7.490  1.00  0.00     0.072 C 
ATOM      6  C   UNL     1     -10.129  19.099   8.395  1.00  0.00     0.012 C 
ENDBRANCH   3   5
ENDBRANCH   1   3
BRANCH   1   7
ATOM      7  C   UNL     1     -11.037  18.158   4.590  1.00  0.00     0.038 C 
BRANCH   7   8
ATOM      8  C   UNL     1     -10.128  17.028   4.996  1.00  0.00    -0.034 C 
ATOM      9  C   UNL     1     -10.454  16.177   5.974  1.00  0.00     0.004 C 
ENDBRANCH   7   8
ENDBRANCH   1   7
TORSDOF 4
ENDMDL
MODEL 2
REMARK VINA RESULT:    -4.085      1.535      3.064
REMARK INTER + INTRA:          -5.536
REMARK INTER:                  -5.107
REMARK INTRA:                  -0.430
REMARK UNBOUND:                -0.496
REMARK SMILES C=CC[C@H](C)C(=O)CC
REMARK SMILES IDX 4 1 5 2 6 3 7 4 8 5 9 6 3 7 2 8 1 9
REMARK H PARENT
REMARK Flexibility Score: inf
ROOT
ATOM      1  C   UNL     1     -10.463  19.912   6.475  1.00  0.00     0.057 C 
ATOM      2  C   UNL     1     -10.078  21.383   6.664  1.00  0.00     0.016 C 
ENDROOT
BRANCH   1   3
ATOM      3  C   UNL     1     -11.828  19.818   5.823  1.00  0.00     0.135 C 
ATOM      4  O   UNL     1     -12.774  20.426   6.305  1.00  0.00    -0.299 OA
BRANCH   3   5
ATOM      5  C   UNL     1     -12.041  19.002   4.574  1.00  0.00     0.072 C 
ATOM      6  C   UNL     1     -10.778  18.233   4.201  1.00  0.00     0.012 C 
ENDBRANCH   3   5
ENDBRANCH   1   3
BRANCH   1   7
ATOM      7  C   UNL     1     -10.435  19.168   7.825  1.00  0.00     0.038 C 
BRANCH   7   8
ATOM      8  C   UNL     1      -9.402  18.072   7.826  1.00  0.00    -0.034 C 
ATOM      9  C   UNL     1      -9.712  16.811   7.509  1.00  0.00     0.004 C 
ENDBRANCH   7   8
ENDBRANCH   1   7
TORSDOF 4
ENDMDL
MODEL 3
REMARK VINA RESULT:    -4.031      1.561      2.768
REMARK INTER + INTRA:          -5.469
REMARK INTER:                  -5.019
REMARK INTRA:                  -0.450
REMARK UNBOUND:                -0.496
REMARK SMILES C=CC[C@H](C)C(=O)CC
REMARK SMILES IDX 4 1 5 2 6 3 7 4 8 5 9 6 3 7 2 8 1 9
REMARK H PARENT
REMARK Flexibility Score: inf
ROOT
ATOM      1  C   UNL     1     -10.410  19.656   6.560  1.00  0.00     0.057 C 
ATOM      2  C   UNL     1     -10.212  19.124   7.983  1.00  0.00     0.016 C 
ENDROOT
BRANCH   1   3
ATOM      3  C   UNL     1      -9.792  21.035   6.436  1.00  0.00     0.135 C 
ATOM      4  O   UNL     1     -10.444  22.021   6.748  1.00  0.00    -0.299 OA
BRANCH   3   5
ATOM      5  C   UNL     1      -8.377  21.214   5.953  1.00  0.00     0.072 C 
ATOM      6  C   UNL     1      -8.152  20.485   4.632  1.00  0.00     0.012 C 
ENDBRANCH   3   5
ENDBRANCH   1   3
BRANCH   1   7
ATOM      7  C   UNL     1     -11.907  19.678   6.194  1.00  0.00     0.038 C 
BRANCH   7   8
ATOM      8  C   UNL     1     -12.139  19.161   4.799  1.00  0.00    -0.034 C 
ATOM      9  C   UNL     1     -11.236  18.405   4.168  1.00  0.00     0.004 C 
ENDBRANCH   7   8
ENDBRANCH   1   7
TORSDOF 4
ENDMDL
MODEL 4
REMARK VINA RESULT:    -3.991      1.787      3.753
REMARK INTER + INTRA:          -5.421
REMARK INTER:                  -4.952
REMARK INTRA:                  -0.469
REMARK UNBOUND:                -0.496
REMARK SMILES C=CC[C@H](C)C(=O)CC
REMARK SMILES IDX 4 1 5 2 6 3 7 4 8 5 9 6 3 7 2 8 1 9
REMARK H PARENT
REMARK Flexibility Score: inf
ROOT
ATOM      1  C   UNL     1     -10.769  19.776   7.261  1.00  0.00     0.057 C 
ATOM      2  C   UNL     1      -9.886  18.528   7.362  1.00  0.00     0.016 C 
ENDROOT
BRANCH   1   3
ATOM      3  C   UNL     1     -11.760  19.613   6.126  1.00  0.00     0.135 C 
ATOM      4  O   UNL     1     -12.754  20.325   6.082  1.00  0.00    -0.299 OA
BRANCH   3   5
ATOM      5  C   UNL     1     -11.535  18.601   5.033  1.00  0.00     0.072 C 
ATOM      6  C   UNL     1     -10.743  19.208   3.879  1.00  0.00     0.012 C 
ENDBRANCH   3   5
ENDBRANCH   1   3
BRANCH   1   7
ATOM      7  C   UNL     1      -9.903  21.037   7.072  1.00  0.00     0.038 C 
BRANCH   7   8
ATOM      8  C   UNL     1      -8.530  20.689   6.560  1.00  0.00    -0.034 C 
ATOM      9  C   UNL     1      -8.044  21.214   5.431  1.00  0.00     0.004 C 
ENDBRANCH   7   8
ENDBRANCH   1   7
TORSDOF 4
ENDMDL
MODEL 5
REMARK VINA RESULT:    -3.804      1.752      2.818
REMARK INTER + INTRA:          -5.190
REMARK INTER:                  -4.727
REMARK INTRA:                  -0.463
REMARK UNBOUND:                -0.496
REMARK SMILES C=CC[C@H](C)C(=O)CC
REMARK SMILES IDX 4 1 5 2 6 3 7 4 8 5 9 6 3 7 2 8 1 9
REMARK H PARENT
REMARK Flexibility Score: inf
ROOT
ATOM      1  C   UNL     1      -9.957  19.087   5.101  1.00  0.00     0.057 C 
ATOM      2  C   UNL     1      -8.918  19.787   4.219  1.00  0.00     0.016 C 
ENDROOT
BRANCH   1   3
ATOM      3  C   UNL     1      -9.287  18.002   5.921  1.00  0.00     0.135 C 
ATOM      4  O   UNL     1      -8.403  17.322   5.420  1.00  0.00    -0.299 OA
BRANCH   3   5
ATOM      5  C   UNL     1      -9.676  17.758   7.356  1.00  0.00     0.072 C 
ATOM      6  C   UNL     1      -9.949  19.072   8.081  1.00  0.00     0.012 C 
ENDBRANCH   3   5
ENDBRANCH   1   3
BRANCH   1   7
ATOM      7  C   UNL     1     -11.099  18.513   4.240  1.00  0.00     0.038 C 
BRANCH   7   8
ATOM      8  C   UNL     1     -12.413  19.178   4.557  1.00  0.00    -0.034 C 
ATOM      9  C   UNL     1     -12.594  19.882   5.679  1.00  0.00     0.004 C 
ENDBRANCH   7   8
ENDBRANCH   1   7
TORSDOF 4
ENDMDL
MODEL 6
REMARK VINA RESULT:    -3.791      1.047      2.521
REMARK INTER + INTRA:          -5.174
REMARK INTER:                  -4.748
REMARK INTRA:                  -0.426
REMARK UNBOUND:                -0.496
REMARK SMILES C=CC[C@H](C)C(=O)CC
REMARK SMILES IDX 4 1 5 2 6 3 7 4 8 5 9 6 3 7 2 8 1 9
REMARK H PARENT
REMARK Flexibility Score: inf
ROOT
ATOM      1  C   UNL     1      -9.543  19.384   7.044  1.00  0.00     0.057 C 
ATOM      2  C   UNL     1     -10.053  18.926   8.415  1.00  0.00     0.016 C 
ENDROOT
BRANCH   1   3
ATOM      3  C   UNL     1     -10.579  20.269   6.380  1.00  0.00     0.135 C 
ATOM      4  O   UNL     1     -10.270  21.394   6.013  1.00  0.00    -0.299 OA
BRANCH   3   5
ATOM      5  C   UNL     1     -11.984  19.780   6.143  1.00  0.00     0.072 C 
ATOM      6  C   UNL     1     -12.219  19.486   4.665  1.00  0.00     0.012 C 
ENDBRANCH   3   5
ENDBRANCH   1   3
BRANCH   1   7
ATOM      7  C   UNL     1      -9.195  18.169   6.163  1.00  0.00     0.038 C 
BRANCH   7   8
ATOM      8  C   UNL     1      -9.808  16.905   6.704  1.00  0.00    -0.034 C 
ATOM      9  C   UNL     1     -10.540  16.091   5.937  1.00  0.00     0.004 C 
ENDBRANCH   7   8
ENDBRANCH   1   7
TORSDOF 4
ENDMDL
MODEL 7
REMARK VINA RESULT:    -3.672      4.895      6.808
REMARK INTER + INTRA:          -5.027
REMARK INTER:                  -4.601
REMARK INTRA:                  -0.427
REMARK UNBOUND:                -0.496
REMARK SMILES C=CC[C@H](C)C(=O)CC
REMARK SMILES IDX 4 1 5 2 6 3 7 4 8 5 9 6 3 7 2 8 1 9
REMARK H PARENT
REMARK Flexibility Score: inf
ROOT
ATOM      1  C   UNL     1      -9.918  17.474  12.676  1.00  0.00     0.057 C 
ATOM      2  C   UNL     1      -9.140  17.627  13.987  1.00  0.00     0.016 C 
ENDROOT
BRANCH   1   3
ATOM      3  C   UNL     1      -9.598  18.632  11.751  1.00  0.00     0.135 C 
ATOM      4  O   UNL     1      -8.960  19.586  12.173  1.00  0.00    -0.299 OA
BRANCH   3   5
ATOM      5  C   UNL     1     -10.034  18.621  10.309  1.00  0.00     0.072 C 
ATOM      6  C   UNL     1      -9.327  17.515   9.532  1.00  0.00     0.012 C 
ENDBRANCH   3   5
ENDBRANCH   1   3
BRANCH   1   7
ATOM      7  C   UNL     1     -11.431  17.381  12.953  1.00  0.00     0.038 C 
BRANCH   7   8
ATOM      8  C   UNL     1     -11.925  15.964  12.831  1.00  0.00    -0.034 C 
ATOM      9  C   UNL     1     -11.298  15.061  12.070  1.00  0.00     0.004 C 
ENDBRANCH   7   8
ENDBRANCH   1   7
TORSDOF 4
ENDMDL
MODEL 8
REMARK VINA RESULT:    -3.664      1.407      3.305
REMARK INTER + INTRA:          -5.017
REMARK INTER:                  -4.727
REMARK INTRA:                  -0.290
REMARK UNBOUND:                -0.496
REMARK SMILES C=CC[C@H](C)C(=O)CC
REMARK SMILES IDX 4 1 5 2 6 3 7 4 8 5 9 6 3 7 2 8 1 9
REMARK H PARENT
REMARK Flexibility Score: inf
ROOT
ATOM      1  C   UNL     1      -9.412  19.585   6.296  1.00  0.00     0.057 C 
ATOM      2  C   UNL     1      -9.674  21.003   6.813  1.00  0.00     0.016 C 
ENDROOT
BRANCH   1   3
ATOM      3  C   UNL     1      -9.970  19.438   4.895  1.00  0.00     0.135 C 
ATOM      4  O   UNL     1      -9.467  20.064   3.973  1.00  0.00    -0.299 OA
BRANCH   3   5
ATOM      5  C   UNL     1     -11.126  18.514   4.609  1.00  0.00     0.072 C 
ATOM      6  C   UNL     1     -12.442  19.281   4.563  1.00  0.00     0.012 C 
ENDBRANCH   3   5
ENDBRANCH   1   3
BRANCH   1   7
ATOM      7  C   UNL     1     -10.018  18.540   7.254  1.00  0.00     0.038 C 
BRANCH   7   8
ATOM      8  C   UNL     1     -10.094  19.065   8.663  1.00  0.00    -0.034 C 
ATOM      9  C   UNL     1      -9.745  18.317   9.714  1.00  0.00     0.004 C 
ENDBRANCH   7   8
ENDBRANCH   1   7
TORSDOF 4
ENDMDL
MODEL 9
REMARK VINA RESULT:    -3.631      5.424      6.939
REMARK INTER + INTRA:          -4.976
REMARK INTER:                  -4.616
REMARK INTRA:                  -0.360
REMARK UNBOUND:                -0.496
REMARK SMILES C=CC[C@H](C)C(=O)CC
REMARK SMILES IDX 4 1 5 2 6 3 7 4 8 5 9 6 3 7 2 8 1 9
REMARK H PARENT
REMARK Flexibility Score: inf
ROOT
ATOM      1  C   UNL     1     -10.351  18.753  12.141  1.00  0.00     0.057 C 
ATOM      2  C   UNL     1     -10.017  18.325  10.708  1.00  0.00     0.016 C 
ENDROOT
BRANCH   1   3
ATOM      3  C   UNL     1      -9.077  19.117  12.878  1.00  0.00     0.135 C 
ATOM      4  O   UNL     1      -8.513  20.173  12.628  1.00  0.00    -0.299 OA
BRANCH   3   5
ATOM      5  C   UNL     1      -8.500  18.210  13.933  1.00  0.00     0.072 C 
ATOM      6  C   UNL     1      -7.344  17.386  13.375  1.00  0.00     0.012 C 
ENDBRANCH   3   5
ENDBRANCH   1   3
BRANCH   1   7
ATOM      7  C   UNL     1     -11.123  17.638  12.873  1.00  0.00     0.038 C 
BRANCH   7   8
ATOM      8  C   UNL     1     -10.982  16.317  12.165  1.00  0.00    -0.034 C 
ATOM      9  C   UNL     1     -11.677  15.238  12.539  1.00  0.00     0.004 C 
ENDBRANCH   7   8
ENDBRANCH   1   7
TORSDOF 4
ENDMDL
