MODEL 1
REMARK VINA RESULT:    -6.779      0.000      0.000
REMARK INTER + INTRA:         -13.183
REMARK INTER:                 -11.139
REMARK INTRA:                  -2.044
REMARK UNBOUND:                -2.044
REMARK SMILES C[C@H]1O[C@@H](OC[C@@H]2O[C@@H](Oc3c(-c4ccc(O)c(O)c4)oc4cc(O)cc(O)c4c3=O)[C@@H](O)[C@H](O)[C@H]2O)[C@@H](O)[C@@H](O)[C@@H]1O
REMARK SMILES IDX 7 1 36 2 34 3 32 4 9 5 8 6 6 7 5 8 4 9 1 10 2 11 42 12 3 13
REMARK SMILES IDX 40 14 38 15 43 16 41 18 39 20 37 22 35 24 10 26 11 27 12 28
REMARK SMILES IDX 30 29 21 30 29 31 31 32 22 33 27 34 23 35 26 36 24 37 13 38
REMARK SMILES IDX 20 39 14 40 18 41 15 42 16 43 19 44 17 46 28 48 25 50 33 52
REMARK H PARENT 43 17 41 19 39 21 37 23 35 25 19 45 17 47 28 49 25 51 33 53
REMARK Flexibility Score: inf
ROOT
ATOM      1  C   UNL     1     -46.246  -0.275  75.004  1.00  0.00     0.180 C 
ATOM      2  C   UNL     1     -44.791   0.181  74.581  1.00  0.00     0.177 C 
ATOM      3  C   UNL     1     -44.662   1.703  74.293  1.00  0.00     0.180 C 
ATOM      4  C   UNL     1     -45.976   2.320  73.738  1.00  0.00     0.214 C 
ATOM      5  C   UNL     1     -46.959   1.219  73.318  1.00  0.00     0.339 C 
ATOM      6  O   UNL     1     -47.341   0.449  74.435  1.00  0.00    -0.332 OA
ENDROOT
BRANCH   1   7
ATOM      7  C   UNL     1     -46.462  -1.801  74.775  1.00  0.00     0.198 C 
BRANCH   7   8
ATOM      8  O   UNL     1     -45.339  -2.404  74.158  1.00  0.00    -0.347 OA
BRANCH   8   9
ATOM      9  C   UNL     1     -45.107  -3.719  74.646  1.00  0.00     0.281 C 
ATOM     10  C   UNL     1     -46.099  -5.116  77.893  1.00  0.00     0.041 C 
ATOM     11  C   UNL     1     -45.569  -5.111  76.458  1.00  0.00     0.150 C 
ATOM     12  C   UNL     1     -44.150  -5.762  76.385  1.00  0.00     0.174 C 
ATOM     13  O   UNL     1     -45.550  -3.770  75.992  1.00  0.00    -0.344 OA
ATOM     14  C   UNL     1     -43.090  -4.778  75.837  1.00  0.00     0.179 C 
ATOM     15  C   UNL     1     -43.596  -4.080  74.553  1.00  0.00     0.202 C 
BRANCH  12  16
ATOM     16  O   UNL     1     -44.177  -6.938  75.615  1.00  0.00    -0.388 OA
ATOM     17  H   UNL     1     -44.436  -6.696  74.686  1.00  0.00     0.211 HD
ENDBRANCH  12  16
BRANCH  14  18
ATOM     18  O   UNL     1     -42.803  -3.823  76.832  1.00  0.00    -0.387 OA
ATOM     19  H   UNL     1     -43.479  -3.106  76.751  1.00  0.00     0.211 HD
ENDBRANCH  14  18
BRANCH  15  20
ATOM     20  O   UNL     1     -42.789  -2.970  74.236  1.00  0.00    -0.385 OA
ATOM     21  H   UNL     1     -43.147  -2.186  74.733  1.00  0.00     0.211 HD
ENDBRANCH  15  20
ENDBRANCH   8   9
ENDBRANCH   7   8
ENDBRANCH   1   7
BRANCH   2  22
ATOM     22  O   UNL     1     -43.856  -0.173  75.572  1.00  0.00    -0.387 OA
ATOM     23  H   UNL     1     -43.534   0.661  76.000  1.00  0.00     0.211 HD
ENDBRANCH   2  22
BRANCH   3  24
ATOM     24  O   UNL     1     -43.625   1.892  73.366  1.00  0.00    -0.387 OA
ATOM     25  H   UNL     1     -43.658   2.833  73.051  1.00  0.00     0.211 HD
ENDBRANCH   3  24
BRANCH   5  26
ATOM     26  O   UNL     1     -48.103   1.722  72.627  1.00  0.00    -0.454 OA
BRANCH  26  27
ATOM     27  C   UNL     1     -48.309   1.843  71.239  1.00  0.00     0.214 A 
ATOM     28  C   UNL     1     -48.255   3.132  70.679  1.00  0.00     0.180 A 
ATOM     29  C   UNL     1     -48.501   0.745  70.373  1.00  0.00     0.239 A 
ATOM     30  O   UNL     1     -48.387   3.304  69.366  1.00  0.00    -0.452 OA
ATOM     31  C   UNL     1     -48.699   0.971  68.996  1.00  0.00     0.111 A 
ATOM     32  O   UNL     1     -48.444  -0.424  70.827  1.00  0.00    -0.285 OA
ATOM     33  C   UNL     1     -48.601   2.301  68.524  1.00  0.00     0.146 A 
ATOM     34  C   UNL     1     -48.969  -0.063  68.074  1.00  0.00     0.134 A 
ATOM     35  C   UNL     1     -48.738   2.579  67.159  1.00  0.00     0.094 A 
ATOM     36  C   UNL     1     -49.072   0.230  66.707  1.00  0.00     0.093 A 
ATOM     37  C   UNL     1     -48.957   1.543  66.250  1.00  0.00     0.123 A 
BRANCH  28  38
ATOM     38  C   UNL     1     -48.047   4.307  71.539  1.00  0.00     0.025 A 
ATOM     39  C   UNL     1     -46.904   5.112  71.374  1.00  0.00     0.062 A 
ATOM     40  C   UNL     1     -49.024   4.678  72.474  1.00  0.00     0.016 A 
ATOM     41  C   UNL     1     -46.739   6.277  72.128  1.00  0.00     0.158 A 
ATOM     42  C   UNL     1     -48.868   5.845  73.227  1.00  0.00     0.051 A 
ATOM     43  C   UNL     1     -47.739   6.657  73.048  1.00  0.00     0.157 A 
BRANCH  41  44
ATOM     44  O   UNL     1     -45.578   7.030  71.958  1.00  0.00    -0.504 OA
ATOM     45  H   UNL     1     -44.784   6.664  71.447  1.00  0.00     0.293 HD
ENDBRANCH  41  44
BRANCH  43  46
ATOM     46  O   UNL     1     -47.592   7.837  73.783  1.00  0.00    -0.504 OA
ATOM     47  H   UNL     1     -48.383   8.281  74.228  1.00  0.00     0.293 HD
ENDBRANCH  43  46
ENDBRANCH  28  38
BRANCH  34  48
ATOM     48  O   UNL     1     -49.124  -1.386  68.505  1.00  0.00    -0.507 OA
ATOM     49  H   UNL     1     -48.441  -2.097  68.281  1.00  0.00     0.293 HD
ENDBRANCH  34  48
BRANCH  37  50
ATOM     50  O   UNL     1     -49.047   1.820  64.887  1.00  0.00    -0.508 OA
ATOM     51  H   UNL     1     -48.467   2.533  64.458  1.00  0.00     0.293 HD
ENDBRANCH  37  50
ENDBRANCH  26  27
ENDBRANCH   5  26
BRANCH   4  52
ATOM     52  O   UNL     1     -46.563   3.171  74.702  1.00  0.00    -0.384 OA
ATOM     53  H   UNL     1     -47.295   2.677  75.145  1.00  0.00     0.211 HD
ENDBRANCH   4  52
TORSDOF 16
ENDMDL
MODEL 2
REMARK VINA RESULT:    -6.427      1.493      2.065
REMARK INTER + INTRA:         -12.604
REMARK INTER:                 -11.018
REMARK INTRA:                  -1.586
REMARK UNBOUND:                -2.044
REMARK SMILES C[C@H]1O[C@@H](OC[C@@H]2O[C@@H](Oc3c(-c4ccc(O)c(O)c4)oc4cc(O)cc(O)c4c3=O)[C@@H](O)[C@H](O)[C@H]2O)[C@@H](O)[C@@H](O)[C@@H]1O
REMARK SMILES IDX 7 1 36 2 34 3 32 4 9 5 8 6 6 7 5 8 4 9 1 10 2 11 42 12 3 13
REMARK SMILES IDX 40 14 38 15 43 16 41 18 39 20 37 22 35 24 10 26 11 27 12 28
REMARK SMILES IDX 30 29 21 30 29 31 31 32 22 33 27 34 23 35 26 36 24 37 13 38
REMARK SMILES IDX 20 39 14 40 18 41 15 42 16 43 19 44 17 46 28 48 25 50 33 52
REMARK H PARENT 43 17 41 19 39 21 37 23 35 25 19 45 17 47 28 49 25 51 33 53
REMARK Flexibility Score: inf
ROOT
ATOM      1  C   UNL     1     -46.513   0.088  74.489  1.00  0.00     0.180 C 
ATOM      2  C   UNL     1     -45.062   0.712  74.404  1.00  0.00     0.177 C 
ATOM      3  C   UNL     1     -45.045   2.258  74.241  1.00  0.00     0.180 C 
ATOM      4  C   UNL     1     -46.281   2.791  73.465  1.00  0.00     0.214 C 
ATOM      5  C   UNL     1     -47.035   1.640  72.785  1.00  0.00     0.339 C 
ATOM      6  O   UNL     1     -47.546   0.750  73.751  1.00  0.00    -0.332 OA
ENDROOT
BRANCH   1   7
ATOM      7  C   UNL     1     -46.513  -1.428  74.129  1.00  0.00     0.198 C 
BRANCH   7   8
ATOM      8  O   UNL     1     -47.165  -2.203  75.119  1.00  0.00    -0.347 OA
BRANCH   8   9
ATOM      9  C   UNL     1     -46.367  -3.299  75.547  1.00  0.00     0.281 C 
ATOM     10  C   UNL     1     -42.834  -3.938  74.780  1.00  0.00     0.041 C 
ATOM     11  C   UNL     1     -44.187  -4.120  75.472  1.00  0.00     0.150 C 
ATOM     12  C   UNL     1     -44.691  -5.591  75.331  1.00  0.00     0.174 C 
ATOM     13  O   UNL     1     -45.107  -3.198  74.906  1.00  0.00    -0.344 OA
ATOM     14  C   UNL     1     -46.054  -5.669  74.604  1.00  0.00     0.179 C 
ATOM     15  C   UNL     1     -47.055  -4.649  75.196  1.00  0.00     0.202 C 
BRANCH  12  16
ATOM     16  O   UNL     1     -44.767  -6.218  76.587  1.00  0.00    -0.388 OA
ATOM     17  H   UNL     1     -45.708  -6.166  76.905  1.00  0.00     0.211 HD
ENDBRANCH  12  16
BRANCH  14  18
ATOM     18  O   UNL     1     -45.849  -5.414  73.233  1.00  0.00    -0.387 OA
ATOM     19  H   UNL     1     -45.699  -4.441  73.137  1.00  0.00     0.211 HD
ENDBRANCH  14  18
BRANCH  15  20
ATOM     20  O   UNL     1     -48.167  -4.489  74.346  1.00  0.00    -0.385 OA
ATOM     21  H   UNL     1     -48.600  -5.378  74.247  1.00  0.00     0.211 HD
ENDBRANCH  15  20
ENDBRANCH   8   9
ENDBRANCH   7   8
ENDBRANCH   1   7
BRANCH   2  22
ATOM     22  O   UNL     1     -44.310   0.369  75.543  1.00  0.00    -0.387 OA
ATOM     23  H   UNL     1     -44.299   1.153  76.150  1.00  0.00     0.211 HD
ENDBRANCH   2  22
BRANCH   3  24
ATOM     24  O   UNL     1     -43.870   2.619  73.561  1.00  0.00    -0.387 OA
ATOM     25  H   UNL     1     -43.946   2.303  72.623  1.00  0.00     0.211 HD
ENDBRANCH   3  24
BRANCH   5  26
ATOM     26  O   UNL     1     -48.066   2.088  71.905  1.00  0.00    -0.454 OA
BRANCH  26  27
ATOM     27  C   UNL     1     -48.294   1.729  70.563  1.00  0.00     0.214 A 
ATOM     28  C   UNL     1     -48.257   2.750  69.596  1.00  0.00     0.180 A 
ATOM     29  C   UNL     1     -48.491   0.401  70.125  1.00  0.00     0.239 A 
ATOM     30  O   UNL     1     -48.409   2.464  68.305  1.00  0.00    -0.452 OA
ATOM     31  C   UNL     1     -48.711   0.144  68.757  1.00  0.00     0.111 A 
ATOM     32  O   UNL     1     -48.418  -0.544  70.949  1.00  0.00    -0.285 OA
ATOM     33  C   UNL     1     -48.629   1.234  67.859  1.00  0.00     0.146 A 
ATOM     34  C   UNL     1     -48.987  -1.143  68.246  1.00  0.00     0.134 A 
ATOM     35  C   UNL     1     -48.787   1.030  66.483  1.00  0.00     0.094 A 
ATOM     36  C   UNL     1     -49.112  -1.333  66.863  1.00  0.00     0.093 A 
ATOM     37  C   UNL     1     -49.013  -0.253  65.984  1.00  0.00     0.123 A 
BRANCH  28  38
ATOM     38  C   UNL     1     -48.045   4.147  70.001  1.00  0.00     0.025 A 
ATOM     39  C   UNL     1     -46.805   4.772  69.770  1.00  0.00     0.062 A 
ATOM     40  C   UNL     1     -49.101   4.891  70.548  1.00  0.00     0.016 A 
ATOM     41  C   UNL     1     -46.620   6.124  70.074  1.00  0.00     0.158 A 
ATOM     42  C   UNL     1     -48.924   6.245  70.849  1.00  0.00     0.051 A 
ATOM     43  C   UNL     1     -47.695   6.871  70.599  1.00  0.00     0.157 A 
BRANCH  41  44
ATOM     44  O   UNL     1     -45.367   6.696  69.859  1.00  0.00    -0.504 OA
ATOM     45  H   UNL     1     -44.890   6.601  68.971  1.00  0.00     0.293 HD
ENDBRANCH  41  44
BRANCH  43  46
ATOM     46  O   UNL     1     -47.524   8.230  70.876  1.00  0.00    -0.504 OA
ATOM     47  H   UNL     1     -47.237   8.548  71.791  1.00  0.00     0.293 HD
ENDBRANCH  43  46
ENDBRANCH  28  38
BRANCH  34  48
ATOM     48  O   UNL     1     -49.125  -2.240  69.105  1.00  0.00    -0.507 OA
ATOM     49  H   UNL     1     -48.903  -3.178  68.801  1.00  0.00     0.293 HD
ENDBRANCH  34  48
BRANCH  37  50
ATOM     50  O   UNL     1     -49.124  -0.457  64.611  1.00  0.00    -0.508 OA
ATOM     51  H   UNL     1     -50.032  -0.482  64.157  1.00  0.00     0.293 HD
ENDBRANCH  37  50
ENDBRANCH  26  27
ENDBRANCH   5  26
BRANCH   4  52
ATOM     52  O   UNL     1     -47.138   3.502  74.337  1.00  0.00    -0.384 OA
ATOM     53  H   UNL     1     -47.176   3.016  75.197  1.00  0.00     0.211 HD
ENDBRANCH   4  52
TORSDOF 16
ENDMDL
MODEL 3
REMARK VINA RESULT:    -6.416     11.039     14.663
REMARK INTER + INTRA:         -12.587
REMARK INTER:                 -10.083
REMARK INTRA:                  -2.504
REMARK UNBOUND:                -2.044
REMARK SMILES C[C@H]1O[C@@H](OC[C@@H]2O[C@@H](Oc3c(-c4ccc(O)c(O)c4)oc4cc(O)cc(O)c4c3=O)[C@@H](O)[C@H](O)[C@H]2O)[C@@H](O)[C@@H](O)[C@@H]1O
REMARK SMILES IDX 7 1 36 2 34 3 32 4 9 5 8 6 6 7 5 8 4 9 1 10 2 11 42 12 3 13
REMARK SMILES IDX 40 14 38 15 43 16 41 18 39 20 37 22 35 24 10 26 11 27 12 28
REMARK SMILES IDX 30 29 21 30 29 31 31 32 22 33 27 34 23 35 26 36 24 37 13 38
REMARK SMILES IDX 20 39 14 40 18 41 15 42 16 43 19 44 17 46 28 48 25 50 33 52
REMARK H PARENT 43 17 41 19 39 21 37 23 35 25 19 45 17 47 28 49 25 51 33 53
REMARK Flexibility Score: inf
ROOT
ATOM      1  C   UNL     1     -35.048   3.995  80.516  1.00  0.00     0.180 C 
ATOM      2  C   UNL     1     -34.763   4.201  82.058  1.00  0.00     0.177 C 
ATOM      3  C   UNL     1     -36.002   3.975  82.969  1.00  0.00     0.180 C 
ATOM      4  C   UNL     1     -37.337   4.340  82.263  1.00  0.00     0.214 C 
ATOM      5  C   UNL     1     -37.073   5.126  80.971  1.00  0.00     0.339 C 
ATOM      6  O   UNL     1     -36.360   4.331  80.051  1.00  0.00    -0.332 OA
ENDROOT
BRANCH   1   7
ATOM      7  C   UNL     1     -33.988   4.713  79.630  1.00  0.00     0.198 C 
BRANCH   7   8
ATOM      8  O   UNL     1     -34.306   6.080  79.432  1.00  0.00    -0.347 OA
BRANCH   8   9
ATOM      9  C   UNL     1     -33.443   6.938  80.165  1.00  0.00     0.281 C 
ATOM     10  C   UNL     1     -34.047   8.454  83.454  1.00  0.00     0.041 C 
ATOM     11  C   UNL     1     -33.258   8.043  82.210  1.00  0.00     0.150 C 
ATOM     12  C   UNL     1     -32.592   9.285  81.537  1.00  0.00     0.174 C 
ATOM     13  O   UNL     1     -34.141   7.379  81.318  1.00  0.00    -0.344 OA
ATOM     14  C   UNL     1     -33.072   9.480  80.079  1.00  0.00     0.179 C 
ATOM     15  C   UNL     1     -33.006   8.150  79.293  1.00  0.00     0.202 C 
BRANCH  12  16
ATOM     16  O   UNL     1     -31.190   9.190  81.585  1.00  0.00    -0.388 OA
ATOM     17  H   UNL     1     -30.942   8.228  81.567  1.00  0.00     0.211 HD
ENDBRANCH  12  16
BRANCH  14  18
ATOM     18  O   UNL     1     -34.393   9.971  80.101  1.00  0.00    -0.387 OA
ATOM     19  H   UNL     1     -34.980   9.212  80.339  1.00  0.00     0.211 HD
ENDBRANCH  14  18
BRANCH  15  20
ATOM     20  O   UNL     1     -33.730   8.245  78.088  1.00  0.00    -0.385 OA
ATOM     21  H   UNL     1     -34.377   8.994  78.184  1.00  0.00     0.211 HD
ENDBRANCH  15  20
ENDBRANCH   8   9
ENDBRANCH   7   8
ENDBRANCH   1   7
BRANCH   2  22
ATOM     22  O   UNL     1     -33.726   3.350  82.485  1.00  0.00    -0.387 OA
ATOM     23  H   UNL     1     -32.942   3.913  82.712  1.00  0.00     0.211 HD
ENDBRANCH   2  22
BRANCH   3  24
ATOM     24  O   UNL     1     -35.851   4.758  84.125  1.00  0.00    -0.387 OA
ATOM     25  H   UNL     1     -35.436   5.621  83.863  1.00  0.00     0.211 HD
ENDBRANCH   3  24
BRANCH   5  26
ATOM     26  O   UNL     1     -38.262   5.651  80.381  1.00  0.00    -0.454 OA
BRANCH  26  27
ATOM     27  C   UNL     1     -38.404   6.372  79.180  1.00  0.00     0.214 A 
ATOM     28  C   UNL     1     -39.404   5.958  78.281  1.00  0.00     0.180 A 
ATOM     29  C   UNL     1     -37.648   7.520  78.857  1.00  0.00     0.239 A 
ATOM     30  O   UNL     1     -39.622   6.633  77.156  1.00  0.00    -0.452 OA
ATOM     31  C   UNL     1     -37.866   8.174  77.627  1.00  0.00     0.111 A 
ATOM     32  O   UNL     1     -36.826   7.979  79.688  1.00  0.00    -0.285 OA
ATOM     33  C   UNL     1     -38.912   7.697  76.803  1.00  0.00     0.146 A 
ATOM     34  C   UNL     1     -37.106   9.283  77.196  1.00  0.00     0.134 A 
ATOM     35  C   UNL     1     -39.207   8.339  75.594  1.00  0.00     0.094 A 
ATOM     36  C   UNL     1     -37.436   9.931  75.998  1.00  0.00     0.093 A 
ATOM     37  C   UNL     1     -38.481   9.463  75.200  1.00  0.00     0.123 A 
BRANCH  28  38
ATOM     38  C   UNL     1     -40.223   4.774  78.578  1.00  0.00     0.025 A 
ATOM     39  C   UNL     1     -41.081   4.768  79.693  1.00  0.00     0.062 A 
ATOM     40  C   UNL     1     -40.214   3.674  77.707  1.00  0.00     0.016 A 
ATOM     41  C   UNL     1     -41.927   3.681  79.935  1.00  0.00     0.158 A 
ATOM     42  C   UNL     1     -41.061   2.587  77.941  1.00  0.00     0.051 A 
ATOM     43  C   UNL     1     -41.931   2.591  79.041  1.00  0.00     0.157 A 
BRANCH  41  44
ATOM     44  O   UNL     1     -42.738   3.700  81.069  1.00  0.00    -0.504 OA
ATOM     45  H   UNL     1     -42.956   4.566  81.547  1.00  0.00     0.293 HD
ENDBRANCH  41  44
BRANCH  43  46
ATOM     46  O   UNL     1     -42.795   1.516  79.263  1.00  0.00    -0.504 OA
ATOM     47  H   UNL     1     -43.793   1.607  79.134  1.00  0.00     0.293 HD
ENDBRANCH  43  46
ENDBRANCH  28  38
BRANCH  34  48
ATOM     48  O   UNL     1     -36.031   9.755  77.958  1.00  0.00    -0.507 OA
ATOM     49  H   UNL     1     -35.812  10.741  78.007  1.00  0.00     0.293 HD
ENDBRANCH  34  48
BRANCH  37  50
ATOM     50  O   UNL     1     -38.808  10.125  74.018  1.00  0.00    -0.508 OA
ATOM     51  H   UNL     1     -38.473   9.792  73.120  1.00  0.00     0.293 HD
ENDBRANCH  37  50
ENDBRANCH  26  27
ENDBRANCH   5  26
BRANCH   4  52
ATOM     52  O   UNL     1     -38.084   3.171  81.992  1.00  0.00    -0.384 OA
ATOM     53  H   UNL     1     -37.471   2.397  82.033  1.00  0.00     0.211 HD
ENDBRANCH   4  52
TORSDOF 16
ENDMDL
MODEL 4
REMARK VINA RESULT:    -6.098      8.017     12.273
REMARK INTER + INTRA:         -12.063
REMARK INTER:                 -10.798
REMARK INTRA:                  -1.265
REMARK UNBOUND:                -2.044
REMARK SMILES C[C@H]1O[C@@H](OC[C@@H]2O[C@@H](Oc3c(-c4ccc(O)c(O)c4)oc4cc(O)cc(O)c4c3=O)[C@@H](O)[C@H](O)[C@H]2O)[C@@H](O)[C@@H](O)[C@@H]1O
REMARK SMILES IDX 7 1 36 2 34 3 32 4 9 5 8 6 6 7 5 8 4 9 1 10 2 11 42 12 3 13
REMARK SMILES IDX 40 14 38 15 43 16 41 18 39 20 37 22 35 24 10 26 11 27 12 28
REMARK SMILES IDX 30 29 21 30 29 31 31 32 22 33 27 34 23 35 26 36 24 37 13 38
REMARK SMILES IDX 20 39 14 40 18 41 15 42 16 43 19 44 17 46 28 48 25 50 33 52
REMARK H PARENT 43 17 41 19 39 21 37 23 35 25 19 45 17 47 28 49 25 51 33 53
REMARK Flexibility Score: inf
ROOT
ATOM      1  C   UNL     1     -42.319   3.303  77.791  1.00  0.00     0.180 C 
ATOM      2  C   UNL     1     -42.647   2.651  79.195  1.00  0.00     0.177 C 
ATOM      3  C   UNL     1     -42.107   3.456  80.410  1.00  0.00     0.180 C 
ATOM      4  C   UNL     1     -40.801   4.232  80.081  1.00  0.00     0.214 C 
ATOM      5  C   UNL     1     -40.206   3.755  78.748  1.00  0.00     0.339 C 
ATOM      6  O   UNL     1     -41.093   4.033  77.688  1.00  0.00    -0.332 OA
ENDROOT
BRANCH   1   7
ATOM      7  C   UNL     1     -42.396   2.259  76.638  1.00  0.00     0.198 C 
BRANCH   7   8
ATOM      8  O   UNL     1     -43.673   1.650  76.564  1.00  0.00    -0.347 OA
BRANCH   8   9
ATOM      9  C   UNL     1     -44.302   1.882  75.311  1.00  0.00     0.281 C 
ATOM     10  C   UNL     1     -47.606   3.356  74.695  1.00  0.00     0.041 C 
ATOM     11  C   UNL     1     -46.212   2.823  74.363  1.00  0.00     0.150 C 
ATOM     12  C   UNL     1     -46.287   1.702  73.277  1.00  0.00     0.174 C 
ATOM     13  O   UNL     1     -45.617   2.347  75.561  1.00  0.00    -0.344 OA
ATOM     14  C   UNL     1     -45.707   0.362  73.787  1.00  0.00     0.179 C 
ATOM     15  C   UNL     1     -44.333   0.577  74.464  1.00  0.00     0.202 C 
BRANCH  12  16
ATOM     16  O   UNL     1     -45.637   2.102  72.097  1.00  0.00    -0.388 OA
ATOM     17  H   UNL     1     -44.909   2.733  72.341  1.00  0.00     0.211 HD
ENDBRANCH  12  16
BRANCH  14  18
ATOM     18  O   UNL     1     -46.619  -0.206  74.700  1.00  0.00    -0.387 OA
ATOM     19  H   UNL     1     -46.235  -1.067  74.997  1.00  0.00     0.211 HD
ENDBRANCH  14  18
BRANCH  15  20
ATOM     20  O   UNL     1     -43.956  -0.562  75.202  1.00  0.00    -0.385 OA
ATOM     21  H   UNL     1     -43.253  -0.283  75.847  1.00  0.00     0.211 HD
ENDBRANCH  15  20
ENDBRANCH   8   9
ENDBRANCH   7   8
ENDBRANCH   1   7
BRANCH   2  22
ATOM     22  O   UNL     1     -44.036   2.480  79.347  1.00  0.00    -0.387 OA
ATOM     23  H   UNL     1     -44.462   2.646  78.467  1.00  0.00     0.211 HD
ENDBRANCH   2  22
BRANCH   3  24
ATOM     24  O   UNL     1     -41.870   2.561  81.466  1.00  0.00    -0.387 OA
ATOM     25  H   UNL     1     -41.873   1.639  81.097  1.00  0.00     0.211 HD
ENDBRANCH   3  24
BRANCH   5  26
ATOM     26  O   UNL     1     -38.911   4.294  78.488  1.00  0.00    -0.454 OA
BRANCH  26  27
ATOM     27  C   UNL     1     -38.038   4.954  79.374  1.00  0.00     0.214 A 
ATOM     28  C   UNL     1     -37.877   6.343  79.222  1.00  0.00     0.180 A 
ATOM     29  C   UNL     1     -37.371   4.317  80.443  1.00  0.00     0.239 A 
ATOM     30  O   UNL     1     -37.109   7.030  80.064  1.00  0.00    -0.452 OA
ATOM     31  C   UNL     1     -36.517   5.066  81.277  1.00  0.00     0.111 A 
ATOM     32  O   UNL     1     -37.582   3.101  80.672  1.00  0.00    -0.285 OA
ATOM     33  C   UNL     1     -36.441   6.462  81.060  1.00  0.00     0.146 A 
ATOM     34  C   UNL     1     -35.758   4.494  82.321  1.00  0.00     0.134 A 
ATOM     35  C   UNL     1     -35.649   7.264  81.890  1.00  0.00     0.094 A 
ATOM     36  C   UNL     1     -34.996   5.317  83.161  1.00  0.00     0.093 A 
ATOM     37  C   UNL     1     -34.940   6.695  82.949  1.00  0.00     0.123 A 
BRANCH  28  38
ATOM     38  C   UNL     1     -38.559   7.054  78.131  1.00  0.00     0.025 A 
ATOM     39  C   UNL     1     -39.686   7.853  78.400  1.00  0.00     0.062 A 
ATOM     40  C   UNL     1     -38.044   7.005  76.826  1.00  0.00     0.016 A 
ATOM     41  C   UNL     1     -40.290   8.599  77.385  1.00  0.00     0.158 A 
ATOM     42  C   UNL     1     -38.640   7.753  75.808  1.00  0.00     0.051 A 
ATOM     43  C   UNL     1     -39.751   8.565  76.082  1.00  0.00     0.157 A 
BRANCH  41  44
ATOM     44  O   UNL     1     -41.424   9.352  77.687  1.00  0.00    -0.504 OA
ATOM     45  H   UNL     1     -41.752  10.082  77.066  1.00  0.00     0.293 HD
ENDBRANCH  41  44
BRANCH  43  46
ATOM     46  O   UNL     1     -40.333   9.332  75.070  1.00  0.00    -0.504 OA
ATOM     47  H   UNL     1     -40.435  10.333  75.161  1.00  0.00     0.293 HD
ENDBRANCH  43  46
ENDBRANCH  28  38
BRANCH  34  48
ATOM     48  O   UNL     1     -35.767   3.111  82.538  1.00  0.00    -0.507 OA
ATOM     49  H   UNL     1     -35.429   2.711  83.403  1.00  0.00     0.293 HD
ENDBRANCH  34  48
BRANCH  37  50
ATOM     50  O   UNL     1     -34.190   7.504  83.800  1.00  0.00    -0.508 OA
ATOM     51  H   UNL     1     -34.231   7.386  84.807  1.00  0.00     0.293 HD
ENDBRANCH  37  50
ENDBRANCH  26  27
ENDBRANCH   5  26
BRANCH   4  52
ATOM     52  O   UNL     1     -41.052   5.622  80.046  1.00  0.00    -0.384 OA
ATOM     53  H   UNL     1     -40.188   6.089  79.938  1.00  0.00     0.211 HD
ENDBRANCH   4  52
TORSDOF 16
ENDMDL
MODEL 5
REMARK VINA RESULT:    -5.795      2.935      4.965
REMARK INTER + INTRA:         -11.566
REMARK INTER:                  -9.942
REMARK INTRA:                  -1.624
REMARK UNBOUND:                -2.044
REMARK SMILES C[C@H]1O[C@@H](OC[C@@H]2O[C@@H](Oc3c(-c4ccc(O)c(O)c4)oc4cc(O)cc(O)c4c3=O)[C@@H](O)[C@H](O)[C@H]2O)[C@@H](O)[C@@H](O)[C@@H]1O
REMARK SMILES IDX 7 1 36 2 34 3 32 4 9 5 8 6 6 7 5 8 4 9 1 10 2 11 42 12 3 13
REMARK SMILES IDX 40 14 38 15 43 16 41 18 39 20 37 22 35 24 10 26 11 27 12 28
REMARK SMILES IDX 30 29 21 30 29 31 31 32 22 33 27 34 23 35 26 36 24 37 13 38
REMARK SMILES IDX 20 39 14 40 18 41 15 42 16 43 19 44 17 46 28 48 25 50 33 52
REMARK H PARENT 43 17 41 19 39 21 37 23 35 25 19 45 17 47 28 49 25 51 33 53
REMARK Flexibility Score: inf
ROOT
ATOM      1  C   UNL     1     -45.779  -4.270  76.587  1.00  0.00     0.180 C 
ATOM      2  C   UNL     1     -44.453  -4.450  75.743  1.00  0.00     0.177 C 
ATOM      3  C   UNL     1     -44.091  -3.225  74.859  1.00  0.00     0.180 C 
ATOM      4  C   UNL     1     -45.346  -2.447  74.373  1.00  0.00     0.214 C 
ATOM      5  C   UNL     1     -46.623  -3.263  74.623  1.00  0.00     0.339 C 
ATOM      6  O   UNL     1     -46.811  -3.468  76.004  1.00  0.00    -0.332 OA
ENDROOT
BRANCH   1   7
ATOM      7  C   UNL     1     -46.376  -5.640  77.026  1.00  0.00     0.198 C 
BRANCH   7   8
ATOM      8  O   UNL     1     -45.483  -6.360  77.858  1.00  0.00    -0.347 OA
BRANCH   8   9
ATOM      9  C   UNL     1     -45.247  -5.691  79.090  1.00  0.00     0.281 C 
ATOM     10  C   UNL     1     -42.025  -5.115  80.751  1.00  0.00     0.041 C 
ATOM     11  C   UNL     1     -43.525  -4.975  80.488  1.00  0.00     0.150 C 
ATOM     12  C   UNL     1     -44.350  -5.324  81.768  1.00  0.00     0.174 C 
ATOM     13  O   UNL     1     -43.870  -5.820  79.400  1.00  0.00    -0.344 OA
ATOM     14  C   UNL     1     -45.320  -6.504  81.527  1.00  0.00     0.179 C 
ATOM     15  C   UNL     1     -46.124  -6.301  80.221  1.00  0.00     0.202 C 
BRANCH  12  16
ATOM     16  O   UNL     1     -45.050  -4.198  82.236  1.00  0.00    -0.388 OA
ATOM     17  H   UNL     1     -44.840  -4.080  83.200  1.00  0.00     0.211 HD
ENDBRANCH  12  16
BRANCH  14  18
ATOM     18  O   UNL     1     -44.572  -7.697  81.460  1.00  0.00    -0.387 OA
ATOM     19  H   UNL     1     -44.881  -8.276  82.200  1.00  0.00     0.211 HD
ENDBRANCH  14  18
BRANCH  15  20
ATOM     20  O   UNL     1     -46.759  -7.497  79.834  1.00  0.00    -0.385 OA
ATOM     21  H   UNL     1     -46.392  -8.229  80.397  1.00  0.00     0.211 HD
ENDBRANCH  15  20
ENDBRANCH   8   9
ENDBRANCH   7   8
ENDBRANCH   1   7
BRANCH   2  22
ATOM     22  O   UNL     1     -43.365  -4.734  76.590  1.00  0.00    -0.387 OA
ATOM     23  H   UNL     1     -42.739  -3.966  76.552  1.00  0.00     0.211 HD
ENDBRANCH   2  22
BRANCH   3  24
ATOM     24  O   UNL     1     -43.361  -3.679  73.749  1.00  0.00    -0.387 OA
ATOM     25  H   UNL     1     -43.963  -4.233  73.187  1.00  0.00     0.211 HD
ENDBRANCH   3  24
BRANCH   5  26
ATOM     26  O   UNL     1     -47.783  -2.684  74.027  1.00  0.00    -0.454 OA
BRANCH  26  27
ATOM     27  C   UNL     1     -48.061  -2.477  72.662  1.00  0.00     0.214 A 
ATOM     28  C   UNL     1     -48.038  -1.155  72.182  1.00  0.00     0.180 A 
ATOM     29  C   UNL     1     -48.295  -3.519  71.739  1.00  0.00     0.239 A 
ATOM     30  O   UNL     1     -48.239  -0.901  70.892  1.00  0.00    -0.452 OA
ATOM     31  C   UNL     1     -48.564  -3.208  70.391  1.00  0.00     0.111 A 
ATOM     32  O   UNL     1     -48.211  -4.714  72.115  1.00  0.00    -0.285 OA
ATOM     33  C   UNL     1     -48.493  -1.851  70.000  1.00  0.00     0.146 A 
ATOM     34  C   UNL     1     -48.879  -4.184  69.420  1.00  0.00     0.134 A 
ATOM     35  C   UNL     1     -48.700  -1.488  68.664  1.00  0.00     0.094 A 
ATOM     36  C   UNL     1     -49.052  -3.806  68.082  1.00  0.00     0.093 A 
ATOM     37  C   UNL     1     -48.964  -2.466  67.703  1.00  0.00     0.123 A 
BRANCH  28  38
ATOM     38  C   UNL     1     -47.789  -0.036  73.103  1.00  0.00     0.025 A 
ATOM     39  C   UNL     1     -46.811   0.929  72.798  1.00  0.00     0.062 A 
ATOM     40  C   UNL     1     -48.580   0.122  74.252  1.00  0.00     0.016 A 
ATOM     41  C   UNL     1     -46.625   2.041  73.623  1.00  0.00     0.158 A 
ATOM     42  C   UNL     1     -48.403   1.236  75.077  1.00  0.00     0.051 A 
ATOM     43  C   UNL     1     -47.441   2.206  74.761  1.00  0.00     0.157 A 
BRANCH  41  44
ATOM     44  O   UNL     1     -45.624   2.957  73.303  1.00  0.00    -0.504 OA
ATOM     45  H   UNL     1     -44.645   2.737  73.443  1.00  0.00     0.293 HD
ENDBRANCH  41  44
BRANCH  43  46
ATOM     46  O   UNL     1     -47.279   3.332  75.573  1.00  0.00    -0.504 OA
ATOM     47  H   UNL     1     -47.988   4.050  75.624  1.00  0.00     0.293 HD
ENDBRANCH  43  46
ENDBRANCH  28  38
BRANCH  34  48
ATOM     48  O   UNL     1     -49.007  -5.532  69.775  1.00  0.00    -0.507 OA
ATOM     49  H   UNL     1     -48.609  -6.267  69.206  1.00  0.00     0.293 HD
ENDBRANCH  34  48
BRANCH  37  50
ATOM     50  O   UNL     1     -49.124  -2.104  66.368  1.00  0.00    -0.508 OA
ATOM     51  H   UNL     1     -48.586  -1.346  65.961  1.00  0.00     0.293 HD
ENDBRANCH  37  50
ENDBRANCH  26  27
ENDBRANCH   5  26
BRANCH   4  52
ATOM     52  O   UNL     1     -45.424  -1.191  75.017  1.00  0.00    -0.384 OA
ATOM     53  H   UNL     1     -45.623  -0.505  74.334  1.00  0.00     0.211 HD
ENDBRANCH   4  52
TORSDOF 16
ENDMDL
MODEL 6
REMARK VINA RESULT:    -5.723     10.848     15.214
REMARK INTER + INTRA:         -11.448
REMARK INTER:                  -9.177
REMARK INTRA:                  -2.271
REMARK UNBOUND:                -2.044
REMARK SMILES C[C@H]1O[C@@H](OC[C@@H]2O[C@@H](Oc3c(-c4ccc(O)c(O)c4)oc4cc(O)cc(O)c4c3=O)[C@@H](O)[C@H](O)[C@H]2O)[C@@H](O)[C@@H](O)[C@@H]1O
REMARK SMILES IDX 7 1 36 2 34 3 32 4 9 5 8 6 6 7 5 8 4 9 1 10 2 11 42 12 3 13
REMARK SMILES IDX 40 14 38 15 43 16 41 18 39 20 37 22 35 24 10 26 11 27 12 28
REMARK SMILES IDX 30 29 21 30 29 31 31 32 22 33 27 34 23 35 26 36 24 37 13 38
REMARK SMILES IDX 20 39 14 40 18 41 15 42 16 43 19 44 17 46 28 48 25 50 33 52
REMARK H PARENT 43 17 41 19 39 21 37 23 35 25 19 45 17 47 28 49 25 51 33 53
REMARK Flexibility Score: inf
ROOT
ATOM      1  C   UNL     1     -34.779   8.617  78.110  1.00  0.00     0.180 C 
ATOM      2  C   UNL     1     -33.847   8.944  79.345  1.00  0.00     0.177 C 
ATOM      3  C   UNL     1     -32.954   7.756  79.799  1.00  0.00     0.180 C 
ATOM      4  C   UNL     1     -33.618   6.375  79.537  1.00  0.00     0.214 C 
ATOM      5  C   UNL     1     -35.106   6.543  79.194  1.00  0.00     0.339 C 
ATOM      6  O   UNL     1     -35.253   7.271  77.997  1.00  0.00    -0.332 OA
ENDROOT
BRANCH   1   7
ATOM      7  C   UNL     1     -35.986   9.598  78.020  1.00  0.00     0.198 C 
BRANCH   7   8
ATOM      8  O   UNL     1     -37.198   8.978  78.414  1.00  0.00    -0.347 OA
BRANCH   8   9
ATOM      9  C   UNL     1     -38.275   9.321  77.553  1.00  0.00     0.281 C 
ATOM     10  C   UNL     1     -41.825   9.662  78.423  1.00  0.00     0.041 C 
ATOM     11  C   UNL     1     -40.563   9.765  77.565  1.00  0.00     0.150 C 
ATOM     12  C   UNL     1     -40.762   9.045  76.193  1.00  0.00     0.174 C 
ATOM     13  O   UNL     1     -39.479   9.207  78.292  1.00  0.00    -0.344 OA
ATOM     14  C   UNL     1     -39.738   7.905  75.983  1.00  0.00     0.179 C 
ATOM     15  C   UNL     1     -38.304   8.384  76.311  1.00  0.00     0.202 C 
BRANCH  12  16
ATOM     16  O   UNL     1     -40.701   9.964  75.130  1.00  0.00    -0.388 OA
ATOM     17  H   UNL     1     -39.822   9.858  74.678  1.00  0.00     0.211 HD
ENDBRANCH  12  16
BRANCH  14  18
ATOM     18  O   UNL     1     -40.093   6.822  76.812  1.00  0.00    -0.387 OA
ATOM     19  H   UNL     1     -41.067   6.884  76.970  1.00  0.00     0.211 HD
ENDBRANCH  14  18
BRANCH  15  20
ATOM     20  O   UNL     1     -37.427   7.289  76.433  1.00  0.00    -0.385 OA
ATOM     21  H   UNL     1     -36.507   7.618  76.248  1.00  0.00     0.211 HD
ENDBRANCH  15  20
ENDBRANCH   8   9
ENDBRANCH   7   8
ENDBRANCH   1   7
BRANCH   2  22
ATOM     22  O   UNL     1     -33.021  10.048  79.060  1.00  0.00    -0.387 OA
ATOM     23  H   UNL     1     -32.078   9.742  79.100  1.00  0.00     0.211 HD
ENDBRANCH   2  22
BRANCH   3  24
ATOM     24  O   UNL     1     -32.691   7.898  81.171  1.00  0.00    -0.387 OA
ATOM     25  H   UNL     1     -33.544   8.111  81.631  1.00  0.00     0.211 HD
ENDBRANCH   3  24
BRANCH   5  26
ATOM     26  O   UNL     1     -35.809   5.303  79.131  1.00  0.00    -0.454 OA
BRANCH  26  27
ATOM     27  C   UNL     1     -37.069   4.978  79.667  1.00  0.00     0.214 A 
ATOM     28  C   UNL     1     -37.205   4.979  81.067  1.00  0.00     0.180 A 
ATOM     29  C   UNL     1     -38.215   4.716  78.885  1.00  0.00     0.239 A 
ATOM     30  O   UNL     1     -38.385   4.734  81.632  1.00  0.00    -0.452 OA
ATOM     31  C   UNL     1     -39.434   4.400  79.518  1.00  0.00     0.111 A 
ATOM     32  O   UNL     1     -38.152   4.818  77.635  1.00  0.00    -0.285 OA
ATOM     33  C   UNL     1     -39.476   4.453  80.931  1.00  0.00     0.146 A 
ATOM     34  C   UNL     1     -40.606   4.057  78.811  1.00  0.00     0.134 A 
ATOM     35  C   UNL     1     -40.673   4.198  81.612  1.00  0.00     0.094 A 
ATOM     36  C   UNL     1     -41.802   3.836  79.508  1.00  0.00     0.093 A 
ATOM     37  C   UNL     1     -41.838   3.906  80.901  1.00  0.00     0.123 A 
BRANCH  28  38
ATOM     38  C   UNL     1     -36.044   5.254  81.925  1.00  0.00     0.025 A 
ATOM     39  C   UNL     1     -35.124   4.232  82.223  1.00  0.00     0.062 A 
ATOM     40  C   UNL     1     -35.801   6.557  82.387  1.00  0.00     0.016 A 
ATOM     41  C   UNL     1     -33.972   4.503  82.967  1.00  0.00     0.158 A 
ATOM     42  C   UNL     1     -34.648   6.836  83.126  1.00  0.00     0.051 A 
ATOM     43  C   UNL     1     -33.722   5.820  83.405  1.00  0.00     0.157 A 
BRANCH  41  44
ATOM     44  O   UNL     1     -33.103   3.455  83.268  1.00  0.00    -0.504 OA
ATOM     45  H   UNL     1     -32.782   2.815  82.552  1.00  0.00     0.293 HD
ENDBRANCH  41  44
BRANCH  43  46
ATOM     46  O   UNL     1     -32.557   6.102  84.123  1.00  0.00    -0.504 OA
ATOM     47  H   UNL     1     -32.482   5.891  85.108  1.00  0.00     0.293 HD
ENDBRANCH  43  46
ENDBRANCH  28  38
BRANCH  34  48
ATOM     48  O   UNL     1     -40.595   3.946  77.415  1.00  0.00    -0.507 OA
ATOM     49  H   UNL     1     -40.712   4.755  76.821  1.00  0.00     0.293 HD
ENDBRANCH  34  48
BRANCH  37  50
ATOM     50  O   UNL     1     -43.036   3.699  81.581  1.00  0.00    -0.508 OA
ATOM     51  H   UNL     1     -43.873   3.402  81.090  1.00  0.00     0.293 HD
ENDBRANCH  37  50
ENDBRANCH  26  27
ENDBRANCH   5  26
BRANCH   4  52
ATOM     52  O   UNL     1     -32.941   5.695  78.500  1.00  0.00    -0.384 OA
ATOM     53  H   UNL     1     -33.604   5.443  77.811  1.00  0.00     0.211 HD
ENDBRANCH   4  52
TORSDOF 16
ENDMDL
MODEL 7
REMARK VINA RESULT:    -5.360     11.629     14.953
REMARK INTER + INTRA:         -10.851
REMARK INTER:                  -9.790
REMARK INTRA:                  -1.061
REMARK UNBOUND:                -2.044
REMARK SMILES C[C@H]1O[C@@H](OC[C@@H]2O[C@@H](Oc3c(-c4ccc(O)c(O)c4)oc4cc(O)cc(O)c4c3=O)[C@@H](O)[C@H](O)[C@H]2O)[C@@H](O)[C@@H](O)[C@@H]1O
REMARK SMILES IDX 7 1 36 2 34 3 32 4 9 5 8 6 6 7 5 8 4 9 1 10 2 11 42 12 3 13
REMARK SMILES IDX 40 14 38 15 43 16 41 18 39 20 37 22 35 24 10 26 11 27 12 28
REMARK SMILES IDX 30 29 21 30 29 31 31 32 22 33 27 34 23 35 26 36 24 37 13 38
REMARK SMILES IDX 20 39 14 40 18 41 15 42 16 43 19 44 17 46 28 48 25 50 33 52
REMARK H PARENT 43 17 41 19 39 21 37 23 35 25 19 45 17 47 28 49 25 51 33 53
REMARK Flexibility Score: inf
ROOT
ATOM      1  C   UNL     1     -35.124   6.059  82.887  1.00  0.00     0.180 C 
ATOM      2  C   UNL     1     -35.311   4.685  83.648  1.00  0.00     0.177 C 
ATOM      3  C   UNL     1     -35.974   3.570  82.792  1.00  0.00     0.180 C 
ATOM      4  C   UNL     1     -36.965   4.136  81.738  1.00  0.00     0.214 C 
ATOM      5  C   UNL     1     -37.277   5.613  82.021  1.00  0.00     0.339 C 
ATOM      6  O   UNL     1     -36.108   6.391  81.903  1.00  0.00    -0.332 OA
ENDROOT
BRANCH   1   7
ATOM      7  C   UNL     1     -34.961   7.251  83.877  1.00  0.00     0.198 C 
BRANCH   7   8
ATOM      8  O   UNL     1     -33.729   7.924  83.692  1.00  0.00    -0.347 OA
BRANCH   8   9
ATOM      9  C   UNL     1     -33.607   8.459  82.381  1.00  0.00     0.281 C 
ATOM     10  C   UNL     1     -32.908   6.642  79.269  1.00  0.00     0.041 C 
ATOM     11  C   UNL     1     -33.302   7.821  80.160  1.00  0.00     0.150 C 
ATOM     12  C   UNL     1     -32.396   9.062  79.874  1.00  0.00     0.174 C 
ATOM     13  O   UNL     1     -33.208   7.410  81.516  1.00  0.00    -0.344 OA
ATOM     14  C   UNL     1     -31.623   9.517  81.135  1.00  0.00     0.179 C 
ATOM     15  C   UNL     1     -32.567   9.616  82.356  1.00  0.00     0.202 C 
BRANCH  12  16
ATOM     16  O   UNL     1     -33.152  10.125  79.351  1.00  0.00    -0.388 OA
ATOM     17  H   UNL     1     -32.785  10.357  78.456  1.00  0.00     0.211 HD
ENDBRANCH  12  16
BRANCH  14  18
ATOM     18  O   UNL     1     -30.591   8.591  81.389  1.00  0.00    -0.387 OA
ATOM     19  H   UNL     1     -31.021   7.741  81.653  1.00  0.00     0.211 HD
ENDBRANCH  14  18
BRANCH  15  20
ATOM     20  O   UNL     1     -31.829   9.712  83.552  1.00  0.00    -0.385 OA
ATOM     21  H   UNL     1     -31.615   8.788  83.848  1.00  0.00     0.211 HD
ENDBRANCH  15  20
ENDBRANCH   8   9
ENDBRANCH   7   8
ENDBRANCH   1   7
BRANCH   2  22
ATOM     22  O   UNL     1     -34.073   4.213  84.125  1.00  0.00    -0.387 OA
ATOM     23  H   UNL     1     -34.192   3.944  85.072  1.00  0.00     0.211 HD
ENDBRANCH   2  22
BRANCH   3  24
ATOM     24  O   UNL     1     -36.652   2.693  83.654  1.00  0.00    -0.387 OA
ATOM     25  H   UNL     1     -36.234   2.756  84.552  1.00  0.00     0.211 HD
ENDBRANCH   3  24
BRANCH   5  26
ATOM     26  O   UNL     1     -38.324   6.132  81.202  1.00  0.00    -0.454 OA
BRANCH  26  27
ATOM     27  C   UNL     1     -39.166   5.441  80.310  1.00  0.00     0.214 A 
ATOM     28  C   UNL     1     -38.937   5.607  78.932  1.00  0.00     0.180 A 
ATOM     29  C   UNL     1     -40.180   4.547  80.716  1.00  0.00     0.239 A 
ATOM     30  O   UNL     1     -39.664   4.938  78.041  1.00  0.00    -0.452 OA
ATOM     31  C   UNL     1     -40.971   3.903  79.743  1.00  0.00     0.111 A 
ATOM     32  O   UNL     1     -40.335   4.293  81.935  1.00  0.00    -0.285 OA
ATOM     33  C   UNL     1     -40.646   4.114  78.383  1.00  0.00     0.146 A 
ATOM     34  C   UNL     1     -42.050   3.050  80.064  1.00  0.00     0.134 A 
ATOM     35  C   UNL     1     -41.365   3.460  77.375  1.00  0.00     0.094 A 
ATOM     36  C   UNL     1     -42.738   2.380  79.043  1.00  0.00     0.093 A 
ATOM     37  C   UNL     1     -42.399   2.582  77.705  1.00  0.00     0.123 A 
BRANCH  28  38
ATOM     38  C   UNL     1     -37.886   6.520  78.459  1.00  0.00     0.025 A 
ATOM     39  C   UNL     1     -37.803   7.829  78.969  1.00  0.00     0.062 A 
ATOM     40  C   UNL     1     -36.912   6.068  77.557  1.00  0.00     0.016 A 
ATOM     41  C   UNL     1     -36.759   8.677  78.590  1.00  0.00     0.158 A 
ATOM     42  C   UNL     1     -35.862   6.909  77.178  1.00  0.00     0.051 A 
ATOM     43  C   UNL     1     -35.769   8.206  77.703  1.00  0.00     0.157 A 
BRANCH  41  44
ATOM     44  O   UNL     1     -36.731   9.977  79.093  1.00  0.00    -0.504 OA
ATOM     45  H   UNL     1     -36.170  10.699  78.657  1.00  0.00     0.293 HD
ENDBRANCH  41  44
BRANCH  43  46
ATOM     46  O   UNL     1     -34.706   9.040  77.344  1.00  0.00    -0.504 OA
ATOM     47  H   UNL     1     -33.962   9.252  77.993  1.00  0.00     0.293 HD
ENDBRANCH  43  46
ENDBRANCH  28  38
BRANCH  34  48
ATOM     48  O   UNL     1     -42.436   2.853  81.396  1.00  0.00    -0.507 OA
ATOM     49  H   UNL     1     -43.328   2.441  81.631  1.00  0.00     0.293 HD
ENDBRANCH  34  48
BRANCH  37  50
ATOM     50  O   UNL     1     -43.081   1.900  76.700  1.00  0.00    -0.508 OA
ATOM     51  H   UNL     1     -42.623   1.658  75.827  1.00  0.00     0.293 HD
ENDBRANCH  37  50
ENDBRANCH  26  27
ENDBRANCH   5  26
BRANCH   4  52
ATOM     52  O   UNL     1     -36.439   3.978  80.436  1.00  0.00    -0.384 OA
ATOM     53  H   UNL     1     -35.509   4.312  80.436  1.00  0.00     0.211 HD
ENDBRANCH   4  52
TORSDOF 16
ENDMDL
MODEL 8
REMARK VINA RESULT:    -5.205      7.789     11.685
REMARK INTER + INTRA:         -10.597
REMARK INTER:                  -9.462
REMARK INTRA:                  -1.135
REMARK UNBOUND:                -2.044
REMARK SMILES C[C@H]1O[C@@H](OC[C@@H]2O[C@@H](Oc3c(-c4ccc(O)c(O)c4)oc4cc(O)cc(O)c4c3=O)[C@@H](O)[C@H](O)[C@H]2O)[C@@H](O)[C@@H](O)[C@@H]1O
REMARK SMILES IDX 7 1 36 2 34 3 32 4 9 5 8 6 6 7 5 8 4 9 1 10 2 11 42 12 3 13
REMARK SMILES IDX 40 14 38 15 43 16 41 18 39 20 37 22 35 24 10 26 11 27 12 28
REMARK SMILES IDX 30 29 21 30 29 31 31 32 22 33 27 34 23 35 26 36 24 37 13 38
REMARK SMILES IDX 20 39 14 40 18 41 15 42 16 43 19 44 17 46 28 48 25 50 33 52
REMARK H PARENT 43 17 41 19 39 21 37 23 35 25 19 45 17 47 28 49 25 51 33 53
REMARK Flexibility Score: inf
ROOT
ATOM      1  C   UNL     1     -42.192   3.250  77.842  1.00  0.00     0.180 C 
ATOM      2  C   UNL     1     -41.694   2.500  79.144  1.00  0.00     0.177 C 
ATOM      3  C   UNL     1     -41.044   3.433  80.203  1.00  0.00     0.180 C 
ATOM      4  C   UNL     1     -40.334   4.659  79.566  1.00  0.00     0.214 C 
ATOM      5  C   UNL     1     -40.180   4.471  78.050  1.00  0.00     0.339 C 
ATOM      6  O   UNL     1     -41.445   4.400  77.434  1.00  0.00    -0.332 OA
ENDROOT
BRANCH   1   7
ATOM      7  C   UNL     1     -42.341   2.276  76.635  1.00  0.00     0.198 C 
BRANCH   7   8
ATOM      8  O   UNL     1     -43.622   1.673  76.601  1.00  0.00    -0.347 OA
BRANCH   8   9
ATOM      9  C   UNL     1     -44.252   1.832  75.337  1.00  0.00     0.281 C 
ATOM     10  C   UNL     1     -47.586   3.202  74.646  1.00  0.00     0.041 C 
ATOM     11  C   UNL     1     -46.179   2.686  74.342  1.00  0.00     0.150 C 
ATOM     12  C   UNL     1     -46.226   1.514  73.310  1.00  0.00     0.174 C 
ATOM     13  O   UNL     1     -45.578   2.279  75.562  1.00  0.00    -0.344 OA
ATOM     14  C   UNL     1     -45.618   0.213  73.883  1.00  0.00     0.179 C 
ATOM     15  C   UNL     1     -44.252   0.489  74.552  1.00  0.00     0.202 C 
BRANCH  12  16
ATOM     16  O   UNL     1     -45.582   1.874  72.113  1.00  0.00    -0.388 OA
ATOM     17  H   UNL     1     -45.577   1.082  71.512  1.00  0.00     0.211 HD
ENDBRANCH  12  16
BRANCH  14  18
ATOM     18  O   UNL     1     -46.520  -0.332  74.819  1.00  0.00    -0.387 OA
ATOM     19  H   UNL     1     -46.600   0.320  75.559  1.00  0.00     0.211 HD
ENDBRANCH  14  18
BRANCH  15  20
ATOM     20  O   UNL     1     -43.852  -0.605  75.343  1.00  0.00    -0.385 OA
ATOM     21  H   UNL     1     -42.859  -0.604  75.379  1.00  0.00     0.211 HD
ENDBRANCH  15  20
ENDBRANCH   8   9
ENDBRANCH   7   8
ENDBRANCH   1   7
BRANCH   2  22
ATOM     22  O   UNL     1     -42.757   1.801  79.746  1.00  0.00    -0.387 OA
ATOM     23  H   UNL     1     -42.988   1.033  79.163  1.00  0.00     0.211 HD
ENDBRANCH   2  22
BRANCH   3  24
ATOM     24  O   UNL     1     -40.116   2.683  80.944  1.00  0.00    -0.387 OA
ATOM     25  H   UNL     1     -39.515   3.315  81.419  1.00  0.00     0.211 HD
ENDBRANCH   3  24
BRANCH   5  26
ATOM     26  O   UNL     1     -39.368   5.475  77.440  1.00  0.00    -0.454 OA
BRANCH  26  27
ATOM     27  C   UNL     1     -38.231   6.121  77.960  1.00  0.00     0.214 A 
ATOM     28  C   UNL     1     -38.296   7.514  78.146  1.00  0.00     0.180 A 
ATOM     29  C   UNL     1     -37.058   5.447  78.365  1.00  0.00     0.239 A 
ATOM     30  O   UNL     1     -37.273   8.173  78.685  1.00  0.00    -0.452 OA
ATOM     31  C   UNL     1     -35.971   6.186  78.875  1.00  0.00     0.111 A 
ATOM     32  O   UNL     1     -37.011   4.194  78.316  1.00  0.00    -0.285 OA
ATOM     33  C   UNL     1     -36.143   7.579  79.048  1.00  0.00     0.146 A 
ATOM     34  C   UNL     1     -34.739   5.599  79.236  1.00  0.00     0.134 A 
ATOM     35  C   UNL     1     -35.116   8.355  79.599  1.00  0.00     0.094 A 
ATOM     36  C   UNL     1     -33.733   6.386  79.814  1.00  0.00     0.093 A 
ATOM     37  C   UNL     1     -33.919   7.758  79.995  1.00  0.00     0.123 A 
BRANCH  28  38
ATOM     38  C   UNL     1     -39.500   8.259  77.749  1.00  0.00     0.025 A 
ATOM     39  C   UNL     1     -39.630   8.746  76.435  1.00  0.00     0.062 A 
ATOM     40  C   UNL     1     -40.560   8.422  78.654  1.00  0.00     0.016 A 
ATOM     41  C   UNL     1     -40.805   9.381  76.023  1.00  0.00     0.158 A 
ATOM     42  C   UNL     1     -41.739   9.051  78.247  1.00  0.00     0.051 A 
ATOM     43  C   UNL     1     -41.876   9.517  76.931  1.00  0.00     0.157 A 
BRANCH  41  44
ATOM     44  O   UNL     1     -40.882   9.877  74.723  1.00  0.00    -0.504 OA
ATOM     45  H   UNL     1     -40.498  10.783  74.481  1.00  0.00     0.293 HD
ENDBRANCH  41  44
BRANCH  43  46
ATOM     46  O   UNL     1     -43.064  10.125  76.516  1.00  0.00    -0.504 OA
ATOM     47  H   UNL     1     -43.168  10.493  75.581  1.00  0.00     0.293 HD
ENDBRANCH  43  46
ENDBRANCH  28  38
BRANCH  34  48
ATOM     48  O   UNL     1     -34.510   4.232  79.035  1.00  0.00    -0.507 OA
ATOM     49  H   UNL     1     -35.249   3.552  79.147  1.00  0.00     0.293 HD
ENDBRANCH  34  48
BRANCH  37  50
ATOM     50  O   UNL     1     -32.918   8.527  80.584  1.00  0.00    -0.508 OA
ATOM     51  H   UNL     1     -31.952   8.451  80.282  1.00  0.00     0.293 HD
ENDBRANCH  37  50
ENDBRANCH  26  27
ENDBRANCH   5  26
BRANCH   4  52
ATOM     52  O   UNL     1     -41.050   5.844  79.851  1.00  0.00    -0.384 OA
ATOM     53  H   UNL     1     -40.613   6.591  79.374  1.00  0.00     0.211 HD
ENDBRANCH   4  52
TORSDOF 16
ENDMDL
