MODEL 1
REMARK VINA RESULT:    -6.695      0.000      0.000
REMARK INTER + INTRA:         -11.349
REMARK INTER:                 -10.218
REMARK INTRA:                  -1.132
REMARK UNBOUND:                -1.132
REMARK SMILES OC[C@@H]1O[C@@](CO)(O[C@@H]2O[C@H](CO)[C@@H](O)[C@@H](O)[C@@H]2O)[C@H](O)[C@H]1O
REMARK SMILES IDX 8 1 9 2 11 3 14 4 10 5 16 6 18 7 12 8 13 9 15 11 17 13 19 15
REMARK SMILES IDX 5 17 20 18 4 19 22 20 3 21 6 22 7 23 21 25 23 27 2 29 1 30
REMARK H PARENT 13 10 15 12 17 14 19 16 7 24 21 26 23 28 1 31
REMARK Flexibility Score: inf
ROOT
ATOM      1  O   UNL     1     158.113 158.999 160.275  1.00  0.00    -0.313 OA
ENDROOT
BRANCH   1   2
ATOM      2  C   UNL     1     159.432 158.522 160.508  1.00  0.00     0.285 C 
ATOM      3  C   UNL     1     159.687 156.498 159.219  1.00  0.00     0.178 C 
ATOM      4  C   UNL     1     158.417 156.022 159.974  1.00  0.00     0.177 C 
ATOM      5  O   UNL     1     159.931 157.901 159.326  1.00  0.00    -0.341 OA
ATOM      6  C   UNL     1     158.524 156.352 161.486  1.00  0.00     0.179 C 
ATOM      7  C   UNL     1     159.435 157.576 161.727  1.00  0.00     0.202 C 
BRANCH   3   8
ATOM      8  C   UNL     1     159.596 156.146 157.729  1.00  0.00     0.191 C 
BRANCH   8   9
ATOM      9  O   UNL     1     160.133 154.870 157.510  1.00  0.00    -0.394 OA
ATOM     10  H   UNL     1     160.967 155.007 156.992  1.00  0.00     0.210 HD
ENDBRANCH   8   9
ENDBRANCH   3   8
BRANCH   4  11
ATOM     11  O   UNL     1     158.228 154.642 159.781  1.00  0.00    -0.387 OA
ATOM     12  H   UNL     1     158.007 154.258 160.669  1.00  0.00     0.211 HD
ENDBRANCH   4  11
BRANCH   6  13
ATOM     13  O   UNL     1     159.045 155.258 162.202  1.00  0.00    -0.387 OA
ATOM     14  H   UNL     1     159.985 155.136 161.907  1.00  0.00     0.211 HD
ENDBRANCH   6  13
BRANCH   7  15
ATOM     15  O   UNL     1     159.077 158.255 162.905  1.00  0.00    -0.385 OA
ATOM     16  H   UNL     1     159.582 157.850 163.657  1.00  0.00     0.211 HD
ENDBRANCH   7  15
ENDBRANCH   1   2
BRANCH   1  17
ATOM     17  C   UNL     1     158.062 160.307 159.712  1.00  0.00     0.224 C 
ATOM     18  C   UNL     1     159.320 161.110 160.113  1.00  0.00     0.208 C 
ATOM     19  O   UNL     1     157.996 160.275 158.293  1.00  0.00    -0.337 OA
ATOM     20  C   UNL     1     159.549 161.996 158.911  1.00  0.00     0.180 C 
ATOM     21  C   UNL     1     158.991 161.138 157.778  1.00  0.00     0.179 C 
BRANCH  17  22
ATOM     22  C   UNL     1     156.753 160.962 160.199  1.00  0.00     0.225 C 
BRANCH  22  23
ATOM     23  O   UNL     1     156.713 162.317 159.844  1.00  0.00    -0.391 OA
ATOM     24  H   UNL     1     156.481 162.343 158.879  1.00  0.00     0.210 HD
ENDBRANCH  22  23
ENDBRANCH  17  22
BRANCH  18  25
ATOM     25  O   UNL     1     159.201 161.817 161.326  1.00  0.00    -0.385 OA
ATOM     26  H   UNL     1     159.802 162.605 161.303  1.00  0.00     0.211 HD
ENDBRANCH  18  25
BRANCH  20  27
ATOM     27  O   UNL     1     160.914 162.255 158.715  1.00  0.00    -0.387 OA
ATOM     28  H   UNL     1     161.111 162.016 157.772  1.00  0.00     0.211 HD
ENDBRANCH  20  27
BRANCH  21  29
ATOM     29  C   UNL     1     158.405 161.994 156.648  1.00  0.00     0.191 C 
BRANCH  29  30
ATOM     30  O   UNL     1     157.817 163.155 157.170  1.00  0.00    -0.394 OA
ATOM     31  H   UNL     1     158.536 163.651 157.641  1.00  0.00     0.210 HD
ENDBRANCH  29  30
ENDBRANCH  21  29
ENDBRANCH   1  17
TORSDOF 13
ENDMDL
MODEL 2
REMARK VINA RESULT:    -6.658      1.699      6.377
REMARK INTER + INTRA:         -11.292
REMARK INTER:                 -10.157
REMARK INTRA:                  -1.135
REMARK UNBOUND:                -1.132
REMARK SMILES OC[C@@H]1O[C@@](CO)(O[C@@H]2O[C@H](CO)[C@@H](O)[C@@H](O)[C@@H]2O)[C@H](O)[C@H]1O
REMARK SMILES IDX 8 1 9 2 11 3 14 4 10 5 16 6 18 7 12 8 13 9 15 11 17 13 19 15
REMARK SMILES IDX 5 17 20 18 4 19 22 20 3 21 6 22 7 23 21 25 23 27 2 29 1 30
REMARK H PARENT 13 10 15 12 17 14 19 16 7 24 21 26 23 28 1 31
REMARK Flexibility Score: inf
ROOT
ATOM      1  O   UNL     1     158.157 158.980 157.758  1.00  0.00    -0.313 OA
ENDROOT
BRANCH   1   2
ATOM      2  C   UNL     1     159.479 159.459 157.551  1.00  0.00     0.285 C 
ATOM      3  C   UNL     1     159.692 161.504 158.814  1.00  0.00     0.178 C 
ATOM      4  C   UNL     1     158.440 161.963 158.019  1.00  0.00     0.177 C 
ATOM      5  O   UNL     1     159.945 160.101 158.736  1.00  0.00    -0.341 OA
ATOM      6  C   UNL     1     158.587 161.609 156.516  1.00  0.00     0.179 C 
ATOM      7  C   UNL     1     159.509 160.386 156.317  1.00  0.00     0.202 C 
BRANCH   3   8
ATOM      8  C   UNL     1     159.561 161.879 160.295  1.00  0.00     0.191 C 
BRANCH   8   9
ATOM      9  O   UNL     1     160.107 163.152 160.511  1.00  0.00    -0.394 OA
ATOM     10  H   UNL     1     160.946 163.185 159.985  1.00  0.00     0.210 HD
ENDBRANCH   8   9
ENDBRANCH   3   8
BRANCH   4  11
ATOM     11  O   UNL     1     158.240 163.344 158.185  1.00  0.00    -0.387 OA
ATOM     12  H   UNL     1     158.356 163.535 159.152  1.00  0.00     0.211 HD
ENDBRANCH   4  11
BRANCH   6  13
ATOM     13  O   UNL     1     159.122 162.694 155.796  1.00  0.00    -0.387 OA
ATOM     14  H   UNL     1     158.358 163.260 155.509  1.00  0.00     0.211 HD
ENDBRANCH   6  13
BRANCH   7  15
ATOM     15  O   UNL     1     159.185 159.687 155.141  1.00  0.00    -0.385 OA
ATOM     16  H   UNL     1     159.286 160.311 154.377  1.00  0.00     0.211 HD
ENDBRANCH   7  15
ENDBRANCH   1   2
BRANCH   1  17
ATOM     17  C   UNL     1     158.097 157.676 158.330  1.00  0.00     0.224 C 
ATOM     18  C   UNL     1     159.358 156.869 157.951  1.00  0.00     0.208 C 
ATOM     19  O   UNL     1     158.014 157.719 159.748  1.00  0.00    -0.337 OA
ATOM     20  C   UNL     1     159.571 155.991 159.162  1.00  0.00     0.180 C 
ATOM     21  C   UNL     1     159.001 156.859 160.281  1.00  0.00     0.179 C 
BRANCH  17  22
ATOM     22  C   UNL     1     156.793 157.020 157.833  1.00  0.00     0.225 C 
BRANCH  22  23
ATOM     23  O   UNL     1     156.744 155.668 158.201  1.00  0.00    -0.391 OA
ATOM     24  H   UNL     1     155.948 155.287 157.747  1.00  0.00     0.210 HD
ENDBRANCH  22  23
ENDBRANCH  17  22
BRANCH  18  25
ATOM     25  O   UNL     1     159.252 156.152 156.741  1.00  0.00    -0.385 OA
ATOM     26  H   UNL     1     160.072 155.609 156.613  1.00  0.00     0.211 HD
ENDBRANCH  18  25
BRANCH  20  27
ATOM     27  O   UNL     1     160.933 155.731 159.375  1.00  0.00    -0.387 OA
ATOM     28  H   UNL     1     161.005 155.356 160.292  1.00  0.00     0.211 HD
ENDBRANCH  20  27
BRANCH  21  29
ATOM     29  C   UNL     1     158.401 156.013 161.411  1.00  0.00     0.191 C 
BRANCH  29  30
ATOM     30  O   UNL     1     157.826 154.843 160.892  1.00  0.00    -0.394 OA
ATOM     31  H   UNL     1     157.680 154.234 161.662  1.00  0.00     0.210 HD
ENDBRANCH  29  30
ENDBRANCH  21  29
ENDBRANCH   1  17
TORSDOF 13
ENDMDL
MODEL 3
REMARK VINA RESULT:    -6.637      1.452      5.741
REMARK INTER + INTRA:         -11.260
REMARK INTER:                 -10.127
REMARK INTRA:                  -1.133
REMARK UNBOUND:                -1.132
REMARK SMILES OC[C@@H]1O[C@@](CO)(O[C@@H]2O[C@H](CO)[C@@H](O)[C@@H](O)[C@@H]2O)[C@H](O)[C@H]1O
REMARK SMILES IDX 8 1 9 2 11 3 14 4 10 5 16 6 18 7 12 8 13 9 15 11 17 13 19 15
REMARK SMILES IDX 5 17 20 18 4 19 22 20 3 21 6 22 7 23 21 25 23 27 2 29 1 30
REMARK H PARENT 13 10 15 12 17 14 19 16 7 24 21 26 23 28 1 31
REMARK Flexibility Score: inf
ROOT
ATOM      1  O   UNL     1     159.947 158.941 160.726  1.00  0.00    -0.313 OA
ENDROOT
BRANCH   1   2
ATOM      2  C   UNL     1     158.613 159.402 160.894  1.00  0.00     0.285 C 
ATOM      3  C   UNL     1     158.437 161.497 159.711  1.00  0.00     0.178 C 
ATOM      4  C   UNL     1     159.650 161.930 160.578  1.00  0.00     0.177 C 
ATOM      5  O   UNL     1     158.194 160.090 159.719  1.00  0.00    -0.341 OA
ATOM      6  C   UNL     1     159.440 161.512 162.058  1.00  0.00     0.179 C 
ATOM      7  C   UNL     1     158.521 160.276 162.163  1.00  0.00     0.202 C 
BRANCH   3   8
ATOM      8  C   UNL     1     158.630 161.936 158.253  1.00  0.00     0.191 C 
BRANCH   8   9
ATOM      9  O   UNL     1     158.141 163.238 158.083  1.00  0.00    -0.394 OA
ATOM     10  H   UNL     1     157.298 163.287 158.603  1.00  0.00     0.210 HD
ENDBRANCH   8   9
ENDBRANCH   3   8
BRANCH   4  11
ATOM     11  O   UNL     1     159.845 163.319 160.479  1.00  0.00    -0.387 OA
ATOM     12  H   UNL     1     160.475 163.570 161.203  1.00  0.00     0.211 HD
ENDBRANCH   4  11
BRANCH   6  13
ATOM     13  O   UNL     1     158.865 162.562 162.799  1.00  0.00    -0.387 OA
ATOM     14  H   UNL     1     158.312 162.148 163.512  1.00  0.00     0.211 HD
ENDBRANCH   6  13
BRANCH   7  15
ATOM     15  O   UNL     1     158.800 159.529 163.322  1.00  0.00    -0.385 OA
ATOM     16  H   UNL     1     158.256 159.902 164.064  1.00  0.00     0.211 HD
ENDBRANCH   7  15
ENDBRANCH   1   2
BRANCH   1  17
ATOM     17  C   UNL     1     160.043 157.664 160.101  1.00  0.00     0.224 C 
ATOM     18  C   UNL     1     158.840 156.782 160.501  1.00  0.00     0.208 C 
ATOM     19  O   UNL     1     160.060 157.764 158.683  1.00  0.00    -0.337 OA
ATOM     20  C   UNL     1     158.614 155.941 159.267  1.00  0.00     0.180 C 
ATOM     21  C   UNL     1     159.092 156.877 158.159  1.00  0.00     0.179 C 
BRANCH  17  22
ATOM     22  C   UNL     1     161.398 157.054 160.515  1.00  0.00     0.225 C 
BRANCH  22  23
ATOM     23  O   UNL     1     161.519 155.742 160.037  1.00  0.00    -0.391 OA
ATOM     24  H   UNL     1     160.593 155.402 159.924  1.00  0.00     0.210 HD
ENDBRANCH  22  23
ENDBRANCH  17  22
BRANCH  18  25
ATOM     25  O   UNL     1     159.033 156.026 161.676  1.00  0.00    -0.385 OA
ATOM     26  H   UNL     1     159.917 155.579 161.632  1.00  0.00     0.211 HD
ENDBRANCH  18  25
BRANCH  20  27
ATOM     27  O   UNL     1     157.258 155.623 159.101  1.00  0.00    -0.387 OA
ATOM     28  H   UNL     1     157.220 154.646 158.927  1.00  0.00     0.211 HD
ENDBRANCH  20  27
BRANCH  21  29
ATOM     29  C   UNL     1     159.681 156.104 156.972  1.00  0.00     0.191 C 
BRANCH  29  30
ATOM     30  O   UNL     1     160.190 154.869 157.398  1.00  0.00    -0.394 OA
ATOM     31  H   UNL     1     160.480 154.992 158.339  1.00  0.00     0.210 HD
ENDBRANCH  29  30
ENDBRANCH  21  29
ENDBRANCH   1  17
TORSDOF 13
ENDMDL
MODEL 4
REMARK VINA RESULT:    -6.603      1.868      4.206
REMARK INTER + INTRA:         -11.209
REMARK INTER:                 -10.101
REMARK INTRA:                  -1.108
REMARK UNBOUND:                -1.132
REMARK SMILES OC[C@@H]1O[C@@](CO)(O[C@@H]2O[C@H](CO)[C@@H](O)[C@@H](O)[C@@H]2O)[C@H](O)[C@H]1O
REMARK SMILES IDX 8 1 9 2 11 3 14 4 10 5 16 6 18 7 12 8 13 9 15 11 17 13 19 15
REMARK SMILES IDX 5 17 20 18 4 19 22 20 3 21 6 22 7 23 21 25 23 27 2 29 1 30
REMARK H PARENT 13 10 15 12 17 14 19 16 7 24 21 26 23 28 1 31
REMARK Flexibility Score: inf
ROOT
ATOM      1  O   UNL     1     160.028 159.064 157.266  1.00  0.00    -0.313 OA
ENDROOT
BRANCH   1   2
ATOM      2  C   UNL     1     158.691 158.625 157.064  1.00  0.00     0.285 C 
ATOM      3  C   UNL     1     158.451 156.534 158.244  1.00  0.00     0.178 C 
ATOM      4  C   UNL     1     159.677 156.080 157.408  1.00  0.00     0.177 C 
ATOM      5  O   UNL     1     158.231 157.944 158.228  1.00  0.00    -0.341 OA
ATOM      6  C   UNL     1     159.513 156.499 155.923  1.00  0.00     0.179 C 
ATOM      7  C   UNL     1     158.618 157.751 155.793  1.00  0.00     0.202 C 
BRANCH   3   8
ATOM      8  C   UNL     1     158.598 156.094 159.706  1.00  0.00     0.191 C 
BRANCH   8   9
ATOM      9  O   UNL     1     158.122 154.784 159.856  1.00  0.00    -0.394 OA
ATOM     10  H   UNL     1     158.022 154.637 160.831  1.00  0.00     0.210 HD
ENDBRANCH   8   9
ENDBRANCH   3   8
BRANCH   4  11
ATOM     11  O   UNL     1     159.847 154.688 157.513  1.00  0.00    -0.387 OA
ATOM     12  H   UNL     1     160.043 154.496 158.466  1.00  0.00     0.211 HD
ENDBRANCH   4  11
BRANCH   6  13
ATOM     13  O   UNL     1     158.940 155.458 155.169  1.00  0.00    -0.387 OA
ATOM     14  H   UNL     1     158.919 155.760 154.223  1.00  0.00     0.211 HD
ENDBRANCH   6  13
BRANCH   7  15
ATOM     15  O   UNL     1     158.938 158.492 154.641  1.00  0.00    -0.385 OA
ATOM     16  H   UNL     1     158.536 159.394 154.736  1.00  0.00     0.211 HD
ENDBRANCH   7  15
ENDBRANCH   1   2
BRANCH   1  17
ATOM     17  C   UNL     1     160.129 160.350 157.869  1.00  0.00     0.224 C 
ATOM     18  C   UNL     1     158.940 161.237 157.436  1.00  0.00     0.208 C 
ATOM     19  O   UNL     1     160.127 160.277 159.288  1.00  0.00    -0.337 OA
ATOM     20  C   UNL     1     158.707 162.103 158.652  1.00  0.00     0.180 C 
ATOM     21  C   UNL     1     159.161 161.183 159.783  1.00  0.00     0.179 C 
BRANCH  17  22
ATOM     22  C   UNL     1     161.495 160.939 157.461  1.00  0.00     0.225 C 
BRANCH  22  23
ATOM     23  O   UNL     1     161.611 162.269 157.889  1.00  0.00    -0.391 OA
ATOM     24  H   UNL     1     162.527 162.560 157.638  1.00  0.00     0.210 HD
ENDBRANCH  22  23
ENDBRANCH  17  22
BRANCH  18  25
ATOM     25  O   UNL     1     159.156 161.969 156.251  1.00  0.00    -0.385 OA
ATOM     26  H   UNL     1     158.288 162.106 155.791  1.00  0.00     0.211 HD
ENDBRANCH  18  25
BRANCH  20  27
ATOM     27  O   UNL     1     157.352 162.437 158.794  1.00  0.00    -0.387 OA
ATOM     28  H   UNL     1     157.292 163.420 158.665  1.00  0.00     0.211 HD
ENDBRANCH  20  27
BRANCH  21  29
ATOM     29  C   UNL     1     159.742 161.972 160.963  1.00  0.00     0.191 C 
BRANCH  29  30
ATOM     30  O   UNL     1     160.151 163.246 160.545  1.00  0.00    -0.394 OA
ATOM     31  H   UNL     1     159.353 163.833 160.603  1.00  0.00     0.210 HD
ENDBRANCH  29  30
ENDBRANCH  21  29
ENDBRANCH   1  17
TORSDOF 13
ENDMDL
MODEL 5
REMARK VINA RESULT:    -6.334      2.655      4.516
REMARK INTER + INTRA:         -10.799
REMARK INTER:                  -9.413
REMARK INTRA:                  -1.386
REMARK UNBOUND:                -1.132
REMARK SMILES OC[C@@H]1O[C@@](CO)(O[C@@H]2O[C@H](CO)[C@@H](O)[C@@H](O)[C@@H]2O)[C@H](O)[C@H]1O
REMARK SMILES IDX 8 1 9 2 11 3 14 4 10 5 16 6 18 7 12 8 13 9 15 11 17 13 19 15
REMARK SMILES IDX 5 17 20 18 4 19 22 20 3 21 6 22 7 23 21 25 23 27 2 29 1 30
REMARK H PARENT 13 10 15 12 17 14 19 16 7 24 21 26 23 28 1 31
REMARK Flexibility Score: inf
ROOT
ATOM      1  O   UNL     1     160.220 158.766 156.828  1.00  0.00    -0.313 OA
ENDROOT
BRANCH   1   2
ATOM      2  C   UNL     1     158.887 158.323 156.608  1.00  0.00     0.285 C 
ATOM      3  C   UNL     1     158.552 156.384 158.005  1.00  0.00     0.178 C 
ATOM      4  C   UNL     1     159.811 155.823 157.291  1.00  0.00     0.177 C 
ATOM      5  O   UNL     1     158.357 157.786 157.817  1.00  0.00    -0.341 OA
ATOM      6  C   UNL     1     159.729 156.071 155.762  1.00  0.00     0.179 C 
ATOM      7  C   UNL     1     158.863 157.309 155.443  1.00  0.00     0.202 C 
BRANCH   3   8
ATOM      8  C   UNL     1     158.618 156.113 159.513  1.00  0.00     0.191 C 
BRANCH   8   9
ATOM      9  O   UNL     1     158.197 154.803 159.778  1.00  0.00    -0.394 OA
ATOM     10  H   UNL     1     157.424 154.635 159.179  1.00  0.00     0.210 HD
ENDBRANCH   8   9
ENDBRANCH   3   8
BRANCH   4  11
ATOM     11  O   UNL     1     159.951 154.451 157.563  1.00  0.00    -0.387 OA
ATOM     12  H   UNL     1     159.867 154.344 158.546  1.00  0.00     0.211 HD
ENDBRANCH   4  11
BRANCH   6  13
ATOM     13  O   UNL     1     159.176 154.957 155.102  1.00  0.00    -0.387 OA
ATOM     14  H   UNL     1     158.556 155.305 154.409  1.00  0.00     0.211 HD
ENDBRANCH   6  13
BRANCH   7  15
ATOM     15  O   UNL     1     159.253 157.909 154.232  1.00  0.00    -0.385 OA
ATOM     16  H   UNL     1     158.434 158.090 153.703  1.00  0.00     0.211 HD
ENDBRANCH   7  15
ENDBRANCH   1   2
BRANCH   1  17
ATOM     17  C   UNL     1     160.443 160.126 156.465  1.00  0.00     0.224 C 
ATOM     18  C   UNL     1     161.635 160.229 155.488  1.00  0.00     0.208 C 
ATOM     19  O   UNL     1     159.309 160.703 155.834  1.00  0.00    -0.337 OA
ATOM     20  C   UNL     1     161.253 161.400 154.614  1.00  0.00     0.180 C 
ATOM     21  C   UNL     1     159.728 161.320 154.633  1.00  0.00     0.179 C 
BRANCH  17  22
ATOM     22  C   UNL     1     160.669 160.915 157.771  1.00  0.00     0.225 C 
BRANCH  22  23
ATOM     23  O   UNL     1     159.645 161.852 157.970  1.00  0.00    -0.391 OA
ATOM     24  H   UNL     1     160.084 162.668 158.327  1.00  0.00     0.210 HD
ENDBRANCH  22  23
ENDBRANCH  17  22
BRANCH  18  25
ATOM     25  O   UNL     1     162.892 160.371 156.111  1.00  0.00    -0.385 OA
ATOM     26  H   UNL     1     162.979 161.295 156.460  1.00  0.00     0.211 HD
ENDBRANCH  18  25
BRANCH  20  27
ATOM     27  O   UNL     1     161.744 161.250 153.309  1.00  0.00    -0.387 OA
ATOM     28  H   UNL     1     161.681 162.145 152.882  1.00  0.00     0.211 HD
ENDBRANCH  20  27
BRANCH  21  29
ATOM     29  C   UNL     1     159.081 162.705 154.503  1.00  0.00     0.191 C 
BRANCH  29  30
ATOM     30  O   UNL     1     158.319 162.996 155.643  1.00  0.00    -0.394 OA
ATOM     31  H   UNL     1     157.744 162.204 155.810  1.00  0.00     0.210 HD
ENDBRANCH  29  30
ENDBRANCH  21  29
ENDBRANCH   1  17
TORSDOF 13
ENDMDL
MODEL 6
REMARK VINA RESULT:    -6.333      2.017      3.388
REMARK INTER + INTRA:         -10.796
REMARK INTER:                  -9.413
REMARK INTRA:                  -1.383
REMARK UNBOUND:                -1.132
REMARK SMILES OC[C@@H]1O[C@@](CO)(O[C@@H]2O[C@H](CO)[C@@H](O)[C@@H](O)[C@@H]2O)[C@H](O)[C@H]1O
REMARK SMILES IDX 8 1 9 2 11 3 14 4 10 5 16 6 18 7 12 8 13 9 15 11 17 13 19 15
REMARK SMILES IDX 5 17 20 18 4 19 22 20 3 21 6 22 7 23 21 25 23 27 2 29 1 30
REMARK H PARENT 13 10 15 12 17 14 19 16 7 24 21 26 23 28 1 31
REMARK Flexibility Score: inf
ROOT
ATOM      1  O   UNL     1     157.794 158.763 161.210  1.00  0.00    -0.313 OA
ENDROOT
BRANCH   1   2
ATOM      2  C   UNL     1     159.127 158.315 161.418  1.00  0.00     0.285 C 
ATOM      3  C   UNL     1     159.446 156.380 160.013  1.00  0.00     0.178 C 
ATOM      4  C   UNL     1     158.191 155.820 160.735  1.00  0.00     0.177 C 
ATOM      5  O   UNL     1     159.645 157.780 160.202  1.00  0.00    -0.341 OA
ATOM      6  C   UNL     1     158.287 156.063 162.265  1.00  0.00     0.179 C 
ATOM      7  C   UNL     1     159.159 157.299 162.579  1.00  0.00     0.202 C 
BRANCH   3   8
ATOM      8  C   UNL     1     159.366 156.113 158.504  1.00  0.00     0.191 C 
BRANCH   8   9
ATOM      9  O   UNL     1     159.771 154.799 158.234  1.00  0.00    -0.394 OA
ATOM     10  H   UNL     1     160.657 154.689 158.666  1.00  0.00     0.210 HD
ENDBRANCH   8   9
ENDBRANCH   3   8
BRANCH   4  11
ATOM     11  O   UNL     1     158.045 154.449 160.461  1.00  0.00    -0.387 OA
ATOM     12  H   UNL     1     158.656 153.968 161.078  1.00  0.00     0.211 HD
ENDBRANCH   4  11
BRANCH   6  13
ATOM     13  O   UNL     1     158.842 154.946 162.917  1.00  0.00    -0.387 OA
ATOM     14  H   UNL     1     158.120 154.536 163.461  1.00  0.00     0.211 HD
ENDBRANCH   6  13
BRANCH   7  15
ATOM     15  O   UNL     1     158.780 157.896 163.795  1.00  0.00    -0.385 OA
ATOM     16  H   UNL     1     157.970 158.443 163.627  1.00  0.00     0.211 HD
ENDBRANCH   7  15
ENDBRANCH   1   2
BRANCH   1  17
ATOM     17  C   UNL     1     157.580 160.125 161.569  1.00  0.00     0.224 C 
ATOM     18  C   UNL     1     156.387 160.240 162.544  1.00  0.00     0.208 C 
ATOM     19  O   UNL     1     158.718 160.696 162.200  1.00  0.00    -0.337 OA
ATOM     20  C   UNL     1     156.777 161.410 163.415  1.00  0.00     0.180 C 
ATOM     21  C   UNL     1     158.301 161.319 163.399  1.00  0.00     0.179 C 
BRANCH  17  22
ATOM     22  C   UNL     1     157.361 160.912 160.260  1.00  0.00     0.225 C 
BRANCH  22  23
ATOM     23  O   UNL     1     158.368 161.871 160.082  1.00  0.00    -0.391 OA
ATOM     24  H   UNL     1     158.171 162.601 160.726  1.00  0.00     0.210 HD
ENDBRANCH  22  23
ENDBRANCH  17  22
BRANCH  18  25
ATOM     25  O   UNL     1     155.132 160.389 161.919  1.00  0.00    -0.385 OA
ATOM     26  H   UNL     1     154.456 159.863 162.418  1.00  0.00     0.211 HD
ENDBRANCH  18  25
BRANCH  20  27
ATOM     27  O   UNL     1     156.282 161.268 164.720  1.00  0.00    -0.387 OA
ATOM     28  H   UNL     1     155.567 160.581 164.674  1.00  0.00     0.211 HD
ENDBRANCH  20  27
BRANCH  21  29
ATOM     29  C   UNL     1     158.958 162.700 163.525  1.00  0.00     0.191 C 
BRANCH  29  30
ATOM     30  O   UNL     1     159.683 163.004 162.364  1.00  0.00    -0.394 OA
ATOM     31  H   UNL     1     159.278 162.473 161.630  1.00  0.00     0.210 HD
ENDBRANCH  29  30
ENDBRANCH  21  29
ENDBRANCH   1  17
TORSDOF 13
ENDMDL
MODEL 7
REMARK VINA RESULT:    -6.328      2.078      6.416
REMARK INTER + INTRA:         -10.789
REMARK INTER:                  -9.488
REMARK INTRA:                  -1.301
REMARK UNBOUND:                -1.132
REMARK SMILES OC[C@@H]1O[C@@](CO)(O[C@@H]2O[C@H](CO)[C@@H](O)[C@@H](O)[C@@H]2O)[C@H](O)[C@H]1O
REMARK SMILES IDX 8 1 9 2 11 3 14 4 10 5 16 6 18 7 12 8 13 9 15 11 17 13 19 15
REMARK SMILES IDX 5 17 20 18 4 19 22 20 3 21 6 22 7 23 21 25 23 27 2 29 1 30
REMARK H PARENT 13 10 15 12 17 14 19 16 7 24 21 26 23 28 1 31
REMARK Flexibility Score: inf
ROOT
ATOM      1  O   UNL     1     160.173 159.203 161.177  1.00  0.00    -0.313 OA
ENDROOT
BRANCH   1   2
ATOM      2  C   UNL     1     158.846 159.666 161.390  1.00  0.00     0.285 C 
ATOM      3  C   UNL     1     158.560 161.637 160.028  1.00  0.00     0.178 C 
ATOM      4  C   UNL     1     159.820 162.162 160.767  1.00  0.00     0.177 C 
ATOM      5  O   UNL     1     158.340 160.235 160.185  1.00  0.00    -0.341 OA
ATOM      6  C   UNL     1     159.716 161.885 162.290  1.00  0.00     0.179 C 
ATOM      7  C   UNL     1     158.825 160.656 162.574  1.00  0.00     0.202 C 
BRANCH   3   8
ATOM      8  C   UNL     1     158.649 161.936 158.526  1.00  0.00     0.191 C 
BRANCH   8   9
ATOM      9  O   UNL     1     158.273 163.265 158.286  1.00  0.00    -0.394 OA
ATOM     10  H   UNL     1     157.403 163.393 158.744  1.00  0.00     0.210 HD
ENDBRANCH   8   9
ENDBRANCH   3   8
BRANCH   4  11
ATOM     11  O   UNL     1     159.987 163.537 160.525  1.00  0.00    -0.387 OA
ATOM     12  H   UNL     1     159.444 164.014 161.204  1.00  0.00     0.211 HD
ENDBRANCH   4  11
BRANCH   6  13
ATOM     13  O   UNL     1     159.175 162.996 162.966  1.00  0.00    -0.387 OA
ATOM     14  H   UNL     1     158.539 163.436 162.343  1.00  0.00     0.211 HD
ENDBRANCH   6  13
BRANCH   7  15
ATOM     15  O   UNL     1     159.191 160.026 163.777  1.00  0.00    -0.385 OA
ATOM     16  H   UNL     1     160.050 159.553 163.625  1.00  0.00     0.211 HD
ENDBRANCH   7  15
ENDBRANCH   1   2
BRANCH   1  17
ATOM     17  C   UNL     1     160.372 157.836 161.524  1.00  0.00     0.224 C 
ATOM     18  C   UNL     1     161.576 157.698 162.482  1.00  0.00     0.208 C 
ATOM     19  O   UNL     1     159.234 157.279 162.168  1.00  0.00    -0.337 OA
ATOM     20  C   UNL     1     161.181 156.529 163.352  1.00  0.00     0.180 C 
ATOM     21  C   UNL     1     159.658 156.643 163.358  1.00  0.00     0.179 C 
BRANCH  17  22
ATOM     22  C   UNL     1     160.560 157.053 160.208  1.00  0.00     0.225 C 
BRANCH  22  23
ATOM     23  O   UNL     1     159.574 156.067 160.071  1.00  0.00    -0.391 OA
ATOM     24  H   UNL     1     159.994 155.215 160.361  1.00  0.00     0.210 HD
ENDBRANCH  22  23
ENDBRANCH  17  22
BRANCH  18  25
ATOM     25  O   UNL     1     162.820 157.533 161.838  1.00  0.00    -0.385 OA
ATOM     26  H   UNL     1     162.673 157.121 160.948  1.00  0.00     0.211 HD
ENDBRANCH  18  25
BRANCH  20  27
ATOM     27  O   UNL     1     161.696 156.656 164.651  1.00  0.00    -0.387 OA
ATOM     28  H   UNL     1     161.461 155.818 165.128  1.00  0.00     0.211 HD
ENDBRANCH  20  27
BRANCH  21  29
ATOM     29  C   UNL     1     158.983 155.272 163.486  1.00  0.00     0.191 C 
BRANCH  29  30
ATOM     30  O   UNL     1     159.932 154.287 163.798  1.00  0.00    -0.394 OA
ATOM     31  H   UNL     1     160.721 154.761 164.168  1.00  0.00     0.210 HD
ENDBRANCH  29  30
ENDBRANCH  21  29
ENDBRANCH   1  17
TORSDOF 13
ENDMDL
MODEL 8
REMARK VINA RESULT:    -6.316      2.976      6.964
REMARK INTER + INTRA:         -10.771
REMARK INTER:                  -9.442
REMARK INTRA:                  -1.329
REMARK UNBOUND:                -1.132
REMARK SMILES OC[C@@H]1O[C@@](CO)(O[C@@H]2O[C@H](CO)[C@@H](O)[C@@H](O)[C@@H]2O)[C@H](O)[C@H]1O
REMARK SMILES IDX 8 1 9 2 11 3 14 4 10 5 16 6 18 7 12 8 13 9 15 11 17 13 19 15
REMARK SMILES IDX 5 17 20 18 4 19 22 20 3 21 6 22 7 23 21 25 23 27 2 29 1 30
REMARK H PARENT 13 10 15 12 17 14 19 16 7 24 21 26 23 28 1 31
REMARK Flexibility Score: inf
ROOT
ATOM      1  O   UNL     1     157.819 159.194 156.771  1.00  0.00    -0.313 OA
ENDROOT
BRANCH   1   2
ATOM      2  C   UNL     1     159.149 159.646 156.562  1.00  0.00     0.285 C 
ATOM      3  C   UNL     1     159.476 161.561 157.994  1.00  0.00     0.178 C 
ATOM      4  C   UNL     1     158.216 162.130 157.288  1.00  0.00     0.177 C 
ATOM      5  O   UNL     1     159.676 160.163 157.782  1.00  0.00    -0.341 OA
ATOM      6  C   UNL     1     158.301 161.910 155.755  1.00  0.00     0.179 C 
ATOM      7  C   UNL     1     159.173 160.680 155.416  1.00  0.00     0.202 C 
BRANCH   3   8
ATOM      8  C   UNL     1     159.406 161.804 159.507  1.00  0.00     0.191 C 
BRANCH   8   9
ATOM      9  O   UNL     1     159.823 163.111 159.795  1.00  0.00    -0.394 OA
ATOM     10  H   UNL     1     160.558 163.312 159.161  1.00  0.00     0.210 HD
ENDBRANCH   8   9
ENDBRANCH   3   8
BRANCH   4  11
ATOM     11  O   UNL     1     158.070 163.496 157.584  1.00  0.00    -0.387 OA
ATOM     12  H   UNL     1     158.792 163.972 157.097  1.00  0.00     0.211 HD
ENDBRANCH   4  11
BRANCH   6  13
ATOM     13  O   UNL     1     158.851 163.037 155.116  1.00  0.00    -0.387 OA
ATOM     14  H   UNL     1     158.702 163.815 155.716  1.00  0.00     0.211 HD
ENDBRANCH   6  13
BRANCH   7  15
ATOM     15  O   UNL     1     158.786 160.101 154.194  1.00  0.00    -0.385 OA
ATOM     16  H   UNL     1     159.452 159.403 153.962  1.00  0.00     0.211 HD
ENDBRANCH   7  15
ENDBRANCH   1   2
BRANCH   1  17
ATOM     17  C   UNL     1     157.610 157.829 156.418  1.00  0.00     0.224 C 
ATOM     18  C   UNL     1     156.403 157.705 155.462  1.00  0.00     0.208 C 
ATOM     19  O   UNL     1     158.742 157.267 155.770  1.00  0.00    -0.337 OA
ATOM     20  C   UNL     1     156.788 156.536 154.585  1.00  0.00     0.180 C 
ATOM     21  C   UNL     1     158.312 156.639 154.578  1.00  0.00     0.179 C 
BRANCH  17  22
ATOM     22  C   UNL     1     157.418 157.042 157.731  1.00  0.00     0.225 C 
BRANCH  22  23
ATOM     23  O   UNL     1     158.447 156.106 157.904  1.00  0.00    -0.391 OA
ATOM     24  H   UNL     1     159.290 156.629 157.953  1.00  0.00     0.210 HD
ENDBRANCH  22  23
ENDBRANCH  17  22
BRANCH  18  25
ATOM     25  O   UNL     1     155.159 157.546 156.106  1.00  0.00    -0.385 OA
ATOM     26  H   UNL     1     154.775 158.440 156.296  1.00  0.00     0.211 HD
ENDBRANCH  18  25
BRANCH  20  27
ATOM     27  O   UNL     1     156.272 156.673 153.288  1.00  0.00    -0.387 OA
ATOM     28  H   UNL     1     156.931 157.217 152.782  1.00  0.00     0.211 HD
ENDBRANCH  20  27
BRANCH  21  29
ATOM     29  C   UNL     1     158.977 155.264 154.443  1.00  0.00     0.191 C 
BRANCH  29  30
ATOM     30  O   UNL     1     158.019 154.286 154.140  1.00  0.00    -0.394 OA
ATOM     31  H   UNL     1     157.209 154.768 153.830  1.00  0.00     0.210 HD
ENDBRANCH  29  30
ENDBRANCH  21  29
ENDBRANCH   1  17
TORSDOF 13
ENDMDL
MODEL 9
REMARK VINA RESULT:    -6.169      3.496      5.589
REMARK INTER + INTRA:         -10.546
REMARK INTER:                  -8.795
REMARK INTRA:                  -1.751
REMARK UNBOUND:                -1.132
REMARK SMILES OC[C@@H]1O[C@@](CO)(O[C@@H]2O[C@H](CO)[C@@H](O)[C@@H](O)[C@@H]2O)[C@H](O)[C@H]1O
REMARK SMILES IDX 8 1 9 2 11 3 14 4 10 5 16 6 18 7 12 8 13 9 15 11 17 13 19 15
REMARK SMILES IDX 5 17 20 18 4 19 22 20 3 21 6 22 7 23 21 25 23 27 2 29 1 30
REMARK H PARENT 13 10 15 12 17 14 19 16 7 24 21 26 23 28 1 31
REMARK Flexibility Score: inf
ROOT
ATOM      1  O   UNL     1     158.428 158.535 155.871  1.00  0.00    -0.313 OA
ENDROOT
BRANCH   1   2
ATOM      2  C   UNL     1     157.128 158.857 155.393  1.00  0.00     0.285 C 
ATOM      3  C   UNL     1     155.693 156.998 155.947  1.00  0.00     0.178 C 
ATOM      4  C   UNL     1     156.740 156.141 155.185  1.00  0.00     0.177 C 
ATOM      5  O   UNL     1     156.147 158.312 156.272  1.00  0.00    -0.341 OA
ATOM      6  C   UNL     1     157.142 156.827 153.853  1.00  0.00     0.179 C 
ATOM      7  C   UNL     1     156.971 158.360 153.940  1.00  0.00     0.202 C 
BRANCH   3   8
ATOM      8  C   UNL     1     155.273 156.307 157.250  1.00  0.00     0.191 C 
BRANCH   8   9
ATOM      9  O   UNL     1     156.393 155.727 157.861  1.00  0.00    -0.394 OA
ATOM     10  H   UNL     1     157.113 155.733 157.180  1.00  0.00     0.210 HD
ENDBRANCH   8   9
ENDBRANCH   3   8
BRANCH   4  11
ATOM     11  O   UNL     1     156.230 154.854 154.944  1.00  0.00    -0.387 OA
ATOM     12  H   UNL     1     156.343 154.679 153.974  1.00  0.00     0.211 HD
ENDBRANCH   4  11
BRANCH   6  13
ATOM     13  O   UNL     1     156.357 156.349 152.786  1.00  0.00    -0.387 OA
ATOM     14  H   UNL     1     155.665 155.754 153.176  1.00  0.00     0.211 HD
ENDBRANCH   6  13
BRANCH   7  15
ATOM     15  O   UNL     1     157.856 159.024 153.072  1.00  0.00    -0.385 OA
ATOM     16  H   UNL     1     158.633 158.427 152.912  1.00  0.00     0.211 HD
ENDBRANCH   7  15
ENDBRANCH   1   2
BRANCH   1  17
ATOM     17  C   UNL     1     159.168 159.660 156.336  1.00  0.00     0.224 C 
ATOM     18  C   UNL     1     158.545 160.967 155.799  1.00  0.00     0.208 C 
ATOM     19  O   UNL     1     159.190 159.735 157.754  1.00  0.00    -0.337 OA
ATOM     20  C   UNL     1     158.815 161.950 156.914  1.00  0.00     0.180 C 
ATOM     21  C   UNL     1     158.810 161.041 158.141  1.00  0.00     0.179 C 
BRANCH  17  22
ATOM     22  C   UNL     1     160.629 159.462 155.883  1.00  0.00     0.225 C 
BRANCH  22  23
ATOM     23  O   UNL     1     160.681 158.884 154.607  1.00  0.00    -0.391 OA
ATOM     24  H   UNL     1     159.918 159.267 154.100  1.00  0.00     0.210 HD
ENDBRANCH  22  23
ENDBRANCH  17  22
BRANCH  18  25
ATOM     25  O   UNL     1     159.040 161.380 154.545  1.00  0.00    -0.385 OA
ATOM     26  H   UNL     1     159.832 160.832 154.312  1.00  0.00     0.211 HD
ENDBRANCH  18  25
BRANCH  20  27
ATOM     27  O   UNL     1     157.802 162.916 157.005  1.00  0.00    -0.387 OA
ATOM     28  H   UNL     1     157.105 162.653 156.349  1.00  0.00     0.211 HD
ENDBRANCH  20  27
BRANCH  21  29
ATOM     29  C   UNL     1     159.751 161.556 159.237  1.00  0.00     0.191 C 
BRANCH  29  30
ATOM     30  O   UNL     1     159.688 162.954 159.318  1.00  0.00    -0.394 OA
ATOM     31  H   UNL     1     158.785 163.216 159.003  1.00  0.00     0.210 HD
ENDBRANCH  29  30
ENDBRANCH  21  29
ENDBRANCH   1  17
TORSDOF 13
ENDMDL
