MODEL 1
REMARK VINA RESULT:    -6.786      0.000      0.000
REMARK INTER + INTRA:          -8.752
REMARK INTER:                  -8.373
REMARK INTRA:                  -0.378
REMARK UNBOUND:                -0.378
REMARK SMILES COc1cc(-c2oc3cc(O)cc(O)c3c(=O)c2O)ccc1O
REMARK SMILES IDX 6 1 18 2 16 3 17 4 15 5 13 6 12 7 10 8 9 9 8 10 7 11 5 12
REMARK SMILES IDX 3 13 22 14 4 15 21 16 20 17 2 18 1 19 23 20 19 22 14 24
REMARK SMILES IDX 11 26
REMARK H PARENT 23 21 19 23 14 25 11 27
REMARK Flexibility Score: inf
ROOT
ATOM      1  C   UNL     1      26.677   9.160 -32.645  1.00  0.00     0.180 A 
ATOM      2  C   UNL     1      26.599  10.481 -32.174  1.00  0.00     0.208 A 
ATOM      3  C   UNL     1      27.655  11.366 -32.448  1.00  0.00     0.238 A 
ATOM      4  O   UNL     1      27.555  12.562 -32.069  1.00  0.00    -0.285 OA
ATOM      5  C   UNL     1      28.782  10.914 -33.175  1.00  0.00     0.111 A 
ATOM      6  C   UNL     1      29.926  11.712 -33.475  1.00  0.00     0.134 A 
ATOM      7  C   UNL     1      30.924  11.200 -34.314  1.00  0.00     0.093 A 
ATOM      8  C   UNL     1      30.852   9.898 -34.809  1.00  0.00     0.123 A 
ATOM      9  C   UNL     1      29.766   9.089 -34.472  1.00  0.00     0.094 A 
ATOM     10  C   UNL     1      28.737   9.583 -33.668  1.00  0.00     0.146 A 
ATOM     11  O   UNL     1      27.717   8.784 -33.380  1.00  0.00    -0.452 OA
ENDROOT
BRANCH   1  12
ATOM     12  C   UNL     1      25.615   8.162 -32.375  1.00  0.00     0.025 A 
ATOM     13  C   UNL     1      24.590   6.549 -30.852  1.00  0.00     0.161 A 
ATOM     14  C   UNL     1      23.584   6.305 -31.798  1.00  0.00     0.157 A 
ATOM     15  C   UNL     1      25.601   7.485 -31.144  1.00  0.00     0.062 A 
ATOM     16  C   UNL     1      23.585   6.993 -33.017  1.00  0.00     0.051 A 
ATOM     17  C   UNL     1      24.588   7.920 -33.302  1.00  0.00     0.016 A 
BRANCH  13  18
ATOM     18  O   UNL     1      24.550   5.844 -29.638  1.00  0.00    -0.493 OA
ATOM     19  C   UNL     1      25.700   5.471 -28.885  1.00  0.00     0.278 C 
ENDBRANCH  13  18
BRANCH  14  20
ATOM     20  O   UNL     1      22.582   5.378 -31.516  1.00  0.00    -0.504 OA
ATOM     21  H   UNL     1      22.677   4.706 -30.763  1.00  0.00     0.293 HD
ENDBRANCH  14  20
ENDBRANCH   1  12
BRANCH   2  22
ATOM     22  O   UNL     1      25.467  10.913 -31.476  1.00  0.00    -0.502 OA
ATOM     23  H   UNL     1      24.913  10.293 -30.898  1.00  0.00     0.293 HD
ENDBRANCH   2  22
BRANCH   6  24
ATOM     24  O   UNL     1      30.142  12.992 -32.957  1.00  0.00    -0.507 OA
ATOM     25  H   UNL     1      30.023  13.849 -33.475  1.00  0.00     0.293 HD
ENDBRANCH   6  24
BRANCH   8  26
ATOM     26  O   UNL     1      31.871   9.417 -35.627  1.00  0.00    -0.508 OA
ATOM     27  H   UNL     1      31.988   9.746 -36.579  1.00  0.00     0.293 HD
ENDBRANCH   8  26
TORSDOF 6
ENDMDL
MODEL 2
REMARK VINA RESULT:    -6.732      0.982      2.084
REMARK INTER + INTRA:          -8.684
REMARK INTER:                  -8.533
REMARK INTRA:                  -0.151
REMARK UNBOUND:                -0.378
REMARK SMILES COc1cc(-c2oc3cc(O)cc(O)c3c(=O)c2O)ccc1O
REMARK SMILES IDX 6 1 18 2 16 3 17 4 15 5 13 6 12 7 10 8 9 9 8 10 7 11 5 12
REMARK SMILES IDX 3 13 22 14 4 15 21 16 20 17 2 18 1 19 23 20 19 22 14 24
REMARK SMILES IDX 11 26
REMARK H PARENT 23 21 19 23 14 25 11 27
REMARK Flexibility Score: inf
ROOT
ATOM      1  C   UNL     1      26.637   9.310 -32.730  1.00  0.00     0.180 A 
ATOM      2  C   UNL     1      26.597  10.625 -32.238  1.00  0.00     0.208 A 
ATOM      3  C   UNL     1      27.692  11.474 -32.471  1.00  0.00     0.238 A 
ATOM      4  O   UNL     1      27.627  12.667 -32.075  1.00  0.00    -0.285 OA
ATOM      5  C   UNL     1      28.819  10.992 -33.178  1.00  0.00     0.111 A 
ATOM      6  C   UNL     1      29.999  11.751 -33.436  1.00  0.00     0.134 A 
ATOM      7  C   UNL     1      30.999  11.215 -34.259  1.00  0.00     0.093 A 
ATOM      8  C   UNL     1      30.891   9.926 -34.777  1.00  0.00     0.123 A 
ATOM      9  C   UNL     1      29.767   9.152 -34.481  1.00  0.00     0.094 A 
ATOM     10  C   UNL     1      28.738   9.672 -33.694  1.00  0.00     0.146 A 
ATOM     11  O   UNL     1      27.681   8.907 -33.445  1.00  0.00    -0.452 OA
ENDROOT
BRANCH   1  12
ATOM     12  C   UNL     1      25.533   8.349 -32.503  1.00  0.00     0.025 A 
ATOM     13  C   UNL     1      23.931   6.740 -33.409  1.00  0.00     0.161 A 
ATOM     14  C   UNL     1      23.475   6.472 -32.111  1.00  0.00     0.157 A 
ATOM     15  C   UNL     1      24.967   7.676 -33.599  1.00  0.00     0.062 A 
ATOM     16  C   UNL     1      24.052   7.127 -31.015  1.00  0.00     0.051 A 
ATOM     17  C   UNL     1      25.078   8.053 -31.208  1.00  0.00     0.016 A 
BRANCH  13  18
ATOM     18  O   UNL     1      23.333   6.059 -34.482  1.00  0.00    -0.493 OA
ATOM     19  C   UNL     1      23.822   6.072 -35.819  1.00  0.00     0.278 C 
ENDBRANCH  13  18
BRANCH  14  20
ATOM     20  O   UNL     1      22.450   5.549 -31.917  1.00  0.00    -0.504 OA
ATOM     21  H   UNL     1      22.136   5.291 -30.989  1.00  0.00     0.293 HD
ENDBRANCH  14  20
ENDBRANCH   1  12
BRANCH   2  22
ATOM     22  O   UNL     1      25.465  11.089 -31.561  1.00  0.00    -0.502 OA
ATOM     23  H   UNL     1      25.301  12.072 -31.384  1.00  0.00     0.293 HD
ENDBRANCH   2  22
BRANCH   6  24
ATOM     24  O   UNL     1      30.249  13.014 -32.892  1.00  0.00    -0.507 OA
ATOM     25  H   UNL     1      31.071  13.568 -33.078  1.00  0.00     0.293 HD
ENDBRANCH   6  24
BRANCH   8  26
ATOM     26  O   UNL     1      31.912   9.419 -35.578  1.00  0.00    -0.508 OA
ATOM     27  H   UNL     1      32.120   8.428 -35.608  1.00  0.00     0.293 HD
ENDBRANCH   8  26
TORSDOF 6
ENDMDL
MODEL 3
REMARK VINA RESULT:    -6.176      1.528      7.180
REMARK INTER + INTRA:          -7.998
REMARK INTER:                  -7.651
REMARK INTRA:                  -0.347
REMARK UNBOUND:                -0.378
REMARK SMILES COc1cc(-c2oc3cc(O)cc(O)c3c(=O)c2O)ccc1O
REMARK SMILES IDX 6 1 18 2 16 3 17 4 15 5 13 6 12 7 10 8 9 9 8 10 7 11 5 12
REMARK SMILES IDX 3 13 22 14 4 15 21 16 20 17 2 18 1 19 23 20 19 22 14 24
REMARK SMILES IDX 11 26
REMARK H PARENT 23 21 19 23 14 25 11 27
REMARK Flexibility Score: inf
ROOT
ATOM      1  C   UNL     1      26.262   8.763 -31.547  1.00  0.00     0.180 A 
ATOM      2  C   UNL     1      24.961   8.705 -32.073  1.00  0.00     0.208 A 
ATOM      3  C   UNL     1      24.102   7.673 -31.659  1.00  0.00     0.238 A 
ATOM      4  O   UNL     1      22.921   7.658 -32.093  1.00  0.00    -0.285 OA
ATOM      5  C   UNL     1      24.562   6.704 -30.735  1.00  0.00     0.111 A 
ATOM      6  C   UNL     1      23.792   5.593 -30.277  1.00  0.00     0.134 A 
ATOM      7  C   UNL     1      24.302   4.771 -29.264  1.00  0.00     0.093 A 
ATOM      8  C   UNL     1      25.577   4.979 -28.740  1.00  0.00     0.123 A 
ATOM      9  C   UNL     1      26.362   6.027 -29.224  1.00  0.00     0.094 A 
ATOM     10  C   UNL     1      25.867   6.885 -30.208  1.00  0.00     0.146 A 
ATOM     11  O   UNL     1      26.641   7.877 -30.634  1.00  0.00    -0.452 OA
ENDROOT
BRANCH   1  12
ATOM     12  C   UNL     1      27.232   9.805 -31.954  1.00  0.00     0.025 A 
ATOM     13  C   UNL     1      29.123  10.484 -33.347  1.00  0.00     0.161 A 
ATOM     14  C   UNL     1      29.055  11.773 -32.800  1.00  0.00     0.157 A 
ATOM     15  C   UNL     1      28.203   9.504 -32.924  1.00  0.00     0.062 A 
ATOM     16  C   UNL     1      28.075  12.081 -31.848  1.00  0.00     0.051 A 
ATOM     17  C   UNL     1      27.165  11.108 -31.433  1.00  0.00     0.016 A 
BRANCH  13  18
ATOM     18  O   UNL     1      30.115  10.216 -34.304  1.00  0.00    -0.493 OA
ATOM     19  C   UNL     1      30.417   8.919 -34.810  1.00  0.00     0.278 C 
ENDBRANCH  13  18
BRANCH  14  20
ATOM     20  O   UNL     1      29.963  12.746 -33.213  1.00  0.00    -0.504 OA
ATOM     21  H   UNL     1      29.790  13.321 -34.029  1.00  0.00     0.293 HD
ENDBRANCH  14  20
ENDBRANCH   1  12
BRANCH   2  22
ATOM     22  O   UNL     1      24.519   9.685 -32.968  1.00  0.00    -0.502 OA
ATOM     23  H   UNL     1      24.458   9.524 -33.965  1.00  0.00     0.293 HD
ENDBRANCH   2  22
BRANCH   6  24
ATOM     24  O   UNL     1      22.544   5.240 -30.799  1.00  0.00    -0.507 OA
ATOM     25  H   UNL     1      21.659   5.456 -30.367  1.00  0.00     0.293 HD
ENDBRANCH   6  24
BRANCH   8  26
ATOM     26  O   UNL     1      26.058   4.132 -27.745  1.00  0.00    -0.508 OA
ATOM     27  H   UNL     1      27.049   3.941 -27.644  1.00  0.00     0.293 HD
ENDBRANCH   8  26
TORSDOF 6
ENDMDL
MODEL 4
REMARK VINA RESULT:    -6.110      1.800      6.795
REMARK INTER + INTRA:          -7.917
REMARK INTER:                  -7.517
REMARK INTRA:                  -0.400
REMARK UNBOUND:                -0.378
REMARK SMILES COc1cc(-c2oc3cc(O)cc(O)c3c(=O)c2O)ccc1O
REMARK SMILES IDX 6 1 18 2 16 3 17 4 15 5 13 6 12 7 10 8 9 9 8 10 7 11 5 12
REMARK SMILES IDX 3 13 22 14 4 15 21 16 20 17 2 18 1 19 23 20 19 22 14 24
REMARK SMILES IDX 11 26
REMARK H PARENT 23 21 19 23 14 25 11 27
REMARK Flexibility Score: inf
ROOT
ATOM      1  C   UNL     1      26.852   8.465 -32.442  1.00  0.00     0.180 A 
ATOM      2  C   UNL     1      25.527   8.764 -32.084  1.00  0.00     0.208 A 
ATOM      3  C   UNL     1      24.871   7.944 -31.151  1.00  0.00     0.238 A 
ATOM      4  O   UNL     1      23.703   8.248 -30.794  1.00  0.00    -0.285 OA
ATOM      5  C   UNL     1      25.544   6.827 -30.599  1.00  0.00     0.111 A 
ATOM      6  C   UNL     1      24.963   5.906 -29.677  1.00  0.00     0.134 A 
ATOM      7  C   UNL     1      25.764   4.913 -29.097  1.00  0.00     0.093 A 
ATOM      8  C   UNL     1      27.103   4.767 -29.455  1.00  0.00     0.123 A 
ATOM      9  C   UNL     1      27.665   5.625 -30.402  1.00  0.00     0.094 A 
ATOM     10  C   UNL     1      26.902   6.647 -30.970  1.00  0.00     0.146 A 
ATOM     11  O   UNL     1      27.477   7.449 -31.859  1.00  0.00    -0.452 OA
ENDROOT
BRANCH   1  12
ATOM     12  C   UNL     1      27.600   9.267 -33.437  1.00  0.00     0.025 A 
ATOM     13  C   UNL     1      29.224  11.030 -33.919  1.00  0.00     0.161 A 
ATOM     14  C   UNL     1      29.084  10.774 -35.291  1.00  0.00     0.157 A 
ATOM     15  C   UNL     1      28.482  10.268 -32.995  1.00  0.00     0.062 A 
ATOM     16  C   UNL     1      28.220   9.765 -35.733  1.00  0.00     0.051 A 
ATOM     17  C   UNL     1      27.489   9.011 -34.814  1.00  0.00     0.016 A 
BRANCH  13  18
ATOM     18  O   UNL     1      30.105  12.046 -33.515  1.00  0.00    -0.493 OA
ATOM     19  C   UNL     1      29.757  13.113 -32.640  1.00  0.00     0.278 C 
ENDBRANCH  13  18
BRANCH  14  20
ATOM     20  O   UNL     1      29.814  11.526 -36.210  1.00  0.00    -0.504 OA
ATOM     21  H   UNL     1      29.752  11.352 -37.206  1.00  0.00     0.293 HD
ENDBRANCH  14  20
ENDBRANCH   1  12
BRANCH   2  22
ATOM     22  O   UNL     1      24.887   9.884 -32.624  1.00  0.00    -0.502 OA
ATOM     23  H   UNL     1      23.882  10.001 -32.600  1.00  0.00     0.293 HD
ENDBRANCH   2  22
BRANCH   6  24
ATOM     24  O   UNL     1      23.612   5.905 -29.320  1.00  0.00    -0.507 OA
ATOM     25  H   UNL     1      23.254   6.197 -28.424  1.00  0.00     0.293 HD
ENDBRANCH   6  24
BRANCH   8  26
ATOM     26  O   UNL     1      27.865   3.758 -28.869  1.00  0.00    -0.508 OA
ATOM     27  H   UNL     1      27.454   2.871 -28.600  1.00  0.00     0.293 HD
ENDBRANCH   8  26
TORSDOF 6
ENDMDL
MODEL 5
REMARK VINA RESULT:    -6.064      1.138      1.997
REMARK INTER + INTRA:          -7.860
REMARK INTER:                  -7.481
REMARK INTRA:                  -0.380
REMARK UNBOUND:                -0.378
REMARK SMILES COc1cc(-c2oc3cc(O)cc(O)c3c(=O)c2O)ccc1O
REMARK SMILES IDX 6 1 18 2 16 3 17 4 15 5 13 6 12 7 10 8 9 9 8 10 7 11 5 12
REMARK SMILES IDX 3 13 22 14 4 15 21 16 20 17 2 18 1 19 23 20 19 22 14 24
REMARK SMILES IDX 11 26
REMARK H PARENT 23 21 19 23 14 25 11 27
REMARK Flexibility Score: inf
ROOT
ATOM      1  C   UNL     1      26.971   8.611 -32.398  1.00  0.00     0.180 A 
ATOM      2  C   UNL     1      26.523   9.928 -32.202  1.00  0.00     0.208 A 
ATOM      3  C   UNL     1      27.304  10.992 -32.685  1.00  0.00     0.238 A 
ATOM      4  O   UNL     1      26.871  12.166 -32.555  1.00  0.00    -0.285 OA
ATOM      5  C   UNL     1      28.529  10.725 -33.342  1.00  0.00     0.111 A 
ATOM      6  C   UNL     1      29.418  11.726 -33.835  1.00  0.00     0.134 A 
ATOM      7  C   UNL     1      30.539  11.345 -34.585  1.00  0.00     0.093 A 
ATOM      8  C   UNL     1      30.837  10.001 -34.802  1.00  0.00     0.123 A 
ATOM      9  C   UNL     1      30.006   9.012 -34.272  1.00  0.00     0.094 A 
ATOM     10  C   UNL     1      28.862   9.361 -33.552  1.00  0.00     0.146 A 
ATOM     11  O   UNL     1      28.092   8.390 -33.075  1.00  0.00    -0.452 OA
ENDROOT
BRANCH   1  12
ATOM     12  C   UNL     1      26.216   7.439 -31.896  1.00  0.00     0.025 A 
ATOM     13  C   UNL     1      24.451   5.780 -32.227  1.00  0.00     0.161 A 
ATOM     14  C   UNL     1      24.797   5.178 -31.009  1.00  0.00     0.157 A 
ATOM     15  C   UNL     1      25.170   6.908 -32.670  1.00  0.00     0.062 A 
ATOM     16  C   UNL     1      25.852   5.693 -30.245  1.00  0.00     0.051 A 
ATOM     17  C   UNL     1      26.562   6.811 -30.688  1.00  0.00     0.016 A 
BRANCH  13  18
ATOM     18  O   UNL     1      23.392   5.230 -32.967  1.00  0.00    -0.493 OA
ATOM     19  C   UNL     1      23.552   4.310 -34.041  1.00  0.00     0.278 C 
ENDBRANCH  13  18
BRANCH  14  20
ATOM     20  O   UNL     1      24.088   4.063 -30.565  1.00  0.00    -0.504 OA
ATOM     21  H   UNL     1      24.471   3.128 -30.639  1.00  0.00     0.293 HD
ENDBRANCH  14  20
ENDBRANCH   1  12
BRANCH   2  22
ATOM     22  O   UNL     1      25.300  10.169 -31.570  1.00  0.00    -0.502 OA
ATOM     23  H   UNL     1      25.230  10.662 -30.689  1.00  0.00     0.293 HD
ENDBRANCH   2  22
BRANCH   6  24
ATOM     24  O   UNL     1      29.263  13.094 -33.596  1.00  0.00    -0.507 OA
ATOM     25  H   UNL     1      28.907  13.491 -32.740  1.00  0.00     0.293 HD
ENDBRANCH   6  24
BRANCH   8  26
ATOM     26  O   UNL     1      31.969   9.658 -35.538  1.00  0.00    -0.508 OA
ATOM     27  H   UNL     1      32.617  10.363 -35.874  1.00  0.00     0.293 HD
ENDBRANCH   8  26
TORSDOF 6
ENDMDL
MODEL 6
REMARK VINA RESULT:    -5.906      1.607      6.970
REMARK INTER + INTRA:          -7.665
REMARK INTER:                  -7.447
REMARK INTRA:                  -0.218
REMARK UNBOUND:                -0.378
REMARK SMILES COc1cc(-c2oc3cc(O)cc(O)c3c(=O)c2O)ccc1O
REMARK SMILES IDX 6 1 18 2 16 3 17 4 15 5 13 6 12 7 10 8 9 9 8 10 7 11 5 12
REMARK SMILES IDX 3 13 22 14 4 15 21 16 20 17 2 18 1 19 23 20 19 22 14 24
REMARK SMILES IDX 11 26
REMARK H PARENT 23 21 19 23 14 25 11 27
REMARK Flexibility Score: inf
ROOT
ATOM      1  C   UNL     1      26.317   8.822 -32.325  1.00  0.00     0.180 A 
ATOM      2  C   UNL     1      25.946   8.282 -31.083  1.00  0.00     0.208 A 
ATOM      3  C   UNL     1      25.013   7.232 -31.047  1.00  0.00     0.238 A 
ATOM      4  O   UNL     1      24.725   6.717 -29.936  1.00  0.00    -0.285 OA
ATOM      5  C   UNL     1      24.452   6.747 -32.253  1.00  0.00     0.111 A 
ATOM      6  C   UNL     1      23.469   5.715 -32.332  1.00  0.00     0.134 A 
ATOM      7  C   UNL     1      23.082   5.225 -33.586  1.00  0.00     0.093 A 
ATOM      8  C   UNL     1      23.592   5.773 -34.763  1.00  0.00     0.123 A 
ATOM      9  C   UNL     1      24.508   6.824 -34.697  1.00  0.00     0.094 A 
ATOM     10  C   UNL     1      24.941   7.309 -33.461  1.00  0.00     0.146 A 
ATOM     11  O   UNL     1      25.823   8.302 -33.443  1.00  0.00    -0.452 OA
ENDROOT
BRANCH   1  12
ATOM     12  C   UNL     1      27.275   9.946 -32.442  1.00  0.00     0.025 A 
ATOM     13  C   UNL     1      29.366  10.837 -33.341  1.00  0.00     0.161 A 
ATOM     14  C   UNL     1      29.091  12.073 -32.738  1.00  0.00     0.157 A 
ATOM     15  C   UNL     1      28.449   9.778 -33.195  1.00  0.00     0.062 A 
ATOM     16  C   UNL     1      27.912  12.250 -32.004  1.00  0.00     0.051 A 
ATOM     17  C   UNL     1      27.006  11.197 -31.863  1.00  0.00     0.016 A 
BRANCH  13  18
ATOM     18  O   UNL     1      30.556  10.702 -34.075  1.00  0.00    -0.493 OA
ATOM     19  C   UNL     1      30.798   9.678 -35.035  1.00  0.00     0.278 C 
ENDBRANCH  13  18
BRANCH  14  20
ATOM     20  O   UNL     1      29.995  13.125 -32.878  1.00  0.00    -0.504 OA
ATOM     21  H   UNL     1      29.692  14.091 -32.854  1.00  0.00     0.293 HD
ENDBRANCH  14  20
ENDBRANCH   1  12
BRANCH   2  22
ATOM     22  O   UNL     1      26.527   8.761 -29.905  1.00  0.00    -0.502 OA
ATOM     23  H   UNL     1      26.669   9.748 -29.730  1.00  0.00     0.293 HD
ENDBRANCH   2  22
BRANCH   6  24
ATOM     24  O   UNL     1      22.828   5.162 -31.220  1.00  0.00    -0.507 OA
ATOM     25  H   UNL     1      23.126   5.283 -30.265  1.00  0.00     0.293 HD
ENDBRANCH   6  24
BRANCH   8  26
ATOM     26  O   UNL     1      23.172   5.272 -35.992  1.00  0.00    -0.508 OA
ATOM     27  H   UNL     1      23.185   5.843 -36.830  1.00  0.00     0.293 HD
ENDBRANCH   8  26
TORSDOF 6
ENDMDL
MODEL 7
REMARK VINA RESULT:    -5.864     11.826     14.429
REMARK INTER + INTRA:          -7.614
REMARK INTER:                  -7.472
REMARK INTRA:                  -0.141
REMARK UNBOUND:                -0.378
REMARK SMILES COc1cc(-c2oc3cc(O)cc(O)c3c(=O)c2O)ccc1O
REMARK SMILES IDX 6 1 18 2 16 3 17 4 15 5 13 6 12 7 10 8 9 9 8 10 7 11 5 12
REMARK SMILES IDX 3 13 22 14 4 15 21 16 20 17 2 18 1 19 23 20 19 22 14 24
REMARK SMILES IDX 11 26
REMARK H PARENT 23 21 19 23 14 25 11 27
REMARK Flexibility Score: inf
ROOT
ATOM      1  C   UNL     1      34.630   5.561 -22.263  1.00  0.00     0.180 A 
ATOM      2  C   UNL     1      34.522   6.648 -21.380  1.00  0.00     0.208 A 
ATOM      3  C   UNL     1      33.275   7.275 -21.220  1.00  0.00     0.238 A 
ATOM      4  O   UNL     1      33.173   8.213 -20.388  1.00  0.00    -0.285 OA
ATOM      5  C   UNL     1      32.157   6.816 -21.957  1.00  0.00     0.111 A 
ATOM      6  C   UNL     1      30.856   7.402 -21.904  1.00  0.00     0.134 A 
ATOM      7  C   UNL     1      29.794   6.785 -22.576  1.00  0.00     0.093 A 
ATOM      8  C   UNL     1      29.997   5.644 -23.351  1.00  0.00     0.123 A 
ATOM      9  C   UNL     1      31.277   5.098 -23.458  1.00  0.00     0.094 A 
ATOM     10  C   UNL     1      32.349   5.669 -22.771  1.00  0.00     0.146 A 
ATOM     11  O   UNL     1      33.549   5.113 -22.890  1.00  0.00    -0.452 OA
ENDROOT
BRANCH   1  12
ATOM     12  C   UNL     1      35.916   4.865 -22.503  1.00  0.00     0.025 A 
ATOM     13  C   UNL     1      38.267   4.968 -23.166  1.00  0.00     0.161 A 
ATOM     14  C   UNL     1      38.391   3.595 -22.914  1.00  0.00     0.157 A 
ATOM     15  C   UNL     1      37.026   5.600 -22.952  1.00  0.00     0.062 A 
ATOM     16  C   UNL     1      37.292   2.863 -22.448  1.00  0.00     0.051 A 
ATOM     17  C   UNL     1      36.065   3.494 -22.236  1.00  0.00     0.016 A 
BRANCH  13  18
ATOM     18  O   UNL     1      39.394   5.668 -23.627  1.00  0.00    -0.493 OA
ATOM     19  C   UNL     1      40.289   6.394 -22.790  1.00  0.00     0.278 C 
ENDBRANCH  13  18
BRANCH  14  20
ATOM     20  O   UNL     1      39.615   2.963 -23.126  1.00  0.00    -0.504 OA
ATOM     21  H   UNL     1      39.870   2.118 -22.628  1.00  0.00     0.293 HD
ENDBRANCH  14  20
ENDBRANCH   1  12
BRANCH   2  22
ATOM     22  O   UNL     1      35.634   7.071 -20.645  1.00  0.00    -0.502 OA
ATOM     23  H   UNL     1      35.839   8.049 -20.482  1.00  0.00     0.293 HD
ENDBRANCH   2  22
BRANCH   6  24
ATOM     24  O   UNL     1      30.564   8.593 -21.233  1.00  0.00    -0.507 OA
ATOM     25  H   UNL     1      29.654   8.844 -20.879  1.00  0.00     0.293 HD
ENDBRANCH   6  24
BRANCH   8  26
ATOM     26  O   UNL     1      28.920   5.066 -24.019  1.00  0.00    -0.508 OA
ATOM     27  H   UNL     1      28.807   5.157 -25.023  1.00  0.00     0.293 HD
ENDBRANCH   8  26
TORSDOF 6
ENDMDL
MODEL 8
REMARK VINA RESULT:    -5.844     11.688     14.213
REMARK INTER + INTRA:          -7.589
REMARK INTER:                  -7.417
REMARK INTRA:                  -0.172
REMARK UNBOUND:                -0.378
REMARK SMILES COc1cc(-c2oc3cc(O)cc(O)c3c(=O)c2O)ccc1O
REMARK SMILES IDX 6 1 18 2 16 3 17 4 15 5 13 6 12 7 10 8 9 9 8 10 7 11 5 12
REMARK SMILES IDX 3 13 22 14 4 15 21 16 20 17 2 18 1 19 23 20 19 22 14 24
REMARK SMILES IDX 11 26
REMARK H PARENT 23 21 19 23 14 25 11 27
REMARK Flexibility Score: inf
ROOT
ATOM      1  C   UNL     1      34.657   5.977 -22.356  1.00  0.00     0.180 A 
ATOM      2  C   UNL     1      34.349   6.987 -21.429  1.00  0.00     0.208 A 
ATOM      3  C   UNL     1      33.013   7.397 -21.286  1.00  0.00     0.238 A 
ATOM      4  O   UNL     1      32.736   8.263 -20.416  1.00  0.00    -0.285 OA
ATOM      5  C   UNL     1      32.005   6.802 -22.082  1.00  0.00     0.111 A 
ATOM      6  C   UNL     1      30.626   7.168 -22.049  1.00  0.00     0.134 A 
ATOM      7  C   UNL     1      29.696   6.423 -22.787  1.00  0.00     0.093 A 
ATOM      8  C   UNL     1      30.103   5.370 -23.605  1.00  0.00     0.123 A 
ATOM      9  C   UNL     1      31.458   5.043 -23.691  1.00  0.00     0.094 A 
ATOM     10  C   UNL     1      32.404   5.744 -22.940  1.00  0.00     0.146 A 
ATOM     11  O   UNL     1      33.681   5.394 -23.042  1.00  0.00    -0.452 OA
ENDROOT
BRANCH   1  12
ATOM     12  C   UNL     1      36.044   5.510 -22.581  1.00  0.00     0.025 A 
ATOM     13  C   UNL     1      37.643   3.665 -22.714  1.00  0.00     0.161 A 
ATOM     14  C   UNL     1      38.653   4.574 -23.060  1.00  0.00     0.157 A 
ATOM     15  C   UNL     1      36.336   4.139 -22.482  1.00  0.00     0.062 A 
ATOM     16  C   UNL     1      38.360   5.938 -23.179  1.00  0.00     0.051 A 
ATOM     17  C   UNL     1      37.064   6.403 -22.949  1.00  0.00     0.016 A 
BRANCH  13  18
ATOM     18  O   UNL     1      37.974   2.304 -22.611  1.00  0.00    -0.493 OA
ATOM     19  C   UNL     1      37.766   1.344 -23.642  1.00  0.00     0.278 C 
ENDBRANCH  13  18
BRANCH  14  20
ATOM     20  O   UNL     1      39.947   4.111 -23.289  1.00  0.00    -0.504 OA
ATOM     21  H   UNL     1      40.681   4.728 -23.617  1.00  0.00     0.293 HD
ENDBRANCH  14  20
ENDBRANCH   1  12
BRANCH   2  22
ATOM     22  O   UNL     1      35.356   7.546 -20.637  1.00  0.00    -0.502 OA
ATOM     23  H   UNL     1      35.827   8.408 -20.882  1.00  0.00     0.293 HD
ENDBRANCH   2  22
BRANCH   6  24
ATOM     24  O   UNL     1      30.125   8.261 -21.337  1.00  0.00    -0.507 OA
ATOM     25  H   UNL     1      30.600   8.715 -20.572  1.00  0.00     0.293 HD
ENDBRANCH   6  24
BRANCH   8  26
ATOM     26  O   UNL     1      29.153   4.661 -24.337  1.00  0.00    -0.508 OA
ATOM     27  H   UNL     1      28.234   5.045 -24.525  1.00  0.00     0.293 HD
ENDBRANCH   8  26
TORSDOF 6
ENDMDL
MODEL 9
REMARK VINA RESULT:    -5.742     13.920     15.298
REMARK INTER + INTRA:          -7.463
REMARK INTER:                  -7.074
REMARK INTRA:                  -0.389
REMARK UNBOUND:                -0.378
REMARK SMILES COc1cc(-c2oc3cc(O)cc(O)c3c(=O)c2O)ccc1O
REMARK SMILES IDX 6 1 18 2 16 3 17 4 15 5 13 6 12 7 10 8 9 9 8 10 7 11 5 12
REMARK SMILES IDX 3 13 22 14 4 15 21 16 20 17 2 18 1 19 23 20 19 22 14 24
REMARK SMILES IDX 11 26
REMARK H PARENT 23 21 19 23 14 25 11 27
REMARK Flexibility Score: inf
ROOT
ATOM      1  C   UNL     1      36.095   6.619 -20.823  1.00  0.00     0.180 A 
ATOM      2  C   UNL     1      36.768   6.294 -19.634  1.00  0.00     0.208 A 
ATOM      3  C   UNL     1      38.126   5.936 -19.694  1.00  0.00     0.238 A 
ATOM      4  O   UNL     1      38.737   5.698 -18.620  1.00  0.00    -0.285 OA
ATOM      5  C   UNL     1      38.787   5.894 -20.945  1.00  0.00     0.111 A 
ATOM      6  C   UNL     1      40.149   5.506 -21.129  1.00  0.00     0.134 A 
ATOM      7  C   UNL     1      40.736   5.627 -22.395  1.00  0.00     0.093 A 
ATOM      8  C   UNL     1      39.995   6.057 -23.495  1.00  0.00     0.123 A 
ATOM      9  C   UNL     1      38.646   6.381 -23.338  1.00  0.00     0.094 A 
ATOM     10  C   UNL     1      38.042   6.305 -22.081  1.00  0.00     0.146 A 
ATOM     11  O   UNL     1      36.760   6.633 -21.973  1.00  0.00    -0.452 OA
ENDROOT
BRANCH   1  12
ATOM     12  C   UNL     1      34.659   6.981 -20.842  1.00  0.00     0.025 A 
ATOM     13  C   UNL     1      32.323   6.292 -21.051  1.00  0.00     0.161 A 
ATOM     14  C   UNL     1      31.919   7.616 -20.827  1.00  0.00     0.157 A 
ATOM     15  C   UNL     1      33.697   5.979 -21.051  1.00  0.00     0.062 A 
ATOM     16  C   UNL     1      32.875   8.613 -20.599  1.00  0.00     0.051 A 
ATOM     17  C   UNL     1      34.235   8.298 -20.599  1.00  0.00     0.016 A 
BRANCH  13  18
ATOM     18  O   UNL     1      31.334   5.319 -21.269  1.00  0.00    -0.493 OA
ATOM     19  C   UNL     1      31.211   4.113 -20.522  1.00  0.00     0.278 C 
ENDBRANCH  13  18
BRANCH  14  20
ATOM     20  O   UNL     1      30.562   7.932 -20.828  1.00  0.00    -0.504 OA
ATOM     21  H   UNL     1      30.103   8.303 -20.004  1.00  0.00     0.293 HD
ENDBRANCH  14  20
ENDBRANCH   1  12
BRANCH   2  22
ATOM     22  O   UNL     1      36.102   6.363 -18.406  1.00  0.00    -0.502 OA
ATOM     23  H   UNL     1      36.593   6.380 -17.521  1.00  0.00     0.293 HD
ENDBRANCH   2  22
BRANCH   6  24
ATOM     24  O   UNL     1      40.952   4.976 -20.116  1.00  0.00    -0.507 OA
ATOM     25  H   UNL     1      40.994   4.000 -19.866  1.00  0.00     0.293 HD
ENDBRANCH   6  24
BRANCH   8  26
ATOM     26  O   UNL     1      40.608   6.149 -24.743  1.00  0.00    -0.508 OA
ATOM     27  H   UNL     1      40.967   5.330 -25.219  1.00  0.00     0.293 HD
ENDBRANCH   8  26
TORSDOF 6
ENDMDL
