MODEL 1
REMARK VINA RESULT:    -3.004      0.000      0.000
REMARK INTER + INTRA:          -3.565
REMARK INTER:                  -3.531
REMARK INTRA:                  -0.034
REMARK UNBOUND:                -0.034
REMARK SMILES O=C([O-])CCC(=O)[O-]
REMARK SMILES IDX 4 1 2 2 1 3 3 4 5 5 6 6 7 7 8 8
REMARK H PARENT
REMARK Flexibility Score: inf
ROOT
ATOM      1  C   UNL     1     118.835 113.650 116.920  1.00  0.00     0.059 C 
ENDROOT
BRANCH   1   2
ATOM      2  C   UNL     1     117.544 114.381 116.708  1.00  0.00     0.042 C 
ATOM      3  O   UNL     1     116.451 113.845 117.031  1.00  0.00    -0.550 OA
ATOM      4  O   UNL     1     117.547 115.637 116.115  1.00  0.00    -0.550 OA
ENDBRANCH   1   2
BRANCH   1   5
ATOM      5  C   UNL     1     118.771 112.737 118.150  1.00  0.00     0.059 C 
BRANCH   5   6
ATOM      6  C   UNL     1     119.918 111.774 118.183  1.00  0.00     0.042 C 
ATOM      7  O   UNL     1     120.796 111.865 119.081  1.00  0.00    -0.550 OA
ATOM      8  O   UNL     1     119.995 110.751 117.246  1.00  0.00    -0.550 OA
ENDBRANCH   5   6
ENDBRANCH   1   5
TORSDOF 3
ENDMDL
MODEL 2
REMARK VINA RESULT:    -2.882      1.295      4.309
REMARK INTER + INTRA:          -3.421
REMARK INTER:                  -3.319
REMARK INTRA:                  -0.102
REMARK UNBOUND:                -0.034
REMARK SMILES O=C([O-])CCC(=O)[O-]
REMARK SMILES IDX 4 1 2 2 1 3 3 4 5 5 6 6 7 7 8 8
REMARK H PARENT
REMARK Flexibility Score: inf
ROOT
ATOM      1  C   UNL     1     119.797 111.527 117.691  1.00  0.00     0.059 C 
ENDROOT
BRANCH   1   2
ATOM      2  C   UNL     1     120.846 111.556 118.760  1.00  0.00     0.042 C 
ATOM      3  O   UNL     1     120.858 112.483 119.613  1.00  0.00    -0.550 OA
ATOM      4  O   UNL     1     121.836 110.582 118.789  1.00  0.00    -0.550 OA
ENDBRANCH   1   2
BRANCH   1   5
ATOM      5  C   UNL     1     118.575 112.368 118.077  1.00  0.00     0.059 C 
BRANCH   5   6
ATOM      6  C   UNL     1     118.480 113.616 117.253  1.00  0.00     0.042 C 
ATOM      7  O   UNL     1     119.368 113.879 116.399  1.00  0.00    -0.550 OA
ATOM      8  O   UNL     1     117.392 114.467 117.399  1.00  0.00    -0.550 OA
ENDBRANCH   5   6
ENDBRANCH   1   5
TORSDOF 3
ENDMDL
MODEL 3
REMARK VINA RESULT:    -2.881      1.303      1.688
REMARK INTER + INTRA:          -3.420
REMARK INTER:                  -3.321
REMARK INTRA:                  -0.099
REMARK UNBOUND:                -0.034
REMARK SMILES O=C([O-])CCC(=O)[O-]
REMARK SMILES IDX 4 1 2 2 1 3 3 4 5 5 6 6 7 7 8 8
REMARK H PARENT
REMARK Flexibility Score: inf
ROOT
ATOM      1  C   UNL     1     118.572 112.353 118.074  1.00  0.00     0.059 C 
ENDROOT
BRANCH   1   2
ATOM      2  C   UNL     1     118.445 113.618 117.280  1.00  0.00     0.042 C 
ATOM      3  O   UNL     1     117.448 114.371 117.443  1.00  0.00    -0.550 OA
ATOM      4  O   UNL     1     119.406 113.942 116.332  1.00  0.00    -0.550 OA
ENDBRANCH   1   2
BRANCH   1   5
ATOM      5  C   UNL     1     119.804 111.544 117.653  1.00  0.00     0.059 C 
BRANCH   5   6
ATOM      6  C   UNL     1     120.854 111.542 118.721  1.00  0.00     0.042 C 
ATOM      7  O   UNL     1     120.875 112.452 119.591  1.00  0.00    -0.550 OA
ATOM      8  O   UNL     1     121.785 110.513 118.781  1.00  0.00    -0.550 OA
ENDBRANCH   5   6
ENDBRANCH   1   5
TORSDOF 3
ENDMDL
MODEL 4
REMARK VINA RESULT:    -2.842     11.659     12.554
REMARK INTER + INTRA:          -3.375
REMARK INTER:                  -3.346
REMARK INTRA:                  -0.029
REMARK UNBOUND:                -0.034
REMARK SMILES O=C([O-])CCC(=O)[O-]
REMARK SMILES IDX 4 1 2 2 1 3 3 4 5 5 6 6 7 7 8 8
REMARK H PARENT
REMARK Flexibility Score: inf
ROOT
ATOM      1  C   UNL     1     120.721 107.887 106.074  1.00  0.00     0.059 C 
ENDROOT
BRANCH   1   2
ATOM      2  C   UNL     1     120.185 106.849 105.137  1.00  0.00     0.042 C 
ATOM      3  O   UNL     1     120.496 106.875 103.917  1.00  0.00    -0.550 OA
ATOM      4  O   UNL     1     119.309 105.877 105.603  1.00  0.00    -0.550 OA
ENDBRANCH   1   2
BRANCH   1   5
ATOM      5  C   UNL     1     119.598 108.572 106.861  1.00  0.00     0.059 C 
BRANCH   5   6
ATOM      6  C   UNL     1     120.136 109.595 107.814  1.00  0.00     0.042 C 
ATOM      7  O   UNL     1     120.881 110.520 107.396  1.00  0.00    -0.550 OA
ATOM      8  O   UNL     1     119.782 109.551 109.156  1.00  0.00    -0.550 OA
ENDBRANCH   5   6
ENDBRANCH   1   5
TORSDOF 3
ENDMDL
MODEL 5
REMARK VINA RESULT:    -2.830      2.313      3.640
REMARK INTER + INTRA:          -3.360
REMARK INTER:                  -3.331
REMARK INTRA:                  -0.029
REMARK UNBOUND:                -0.034
REMARK SMILES O=C([O-])CCC(=O)[O-]
REMARK SMILES IDX 4 1 2 2 1 3 3 4 5 5 6 6 7 7 8 8
REMARK H PARENT
REMARK Flexibility Score: inf
ROOT
ATOM      1  C   UNL     1     118.742 114.823 115.165  1.00  0.00     0.059 C 
ENDROOT
BRANCH   1   2
ATOM      2  C   UNL     1     118.919 115.979 114.229  1.00  0.00     0.042 C 
ATOM      3  O   UNL     1     119.225 115.777 113.024  1.00  0.00    -0.550 OA
ATOM      4  O   UNL     1     118.787 117.280 114.697  1.00  0.00    -0.550 OA
ENDBRANCH   1   2
BRANCH   1   5
ATOM      5  C   UNL     1     117.690 115.122 116.239  1.00  0.00     0.059 C 
BRANCH   5   6
ATOM      6  C   UNL     1     117.472 113.946 117.141  1.00  0.00     0.042 C 
ATOM      7  O   UNL     1     116.314 113.480 117.304  1.00  0.00    -0.550 OA
ATOM      8  O   UNL     1     118.552 113.341 117.770  1.00  0.00    -0.550 OA
ENDBRANCH   5   6
ENDBRANCH   1   5
TORSDOF 3
ENDMDL
MODEL 6
REMARK VINA RESULT:    -2.741     11.249     11.914
REMARK INTER + INTRA:          -3.256
REMARK INTER:                  -3.229
REMARK INTRA:                  -0.027
REMARK UNBOUND:                -0.034
REMARK SMILES O=C([O-])CCC(=O)[O-]
REMARK SMILES IDX 4 1 2 2 1 3 3 4 5 5 6 6 7 7 8 8
REMARK H PARENT
REMARK Flexibility Score: inf
ROOT
ATOM      1  C   UNL     1     120.731 109.069 107.063  1.00  0.00     0.059 C 
ENDROOT
BRANCH   1   2
ATOM      2  C   UNL     1     120.084 110.049 107.994  1.00  0.00     0.042 C 
ATOM      3  O   UNL     1     119.954 111.255 107.655  1.00  0.00    -0.550 OA
ATOM      4  O   UNL     1     119.663 109.638 109.252  1.00  0.00    -0.550 OA
ENDBRANCH   1   2
BRANCH   1   5
ATOM      5  C   UNL     1     119.701 108.125 106.433  1.00  0.00     0.059 C 
BRANCH   5   6
ATOM      6  C   UNL     1     120.361 107.014 105.675  1.00  0.00     0.042 C 
ATOM      7  O   UNL     1     120.860 106.036 106.292  1.00  0.00    -0.550 OA
ATOM      8  O   UNL     1     120.391 107.039 104.287  1.00  0.00    -0.550 OA
ENDBRANCH   5   6
ENDBRANCH   1   5
TORSDOF 3
ENDMDL
MODEL 7
REMARK VINA RESULT:    -2.712      7.428      8.020
REMARK INTER + INTRA:          -3.222
REMARK INTER:                  -3.134
REMARK INTRA:                  -0.088
REMARK UNBOUND:                -0.034
REMARK SMILES O=C([O-])CCC(=O)[O-]
REMARK SMILES IDX 4 1 2 2 1 3 3 4 5 5 6 6 7 7 8 8
REMARK H PARENT
REMARK Flexibility Score: inf
ROOT
ATOM      1  C   UNL     1     120.042 109.610 109.939  1.00  0.00     0.059 C 
ENDROOT
BRANCH   1   2
ATOM      2  C   UNL     1     119.962 110.388 108.661  1.00  0.00     0.042 C 
ATOM      3  O   UNL     1     119.758 111.630 108.687  1.00  0.00    -0.550 OA
ATOM      4  O   UNL     1     120.072 109.733 107.441  1.00  0.00    -0.550 OA
ENDBRANCH   1   2
BRANCH   1   5
ATOM      5  C   UNL     1     119.142 110.212 111.024  1.00  0.00     0.059 C 
BRANCH   5   6
ATOM      6  C   UNL     1     119.944 110.777 112.156  1.00  0.00     0.042 C 
ATOM      7  O   UNL     1     119.846 111.996 112.455  1.00  0.00    -0.550 OA
ATOM      8  O   UNL     1     120.769 109.949 112.906  1.00  0.00    -0.550 OA
ENDBRANCH   5   6
ENDBRANCH   1   5
TORSDOF 3
ENDMDL
MODEL 8
REMARK VINA RESULT:    -2.708     10.514     11.425
REMARK INTER + INTRA:          -3.217
REMARK INTER:                  -3.098
REMARK INTRA:                  -0.119
REMARK UNBOUND:                -0.034
REMARK SMILES O=C([O-])CCC(=O)[O-]
REMARK SMILES IDX 4 1 2 2 1 3 3 4 5 5 6 6 7 7 8 8
REMARK H PARENT
REMARK Flexibility Score: inf
ROOT
ATOM      1  C   UNL     1     119.566 108.551 106.811  1.00  0.00     0.059 C 
ENDROOT
BRANCH   1   2
ATOM      2  C   UNL     1     120.599 107.810 106.017  1.00  0.00     0.042 C 
ATOM      3  O   UNL     1     120.297 107.297 104.907  1.00  0.00    -0.550 OA
ATOM      4  O   UNL     1     121.882 107.651 106.524  1.00  0.00    -0.550 OA
ENDBRANCH   1   2
BRANCH   1   5
ATOM      5  C   UNL     1     120.166 109.773 107.516  1.00  0.00     0.059 C 
BRANCH   5   6
ATOM      6  C   UNL     1     120.178 109.601 109.004  1.00  0.00     0.042 C 
ATOM      7  O   UNL     1     119.262 110.104 109.707  1.00  0.00    -0.550 OA
ATOM      8  O   UNL     1     121.178 108.852 109.611  1.00  0.00    -0.550 OA
ENDBRANCH   5   6
ENDBRANCH   1   5
TORSDOF 3
ENDMDL
MODEL 9
REMARK VINA RESULT:    -2.682      7.456      8.345
REMARK INTER + INTRA:          -3.186
REMARK INTER:                  -3.128
REMARK INTRA:                  -0.059
REMARK UNBOUND:                -0.034
REMARK SMILES O=C([O-])CCC(=O)[O-]
REMARK SMILES IDX 4 1 2 2 1 3 3 4 5 5 6 6 7 7 8 8
REMARK H PARENT
REMARK Flexibility Score: inf
ROOT
ATOM      1  C   UNL     1     119.288 110.161 111.027  1.00  0.00     0.059 C 
ENDROOT
BRANCH   1   2
ATOM      2  C   UNL     1     120.023 110.716 112.209  1.00  0.00     0.042 C 
ATOM      3  O   UNL     1     120.708 109.956 112.943  1.00  0.00    -0.550 OA
ATOM      4  O   UNL     1     119.917 112.065 112.522  1.00  0.00    -0.550 OA
ENDBRANCH   1   2
BRANCH   1   5
ATOM      5  C   UNL     1     120.250 109.572 109.989  1.00  0.00     0.059 C 
BRANCH   5   6
ATOM      6  C   UNL     1     119.994 110.127 108.621  1.00  0.00     0.042 C 
ATOM      7  O   UNL     1     120.019 109.369 107.616  1.00  0.00    -0.550 OA
ATOM      8  O   UNL     1     119.690 111.473 108.462  1.00  0.00    -0.550 OA
ENDBRANCH   5   6
ENDBRANCH   1   5
TORSDOF 3
ENDMDL
