MODEL 1
REMARK VINA RESULT:    -4.484      0.000      0.000
REMARK INTER + INTRA:          -7.960
REMARK INTER:                  -6.844
REMARK INTRA:                  -1.116
REMARK UNBOUND:                -1.116
REMARK SMILES OC[C@@H]1O[C@](CO)(O[C@@H]2O[C@H](CO)[C@H](O)[C@@H](O)[C@H]2O)[C@@H](O)[C@H]1O
REMARK SMILES IDX 8 1 9 2 11 3 14 4 10 5 16 6 18 7 12 8 13 9 15 11 17 13 19 15
REMARK SMILES IDX 5 17 20 18 4 19 22 20 3 21 6 22 7 23 21 25 23 27 2 29 1 30
REMARK H PARENT 13 10 15 12 17 14 19 16 7 24 21 26 23 28 1 31
REMARK Flexibility Score: inf
ROOT
ATOM      1  O   UNL     1     -21.428 -13.511  40.762  1.00  0.00    -0.313 OA
ENDROOT
BRANCH   1   2
ATOM      2  C   UNL     1     -20.778 -14.700  41.209  1.00  0.00     0.285 C 
ATOM      3  C   UNL     1     -22.300 -15.157  43.010  1.00  0.00     0.178 C 
ATOM      4  C   UNL     1     -21.235 -14.778  44.075  1.00  0.00     0.177 C 
ATOM      5  O   UNL     1     -21.739 -15.584  41.770  1.00  0.00    -0.341 OA
ATOM      6  C   UNL     1     -20.156 -13.839  43.505  1.00  0.00     0.179 C 
ATOM      7  C   UNL     1     -19.617 -14.425  42.195  1.00  0.00     0.202 C 
BRANCH   3   8
ATOM      8  C   UNL     1     -23.472 -14.161  42.825  1.00  0.00     0.191 C 
BRANCH   8   9
ATOM      9  O   UNL     1     -24.214 -13.993  44.000  1.00  0.00    -0.394 OA
ATOM     10  H   UNL     1     -25.055 -14.504  43.874  1.00  0.00     0.210 HD
ENDBRANCH   8   9
ENDBRANCH   3   8
BRANCH   4  11
ATOM     11  O   UNL     1     -21.830 -14.261  45.244  1.00  0.00    -0.387 OA
ATOM     12  H   UNL     1     -22.417 -14.961  45.628  1.00  0.00     0.211 HD
ENDBRANCH   4  11
BRANCH   6  13
ATOM     13  O   UNL     1     -19.101 -13.701  44.421  1.00  0.00    -0.387 OA
ATOM     14  H   UNL     1     -18.329 -14.204  44.053  1.00  0.00     0.211 HD
ENDBRANCH   6  13
BRANCH   7  15
ATOM     15  O   UNL     1     -18.932 -15.623  42.463  1.00  0.00    -0.385 OA
ATOM     16  H   UNL     1     -19.434 -16.089  43.183  1.00  0.00     0.211 HD
ENDBRANCH   7  15
ENDBRANCH   1   2
BRANCH   1  17
ATOM     17  C   UNL     1     -21.941 -13.465  39.423  1.00  0.00     0.224 C 
ATOM     18  C   UNL     1     -21.205 -12.367  38.612  1.00  0.00     0.208 C 
ATOM     19  O   UNL     1     -23.295 -13.069  39.548  1.00  0.00    -0.337 OA
ATOM     20  C   UNL     1     -22.312 -11.537  38.007  1.00  0.00     0.180 C 
ATOM     21  C   UNL     1     -23.469 -11.798  38.962  1.00  0.00     0.179 C 
BRANCH  17  22
ATOM     22  C   UNL     1     -21.973 -14.839  38.690  1.00  0.00     0.225 C 
BRANCH  22  23
ATOM     23  O   UNL     1     -22.623 -14.720  37.454  1.00  0.00    -0.391 OA
ATOM     24  H   UNL     1     -23.231 -13.940  37.534  1.00  0.00     0.210 HD
ENDBRANCH  22  23
ENDBRANCH  17  22
BRANCH  18  25
ATOM     25  O   UNL     1     -20.349 -12.888  37.625  1.00  0.00    -0.385 OA
ATOM     26  H   UNL     1     -19.490 -12.395  37.704  1.00  0.00     0.211 HD
ENDBRANCH  18  25
BRANCH  20  27
ATOM     27  O   UNL     1     -22.629 -11.999  36.718  1.00  0.00    -0.387 OA
ATOM     28  H   UNL     1     -22.421 -12.970  36.706  1.00  0.00     0.211 HD
ENDBRANCH  20  27
BRANCH  21  29
ATOM     29  C   UNL     1     -23.560 -10.725  40.059  1.00  0.00     0.191 C 
BRANCH  29  30
ATOM     30  O   UNL     1     -23.425  -9.443  39.508  1.00  0.00    -0.394 OA
ATOM     31  H   UNL     1     -24.301  -9.217  39.100  1.00  0.00     0.210 HD
ENDBRANCH  29  30
ENDBRANCH  21  29
ENDBRANCH   1  17
TORSDOF 13
ENDMDL
MODEL 2
REMARK VINA RESULT:    -4.333      1.457      5.740
REMARK INTER + INTRA:          -7.728
REMARK INTER:                  -6.706
REMARK INTRA:                  -1.022
REMARK UNBOUND:                -1.116
REMARK SMILES OC[C@@H]1O[C@](CO)(O[C@@H]2O[C@H](CO)[C@H](O)[C@@H](O)[C@H]2O)[C@@H](O)[C@H]1O
REMARK SMILES IDX 8 1 9 2 11 3 14 4 10 5 16 6 18 7 12 8 13 9 15 11 17 13 19 15
REMARK SMILES IDX 5 17 20 18 4 19 22 20 3 21 6 22 7 23 21 25 23 27 2 29 1 30
REMARK H PARENT 13 10 15 12 17 14 19 16 7 24 21 26 23 28 1 31
REMARK Flexibility Score: inf
ROOT
ATOM      1  O   UNL     1     -21.090 -13.502  40.402  1.00  0.00    -0.313 OA
ENDROOT
BRANCH   1   2
ATOM      2  C   UNL     1     -20.400 -12.963  39.276  1.00  0.00     0.285 C 
ATOM      3  C   UNL     1     -22.085 -11.353  38.697  1.00  0.00     0.178 C 
ATOM      4  C   UNL     1     -22.487 -12.154  37.428  1.00  0.00     0.177 C 
ATOM      5  O   UNL     1     -20.744 -11.593  39.120  1.00  0.00    -0.341 OA
ATOM      6  C   UNL     1     -22.111 -13.642  37.541  1.00  0.00     0.179 C 
ATOM      7  C   UNL     1     -20.644 -13.761  37.973  1.00  0.00     0.202 C 
BRANCH   3   8
ATOM      8  C   UNL     1     -23.095 -11.370  39.870  1.00  0.00     0.191 C 
BRANCH   8   9
ATOM      9  O   UNL     1     -24.112 -10.421  39.707  1.00  0.00    -0.394 OA
ATOM     10  H   UNL     1     -24.807 -10.639  40.382  1.00  0.00     0.210 HD
ENDBRANCH   8   9
ENDBRANCH   3   8
BRANCH   4  11
ATOM     11  O   UNL     1     -23.848 -11.970  37.108  1.00  0.00    -0.387 OA
ATOM     12  H   UNL     1     -24.393 -12.337  37.850  1.00  0.00     0.211 HD
ENDBRANCH   4  11
BRANCH   6  13
ATOM     13  O   UNL     1     -22.282 -14.281  36.302  1.00  0.00    -0.387 OA
ATOM     14  H   UNL     1     -22.030 -13.627  35.600  1.00  0.00     0.211 HD
ENDBRANCH   6  13
BRANCH   7  15
ATOM     15  O   UNL     1     -19.813 -13.266  36.953  1.00  0.00    -0.385 OA
ATOM     16  H   UNL     1     -19.084 -12.756  37.396  1.00  0.00     0.211 HD
ENDBRANCH   7  15
ENDBRANCH   1   2
BRANCH   1  17
ATOM     17  C   UNL     1     -20.330 -13.926  41.542  1.00  0.00     0.224 C 
ATOM     18  C   UNL     1     -20.196 -15.470  41.546  1.00  0.00     0.208 C 
ATOM     19  O   UNL     1     -21.102 -13.561  42.672  1.00  0.00    -0.337 OA
ATOM     20  C   UNL     1     -20.638 -15.886  42.929  1.00  0.00     0.180 C 
ATOM     21  C   UNL     1     -21.531 -14.724  43.344  1.00  0.00     0.179 C 
BRANCH  17  22
ATOM     22  C   UNL     1     -18.962 -13.200  41.719  1.00  0.00     0.225 C 
BRANCH  22  23
ATOM     23  O   UNL     1     -19.110 -12.065  42.528  1.00  0.00    -0.391 OA
ATOM     24  H   UNL     1     -18.776 -11.299  41.994  1.00  0.00     0.210 HD
ENDBRANCH  22  23
ENDBRANCH  17  22
BRANCH  18  25
ATOM     25  O   UNL     1     -18.891 -15.914  41.264  1.00  0.00    -0.385 OA
ATOM     26  H   UNL     1     -18.423 -15.157  40.821  1.00  0.00     0.211 HD
ENDBRANCH  18  25
BRANCH  20  27
ATOM     27  O   UNL     1     -19.534 -15.986  43.793  1.00  0.00    -0.387 OA
ATOM     28  H   UNL     1     -19.690 -16.786  44.361  1.00  0.00     0.211 HD
ENDBRANCH  20  27
BRANCH  21  29
ATOM     29  C   UNL     1     -23.011 -14.996  43.026  1.00  0.00     0.191 C 
BRANCH  29  30
ATOM     30  O   UNL     1     -23.784 -13.850  43.257  1.00  0.00    -0.394 OA
ATOM     31  H   UNL     1     -24.196 -13.607  42.387  1.00  0.00     0.210 HD
ENDBRANCH  29  30
ENDBRANCH  21  29
ENDBRANCH   1  17
TORSDOF 13
ENDMDL
MODEL 3
REMARK VINA RESULT:    -4.330      1.383      2.127
REMARK INTER + INTRA:          -7.724
REMARK INTER:                  -6.232
REMARK INTRA:                  -1.492
REMARK UNBOUND:                -1.116
REMARK SMILES OC[C@@H]1O[C@](CO)(O[C@@H]2O[C@H](CO)[C@H](O)[C@@H](O)[C@H]2O)[C@@H](O)[C@H]1O
REMARK SMILES IDX 8 1 9 2 11 3 14 4 10 5 16 6 18 7 12 8 13 9 15 11 17 13 19 15
REMARK SMILES IDX 5 17 20 18 4 19 22 20 3 21 6 22 7 23 21 25 23 27 2 29 1 30
REMARK H PARENT 13 10 15 12 17 14 19 16 7 24 21 26 23 28 1 31
REMARK Flexibility Score: inf
ROOT
ATOM      1  O   UNL     1     -22.027 -13.509  40.450  1.00  0.00    -0.313 OA
ENDROOT
BRANCH   1   2
ATOM      2  C   UNL     1     -21.043 -14.490  40.770  1.00  0.00     0.285 C 
ATOM      3  C   UNL     1     -22.152 -15.330  42.728  1.00  0.00     0.178 C 
ATOM      4  C   UNL     1     -21.090 -14.692  43.666  1.00  0.00     0.177 C 
ATOM      5  O   UNL     1     -21.665 -15.595  41.414  1.00  0.00    -0.341 OA
ATOM      6  C   UNL     1     -20.371 -13.505  43.001  1.00  0.00     0.179 C 
ATOM      7  C   UNL     1     -19.874 -13.928  41.613  1.00  0.00     0.202 C 
BRANCH   3   8
ATOM      8  C   UNL     1     -23.552 -14.670  42.726  1.00  0.00     0.191 C 
BRANCH   8   9
ATOM      9  O   UNL     1     -23.479 -13.272  42.714  1.00  0.00    -0.394 OA
ATOM     10  H   UNL     1     -23.581 -12.995  41.766  1.00  0.00     0.210 HD
ENDBRANCH   8   9
ENDBRANCH   3   8
BRANCH   4  11
ATOM     11  O   UNL     1     -21.641 -14.349  44.917  1.00  0.00    -0.387 OA
ATOM     12  H   UNL     1     -21.835 -15.187  45.410  1.00  0.00     0.211 HD
ENDBRANCH   4  11
BRANCH   6  13
ATOM     13  O   UNL     1     -19.276 -13.102  43.783  1.00  0.00    -0.387 OA
ATOM     14  H   UNL     1     -19.357 -12.122  43.914  1.00  0.00     0.211 HD
ENDBRANCH   6  13
BRANCH   7  15
ATOM     15  O   UNL     1     -18.876 -14.909  41.751  1.00  0.00    -0.385 OA
ATOM     16  H   UNL     1     -18.081 -14.585  41.251  1.00  0.00     0.211 HD
ENDBRANCH   7  15
ENDBRANCH   1   2
BRANCH   1  17
ATOM     17  C   UNL     1     -22.473 -13.393  39.092  1.00  0.00     0.224 C 
ATOM     18  C   UNL     1     -21.889 -14.551  38.243  1.00  0.00     0.208 C 
ATOM     19  O   UNL     1     -21.914 -12.185  38.609  1.00  0.00    -0.337 OA
ATOM     20  C   UNL     1     -21.260 -13.868  37.052  1.00  0.00     0.180 C 
ATOM     21  C   UNL     1     -20.980 -12.472  37.592  1.00  0.00     0.179 C 
BRANCH  17  22
ATOM     22  C   UNL     1     -24.014 -13.237  38.923  1.00  0.00     0.225 C 
BRANCH  22  23
ATOM     23  O   UNL     1     -24.338 -12.996  37.581  1.00  0.00    -0.391 OA
ATOM     24  H   UNL     1     -25.284 -13.274  37.469  1.00  0.00     0.210 HD
ENDBRANCH  22  23
ENDBRANCH  17  22
BRANCH  18  25
ATOM     25  O   UNL     1     -22.858 -15.492  37.848  1.00  0.00    -0.385 OA
ATOM     26  H   UNL     1     -22.418 -16.384  37.879  1.00  0.00     0.211 HD
ENDBRANCH  18  25
BRANCH  20  27
ATOM     27  O   UNL     1     -22.168 -13.804  35.981  1.00  0.00    -0.387 OA
ATOM     28  H   UNL     1     -22.281 -14.733  35.648  1.00  0.00     0.211 HD
ENDBRANCH  20  27
BRANCH  21  29
ATOM     29  C   UNL     1     -19.551 -12.347  38.144  1.00  0.00     0.191 C 
BRANCH  29  30
ATOM     30  O   UNL     1     -19.488 -11.355  39.132  1.00  0.00    -0.394 OA
ATOM     31  H   UNL     1     -20.044 -11.674  39.890  1.00  0.00     0.210 HD
ENDBRANCH  29  30
ENDBRANCH  21  29
ENDBRANCH   1  17
TORSDOF 13
ENDMDL
MODEL 4
REMARK VINA RESULT:    -4.274      1.213      2.531
REMARK INTER + INTRA:          -7.638
REMARK INTER:                  -6.281
REMARK INTRA:                  -1.357
REMARK UNBOUND:                -1.116
REMARK SMILES OC[C@@H]1O[C@](CO)(O[C@@H]2O[C@H](CO)[C@H](O)[C@@H](O)[C@H]2O)[C@@H](O)[C@H]1O
REMARK SMILES IDX 8 1 9 2 11 3 14 4 10 5 16 6 18 7 12 8 13 9 15 11 17 13 19 15
REMARK SMILES IDX 5 17 20 18 4 19 22 20 3 21 6 22 7 23 21 25 23 27 2 29 1 30
REMARK H PARENT 13 10 15 12 17 14 19 16 7 24 21 26 23 28 1 31
REMARK Flexibility Score: inf
ROOT
ATOM      1  O   UNL     1     -21.385 -12.775  41.213  1.00  0.00    -0.313 OA
ENDROOT
BRANCH   1   2
ATOM      2  C   UNL     1     -20.693 -14.017  41.325  1.00  0.00     0.285 C 
ATOM      3  C   UNL     1     -22.295 -15.065  42.777  1.00  0.00     0.178 C 
ATOM      4  C   UNL     1     -21.322 -14.993  43.986  1.00  0.00     0.177 C 
ATOM      5  O   UNL     1     -21.633 -15.068  41.513  1.00  0.00    -0.341 OA
ATOM      6  C   UNL     1     -20.268 -13.884  43.815  1.00  0.00     0.179 C 
ATOM      7  C   UNL     1     -19.615 -14.016  42.434  1.00  0.00     0.202 C 
BRANCH   3   8
ATOM      8  C   UNL     1     -23.509 -14.106  42.815  1.00  0.00     0.191 C 
BRANCH   8   9
ATOM      9  O   UNL     1     -24.278 -14.269  43.974  1.00  0.00    -0.394 OA
ATOM     10  H   UNL     1     -24.077 -15.178  44.316  1.00  0.00     0.210 HD
ENDBRANCH   8   9
ENDBRANCH   3   8
BRANCH   4  11
ATOM     11  O   UNL     1     -22.018 -14.884  45.207  1.00  0.00    -0.387 OA
ATOM     12  H   UNL     1     -22.567 -15.702  45.324  1.00  0.00     0.211 HD
ENDBRANCH   4  11
BRANCH   6  13
ATOM     13  O   UNL     1     -19.281 -13.996  44.808  1.00  0.00    -0.387 OA
ATOM     14  H   UNL     1     -18.852 -13.105  44.893  1.00  0.00     0.211 HD
ENDBRANCH   6  13
BRANCH   7  15
ATOM     15  O   UNL     1     -18.876 -15.212  42.377  1.00  0.00    -0.385 OA
ATOM     16  H   UNL     1     -18.582 -15.415  43.304  1.00  0.00     0.211 HD
ENDBRANCH   7  15
ENDBRANCH   1   2
BRANCH   1  17
ATOM     17  C   UNL     1     -21.468 -12.143  39.928  1.00  0.00     0.224 C 
ATOM     18  C   UNL     1     -22.849 -11.458  39.764  1.00  0.00     0.208 C 
ATOM     19  O   UNL     1     -21.399 -13.195  38.982  1.00  0.00    -0.337 OA
ATOM     20  C   UNL     1     -23.374 -11.971  38.444  1.00  0.00     0.180 C 
ATOM     21  C   UNL     1     -22.624 -13.288  38.290  1.00  0.00     0.179 C 
BRANCH  17  22
ATOM     22  C   UNL     1     -20.279 -11.196  39.588  1.00  0.00     0.225 C 
BRANCH  22  23
ATOM     23  O   UNL     1     -20.040 -10.310  40.647  1.00  0.00    -0.391 OA
ATOM     24  H   UNL     1     -20.261 -10.804  41.479  1.00  0.00     0.210 HD
ENDBRANCH  22  23
ENDBRANCH  17  22
BRANCH  18  25
ATOM     25  O   UNL     1     -22.776 -10.053  39.781  1.00  0.00    -0.385 OA
ATOM     26  H   UNL     1     -23.212  -9.755  40.624  1.00  0.00     0.211 HD
ENDBRANCH  18  25
BRANCH  20  27
ATOM     27  O   UNL     1     -23.034 -11.092  37.401  1.00  0.00    -0.387 OA
ATOM     28  H   UNL     1     -22.501 -10.360  37.809  1.00  0.00     0.211 HD
ENDBRANCH  20  27
BRANCH  21  29
ATOM     29  C   UNL     1     -23.439 -14.476  38.828  1.00  0.00     0.191 C 
BRANCH  29  30
ATOM     30  O   UNL     1     -22.664 -15.644  38.831  1.00  0.00    -0.394 OA
ATOM     31  H   UNL     1     -22.354 -15.776  39.765  1.00  0.00     0.210 HD
ENDBRANCH  29  30
ENDBRANCH  21  29
ENDBRANCH   1  17
TORSDOF 13
ENDMDL
MODEL 5
REMARK VINA RESULT:    -4.161      9.530     12.444
REMARK INTER + INTRA:          -7.467
REMARK INTER:                  -6.009
REMARK INTRA:                  -1.458
REMARK UNBOUND:                -1.116
REMARK SMILES OC[C@@H]1O[C@](CO)(O[C@@H]2O[C@H](CO)[C@H](O)[C@@H](O)[C@H]2O)[C@@H](O)[C@H]1O
REMARK SMILES IDX 8 1 9 2 11 3 14 4 10 5 16 6 18 7 12 8 13 9 15 11 17 13 19 15
REMARK SMILES IDX 5 17 20 18 4 19 22 20 3 21 6 22 7 23 21 25 23 27 2 29 1 30
REMARK H PARENT 13 10 15 12 17 14 19 16 7 24 21 26 23 28 1 31
REMARK Flexibility Score: inf
ROOT
ATOM      1  O   UNL     1     -29.187 -13.021  50.178  1.00  0.00    -0.313 OA
ENDROOT
BRANCH   1   2
ATOM      2  C   UNL     1     -28.115 -13.668  50.861  1.00  0.00     0.285 C 
ATOM      3  C   UNL     1     -26.883 -11.664  51.349  1.00  0.00     0.178 C 
ATOM      4  C   UNL     1     -25.779 -12.032  50.320  1.00  0.00     0.177 C 
ATOM      5  O   UNL     1     -27.590 -12.796  51.854  1.00  0.00    -0.341 OA
ATOM      6  C   UNL     1     -26.295 -12.997  49.237  1.00  0.00     0.179 C 
ATOM      7  C   UNL     1     -27.006 -14.177  49.910  1.00  0.00     0.202 C 
BRANCH   3   8
ATOM      8  C   UNL     1     -27.822 -10.496  50.961  1.00  0.00     0.191 C 
BRANCH   8   9
ATOM      9  O   UNL     1     -27.126  -9.297  50.771  1.00  0.00    -0.394 OA
ATOM     10  H   UNL     1     -27.294  -8.745  51.578  1.00  0.00     0.210 HD
ENDBRANCH   8   9
ENDBRANCH   3   8
BRANCH   4  11
ATOM     11  O   UNL     1     -25.180 -10.881  49.768  1.00  0.00    -0.387 OA
ATOM     12  H   UNL     1     -25.834 -10.137  49.818  1.00  0.00     0.211 HD
ENDBRANCH   4  11
BRANCH   6  13
ATOM     13  O   UNL     1     -25.225 -13.478  48.466  1.00  0.00    -0.387 OA
ATOM     14  H   UNL     1     -25.376 -13.171  47.535  1.00  0.00     0.211 HD
ENDBRANCH   6  13
BRANCH   7  15
ATOM     15  O   UNL     1     -26.070 -14.935  50.637  1.00  0.00    -0.385 OA
ATOM     16  H   UNL     1     -26.258 -15.891  50.441  1.00  0.00     0.211 HD
ENDBRANCH   7  15
ENDBRANCH   1   2
BRANCH   1  17
ATOM     17  C   UNL     1     -30.507 -13.574  50.282  1.00  0.00     0.224 C 
ATOM     18  C   UNL     1     -30.431 -15.028  50.813  1.00  0.00     0.208 C 
ATOM     19  O   UNL     1     -31.002 -13.628  48.956  1.00  0.00    -0.337 OA
ATOM     20  C   UNL     1     -31.245 -15.834  49.829  1.00  0.00     0.180 C 
ATOM     21  C   UNL     1     -31.175 -14.974  48.574  1.00  0.00     0.179 C 
BRANCH  17  22
ATOM     22  C   UNL     1     -31.521 -12.694  51.072  1.00  0.00     0.225 C 
BRANCH  22  23
ATOM     23  O   UNL     1     -32.833 -12.974  50.666  1.00  0.00    -0.391 OA
ATOM     24  H   UNL     1     -33.164 -12.156  50.211  1.00  0.00     0.210 HD
ENDBRANCH  22  23
ENDBRANCH  17  22
BRANCH  18  25
ATOM     25  O   UNL     1     -30.922 -15.165  52.125  1.00  0.00    -0.385 OA
ATOM     26  H   UNL     1     -30.595 -14.376  52.634  1.00  0.00     0.211 HD
ENDBRANCH  18  25
BRANCH  20  27
ATOM     27  O   UNL     1     -32.575 -15.953  50.265  1.00  0.00    -0.387 OA
ATOM     28  H   UNL     1     -32.548 -16.444  51.128  1.00  0.00     0.211 HD
ENDBRANCH  20  27
BRANCH  21  29
ATOM     29  C   UNL     1     -30.027 -15.406  47.646  1.00  0.00     0.191 C 
BRANCH  29  30
ATOM     30  O   UNL     1     -29.275 -14.294  47.241  1.00  0.00    -0.394 OA
ATOM     31  H   UNL     1     -28.736 -14.015  48.026  1.00  0.00     0.210 HD
ENDBRANCH  29  30
ENDBRANCH  21  29
ENDBRANCH   1  17
TORSDOF 13
ENDMDL
MODEL 6
REMARK VINA RESULT:    -4.078     10.042     12.404
REMARK INTER + INTRA:          -7.339
REMARK INTER:                  -5.623
REMARK INTRA:                  -1.716
REMARK UNBOUND:                -1.116
REMARK SMILES OC[C@@H]1O[C@](CO)(O[C@@H]2O[C@H](CO)[C@H](O)[C@@H](O)[C@H]2O)[C@@H](O)[C@H]1O
REMARK SMILES IDX 8 1 9 2 11 3 14 4 10 5 16 6 18 7 12 8 13 9 15 11 17 13 19 15
REMARK SMILES IDX 5 17 20 18 4 19 22 20 3 21 6 22 7 23 21 25 23 27 2 29 1 30
REMARK H PARENT 13 10 15 12 17 14 19 16 7 24 21 26 23 28 1 31
REMARK Flexibility Score: inf
ROOT
ATOM      1  O   UNL     1     -27.833 -12.861  50.240  1.00  0.00    -0.313 OA
ENDROOT
BRANCH   1   2
ATOM      2  C   UNL     1     -28.856 -13.508  50.996  1.00  0.00     0.285 C 
ATOM      3  C   UNL     1     -28.981 -15.471  49.617  1.00  0.00     0.178 C 
ATOM      4  C   UNL     1     -30.367 -15.050  49.054  1.00  0.00     0.177 C 
ATOM      5  O   UNL     1     -28.696 -14.918  50.900  1.00  0.00    -0.341 OA
ATOM      6  C   UNL     1     -30.596 -13.532  49.160  1.00  0.00     0.179 C 
ATOM      7  C   UNL     1     -30.283 -13.071  50.588  1.00  0.00     0.202 C 
BRANCH   3   8
ATOM      8  C   UNL     1     -27.784 -15.370  48.641  1.00  0.00     0.191 C 
BRANCH   8   9
ATOM      9  O   UNL     1     -27.923 -14.309  47.740  1.00  0.00    -0.394 OA
ATOM     10  H   UNL     1     -27.924 -14.711  46.832  1.00  0.00     0.210 HD
ENDBRANCH   8   9
ENDBRANCH   3   8
BRANCH   4  11
ATOM     11  O   UNL     1     -30.563 -15.530  47.744  1.00  0.00    -0.387 OA
ATOM     12  H   UNL     1     -31.417 -15.160  47.403  1.00  0.00     0.211 HD
ENDBRANCH   4  11
BRANCH   6  13
ATOM     13  O   UNL     1     -31.931 -13.220  48.853  1.00  0.00    -0.387 OA
ATOM     14  H   UNL     1     -32.259 -13.924  48.236  1.00  0.00     0.211 HD
ENDBRANCH   6  13
BRANCH   7  15
ATOM     15  O   UNL     1     -31.220 -13.628  51.477  1.00  0.00    -0.385 OA
ATOM     16  H   UNL     1     -31.715 -12.871  51.887  1.00  0.00     0.211 HD
ENDBRANCH   7  15
ENDBRANCH   1   2
BRANCH   1  17
ATOM     17  C   UNL     1     -26.794 -12.162  50.939  1.00  0.00     0.224 C 
ATOM     18  C   UNL     1     -25.528 -12.070  50.049  1.00  0.00     0.208 C 
ATOM     19  O   UNL     1     -26.475 -12.972  52.055  1.00  0.00    -0.337 OA
ATOM     20  C   UNL     1     -24.410 -12.581  50.927  1.00  0.00     0.180 C 
ATOM     21  C   UNL     1     -25.158 -13.460  51.921  1.00  0.00     0.179 C 
BRANCH  17  22
ATOM     22  C   UNL     1     -27.219 -10.784  51.530  1.00  0.00     0.225 C 
BRANCH  22  23
ATOM     23  O   UNL     1     -27.983 -10.066  50.599  1.00  0.00    -0.391 OA
ATOM     24  H   UNL     1     -28.119 -10.672  49.825  1.00  0.00     0.210 HD
ENDBRANCH  22  23
ENDBRANCH  17  22
BRANCH  18  25
ATOM     25  O   UNL     1     -25.268 -10.766  49.588  1.00  0.00    -0.385 OA
ATOM     26  H   UNL     1     -24.754 -10.861  48.742  1.00  0.00     0.211 HD
ENDBRANCH  18  25
BRANCH  20  27
ATOM     27  O   UNL     1     -23.778 -11.518  51.595  1.00  0.00    -0.387 OA
ATOM     28  H   UNL     1     -23.013 -11.911  52.092  1.00  0.00     0.211 HD
ENDBRANCH  20  27
BRANCH  21  29
ATOM     29  C   UNL     1     -25.189 -14.931  51.475  1.00  0.00     0.191 C 
BRANCH  29  30
ATOM     30  O   UNL     1     -26.222 -15.622  52.124  1.00  0.00    -0.394 OA
ATOM     31  H   UNL     1     -27.040 -15.068  52.024  1.00  0.00     0.210 HD
ENDBRANCH  29  30
ENDBRANCH  21  29
ENDBRANCH   1  17
TORSDOF 13
ENDMDL
MODEL 7
REMARK VINA RESULT:    -4.020      1.721      5.821
REMARK INTER + INTRA:          -7.252
REMARK INTER:                  -5.802
REMARK INTRA:                  -1.449
REMARK UNBOUND:                -1.116
REMARK SMILES OC[C@@H]1O[C@](CO)(O[C@@H]2O[C@H](CO)[C@H](O)[C@@H](O)[C@H]2O)[C@@H](O)[C@H]1O
REMARK SMILES IDX 8 1 9 2 11 3 14 4 10 5 16 6 18 7 12 8 13 9 15 11 17 13 19 15
REMARK SMILES IDX 5 17 20 18 4 19 22 20 3 21 6 22 7 23 21 25 23 27 2 29 1 30
REMARK H PARENT 13 10 15 12 17 14 19 16 7 24 21 26 23 28 1 31
REMARK Flexibility Score: inf
ROOT
ATOM      1  O   UNL     1     -21.338 -13.497  40.507  1.00  0.00    -0.313 OA
ENDROOT
BRANCH   1   2
ATOM      2  C   UNL     1     -22.061 -14.441  39.720  1.00  0.00     0.285 C 
ATOM      3  C   UNL     1     -21.163 -13.742  37.604  1.00  0.00     0.178 C 
ATOM      4  C   UNL     1     -22.517 -13.110  37.180  1.00  0.00     0.177 C 
ATOM      5  O   UNL     1     -21.298 -14.783  38.570  1.00  0.00    -0.341 OA
ATOM      6  C   UNL     1     -23.390 -12.745  38.394  1.00  0.00     0.179 C 
ATOM      7  C   UNL     1     -23.478 -13.953  39.334  1.00  0.00     0.202 C 
BRANCH   3   8
ATOM      8  C   UNL     1     -20.021 -12.754  37.945  1.00  0.00     0.191 C 
BRANCH   8   9
ATOM      9  O   UNL     1     -20.480 -11.635  38.650  1.00  0.00    -0.394 OA
ATOM     10  H   UNL     1     -19.764 -11.397  39.294  1.00  0.00     0.210 HD
ENDBRANCH   8   9
ENDBRANCH   3   8
BRANCH   4  11
ATOM     11  O   UNL     1     -22.330 -12.018  36.309  1.00  0.00    -0.387 OA
ATOM     12  H   UNL     1     -22.443 -11.182  36.831  1.00  0.00     0.211 HD
ENDBRANCH   4  11
BRANCH   6  13
ATOM     13  O   UNL     1     -24.682 -12.390  37.972  1.00  0.00    -0.387 OA
ATOM     14  H   UNL     1     -24.759 -11.406  38.067  1.00  0.00     0.211 HD
ENDBRANCH   6  13
BRANCH   7  15
ATOM     15  O   UNL     1     -24.180 -14.993  38.699  1.00  0.00    -0.385 OA
ATOM     16  H   UNL     1     -23.673 -15.222  37.875  1.00  0.00     0.211 HD
ENDBRANCH   7  15
ENDBRANCH   1   2
BRANCH   1  17
ATOM     17  C   UNL     1     -20.451 -13.982  41.526  1.00  0.00     0.224 C 
ATOM     18  C   UNL     1     -20.402 -15.531  41.491  1.00  0.00     0.208 C 
ATOM     19  O   UNL     1     -21.040 -13.600  42.756  1.00  0.00    -0.337 OA
ATOM     20  C   UNL     1     -20.672 -15.951  42.917  1.00  0.00     0.180 C 
ATOM     21  C   UNL     1     -21.435 -14.753  43.466  1.00  0.00     0.179 C 
BRANCH  17  22
ATOM     22  C   UNL     1     -19.035 -13.332  41.521  1.00  0.00     0.225 C 
BRANCH  22  23
ATOM     23  O   UNL     1     -19.131 -11.949  41.315  1.00  0.00    -0.391 OA
ATOM     24  H   UNL     1     -18.218 -11.584  41.449  1.00  0.00     0.210 HD
ENDBRANCH  22  23
ENDBRANCH  17  22
BRANCH  18  25
ATOM     25  O   UNL     1     -19.174 -16.036  41.026  1.00  0.00    -0.385 OA
ATOM     26  H   UNL     1     -18.656 -15.258  40.689  1.00  0.00     0.211 HD
ENDBRANCH  18  25
BRANCH  20  27
ATOM     27  O   UNL     1     -19.466 -16.125  43.618  1.00  0.00    -0.387 OA
ATOM     28  H   UNL     1     -19.687 -16.049  44.584  1.00  0.00     0.211 HD
ENDBRANCH  20  27
BRANCH  21  29
ATOM     29  C   UNL     1     -22.956 -14.942  43.353  1.00  0.00     0.191 C 
BRANCH  29  30
ATOM     30  O   UNL     1     -23.564 -13.773  42.872  1.00  0.00    -0.394 OA
ATOM     31  H   UNL     1     -23.960 -14.002  41.991  1.00  0.00     0.210 HD
ENDBRANCH  29  30
ENDBRANCH  21  29
ENDBRANCH   1  17
TORSDOF 13
ENDMDL
MODEL 8
REMARK VINA RESULT:    -3.859      7.374     10.643
REMARK INTER + INTRA:          -7.005
REMARK INTER:                  -5.448
REMARK INTRA:                  -1.557
REMARK UNBOUND:                -1.116
REMARK SMILES OC[C@@H]1O[C@](CO)(O[C@@H]2O[C@H](CO)[C@H](O)[C@@H](O)[C@H]2O)[C@@H](O)[C@H]1O
REMARK SMILES IDX 8 1 9 2 11 3 14 4 10 5 16 6 18 7 12 8 13 9 15 11 17 13 19 15
REMARK SMILES IDX 5 17 20 18 4 19 22 20 3 21 6 22 7 23 21 25 23 27 2 29 1 30
REMARK H PARENT 13 10 15 12 17 14 19 16 7 24 21 26 23 28 1 31
REMARK Flexibility Score: inf
ROOT
ATOM      1  O   UNL     1     -25.212 -13.075  50.167  1.00  0.00    -0.313 OA
ENDROOT
BRANCH   1   2
ATOM      2  C   UNL     1     -25.371 -12.951  48.755  1.00  0.00     0.285 C 
ATOM      3  C   UNL     1     -23.694 -14.570  48.173  1.00  0.00     0.178 C 
ATOM      4  C   UNL     1     -22.734 -13.465  47.653  1.00  0.00     0.177 C 
ATOM      5  O   UNL     1     -25.069 -14.194  48.133  1.00  0.00    -0.341 OA
ATOM      6  C   UNL     1     -23.038 -12.093  48.281  1.00  0.00     0.179 C 
ATOM      7  C   UNL     1     -24.537 -11.798  48.148  1.00  0.00     0.202 C 
BRANCH   3   8
ATOM      8  C   UNL     1     -23.298 -15.254  49.504  1.00  0.00     0.191 C 
BRANCH   8   9
ATOM      9  O   UNL     1     -24.291 -16.125  49.968  1.00  0.00    -0.394 OA
ATOM     10  H   UNL     1     -25.161 -15.699  49.750  1.00  0.00     0.210 HD
ENDBRANCH   8   9
ENDBRANCH   3   8
BRANCH   4  11
ATOM     11  O   UNL     1     -21.383 -13.835  47.809  1.00  0.00    -0.387 OA
ATOM     12  H   UNL     1     -21.090 -13.564  48.717  1.00  0.00     0.211 HD
ENDBRANCH   4  11
BRANCH   6  13
ATOM     13  O   UNL     1     -22.307 -11.088  47.628  1.00  0.00    -0.387 OA
ATOM     14  H   UNL     1     -21.720 -10.667  48.307  1.00  0.00     0.211 HD
ENDBRANCH   6  13
BRANCH   7  15
ATOM     15  O   UNL     1     -24.866 -11.641  46.790  1.00  0.00    -0.385 OA
ATOM     16  H   UNL     1     -25.423 -12.424  46.535  1.00  0.00     0.211 HD
ENDBRANCH   7  15
ENDBRANCH   1   2
BRANCH   1  17
ATOM     17  C   UNL     1     -26.380 -13.045  50.999  1.00  0.00     0.224 C 
ATOM     18  C   UNL     1     -27.568 -12.421  50.222  1.00  0.00     0.208 C 
ATOM     19  O   UNL     1     -26.063 -12.173  52.069  1.00  0.00    -0.337 OA
ATOM     20  C   UNL     1     -28.099 -11.346  51.140  1.00  0.00     0.180 C 
ATOM     21  C   UNL     1     -26.882 -11.026  51.999  1.00  0.00     0.179 C 
BRANCH  17  22
ATOM     22  C   UNL     1     -26.742 -14.407  51.664  1.00  0.00     0.225 C 
BRANCH  22  23
ATOM     23  O   UNL     1     -26.800 -15.423  50.701  1.00  0.00    -0.391 OA
ATOM     24  H   UNL     1     -27.472 -16.077  51.026  1.00  0.00     0.210 HD
ENDBRANCH  22  23
ENDBRANCH  17  22
BRANCH  18  25
ATOM     25  O   UNL     1     -28.565 -13.356  49.889  1.00  0.00    -0.385 OA
ATOM     26  H   UNL     1     -28.278 -14.227  50.274  1.00  0.00     0.211 HD
ENDBRANCH  18  25
BRANCH  20  27
ATOM     27  O   UNL     1     -29.141 -11.847  51.939  1.00  0.00    -0.387 OA
ATOM     28  H   UNL     1     -29.924 -11.255  51.787  1.00  0.00     0.211 HD
ENDBRANCH  20  27
BRANCH  21  29
ATOM     29  C   UNL     1     -26.078  -9.843  51.435  1.00  0.00     0.191 C 
BRANCH  29  30
ATOM     30  O   UNL     1     -26.880  -9.056  50.597  1.00  0.00    -0.394 OA
ATOM     31  H   UNL     1     -27.812  -9.377  50.714  1.00  0.00     0.210 HD
ENDBRANCH  29  30
ENDBRANCH  21  29
ENDBRANCH   1  17
TORSDOF 13
ENDMDL
