MODEL 1
REMARK VINA RESULT:     3.529      0.000      0.000
REMARK INTER + INTRA:           3.905
REMARK INTER:                   4.045
REMARK INTRA:                  -0.141
REMARK UNBOUND:                -0.141
REMARK SMILES O=C([O-])C=Cc1ccc(O)cc1
REMARK SMILES IDX 6 1 7 2 12 3 8 4 11 5 9 6 5 7 4 8 2 9 1 10 3 11 10 12
REMARK H PARENT 10 13
REMARK Flexibility Score: inf
ROOT
ATOM      1  C   UNL     1       0.704  -1.783   0.033  1.00  0.00    -0.025 A 
ATOM      2  C   UNL     1      -0.493  -2.461   0.316  1.00  0.00     0.012 A 
ATOM      3  C   UNL     1       1.067  -1.579  -1.315  1.00  0.00     0.012 A 
ATOM      4  C   UNL     1      -1.323  -2.904  -0.718  1.00  0.00     0.047 A 
ATOM      5  C   UNL     1       0.235  -2.025  -2.347  1.00  0.00     0.047 A 
ATOM      6  C   UNL     1      -0.961  -2.684  -2.053  1.00  0.00     0.115 A 
ENDROOT
BRANCH   1   7
ATOM      7  C   UNL     1       1.557  -1.341   1.165  1.00  0.00     0.010 C 
ATOM      8  C   UNL     1       2.720  -0.695   1.014  1.00  0.00     0.025 C 
BRANCH   8   9
ATOM      9  C   UNL     1       3.527  -0.265   2.166  1.00  0.00     0.064 C 
ATOM     10  O   UNL     1       4.746  -0.571   2.220  1.00  0.00    -0.545 OA
ATOM     11  O   UNL     1       2.963   0.473   3.201  1.00  0.00    -0.545 OA
ENDBRANCH   8   9
ENDBRANCH   1   7
BRANCH   6  12
ATOM     12  O   UNL     1      -1.781  -3.121  -3.092  1.00  0.00    -0.508 OA
ATOM     13  H   UNL     1      -2.140  -4.068  -3.120  1.00  0.00     0.293 HD
ENDBRANCH   6  12
TORSDOF 3
ENDMDL
MODEL 2
REMARK VINA RESULT:     5.425      1.280      5.871
REMARK INTER + INTRA:           6.077
REMARK INTER:                   6.221
REMARK INTRA:                  -0.144
REMARK UNBOUND:                -0.141
REMARK SMILES O=C([O-])C=Cc1ccc(O)cc1
REMARK SMILES IDX 6 1 7 2 12 3 8 4 11 5 9 6 5 7 4 8 2 9 1 10 3 11 10 12
REMARK H PARENT 10 13
REMARK Flexibility Score: inf
ROOT
ATOM      1  C   UNL     1       1.735  -0.986   0.480  1.00  0.00    -0.025 A 
ATOM      2  C   UNL     1       2.881  -0.867  -0.324  1.00  0.00     0.012 A 
ATOM      3  C   UNL     1       1.873  -0.878   1.880  1.00  0.00     0.012 A 
ATOM      4  C   UNL     1       4.132  -0.621   0.249  1.00  0.00     0.047 A 
ATOM      5  C   UNL     1       3.126  -0.634   2.450  1.00  0.00     0.047 A 
ATOM      6  C   UNL     1       4.256  -0.501   1.639  1.00  0.00     0.115 A 
ENDROOT
BRANCH   1   7
ATOM      7  C   UNL     1       0.431  -1.258  -0.176  1.00  0.00     0.010 C 
ATOM      8  C   UNL     1       0.260  -2.168  -1.143  1.00  0.00     0.025 C 
BRANCH   8   9
ATOM      9  C   UNL     1      -1.055  -2.413  -1.758  1.00  0.00     0.064 C 
ATOM     10  O   UNL     1      -1.900  -3.125  -1.156  1.00  0.00    -0.545 OA
ATOM     11  O   UNL     1      -1.379  -1.870  -2.996  1.00  0.00    -0.545 OA
ENDBRANCH   8   9
ENDBRANCH   1   7
BRANCH   6  12
ATOM     12  O   UNL     1       5.497  -0.256   2.223  1.00  0.00    -0.508 OA
ATOM     13  H   UNL     1       6.360  -0.389   1.708  1.00  0.00     0.293 HD
ENDBRANCH   6  12
TORSDOF 3
ENDMDL
MODEL 3
REMARK VINA RESULT:     5.802      1.301      5.674
REMARK INTER + INTRA:           6.510
REMARK INTER:                   6.659
REMARK INTRA:                  -0.149
REMARK UNBOUND:                -0.141
REMARK SMILES O=C([O-])C=Cc1ccc(O)cc1
REMARK SMILES IDX 6 1 7 2 12 3 8 4 11 5 9 6 5 7 4 8 2 9 1 10 3 11 10 12
REMARK H PARENT 10 13
REMARK Flexibility Score: inf
ROOT
ATOM      1  C   UNL     1       1.559  -1.255   0.307  1.00  0.00    -0.025 A 
ATOM      2  C   UNL     1       0.728  -0.892   1.380  1.00  0.00     0.012 A 
ATOM      3  C   UNL     1       2.940  -0.977   0.392  1.00  0.00     0.012 A 
ATOM      4  C   UNL     1       1.262  -0.290   2.523  1.00  0.00     0.047 A 
ATOM      5  C   UNL     1       3.470  -0.373   1.536  1.00  0.00     0.047 A 
ATOM      6  C   UNL     1       2.636  -0.031   2.604  1.00  0.00     0.115 A 
ENDROOT
BRANCH   1   7
ATOM      7  C   UNL     1       0.943  -1.883  -0.889  1.00  0.00     0.010 C 
ATOM      8  C   UNL     1      -0.249  -1.527  -1.386  1.00  0.00     0.025 C 
BRANCH   8   9
ATOM      9  C   UNL     1      -0.817  -2.169  -2.582  1.00  0.00     0.064 C 
ATOM     10  O   UNL     1      -0.204  -3.125  -3.125  1.00  0.00    -0.545 OA
ATOM     11  O   UNL     1      -2.021  -1.736  -3.125  1.00  0.00    -0.545 OA
ENDBRANCH   8   9
ENDBRANCH   1   7
BRANCH   6  12
ATOM     12  O   UNL     1       3.181   0.568   3.738  1.00  0.00    -0.508 OA
ATOM     13  H   UNL     1       3.797   1.369   3.668  1.00  0.00     0.293 HD
ENDBRANCH   6  12
TORSDOF 3
ENDMDL
