MODEL 1
REMARK VINA RESULT:    -2.861      0.000      0.000
REMARK INTER + INTRA:          -4.786
REMARK INTER:                  -4.115
REMARK INTRA:                  -0.671
REMARK UNBOUND:                -0.671
REMARK SMILES CCCCCCCCCO
REMARK SMILES IDX 6 1 5 2 4 3 3 4 2 5 1 6 7 7 8 8 9 9 10 10
REMARK H PARENT 10 11
REMARK Flexibility Score: inf
ROOT
ATOM      1  C   UNL     1     165.961 167.284 168.789  1.00  0.00     0.000 C 
ENDROOT
BRANCH   1   2
ATOM      2  C   UNL     1     166.736 166.194 168.034  1.00  0.00     0.000 C 
BRANCH   2   3
ATOM      3  C   UNL     1     167.648 165.371 168.956  1.00  0.00    -0.000 C 
BRANCH   3   4
ATOM      4  C   UNL     1     169.021 166.031 169.171  1.00  0.00    -0.000 C 
BRANCH   4   5
ATOM      5  C   UNL     1     169.603 166.616 167.875  1.00  0.00    -0.003 C 
ATOM      6  C   UNL     1     170.322 167.946 168.097  1.00  0.00     0.004 C 
ENDBRANCH   4   5
ENDBRANCH   3   4
ENDBRANCH   2   3
ENDBRANCH   1   2
BRANCH   1   7
ATOM      7  C   UNL     1     166.134 168.650 168.113  1.00  0.00     0.002 C 
BRANCH   7   8
ATOM      8  C   UNL     1     166.961 169.598 168.992  1.00  0.00     0.028 C 
BRANCH   8   9
ATOM      9  C   UNL     1     167.700 170.648 168.155  1.00  0.00     0.156 C 
BRANCH   9  10
ATOM     10  O   UNL     1     166.942 171.823 168.041  1.00  0.00    -0.396 OA
ATOM     11  H   UNL     1     166.239 171.776 168.740  1.00  0.00     0.210 HD
ENDBRANCH   9  10
ENDBRANCH   8   9
ENDBRANCH   7   8
ENDBRANCH   1   7
TORSDOF 8
ENDMDL
MODEL 2
REMARK VINA RESULT:    -2.813      2.366      3.715
REMARK INTER + INTRA:          -4.718
REMARK INTER:                  -4.265
REMARK INTRA:                  -0.453
REMARK UNBOUND:                -0.671
REMARK SMILES CCCCCCCCCO
REMARK SMILES IDX 6 1 5 2 4 3 3 4 2 5 1 6 7 7 8 8 9 9 10 10
REMARK H PARENT 10 11
REMARK Flexibility Score: inf
ROOT
ATOM      1  C   UNL     1     166.446 169.685 169.006  1.00  0.00     0.000 C 
ENDROOT
BRANCH   1   2
ATOM      2  C   UNL     1     167.493 170.573 168.316  1.00  0.00     0.000 C 
BRANCH   2   3
ATOM      3  C   UNL     1     168.738 169.786 167.876  1.00  0.00    -0.000 C 
BRANCH   3   4
ATOM      4  C   UNL     1     169.440 169.086 169.053  1.00  0.00    -0.000 C 
BRANCH   4   5
ATOM      5  C   UNL     1     170.534 168.113 168.590  1.00  0.00    -0.003 C 
ATOM      6  C   UNL     1     169.970 166.885 167.875  1.00  0.00     0.004 C 
ENDBRANCH   4   5
ENDBRANCH   3   4
ENDBRANCH   2   3
ENDBRANCH   1   2
BRANCH   1   7
ATOM      7  C   UNL     1     165.751 168.766 167.993  1.00  0.00     0.002 C 
BRANCH   7   8
ATOM      8  C   UNL     1     165.471 167.387 168.604  1.00  0.00     0.028 C 
BRANCH   8   9
ATOM      9  C   UNL     1     166.329 166.295 167.957  1.00  0.00     0.156 C 
BRANCH   9  10
ATOM     10  O   UNL     1     165.792 165.023 168.203  1.00  0.00    -0.396 OA
ATOM     11  H   UNL     1     164.881 165.166 168.572  1.00  0.00     0.210 HD
ENDBRANCH   9  10
ENDBRANCH   8   9
ENDBRANCH   7   8
ENDBRANCH   1   7
TORSDOF 8
ENDMDL
MODEL 3
REMARK VINA RESULT:    -2.797      3.014      5.141
REMARK INTER + INTRA:          -4.695
REMARK INTER:                  -4.129
REMARK INTRA:                  -0.566
REMARK UNBOUND:                -0.671
REMARK SMILES CCCCCCCCCO
REMARK SMILES IDX 6 1 5 2 4 3 3 4 2 5 1 6 7 7 8 8 9 9 10 10
REMARK H PARENT 10 11
REMARK Flexibility Score: inf
ROOT
ATOM      1  C   UNL     1     169.886 166.885 168.440  1.00  0.00     0.000 C 
ENDROOT
BRANCH   1   2
ATOM      2  C   UNL     1     169.420 168.276 168.895  1.00  0.00     0.000 C 
BRANCH   2   3
ATOM      3  C   UNL     1     168.231 168.799 168.074  1.00  0.00    -0.000 C 
BRANCH   3   4
ATOM      4  C   UNL     1     167.038 169.207 168.956  1.00  0.00    -0.000 C 
BRANCH   4   5
ATOM      5  C   UNL     1     165.687 168.971 168.264  1.00  0.00    -0.003 C 
ATOM      6  C   UNL     1     165.228 167.515 168.344  1.00  0.00     0.004 C 
ENDBRANCH   4   5
ENDBRANCH   3   4
ENDBRANCH   2   3
ENDBRANCH   1   2
BRANCH   1   7
ATOM      7  C   UNL     1     168.707 166.053 167.920  1.00  0.00     0.002 C 
BRANCH   7   8
ATOM      8  C   UNL     1     168.120 165.174 169.033  1.00  0.00     0.028 C 
BRANCH   8   9
ATOM      9  C   UNL     1     168.739 163.773 169.036  1.00  0.00     0.156 C 
BRANCH   9  10
ATOM     10  O   UNL     1     168.390 163.068 167.875  1.00  0.00    -0.396 OA
ATOM     11  H   UNL     1     169.176 162.512 167.634  1.00  0.00     0.210 HD
ENDBRANCH   9  10
ENDBRANCH   8   9
ENDBRANCH   7   8
ENDBRANCH   1   7
TORSDOF 8
ENDMDL
MODEL 4
REMARK VINA RESULT:    -2.780      2.179      3.624
REMARK INTER + INTRA:          -4.670
REMARK INTER:                  -4.146
REMARK INTRA:                  -0.525
REMARK UNBOUND:                -0.671
REMARK SMILES CCCCCCCCCO
REMARK SMILES IDX 6 1 5 2 4 3 3 4 2 5 1 6 7 7 8 8 9 9 10 10
REMARK H PARENT 10 11
REMARK Flexibility Score: inf
ROOT
ATOM      1  C   UNL     1     167.603 166.685 167.875  1.00  0.00     0.000 C 
ENDROOT
BRANCH   1   2
ATOM      2  C   UNL     1     168.788 166.557 168.844  1.00  0.00     0.000 C 
BRANCH   2   3
ATOM      3  C   UNL     1     169.481 167.903 169.111  1.00  0.00    -0.000 C 
BRANCH   3   4
ATOM      4  C   UNL     1     169.320 168.892 167.943  1.00  0.00    -0.000 C 
BRANCH   4   5
ATOM      5  C   UNL     1     168.783 170.257 168.398  1.00  0.00    -0.003 C 
ATOM      6  C   UNL     1     167.324 170.197 168.849  1.00  0.00     0.004 C 
ENDBRANCH   4   5
ENDBRANCH   3   4
ENDBRANCH   2   3
ENDBRANCH   1   2
BRANCH   1   7
ATOM      7  C   UNL     1     166.427 165.809 168.326  1.00  0.00     0.002 C 
BRANCH   7   8
ATOM      8  C   UNL     1     165.395 166.632 169.107  1.00  0.00     0.028 C 
BRANCH   8   9
ATOM      9  C   UNL     1     164.615 167.581 168.191  1.00  0.00     0.156 C 
BRANCH   9  10
ATOM     10  O   UNL     1     163.354 167.052 167.879  1.00  0.00    -0.396 OA
ATOM     11  H   UNL     1     163.509 166.305 167.244  1.00  0.00     0.210 HD
ENDBRANCH   9  10
ENDBRANCH   8   9
ENDBRANCH   7   8
ENDBRANCH   1   7
TORSDOF 8
ENDMDL
MODEL 5
REMARK VINA RESULT:    -2.769      1.309      2.011
REMARK INTER + INTRA:          -4.654
REMARK INTER:                  -4.083
REMARK INTRA:                  -0.571
REMARK UNBOUND:                -0.671
REMARK SMILES CCCCCCCCCO
REMARK SMILES IDX 6 1 5 2 4 3 3 4 2 5 1 6 7 7 8 8 9 9 10 10
REMARK H PARENT 10 11
REMARK Flexibility Score: inf
ROOT
ATOM      1  C   UNL     1     165.506 168.529 168.159  1.00  0.00     0.000 C 
ENDROOT
BRANCH   1   2
ATOM      2  C   UNL     1     164.675 167.312 168.591  1.00  0.00     0.000 C 
BRANCH   2   3
ATOM      3  C   UNL     1     165.548 166.107 168.978  1.00  0.00    -0.000 C 
BRANCH   3   4
ATOM      4  C   UNL     1     166.653 165.822 167.946  1.00  0.00    -0.000 C 
BRANCH   4   5
ATOM      5  C   UNL     1     167.927 165.255 168.589  1.00  0.00    -0.003 C 
ATOM      6  C   UNL     1     169.174 166.073 168.252  1.00  0.00     0.004 C 
ENDBRANCH   4   5
ENDBRANCH   3   4
ENDBRANCH   2   3
ENDBRANCH   1   2
BRANCH   1   7
ATOM      7  C   UNL     1     166.100 169.250 169.375  1.00  0.00     0.002 C 
BRANCH   7   8
ATOM      8  C   UNL     1     167.618 169.416 169.230  1.00  0.00     0.028 C 
BRANCH   8   9
ATOM      9  C   UNL     1     167.976 170.445 168.153  1.00  0.00     0.156 C 
BRANCH   9  10
ATOM     10  O   UNL     1     169.352 170.427 167.879  1.00  0.00    -0.396 OA
ATOM     11  H   UNL     1     169.495 169.727 167.191  1.00  0.00     0.210 HD
ENDBRANCH   9  10
ENDBRANCH   8   9
ENDBRANCH   7   8
ENDBRANCH   1   7
TORSDOF 8
ENDMDL
MODEL 6
REMARK VINA RESULT:    -2.753      2.182      4.079
REMARK INTER + INTRA:          -4.631
REMARK INTER:                  -3.973
REMARK INTRA:                  -0.658
REMARK UNBOUND:                -0.671
REMARK SMILES CCCCCCCCCO
REMARK SMILES IDX 6 1 5 2 4 3 3 4 2 5 1 6 7 7 8 8 9 9 10 10
REMARK H PARENT 10 11
REMARK Flexibility Score: inf
ROOT
ATOM      1  C   UNL     1     167.809 169.440 169.524  1.00  0.00     0.000 C 
ENDROOT
BRANCH   1   2
ATOM      2  C   UNL     1     166.308 169.535 169.211  1.00  0.00     0.000 C 
BRANCH   2   3
ATOM      3  C   UNL     1     165.938 168.870 167.876  1.00  0.00    -0.000 C 
BRANCH   3   4
ATOM      4  C   UNL     1     164.926 167.724 168.046  1.00  0.00    -0.000 C 
BRANCH   4   5
ATOM      5  C   UNL     1     165.369 166.700 169.102  1.00  0.00    -0.003 C 
ATOM      6  C   UNL     1     166.442 165.743 168.585  1.00  0.00     0.004 C 
ENDBRANCH   4   5
ENDBRANCH   3   4
ENDBRANCH   2   3
ENDBRANCH   1   2
BRANCH   1   7
ATOM      7  C   UNL     1     168.594 168.947 168.302  1.00  0.00     0.002 C 
BRANCH   7   8
ATOM      8  C   UNL     1     169.559 167.818 168.687  1.00  0.00     0.028 C 
BRANCH   8   9
ATOM      9  C   UNL     1     170.864 167.889 167.886  1.00  0.00     0.156 C 
BRANCH   9  10
ATOM     10  O   UNL     1     171.833 168.637 168.570  1.00  0.00    -0.396 OA
ATOM     11  H   UNL     1     171.797 169.556 168.197  1.00  0.00     0.210 HD
ENDBRANCH   9  10
ENDBRANCH   8   9
ENDBRANCH   7   8
ENDBRANCH   1   7
TORSDOF 8
ENDMDL
MODEL 7
REMARK VINA RESULT:    -2.753      3.051      4.514
REMARK INTER + INTRA:          -4.631
REMARK INTER:                  -4.028
REMARK INTRA:                  -0.603
REMARK UNBOUND:                -0.671
REMARK SMILES CCCCCCCCCO
REMARK SMILES IDX 6 1 5 2 4 3 3 4 2 5 1 6 7 7 8 8 9 9 10 10
REMARK H PARENT 10 11
REMARK Flexibility Score: inf
ROOT
ATOM      1  C   UNL     1     166.696 166.745 169.108  1.00  0.00     0.000 C 
ENDROOT
BRANCH   1   2
ATOM      2  C   UNL     1     166.850 167.847 168.049  1.00  0.00     0.000 C 
BRANCH   2   3
ATOM      3  C   UNL     1     167.534 169.107 168.602  1.00  0.00    -0.000 C 
BRANCH   3   4
ATOM      4  C   UNL     1     168.861 169.420 167.890  1.00  0.00    -0.000 C 
BRANCH   4   5
ATOM      5  C   UNL     1     169.959 168.396 168.215  1.00  0.00    -0.003 C 
ATOM      6  C   UNL     1     170.223 168.269 169.715  1.00  0.00     0.004 C 
ENDBRANCH   4   5
ENDBRANCH   3   4
ENDBRANCH   2   3
ENDBRANCH   1   2
BRANCH   1   7
ATOM      7  C   UNL     1     167.297 165.422 168.617  1.00  0.00     0.002 C 
BRANCH   7   8
ATOM      8  C   UNL     1     168.296 164.859 169.636  1.00  0.00     0.028 C 
BRANCH   8   9
ATOM      9  C   UNL     1     169.008 163.612 169.104  1.00  0.00     0.156 C 
BRANCH   9  10
ATOM     10  O   UNL     1     168.361 163.112 167.964  1.00  0.00    -0.396 OA
ATOM     11  H   UNL     1     168.891 163.412 167.181  1.00  0.00     0.210 HD
ENDBRANCH   9  10
ENDBRANCH   8   9
ENDBRANCH   7   8
ENDBRANCH   1   7
TORSDOF 8
ENDMDL
MODEL 8
REMARK VINA RESULT:    -2.744      1.555      2.926
REMARK INTER + INTRA:          -4.618
REMARK INTER:                  -3.976
REMARK INTRA:                  -0.642
REMARK UNBOUND:                -0.671
REMARK SMILES CCCCCCCCCO
REMARK SMILES IDX 6 1 5 2 4 3 3 4 2 5 1 6 7 7 8 8 9 9 10 10
REMARK H PARENT 10 11
REMARK Flexibility Score: inf
ROOT
ATOM      1  C   UNL     1     168.357 168.714 169.794  1.00  0.00     0.000 C 
ENDROOT
BRANCH   1   2
ATOM      2  C   UNL     1     169.018 169.121 168.469  1.00  0.00     0.000 C 
BRANCH   2   3
ATOM      3  C   UNL     1     169.955 168.035 167.917  1.00  0.00    -0.000 C 
BRANCH   3   4
ATOM      4  C   UNL     1     169.775 166.682 168.628  1.00  0.00    -0.000 C 
BRANCH   4   5
ATOM      5  C   UNL     1     168.818 165.745 167.876  1.00  0.00    -0.003 C 
ATOM      6  C   UNL     1     168.068 164.794 168.808  1.00  0.00     0.004 C 
ENDBRANCH   4   5
ENDBRANCH   3   4
ENDBRANCH   2   3
ENDBRANCH   1   2
BRANCH   1   7
ATOM      7  C   UNL     1     166.869 169.085 169.803  1.00  0.00     0.002 C 
BRANCH   7   8
ATOM      8  C   UNL     1     165.992 167.852 169.547  1.00  0.00     0.028 C 
BRANCH   8   9
ATOM      9  C   UNL     1     165.202 167.979 168.241  1.00  0.00     0.156 C 
BRANCH   9  10
ATOM     10  O   UNL     1     165.029 169.325 167.887  1.00  0.00    -0.396 OA
ATOM     11  H   UNL     1     165.702 169.842 168.402  1.00  0.00     0.210 HD
ENDBRANCH   9  10
ENDBRANCH   8   9
ENDBRANCH   7   8
ENDBRANCH   1   7
TORSDOF 8
ENDMDL
