MODEL 1
REMARK VINA RESULT:    -5.573      0.000      0.000
REMARK INTER + INTRA:          -5.736
REMARK INTER:                  -5.736
REMARK INTRA:                   0.000
REMARK UNBOUND:                 0.000
REMARK SMILES Oc1ccc2[nH]ccc2c1
REMARK SMILES IDX 3 1 4 2 5 3 9 4 8 5 7 6 6 7 10 8 2 9 1 11
REMARK H PARENT 6 10 1 12
REMARK Flexibility Score: inf
ROOT
ATOM      1  C   UNL     1       6.775 -15.912  16.858  1.00  0.00     0.048 A 
ATOM      2  C   UNL     1       7.264 -17.168  17.260  1.00  0.00     0.030 A 
ATOM      3  C   UNL     1       6.497 -17.907  18.160  1.00  0.00     0.046 A 
ATOM      4  C   UNL     1       5.306 -17.438  18.645  1.00  0.00     0.003 A 
ATOM      5  C   UNL     1       4.805 -18.394  19.501  1.00  0.00     0.028 A 
ATOM      6  C   UNL     1       5.745 -19.420  19.490  1.00  0.00     0.083 A 
ATOM      7  N   UNL     1       6.777 -19.118  18.669  1.00  0.00    -0.361 N 
ATOM      8  C   UNL     1       4.793 -16.199  18.267  1.00  0.00     0.056 A 
ATOM      9  C   UNL     1       5.544 -15.425  17.356  1.00  0.00     0.116 A 
ATOM     10  H   UNL     1       7.616 -19.708  18.474  1.00  0.00     0.166 HD
ENDROOT
BRANCH   9  11
ATOM     11  O   UNL     1       5.083 -14.179  16.942  1.00  0.00    -0.508 OA
ATOM     12  H   UNL     1       4.118 -14.037  16.666  1.00  0.00     0.293 HD
ENDBRANCH   9  11
TORSDOF 1
ENDMDL
MODEL 2
REMARK VINA RESULT:    -5.508      1.394      2.135
REMARK INTER + INTRA:          -5.669
REMARK INTER:                  -5.669
REMARK INTRA:                   0.000
REMARK UNBOUND:                 0.000
REMARK SMILES Oc1ccc2[nH]ccc2c1
REMARK SMILES IDX 3 1 4 2 5 3 9 4 8 5 7 6 6 7 10 8 2 9 1 11
REMARK H PARENT 6 10 1 12
REMARK Flexibility Score: inf
ROOT
ATOM      1  C   UNL     1       5.953 -14.767  17.330  1.00  0.00     0.048 A 
ATOM      2  C   UNL     1       5.308 -15.388  18.414  1.00  0.00     0.030 A 
ATOM      3  C   UNL     1       5.633 -16.715  18.691  1.00  0.00     0.046 A 
ATOM      4  C   UNL     1       6.548 -17.404  17.941  1.00  0.00     0.003 A 
ATOM      5  C   UNL     1       6.641 -18.674  18.466  1.00  0.00     0.028 A 
ATOM      6  C   UNL     1       5.752 -18.689  19.537  1.00  0.00     0.083 A 
ATOM      7  N   UNL     1       5.140 -17.490  19.670  1.00  0.00    -0.361 N 
ATOM      8  C   UNL     1       7.205 -16.818  16.860  1.00  0.00     0.056 A 
ATOM      9  C   UNL     1       6.900 -15.475  16.553  1.00  0.00     0.116 A 
ATOM     10  H   UNL     1       4.429 -17.226  20.389  1.00  0.00     0.166 HD
ENDROOT
BRANCH   9  11
ATOM     11  O   UNL     1       7.524 -14.836  15.485  1.00  0.00    -0.508 OA
ATOM     12  H   UNL     1       7.007 -14.240  14.850  1.00  0.00     0.293 HD
ENDBRANCH   9  11
TORSDOF 1
ENDMDL
MODEL 3
REMARK VINA RESULT:    -5.260      2.643      3.912
REMARK INTER + INTRA:          -5.414
REMARK INTER:                  -5.414
REMARK INTRA:                   0.000
REMARK UNBOUND:                 0.000
REMARK SMILES Oc1ccc2[nH]ccc2c1
REMARK SMILES IDX 3 1 4 2 5 3 9 4 8 5 7 6 6 7 10 8 2 9 1 11
REMARK H PARENT 6 10 1 12
REMARK Flexibility Score: inf
ROOT
ATOM      1  C   UNL     1       4.172 -18.311  18.340  1.00  0.00     0.048 A 
ATOM      2  C   UNL     1       4.216 -17.154  17.541  1.00  0.00     0.030 A 
ATOM      3  C   UNL     1       5.407 -16.430  17.509  1.00  0.00     0.046 A 
ATOM      4  C   UNL     1       6.505 -16.820  18.227  1.00  0.00     0.003 A 
ATOM      5  C   UNL     1       7.504 -15.903  17.983  1.00  0.00     0.028 A 
ATOM      6  C   UNL     1       6.943 -14.980  17.105  1.00  0.00     0.083 A 
ATOM      7  N   UNL     1       5.661 -15.307  16.819  1.00  0.00    -0.361 N 
ATOM      8  C   UNL     1       6.496 -17.960  19.028  1.00  0.00     0.056 A 
ATOM      9  C   UNL     1       5.306 -18.717  19.082  1.00  0.00     0.116 A 
ATOM     10  H   UNL     1       5.008 -14.789  16.190  1.00  0.00     0.166 HD
ENDROOT
BRANCH   9  11
ATOM     11  O   UNL     1       5.236 -19.866  19.865  1.00  0.00    -0.508 OA
ATOM     12  H   UNL     1       5.710 -19.927  20.759  1.00  0.00     0.293 HD
ENDBRANCH   9  11
TORSDOF 1
ENDMDL
MODEL 4
REMARK VINA RESULT:    -4.961      9.507     10.834
REMARK INTER + INTRA:          -5.106
REMARK INTER:                  -5.106
REMARK INTRA:                   0.000
REMARK UNBOUND:                 0.000
REMARK SMILES Oc1ccc2[nH]ccc2c1
REMARK SMILES IDX 3 1 4 2 5 3 9 4 8 5 7 6 6 7 10 8 2 9 1 11
REMARK H PARENT 6 10 1 12
REMARK Flexibility Score: inf
ROOT
ATOM      1  C   UNL     1       7.421  -8.229  15.803  1.00  0.00     0.048 A 
ATOM      2  C   UNL     1       8.373  -7.588  14.990  1.00  0.00     0.030 A 
ATOM      3  C   UNL     1       9.535  -7.114  15.598  1.00  0.00     0.046 A 
ATOM      4  C   UNL     1       9.756  -7.261  16.940  1.00  0.00     0.003 A 
ATOM      5  C   UNL     1      10.978  -6.693  17.222  1.00  0.00     0.028 A 
ATOM      6  C   UNL     1      11.448  -6.217  16.001  1.00  0.00     0.083 A 
ATOM      7  N   UNL     1      10.562  -6.478  15.012  1.00  0.00    -0.361 N 
ATOM      8  C   UNL     1       8.834  -7.892  17.774  1.00  0.00     0.056 A 
ATOM      9  C   UNL     1       7.647  -8.384  17.190  1.00  0.00     0.116 A 
ATOM     10  H   UNL     1      10.661  -6.232  14.001  1.00  0.00     0.166 HD
ENDROOT
BRANCH   9  11
ATOM     11  O   UNL     1       6.689  -9.024  17.972  1.00  0.00    -0.508 OA
ATOM     12  H   UNL     1       6.383  -8.635  18.857  1.00  0.00     0.293 HD
ENDBRANCH   9  11
TORSDOF 1
ENDMDL
MODEL 5
REMARK VINA RESULT:    -4.905      9.655     10.480
REMARK INTER + INTRA:          -5.049
REMARK INTER:                  -5.049
REMARK INTRA:                   0.000
REMARK UNBOUND:                 0.000
REMARK SMILES Oc1ccc2[nH]ccc2c1
REMARK SMILES IDX 3 1 4 2 5 3 9 4 8 5 7 6 6 7 10 8 2 9 1 11
REMARK H PARENT 6 10 1 12
REMARK Flexibility Score: inf
ROOT
ATOM      1  C   UNL     1      10.772  -7.362  17.093  1.00  0.00     0.048 A 
ATOM      2  C   UNL     1       9.693  -7.674  17.940  1.00  0.00     0.030 A 
ATOM      3  C   UNL     1       8.428  -7.790  17.368  1.00  0.00     0.046 A 
ATOM      4  C   UNL     1       8.226  -7.609  16.026  1.00  0.00     0.003 A 
ATOM      5  C   UNL     1       6.882  -7.790  15.783  1.00  0.00     0.028 A 
ATOM      6  C   UNL     1       6.324  -8.078  17.025  1.00  0.00     0.083 A 
ATOM      7  N   UNL     1       7.273  -8.078  17.989  1.00  0.00    -0.361 N 
ATOM      8  C   UNL     1       9.272  -7.300  15.158  1.00  0.00     0.056 A 
ATOM      9  C   UNL     1      10.566  -7.176  15.706  1.00  0.00     0.116 A 
ATOM     10  H   UNL     1       7.131  -8.263  19.008  1.00  0.00     0.166 HD
ENDROOT
BRANCH   9  11
ATOM     11  O   UNL     1      11.651  -6.869  14.889  1.00  0.00    -0.508 OA
ATOM     12  H   UNL     1      11.783  -7.322  13.992  1.00  0.00     0.293 HD
ENDBRANCH   9  11
TORSDOF 1
ENDMDL
MODEL 6
REMARK VINA RESULT:    -4.875      1.640      1.950
REMARK INTER + INTRA:          -5.017
REMARK INTER:                  -5.017
REMARK INTRA:                   0.000
REMARK UNBOUND:                 0.000
REMARK SMILES Oc1ccc2[nH]ccc2c1
REMARK SMILES IDX 3 1 4 2 5 3 9 4 8 5 7 6 6 7 10 8 2 9 1 11
REMARK H PARENT 6 10 1 12
REMARK Flexibility Score: inf
ROOT
ATOM      1  C   UNL     1       5.995 -16.829  15.407  1.00  0.00     0.048 A 
ATOM      2  C   UNL     1       5.310 -17.866  16.065  1.00  0.00     0.030 A 
ATOM      3  C   UNL     1       5.550 -18.043  17.427  1.00  0.00     0.046 A 
ATOM      4  C   UNL     1       6.420 -17.241  18.114  1.00  0.00     0.003 A 
ATOM      5  C   UNL     1       6.432 -17.670  19.423  1.00  0.00     0.028 A 
ATOM      6  C   UNL     1       5.544 -18.741  19.461  1.00  0.00     0.083 A 
ATOM      7  N   UNL     1       5.007 -18.964  18.239  1.00  0.00    -0.361 N 
ATOM      8  C   UNL     1       7.114 -16.204  17.493  1.00  0.00     0.056 A 
ATOM      9  C   UNL     1       6.894 -15.998  16.115  1.00  0.00     0.116 A 
ATOM     10  H   UNL     1       4.314 -19.703  17.985  1.00  0.00     0.166 HD
ENDROOT
BRANCH   9  11
ATOM     11  O   UNL     1       7.559 -14.977  15.439  1.00  0.00    -0.508 OA
ATOM     12  H   UNL     1       7.056 -14.194  15.038  1.00  0.00     0.293 HD
ENDBRANCH   9  11
TORSDOF 1
ENDMDL
MODEL 7
REMARK VINA RESULT:    -4.825      2.349      3.025
REMARK INTER + INTRA:          -4.966
REMARK INTER:                  -4.966
REMARK INTRA:                   0.000
REMARK UNBOUND:                 0.000
REMARK SMILES Oc1ccc2[nH]ccc2c1
REMARK SMILES IDX 3 1 4 2 5 3 9 4 8 5 7 6 6 7 10 8 2 9 1 11
REMARK H PARENT 6 10 1 12
REMARK Flexibility Score: inf
ROOT
ATOM      1  C   UNL     1       6.572 -17.177  18.969  1.00  0.00     0.048 A 
ATOM      2  C   UNL     1       5.474 -18.030  18.753  1.00  0.00     0.030 A 
ATOM      3  C   UNL     1       4.993 -18.154  17.451  1.00  0.00     0.046 A 
ATOM      4  C   UNL     1       5.559 -17.474  16.407  1.00  0.00     0.003 A 
ATOM      5  C   UNL     1       4.860 -17.810  15.268  1.00  0.00     0.028 A 
ATOM      6  C   UNL     1       3.878 -18.700  15.694  1.00  0.00     0.083 A 
ATOM      7  N   UNL     1       3.964 -18.907  17.029  1.00  0.00    -0.361 N 
ATOM      8  C   UNL     1       6.647 -16.622  16.585  1.00  0.00     0.056 A 
ATOM      9  C   UNL     1       7.159 -16.474  17.892  1.00  0.00     0.116 A 
ATOM     10  H   UNL     1       3.353 -19.526  17.607  1.00  0.00     0.166 HD
ENDROOT
BRANCH   9  11
ATOM     11  O   UNL     1       8.246 -15.637  18.133  1.00  0.00    -0.508 OA
ATOM     12  H   UNL     1       8.434 -14.833  17.545  1.00  0.00     0.293 HD
ENDBRANCH   9  11
TORSDOF 1
ENDMDL
MODEL 8
REMARK VINA RESULT:    -4.670      2.604      2.882
REMARK INTER + INTRA:          -4.806
REMARK INTER:                  -4.806
REMARK INTRA:                   0.000
REMARK UNBOUND:                 0.000
REMARK SMILES Oc1ccc2[nH]ccc2c1
REMARK SMILES IDX 3 1 4 2 5 3 9 4 8 5 7 6 6 7 10 8 2 9 1 11
REMARK H PARENT 6 10 1 12
REMARK Flexibility Score: inf
ROOT
ATOM      1  C   UNL     1       7.430 -15.568  17.378  1.00  0.00     0.048 A 
ATOM      2  C   UNL     1       7.127 -16.255  16.189  1.00  0.00     0.030 A 
ATOM      3  C   UNL     1       5.808 -16.659  15.988  1.00  0.00     0.046 A 
ATOM      4  C   UNL     1       4.829 -16.403  16.910  1.00  0.00     0.003 A 
ATOM      5  C   UNL     1       3.653 -16.926  16.419  1.00  0.00     0.028 A 
ATOM      6  C   UNL     1       3.990 -17.488  15.192  1.00  0.00     0.083 A 
ATOM      7  N   UNL     1       5.308 -17.322  14.933  1.00  0.00    -0.361 N 
ATOM      8  C   UNL     1       5.095 -15.724  18.097  1.00  0.00     0.056 A 
ATOM      9  C   UNL     1       6.420 -15.300  18.331  1.00  0.00     0.116 A 
ATOM     10  H   UNL     1       5.826 -17.646  14.085  1.00  0.00     0.166 HD
ENDROOT
BRANCH   9  11
ATOM     11  O   UNL     1       6.747 -14.617  19.500  1.00  0.00    -0.508 OA
ATOM     12  H   UNL     1       6.679 -13.608  19.559  1.00  0.00     0.293 HD
ENDBRANCH   9  11
TORSDOF 1
ENDMDL
MODEL 9
REMARK VINA RESULT:    -4.532      2.299      2.940
REMARK INTER + INTRA:          -4.664
REMARK INTER:                  -4.664
REMARK INTRA:                   0.000
REMARK UNBOUND:                 0.000
REMARK SMILES Oc1ccc2[nH]ccc2c1
REMARK SMILES IDX 3 1 4 2 5 3 9 4 8 5 7 6 6 7 10 8 2 9 1 11
REMARK H PARENT 6 10 1 12
REMARK Flexibility Score: inf
ROOT
ATOM      1  C   UNL     1       2.735 -17.904  16.594  1.00  0.00     0.048 A 
ATOM      2  C   UNL     1       2.983 -18.406  17.884  1.00  0.00     0.030 A 
ATOM      3  C   UNL     1       4.284 -18.317  18.378  1.00  0.00     0.046 A 
ATOM      4  C   UNL     1       5.297 -17.764  17.642  1.00  0.00     0.003 A 
ATOM      5  C   UNL     1       6.443 -17.828  18.403  1.00  0.00     0.028 A 
ATOM      6  C   UNL     1       6.054 -18.434  19.594  1.00  0.00     0.083 A 
ATOM      7  N   UNL     1       4.734 -18.731  19.573  1.00  0.00    -0.361 N 
ATOM      8  C   UNL     1       5.085 -17.257  16.361  1.00  0.00     0.056 A 
ATOM      9  C   UNL     1       3.779 -17.330  15.832  1.00  0.00     0.116 A 
ATOM     10  H   UNL     1       4.183 -19.189  20.334  1.00  0.00     0.166 HD
ENDROOT
BRANCH   9  11
ATOM     11  O   UNL     1       3.506 -16.841  14.557  1.00  0.00    -0.508 OA
ATOM     12  H   UNL     1       3.739 -17.371  13.726  1.00  0.00     0.293 HD
ENDBRANCH   9  11
TORSDOF 1
ENDMDL
