MODEL 1
REMARK VINA RESULT:    -3.080      0.000      0.000
REMARK INTER + INTRA:          -4.851
REMARK INTER:                  -4.340
REMARK INTRA:                  -0.512
REMARK UNBOUND:                -0.512
REMARK SMILES CCCCCCCCC(=O)[O-]
REMARK SMILES IDX 6 1 7 2 8 3 9 4 10 5 11 6 5 7 4 8 3 9 2 10 1 11
REMARK H PARENT
REMARK Flexibility Score: inf
ROOT
ATOM      1  C   UNL     1      15.613  -7.536   6.870  1.00  0.00     0.000 C 
ENDROOT
BRANCH   1   2
ATOM      2  C   UNL     1      14.409  -8.500   6.844  1.00  0.00     0.006 C 
BRANCH   2   3
ATOM      3  C   UNL     1      13.728  -8.633   5.473  1.00  0.00     0.053 C 
BRANCH   3   4
ATOM      4  C   UNL     1      12.417  -7.912   5.426  1.00  0.00     0.041 C 
ATOM      5  O   UNL     1      11.635  -7.951   6.412  1.00  0.00    -0.550 OA
ATOM      6  O   UNL     1      12.072  -7.170   4.303  1.00  0.00    -0.550 OA
ENDBRANCH   3   4
ENDBRANCH   2   3
ENDBRANCH   1   2
BRANCH   1   7
ATOM      7  C   UNL     1      16.042  -6.996   5.495  1.00  0.00     0.000 C 
BRANCH   7   8
ATOM      8  C   UNL     1      17.479  -7.398   5.118  1.00  0.00    -0.000 C 
BRANCH   8   9
ATOM      9  C   UNL     1      18.179  -8.194   6.231  1.00  0.00    -0.000 C 
BRANCH   9  10
ATOM     10  C   UNL     1      19.334  -7.414   6.875  1.00  0.00    -0.003 C 
ATOM     11  C   UNL     1      19.030  -7.085   8.334  1.00  0.00     0.004 C 
ENDBRANCH   9  10
ENDBRANCH   8   9
ENDBRANCH   7   8
ENDBRANCH   1   7
TORSDOF 7
ENDMDL
MODEL 2
REMARK VINA RESULT:    -3.073      3.521      5.587
REMARK INTER + INTRA:          -4.841
REMARK INTER:                  -4.341
REMARK INTRA:                  -0.500
REMARK UNBOUND:                -0.512
REMARK SMILES CCCCCCCCC(=O)[O-]
REMARK SMILES IDX 6 1 7 2 8 3 9 4 10 5 11 6 5 7 4 8 3 9 2 10 1 11
REMARK H PARENT
REMARK Flexibility Score: inf
ROOT
ATOM      1  C   UNL     1      18.774  -7.025   4.608  1.00  0.00     0.000 C 
ENDROOT
BRANCH   1   2
ATOM      2  C   UNL     1      19.759  -7.093   5.792  1.00  0.00     0.006 C 
BRANCH   2   3
ATOM      3  C   UNL     1      19.656  -8.374   6.634  1.00  0.00     0.053 C 
BRANCH   3   4
ATOM      4  C   UNL     1      19.374  -8.077   8.073  1.00  0.00     0.041 C 
ATOM      5  O   UNL     1      19.706  -8.898   8.969  1.00  0.00    -0.550 OA
ATOM      6  O   UNL     1      18.771  -6.878   8.430  1.00  0.00    -0.550 OA
ENDBRANCH   3   4
ENDBRANCH   2   3
ENDBRANCH   1   2
BRANCH   1   7
ATOM      7  C   UNL     1      17.451  -7.784   4.819  1.00  0.00     0.000 C 
BRANCH   7   8
ATOM      8  C   UNL     1      16.365  -6.918   5.481  1.00  0.00    -0.000 C 
BRANCH   8   9
ATOM      9  C   UNL     1      15.701  -7.618   6.677  1.00  0.00    -0.000 C 
BRANCH   9  10
ATOM     10  C   UNL     1      14.466  -8.434   6.270  1.00  0.00    -0.003 C 
ATOM     11  C   UNL     1      13.558  -8.692   7.469  1.00  0.00     0.004 C 
ENDBRANCH   9  10
ENDBRANCH   8   9
ENDBRANCH   7   8
ENDBRANCH   1   7
TORSDOF 7
ENDMDL
MODEL 3
REMARK VINA RESULT:    -3.021      1.334      2.110
REMARK INTER + INTRA:          -4.768
REMARK INTER:                  -4.072
REMARK INTRA:                  -0.696
REMARK UNBOUND:                -0.512
REMARK SMILES CCCCCCCCC(=O)[O-]
REMARK SMILES IDX 6 1 7 2 8 3 9 4 10 5 11 6 5 7 4 8 3 9 2 10 1 11
REMARK H PARENT
REMARK Flexibility Score: inf
ROOT
ATOM      1  C   UNL     1      16.748  -7.121   4.265  1.00  0.00     0.000 C 
ENDROOT
BRANCH   1   2
ATOM      2  C   UNL     1      15.987  -6.767   5.560  1.00  0.00     0.006 C 
BRANCH   2   3
ATOM      3  C   UNL     1      15.689  -7.966   6.472  1.00  0.00     0.053 C 
BRANCH   3   4
ATOM      4  C   UNL     1      14.228  -8.287   6.515  1.00  0.00     0.041 C 
ATOM      5  O   UNL     1      13.704  -8.726   7.573  1.00  0.00    -0.550 OA
ATOM      6  O   UNL     1      13.435  -8.071   5.394  1.00  0.00    -0.550 OA
ENDBRANCH   3   4
ENDBRANCH   2   3
ENDBRANCH   1   2
BRANCH   1   7
ATOM      7  C   UNL     1      18.033  -7.942   4.471  1.00  0.00     0.000 C 
BRANCH   7   8
ATOM      8  C   UNL     1      19.171  -7.122   5.104  1.00  0.00    -0.000 C 
BRANCH   8   9
ATOM      9  C   UNL     1      20.060  -7.965   6.031  1.00  0.00    -0.000 C 
BRANCH   9  10
ATOM     10  C   UNL     1      19.346  -8.365   7.330  1.00  0.00    -0.003 C 
ATOM     11  C   UNL     1      19.005  -7.138   8.170  1.00  0.00     0.004 C 
ENDBRANCH   9  10
ENDBRANCH   8   9
ENDBRANCH   7   8
ENDBRANCH   1   7
TORSDOF 7
ENDMDL
MODEL 4
REMARK VINA RESULT:    -2.931      4.267      6.507
REMARK INTER + INTRA:          -4.641
REMARK INTER:                  -4.250
REMARK INTRA:                  -0.391
REMARK UNBOUND:                -0.512
REMARK SMILES CCCCCCCCC(=O)[O-]
REMARK SMILES IDX 6 1 7 2 8 3 9 4 10 5 11 6 5 7 4 8 3 9 2 10 1 11
REMARK H PARENT
REMARK Flexibility Score: inf
ROOT
ATOM      1  C   UNL     1       9.125  -9.130   6.986  1.00  0.00     0.000 C 
ENDROOT
BRANCH   1   2
ATOM      2  C   UNL     1       7.668  -8.789   7.362  1.00  0.00     0.006 C 
BRANCH   2   3
ATOM      3  C   UNL     1       6.720  -8.635   6.163  1.00  0.00     0.053 C 
BRANCH   3   4
ATOM      4  C   UNL     1       6.269  -7.219   5.984  1.00  0.00     0.041 C 
ATOM      5  O   UNL     1       6.324  -6.408   6.946  1.00  0.00    -0.550 OA
ATOM      6  O   UNL     1       5.818  -6.785   4.744  1.00  0.00    -0.550 OA
ENDBRANCH   3   4
ENDBRANCH   2   3
ENDBRANCH   1   2
BRANCH   1   7
ATOM      7  C   UNL     1       9.393  -9.256   5.476  1.00  0.00     0.000 C 
BRANCH   7   8
ATOM      8  C   UNL     1      10.585  -8.403   5.008  1.00  0.00    -0.000 C 
BRANCH   8   9
ATOM      9  C   UNL     1      11.498  -7.978   6.170  1.00  0.00    -0.000 C 
BRANCH   9  10
ATOM     10  C   UNL     1      12.977  -8.287   5.900  1.00  0.00    -0.003 C 
ATOM     11  C   UNL     1      13.707  -8.648   7.190  1.00  0.00     0.004 C 
ENDBRANCH   9  10
ENDBRANCH   8   9
ENDBRANCH   7   8
ENDBRANCH   1   7
TORSDOF 7
ENDMDL
MODEL 5
REMARK VINA RESULT:    -2.861      4.238      8.155
REMARK INTER + INTRA:          -4.543
REMARK INTER:                  -4.141
REMARK INTRA:                  -0.402
REMARK UNBOUND:                -0.512
REMARK SMILES CCCCCCCCC(=O)[O-]
REMARK SMILES IDX 6 1 7 2 8 3 9 4 10 5 11 6 5 7 4 8 3 9 2 10 1 11
REMARK H PARENT
REMARK Flexibility Score: inf
ROOT
ATOM      1  C   UNL     1       9.209  -9.624   5.765  1.00  0.00     0.000 C 
ENDROOT
BRANCH   1   2
ATOM      2  C   UNL     1      10.044  -8.406   5.319  1.00  0.00     0.006 C 
BRANCH   2   3
ATOM      3  C   UNL     1      11.273  -8.121   6.196  1.00  0.00     0.053 C 
BRANCH   3   4
ATOM      4  C   UNL     1      12.501  -7.873   5.376  1.00  0.00     0.041 C 
ATOM      5  O   UNL     1      13.622  -8.292   5.768  1.00  0.00    -0.550 OA
ATOM      6  O   UNL     1      12.402  -7.207   4.161  1.00  0.00    -0.550 OA
ENDBRANCH   3   4
ENDBRANCH   2   3
ENDBRANCH   1   2
BRANCH   1   7
ATOM      7  C   UNL     1       8.915  -9.692   7.274  1.00  0.00     0.000 C 
BRANCH   7   8
ATOM      8  C   UNL     1       7.803  -8.723   7.710  1.00  0.00    -0.000 C 
BRANCH   8   9
ATOM      9  C   UNL     1       6.753  -8.497   6.610  1.00  0.00    -0.000 C 
BRANCH   9  10
ATOM     10  C   UNL     1       6.482  -7.008   6.352  1.00  0.00    -0.003 C 
ATOM     11  C   UNL     1       5.525  -6.820   5.178  1.00  0.00     0.004 C 
ENDBRANCH   9  10
ENDBRANCH   8   9
ENDBRANCH   7   8
ENDBRANCH   1   7
TORSDOF 7
ENDMDL
MODEL 6
REMARK VINA RESULT:    -2.795      3.392      6.960
REMARK INTER + INTRA:          -4.450
REMARK INTER:                  -4.233
REMARK INTRA:                  -0.216
REMARK UNBOUND:                -0.512
REMARK SMILES CCCCCCCCC(=O)[O-]
REMARK SMILES IDX 6 1 7 2 8 3 9 4 10 5 11 6 5 7 4 8 3 9 2 10 1 11
REMARK H PARENT
REMARK Flexibility Score: inf
ROOT
ATOM      1  C   UNL     1      11.983  -8.223   6.240  1.00  0.00     0.000 C 
ENDROOT
BRANCH   1   2
ATOM      2  C   UNL     1      13.440  -8.453   5.789  1.00  0.00     0.006 C 
BRANCH   2   3
ATOM      3  C   UNL     1      14.479  -8.363   6.917  1.00  0.00     0.053 C 
BRANCH   3   4
ATOM      4  C   UNL     1      15.601  -7.435   6.572  1.00  0.00     0.041 C 
ATOM      5  O   UNL     1      16.383  -7.023   7.469  1.00  0.00    -0.550 OA
ATOM      6  O   UNL     1      15.804  -7.050   5.253  1.00  0.00    -0.550 OA
ENDBRANCH   3   4
ENDBRANCH   2   3
ENDBRANCH   1   2
BRANCH   1   7
ATOM      7  C   UNL     1      10.911  -8.772   5.282  1.00  0.00     0.000 C 
BRANCH   7   8
ATOM      8  C   UNL     1       9.478  -8.509   5.776  1.00  0.00    -0.000 C 
BRANCH   8   9
ATOM      9  C   UNL     1       9.090  -9.405   6.962  1.00  0.00    -0.000 C 
BRANCH   9  10
ATOM     10  C   UNL     1       7.763  -8.984   7.610  1.00  0.00    -0.003 C 
ATOM     11  C   UNL     1       7.064  -7.910   6.781  1.00  0.00     0.004 C 
ENDBRANCH   9  10
ENDBRANCH   8   9
ENDBRANCH   7   8
ENDBRANCH   1   7
TORSDOF 7
ENDMDL
MODEL 7
REMARK VINA RESULT:    -2.791      3.821      7.664
REMARK INTER + INTRA:          -4.445
REMARK INTER:                  -4.122
REMARK INTRA:                  -0.323
REMARK UNBOUND:                -0.512
REMARK SMILES CCCCCCCCC(=O)[O-]
REMARK SMILES IDX 6 1 7 2 8 3 9 4 10 5 11 6 5 7 4 8 3 9 2 10 1 11
REMARK H PARENT
REMARK Flexibility Score: inf
ROOT
ATOM      1  C   UNL     1      10.650  -9.347   5.504  1.00  0.00     0.000 C 
ENDROOT
BRANCH   1   2
ATOM      2  C   UNL     1      11.484  -8.210   6.130  1.00  0.00     0.006 C 
BRANCH   2   3
ATOM      3  C   UNL     1      12.863  -8.002   5.484  1.00  0.00     0.053 C 
BRANCH   3   4
ATOM      4  C   UNL     1      13.966  -8.559   6.328  1.00  0.00     0.041 C 
ATOM      5  O   UNL     1      15.037  -8.953   5.795  1.00  0.00    -0.550 OA
ATOM      6  O   UNL     1      13.825  -8.614   7.709  1.00  0.00    -0.550 OA
ENDBRANCH   3   4
ENDBRANCH   2   3
ENDBRANCH   1   2
BRANCH   1   7
ATOM      7  C   UNL     1       9.129  -9.225   5.709  1.00  0.00     0.000 C 
BRANCH   7   8
ATOM      8  C   UNL     1       8.702  -9.474   7.166  1.00  0.00    -0.000 C 
BRANCH   8   9
ATOM      9  C   UNL     1       7.601  -8.508   7.630  1.00  0.00    -0.000 C 
BRANCH   9  10
ATOM     10  C   UNL     1       6.836  -7.879   6.456  1.00  0.00    -0.003 C 
ATOM     11  C   UNL     1       6.341  -6.479   6.810  1.00  0.00     0.004 C 
ENDBRANCH   9  10
ENDBRANCH   8   9
ENDBRANCH   7   8
ENDBRANCH   1   7
TORSDOF 7
ENDMDL
MODEL 8
REMARK VINA RESULT:    -2.770      7.152      8.632
REMARK INTER + INTRA:          -4.415
REMARK INTER:                  -3.688
REMARK INTRA:                  -0.727
REMARK UNBOUND:                -0.512
REMARK SMILES CCCCCCCCC(=O)[O-]
REMARK SMILES IDX 6 1 7 2 8 3 9 4 10 5 11 6 5 7 4 8 3 9 2 10 1 11
REMARK H PARENT
REMARK Flexibility Score: inf
ROOT
ATOM      1  C   UNL     1       7.386  -7.956   7.559  1.00  0.00     0.000 C 
ENDROOT
BRANCH   1   2
ATOM      2  C   UNL     1       6.600  -7.143   6.510  1.00  0.00     0.006 C 
BRANCH   2   3
ATOM      3  C   UNL     1       6.026  -7.979   5.355  1.00  0.00     0.053 C 
BRANCH   3   4
ATOM      4  C   UNL     1       4.726  -7.429   4.858  1.00  0.00     0.041 C 
ATOM      5  O   UNL     1       3.742  -8.194   4.671  1.00  0.00    -0.550 OA
ATOM      6  O   UNL     1       4.589  -6.065   4.632  1.00  0.00    -0.550 OA
ENDBRANCH   3   4
ENDBRANCH   2   3
ENDBRANCH   1   2
BRANCH   1   7
ATOM      7  C   UNL     1       7.326  -9.483   7.376  1.00  0.00     0.000 C 
BRANCH   7   8
ATOM      8  C   UNL     1       8.696 -10.099   7.043  1.00  0.00    -0.000 C 
BRANCH   8   9
ATOM      9  C   UNL     1       9.701  -9.057   6.528  1.00  0.00    -0.000 C 
BRANCH   9  10
ATOM     10  C   UNL     1       9.830  -9.069   4.998  1.00  0.00    -0.003 C 
ATOM     11  C   UNL     1       9.684  -7.663   4.423  1.00  0.00     0.004 C 
ENDBRANCH   9  10
ENDBRANCH   8   9
ENDBRANCH   7   8
ENDBRANCH   1   7
TORSDOF 7
ENDMDL
MODEL 9
REMARK VINA RESULT:    -2.725      4.634      6.455
REMARK INTER + INTRA:          -4.352
REMARK INTER:                  -3.740
REMARK INTRA:                  -0.612
REMARK UNBOUND:                -0.512
REMARK SMILES CCCCCCCCC(=O)[O-]
REMARK SMILES IDX 6 1 7 2 8 3 9 4 10 5 11 6 5 7 4 8 3 9 2 10 1 11
REMARK H PARENT
REMARK Flexibility Score: inf
ROOT
ATOM      1  C   UNL     1      20.032  -8.589   6.277  1.00  0.00     0.000 C 
ENDROOT
BRANCH   1   2
ATOM      2  C   UNL     1      19.737  -7.118   5.918  1.00  0.00     0.006 C 
BRANCH   2   3
ATOM      3  C   UNL     1      20.210  -6.696   4.519  1.00  0.00     0.053 C 
BRANCH   3   4
ATOM      4  C   UNL     1      21.373  -5.756   4.580  1.00  0.00     0.041 C 
ATOM      5  O   UNL     1      21.192  -4.513   4.488  1.00  0.00    -0.550 OA
ATOM      6  O   UNL     1      22.657  -6.251   4.773  1.00  0.00    -0.550 OA
ENDBRANCH   3   4
ENDBRANCH   2   3
ENDBRANCH   1   2
BRANCH   1   7
ATOM      7  C   UNL     1      18.787  -9.475   6.460  1.00  0.00     0.000 C 
BRANCH   7   8
ATOM      8  C   UNL     1      17.716  -9.229   5.384  1.00  0.00    -0.000 C 
BRANCH   8   9
ATOM      9  C   UNL     1      16.340  -8.900   5.985  1.00  0.00    -0.000 C 
BRANCH   9  10
ATOM     10  C   UNL     1      16.098  -7.389   6.112  1.00  0.00    -0.003 C 
ATOM     11  C   UNL     1      16.220  -6.698   4.757  1.00  0.00     0.004 C 
ENDBRANCH   9  10
ENDBRANCH   8   9
ENDBRANCH   7   8
ENDBRANCH   1   7
TORSDOF 7
ENDMDL
