MODEL 1
REMARK VINA RESULT:    -3.128      0.000      0.000
REMARK INTER + INTRA:          -4.022
REMARK INTER:                  -3.951
REMARK INTRA:                  -0.072
REMARK UNBOUND:                -0.072
REMARK SMILES CCCCCCO
REMARK SMILES IDX 4 1 3 2 2 3 1 4 5 5 6 6 7 7
REMARK H PARENT 7 8
REMARK Flexibility Score: inf
ROOT
ATOM      1  C   UNL     1     174.041 174.031 152.352  1.00  0.00     0.002 C 
ENDROOT
BRANCH   1   2
ATOM      2  C   UNL     1     175.120 174.250 151.279  1.00  0.00    -0.000 C 
BRANCH   2   3
ATOM      3  C   UNL     1     174.759 173.600 149.936  1.00  0.00    -0.003 C 
ATOM      4  C   UNL     1     173.264 173.307 149.851  1.00  0.00     0.004 C 
ENDBRANCH   2   3
ENDBRANCH   1   2
BRANCH   1   5
ATOM      5  C   UNL     1     174.633 173.856 153.758  1.00  0.00     0.028 C 
BRANCH   5   6
ATOM      6  C   UNL     1     173.547 173.478 154.769  1.00  0.00     0.156 C 
BRANCH   6   7
ATOM      7  O   UNL     1     172.697 174.569 154.998  1.00  0.00    -0.396 OA
ATOM      8  H   UNL     1     172.821 175.192 154.236  1.00  0.00     0.210 HD
ENDBRANCH   6   7
ENDBRANCH   5   6
ENDBRANCH   1   5
TORSDOF 5
ENDMDL
MODEL 2
REMARK VINA RESULT:    -3.081      2.539      3.920
REMARK INTER + INTRA:          -3.964
REMARK INTER:                  -3.748
REMARK INTRA:                  -0.215
REMARK UNBOUND:                -0.072
REMARK SMILES CCCCCCO
REMARK SMILES IDX 4 1 3 2 2 3 1 4 5 5 6 6 7 7
REMARK H PARENT 7 8
REMARK Flexibility Score: inf
ROOT
ATOM      1  C   UNL     1     174.270 173.275 149.710  1.00  0.00     0.002 C 
ENDROOT
BRANCH   1   2
ATOM      2  C   UNL     1     175.051 174.139 150.714  1.00  0.00    -0.000 C 
BRANCH   2   3
ATOM      3  C   UNL     1     174.419 174.137 152.112  1.00  0.00    -0.003 C 
ATOM      4  C   UNL     1     175.490 174.086 153.199  1.00  0.00     0.004 C 
ENDBRANCH   2   3
ENDBRANCH   1   2
BRANCH   1   5
ATOM      5  C   UNL     1     173.829 171.930 150.306  1.00  0.00     0.028 C 
BRANCH   5   6
ATOM      6  C   UNL     1     174.994 170.937 150.346  1.00  0.00     0.156 C 
BRANCH   6   7
ATOM      7  O   UNL     1     175.363 170.675 151.672  1.00  0.00    -0.396 OA
ATOM      8  H   UNL     1     174.571 170.269 152.113  1.00  0.00     0.210 HD
ENDBRANCH   6   7
ENDBRANCH   5   6
ENDBRANCH   1   5
TORSDOF 5
ENDMDL
MODEL 3
REMARK VINA RESULT:    -3.000      1.911      2.424
REMARK INTER + INTRA:          -3.861
REMARK INTER:                  -3.713
REMARK INTRA:                  -0.148
REMARK UNBOUND:                -0.072
REMARK SMILES CCCCCCO
REMARK SMILES IDX 4 1 3 2 2 3 1 4 5 5 6 6 7 7
REMARK H PARENT 7 8
REMARK Flexibility Score: inf
ROOT
ATOM      1  C   UNL     1     175.034 174.254 150.949  1.00  0.00     0.002 C 
ENDROOT
BRANCH   1   2
ATOM      2  C   UNL     1     174.486 173.359 149.826  1.00  0.00    -0.000 C 
BRANCH   2   3
ATOM      3  C   UNL     1     173.966 172.011 150.344  1.00  0.00    -0.003 C 
ATOM      4  C   UNL     1     175.052 170.940 150.274  1.00  0.00     0.004 C 
ENDBRANCH   2   3
ENDBRANCH   1   2
BRANCH   1   5
ATOM      5  C   UNL     1     174.404 173.941 152.314  1.00  0.00     0.028 C 
BRANCH   5   6
ATOM      6  C   UNL     1     175.451 173.991 153.429  1.00  0.00     0.156 C 
BRANCH   6   7
ATOM      7  O   UNL     1     175.818 172.692 153.808  1.00  0.00    -0.396 OA
ATOM      8  H   UNL     1     176.735 172.542 153.459  1.00  0.00     0.210 HD
ENDBRANCH   6   7
ENDBRANCH   5   6
ENDBRANCH   1   5
TORSDOF 5
ENDMDL
MODEL 4
REMARK VINA RESULT:    -2.983     12.563     12.820
REMARK INTER + INTRA:          -3.839
REMARK INTER:                  -3.701
REMARK INTRA:                  -0.138
REMARK UNBOUND:                -0.072
REMARK SMILES CCCCCCO
REMARK SMILES IDX 4 1 3 2 2 3 1 4 5 5 6 6 7 7
REMARK H PARENT 7 8
REMARK Flexibility Score: inf
ROOT
ATOM      1  C   UNL     1     174.877 162.055 150.940  1.00  0.00     0.002 C 
ENDROOT
BRANCH   1   2
ATOM      2  C   UNL     1     175.467 161.231 149.784  1.00  0.00    -0.000 C 
BRANCH   2   3
ATOM      3  C   UNL     1     175.406 159.719 150.044  1.00  0.00    -0.003 C 
ATOM      4  C   UNL     1     173.991 159.282 150.414  1.00  0.00     0.004 C 
ENDBRANCH   2   3
ENDBRANCH   1   2
BRANCH   1   5
ATOM      5  C   UNL     1     175.883 162.281 152.078  1.00  0.00     0.028 C 
BRANCH   5   6
ATOM      6  C   UNL     1     175.343 161.744 153.405  1.00  0.00     0.156 C 
BRANCH   6   7
ATOM      7  O   UNL     1     176.010 162.346 154.480  1.00  0.00    -0.396 OA
ATOM      8  H   UNL     1     175.358 162.400 155.226  1.00  0.00     0.210 HD
ENDBRANCH   6   7
ENDBRANCH   5   6
ENDBRANCH   1   5
TORSDOF 5
ENDMDL
MODEL 5
REMARK VINA RESULT:    -2.972      3.646      4.321
REMARK INTER + INTRA:          -3.826
REMARK INTER:                  -3.748
REMARK INTRA:                  -0.078
REMARK UNBOUND:                -0.072
REMARK SMILES CCCCCCO
REMARK SMILES IDX 4 1 3 2 2 3 1 4 5 5 6 6 7 7
REMARK H PARENT 7 8
REMARK Flexibility Score: inf
ROOT
ATOM      1  C   UNL     1     174.581 171.452 151.139  1.00  0.00     0.002 C 
ENDROOT
BRANCH   1   2
ATOM      2  C   UNL     1     173.955 172.394 150.098  1.00  0.00    -0.000 C 
BRANCH   2   3
ATOM      3  C   UNL     1     174.659 173.756 150.033  1.00  0.00    -0.003 C 
ATOM      4  C   UNL     1     175.060 174.234 151.427  1.00  0.00     0.004 C 
ENDBRANCH   2   3
ENDBRANCH   1   2
BRANCH   1   5
ATOM      5  C   UNL     1     175.352 170.290 150.496  1.00  0.00     0.028 C 
BRANCH   5   6
ATOM      6  C   UNL     1     175.138 168.990 151.276  1.00  0.00     0.156 C 
BRANCH   6   7
ATOM      7  O   UNL     1     176.066 168.893 152.322  1.00  0.00    -0.396 OA
ATOM      8  H   UNL     1     176.467 167.987 152.265  1.00  0.00     0.210 HD
ENDBRANCH   6   7
ENDBRANCH   5   6
ENDBRANCH   1   5
TORSDOF 5
ENDMDL
MODEL 6
REMARK VINA RESULT:    -2.954      1.982      3.218
REMARK INTER + INTRA:          -3.803
REMARK INTER:                  -3.677
REMARK INTRA:                  -0.127
REMARK UNBOUND:                -0.072
REMARK SMILES CCCCCCO
REMARK SMILES IDX 4 1 3 2 2 3 1 4 5 5 6 6 7 7
REMARK H PARENT 7 8
REMARK Flexibility Score: inf
ROOT
ATOM      1  C   UNL     1     173.142 173.659 149.835  1.00  0.00     0.002 C 
ENDROOT
BRANCH   1   2
ATOM      2  C   UNL     1     174.586 173.717 150.358  1.00  0.00    -0.000 C 
BRANCH   2   3
ATOM      3  C   UNL     1     174.720 173.172 151.787  1.00  0.00    -0.003 C 
ATOM      4  C   UNL     1     175.354 174.208 152.713  1.00  0.00     0.004 C 
ENDBRANCH   2   3
ENDBRANCH   1   2
BRANCH   1   5
ATOM      5  C   UNL     1     172.104 173.640 150.966  1.00  0.00     0.028 C 
BRANCH   5   6
ATOM      6  C   UNL     1     171.525 175.036 151.204  1.00  0.00     0.156 C 
BRANCH   6   7
ATOM      7  O   UNL     1     170.472 174.974 152.128  1.00  0.00    -0.396 OA
ATOM      8  H   UNL     1     169.826 175.682 151.872  1.00  0.00     0.210 HD
ENDBRANCH   6   7
ENDBRANCH   5   6
ENDBRANCH   1   5
TORSDOF 5
ENDMDL
MODEL 7
REMARK VINA RESULT:    -2.954      2.294      2.350
REMARK INTER + INTRA:          -3.802
REMARK INTER:                  -3.557
REMARK INTRA:                  -0.245
REMARK UNBOUND:                -0.072
REMARK SMILES CCCCCCO
REMARK SMILES IDX 4 1 3 2 2 3 1 4 5 5 6 6 7 7
REMARK H PARENT 7 8
REMARK Flexibility Score: inf
ROOT
ATOM      1  C   UNL     1     174.233 173.893 152.240  1.00  0.00     0.002 C 
ENDROOT
BRANCH   1   2
ATOM      2  C   UNL     1     175.029 174.256 150.976  1.00  0.00    -0.000 C 
BRANCH   2   3
ATOM      3  C   UNL     1     174.523 173.522 149.727  1.00  0.00    -0.003 C 
ATOM      4  C   UNL     1     173.067 173.092 149.894  1.00  0.00     0.004 C 
ENDBRANCH   2   3
ENDBRANCH   1   2
BRANCH   1   5
ATOM      5  C   UNL     1     175.009 172.956 153.178  1.00  0.00     0.028 C 
BRANCH   5   6
ATOM      6  C   UNL     1     174.530 171.510 153.030  1.00  0.00     0.156 C 
BRANCH   6   7
ATOM      7  O   UNL     1     175.245 170.863 152.013  1.00  0.00    -0.396 OA
ATOM      8  H   UNL     1     174.894 169.936 151.963  1.00  0.00     0.210 HD
ENDBRANCH   6   7
ENDBRANCH   5   6
ENDBRANCH   1   5
TORSDOF 5
ENDMDL
MODEL 8
REMARK VINA RESULT:    -2.922     11.251     12.851
REMARK INTER + INTRA:          -3.763
REMARK INTER:                  -3.663
REMARK INTRA:                  -0.099
REMARK UNBOUND:                -0.072
REMARK SMILES CCCCCCO
REMARK SMILES IDX 4 1 3 2 2 3 1 4 5 5 6 6 7 7
REMARK H PARENT 7 8
REMARK Flexibility Score: inf
ROOT
ATOM      1  C   UNL     1     174.432 175.357 165.027  1.00  0.00     0.002 C 
ENDROOT
BRANCH   1   2
ATOM      2  C   UNL     1     175.721 175.094 164.233  1.00  0.00    -0.000 C 
BRANCH   2   3
ATOM      3  C   UNL     1     176.003 173.597 164.043  1.00  0.00    -0.003 C 
ATOM      4  C   UNL     1     176.125 173.244 162.562  1.00  0.00     0.004 C 
ENDBRANCH   2   3
ENDBRANCH   1   2
BRANCH   1   5
ATOM      5  C   UNL     1     173.848 174.080 165.648  1.00  0.00     0.028 C 
BRANCH   5   6
ATOM      6  C   UNL     1     172.767 174.412 166.678  1.00  0.00     0.156 C 
BRANCH   6   7
ATOM      7  O   UNL     1     173.282 174.302 167.977  1.00  0.00    -0.396 OA
ATOM      8  H   UNL     1     173.906 173.530 167.971  1.00  0.00     0.210 HD
ENDBRANCH   6   7
ENDBRANCH   5   6
ENDBRANCH   1   5
TORSDOF 5
ENDMDL
MODEL 9
REMARK VINA RESULT:    -2.822      2.480      3.003
REMARK INTER + INTRA:          -3.636
REMARK INTER:                  -3.533
REMARK INTRA:                  -0.103
REMARK UNBOUND:                -0.072
REMARK SMILES CCCCCCO
REMARK SMILES IDX 4 1 3 2 2 3 1 4 5 5 6 6 7 7
REMARK H PARENT 7 8
REMARK Flexibility Score: inf
ROOT
ATOM      1  C   UNL     1     173.410 173.947 150.144  1.00  0.00     0.002 C 
ENDROOT
BRANCH   1   2
ATOM      2  C   UNL     1     174.458 172.855 149.879  1.00  0.00    -0.000 C 
BRANCH   2   3
ATOM      3  C   UNL     1     174.511 171.803 150.995  1.00  0.00    -0.003 C 
ATOM      4  C   UNL     1     175.163 170.513 150.504  1.00  0.00     0.004 C 
ENDBRANCH   2   3
ENDBRANCH   1   2
BRANCH   1   5
ATOM      5  C   UNL     1     172.190 173.421 150.914  1.00  0.00     0.028 C 
BRANCH   5   6
ATOM      6  C   UNL     1     171.926 174.259 152.168  1.00  0.00     0.156 C 
BRANCH   6   7
ATOM      7  O   UNL     1     171.093 175.344 151.861  1.00  0.00    -0.396 OA
ATOM      8  H   UNL     1     171.627 175.963 151.298  1.00  0.00     0.210 HD
ENDBRANCH   6   7
ENDBRANCH   5   6
ENDBRANCH   1   5
TORSDOF 5
ENDMDL
