MODEL 1
REMARK VINA RESULT:    -4.993      0.000      0.000
REMARK INTER + INTRA:          -4.993
REMARK INTER:                  -4.993
REMARK INTRA:                   0.000
REMARK UNBOUND:                 0.000
REMARK SMILES CC1(C)[C@H]2CC[C@]1(C)C(=O)C2
REMARK SMILES IDX 1 1 2 2 4 3 5 4 6 5 7 6 9 7 10 8 11 9 8 10 3 11
REMARK H PARENT
REMARK Flexibility Score: inf
ROOT
ATOM      1  C   UNL     1      12.722  37.796  22.985  1.00  0.00     0.012 C 
ATOM      2  C   UNL     1      11.567  36.772  23.195  1.00  0.00    -0.020 C 
ATOM      3  C   UNL     1      10.972  36.222  21.876  1.00  0.00     0.003 C 
ATOM      4  C   UNL     1      12.169  35.446  21.259  1.00  0.00     0.005 C 
ATOM      5  C   UNL     1      12.875  34.850  22.502  1.00  0.00     0.015 C 
ATOM      6  C   UNL     1      12.001  35.369  23.670  1.00  0.00     0.032 C 
ATOM      7  C   UNL     1      10.700  34.615  23.540  1.00  0.00     0.139 C 
ATOM      8  O   UNL     1      10.346  33.671  24.229  1.00  0.00    -0.299 OA
ATOM      9  C   UNL     1       9.955  35.149  22.356  1.00  0.00     0.080 C 
ATOM     10  C   UNL     1      12.661  35.287  25.051  1.00  0.00     0.020 C 
ATOM     11  C   UNL     1      10.516  37.473  24.110  1.00  0.00     0.012 C 
ENDROOT
TORSDOF 0
ENDMDL
MODEL 2
REMARK VINA RESULT:    -4.927      1.423      2.636
REMARK INTER + INTRA:          -4.927
REMARK INTER:                  -4.927
REMARK INTRA:                   0.000
REMARK UNBOUND:                 0.000
REMARK SMILES CC1(C)[C@H]2CC[C@]1(C)C(=O)C2
REMARK SMILES IDX 1 1 2 2 4 3 5 4 6 5 7 6 9 7 10 8 11 9 8 10 3 11
REMARK H PARENT
REMARK Flexibility Score: inf
ROOT
ATOM      1  C   UNL     1      13.611  35.011  21.817  1.00  0.00     0.012 C 
ATOM      2  C   UNL     1      12.133  35.421  22.085  1.00  0.00    -0.020 C 
ATOM      3  C   UNL     1      11.287  34.312  22.757  1.00  0.00     0.003 C 
ATOM      4  C   UNL     1      11.977  34.147  24.139  1.00  0.00     0.005 C 
ATOM      5  C   UNL     1      12.405  35.594  24.489  1.00  0.00     0.015 C 
ATOM      6  C   UNL     1      11.917  36.398  23.260  1.00  0.00     0.032 C 
ATOM      7  C   UNL     1      10.411  36.382  23.364  1.00  0.00     0.139 C 
ATOM      8  O   UNL     1       9.708  37.307  23.741  1.00  0.00    -0.299 OA
ATOM      9  C   UNL     1       9.924  35.007  23.027  1.00  0.00     0.080 C 
ATOM     10  C   UNL     1      12.541  37.791  23.116  1.00  0.00     0.020 C 
ATOM     11  C   UNL     1      11.554  35.906  20.719  1.00  0.00     0.012 C 
ENDROOT
TORSDOF 0
ENDMDL
MODEL 3
REMARK VINA RESULT:    -4.809      1.606      2.886
REMARK INTER + INTRA:          -4.809
REMARK INTER:                  -4.809
REMARK INTRA:                   0.000
REMARK UNBOUND:                 0.000
REMARK SMILES CC1(C)[C@H]2CC[C@]1(C)C(=O)C2
REMARK SMILES IDX 1 1 2 2 4 3 5 4 6 5 7 6 9 7 10 8 11 9 8 10 3 11
REMARK H PARENT
REMARK Flexibility Score: inf
ROOT
ATOM      1  C   UNL     1      12.423  34.999  24.944  1.00  0.00     0.012 C 
ATOM      2  C   UNL     1      11.539  35.062  23.663  1.00  0.00    -0.020 C 
ATOM      3  C   UNL     1      10.401  36.108  23.739  1.00  0.00     0.003 C 
ATOM      4  C   UNL     1      11.177  37.451  23.829  1.00  0.00     0.005 C 
ATOM      5  C   UNL     1      12.409  37.201  22.923  1.00  0.00     0.015 C 
ATOM      6  C   UNL     1      12.187  35.748  22.441  1.00  0.00     0.032 C 
ATOM      7  C   UNL     1      11.005  35.829  21.507  1.00  0.00     0.139 C 
ATOM      8  O   UNL     1      11.050  35.797  20.287  1.00  0.00    -0.299 OA
ATOM      9  C   UNL     1       9.768  36.061  22.320  1.00  0.00     0.080 C 
ATOM     10  C   UNL     1      13.430  35.069  21.855  1.00  0.00     0.020 C 
ATOM     11  C   UNL     1      11.035  33.608  23.403  1.00  0.00     0.012 C 
ENDROOT
TORSDOF 0
ENDMDL
MODEL 4
REMARK VINA RESULT:    -4.789      1.786      3.160
REMARK INTER + INTRA:          -4.789
REMARK INTER:                  -4.789
REMARK INTRA:                   0.000
REMARK UNBOUND:                 0.000
REMARK SMILES CC1(C)[C@H]2CC[C@]1(C)C(=O)C2
REMARK SMILES IDX 1 1 2 2 4 3 5 4 6 5 7 6 9 7 10 8 11 9 8 10 3 11
REMARK H PARENT
REMARK Flexibility Score: inf
ROOT
ATOM      1  C   UNL     1      10.785  33.529  23.210  1.00  0.00     0.012 C 
ATOM      2  C   UNL     1      11.455  34.899  23.529  1.00  0.00    -0.020 C 
ATOM      3  C   UNL     1      12.865  35.064  22.913  1.00  0.00     0.003 C 
ATOM      4  C   UNL     1      12.577  35.037  21.386  1.00  0.00     0.005 C 
ATOM      5  C   UNL     1      11.215  35.768  21.278  1.00  0.00     0.015 C 
ATOM      6  C   UNL     1      10.895  36.110  22.753  1.00  0.00     0.032 C 
ATOM      7  C   UNL     1      11.899  37.171  23.128  1.00  0.00     0.139 C 
ATOM      8  O   UNL     1      11.676  38.368  23.227  1.00  0.00    -0.299 OA
ATOM      9  C   UNL     1      13.246  36.530  23.262  1.00  0.00     0.080 C 
ATOM     10  C   UNL     1       9.432  36.478  23.023  1.00  0.00     0.020 C 
ATOM     11  C   UNL     1      11.430  35.052  25.082  1.00  0.00     0.012 C 
ENDROOT
TORSDOF 0
ENDMDL
MODEL 5
REMARK VINA RESULT:    -4.748      1.743      3.263
REMARK INTER + INTRA:          -4.748
REMARK INTER:                  -4.748
REMARK INTRA:                   0.000
REMARK UNBOUND:                 0.000
REMARK SMILES CC1(C)[C@H]2CC[C@]1(C)C(=O)C2
REMARK SMILES IDX 1 1 2 2 4 3 5 4 6 5 7 6 9 7 10 8 11 9 8 10 3 11
REMARK H PARENT
REMARK Flexibility Score: inf
ROOT
ATOM      1  C   UNL     1      10.272  33.437  23.377  1.00  0.00     0.012 C 
ATOM      2  C   UNL     1      10.604  34.946  23.179  1.00  0.00    -0.020 C 
ATOM      3  C   UNL     1      10.812  35.720  24.503  1.00  0.00     0.003 C 
ATOM      4  C   UNL     1      12.078  35.043  25.098  1.00  0.00     0.005 C 
ATOM      5  C   UNL     1      12.927  34.728  23.841  1.00  0.00     0.015 C 
ATOM      6  C   UNL     1      12.035  35.253  22.690  1.00  0.00     0.032 C 
ATOM      7  C   UNL     1      12.065  36.754  22.835  1.00  0.00     0.139 C 
ATOM      8  O   UNL     1      12.709  37.530  22.146  1.00  0.00    -0.299 OA
ATOM      9  C   UNL     1      11.250  37.135  24.033  1.00  0.00     0.080 C 
ATOM     10  C   UNL     1      12.410  34.729  21.299  1.00  0.00     0.020 C 
ATOM     11  C   UNL     1       9.469  35.535  22.284  1.00  0.00     0.012 C 
ENDROOT
TORSDOF 0
ENDMDL
MODEL 6
REMARK VINA RESULT:    -4.647     16.762     18.368
REMARK INTER + INTRA:          -4.647
REMARK INTER:                  -4.647
REMARK INTRA:                   0.000
REMARK UNBOUND:                 0.000
REMARK SMILES CC1(C)[C@H]2CC[C@]1(C)C(=O)C2
REMARK SMILES IDX 1 1 2 2 4 3 5 4 6 5 7 6 9 7 10 8 11 9 8 10 3 11
REMARK H PARENT
REMARK Flexibility Score: inf
ROOT
ATOM      1  C   UNL     1      23.934  22.997  22.896  1.00  0.00     0.012 C 
ATOM      2  C   UNL     1      25.017  23.346  21.832  1.00  0.00    -0.020 C 
ATOM      3  C   UNL     1      24.434  23.819  20.478  1.00  0.00     0.003 C 
ATOM      4  C   UNL     1      23.718  25.144  20.859  1.00  0.00     0.005 C 
ATOM      5  C   UNL     1      24.645  25.740  21.947  1.00  0.00     0.015 C 
ATOM      6  C   UNL     1      25.764  24.678  22.058  1.00  0.00     0.032 C 
ATOM      7  C   UNL     1      26.531  24.791  20.763  1.00  0.00     0.139 C 
ATOM      8  O   UNL     1      27.616  25.332  20.617  1.00  0.00    -0.299 OA
ATOM      9  C   UNL     1      25.694  24.221  19.661  1.00  0.00     0.080 C 
ATOM     10  C   UNL     1      26.619  24.776  23.327  1.00  0.00     0.020 C 
ATOM     11  C   UNL     1      25.939  22.093  21.712  1.00  0.00     0.012 C 
ENDROOT
TORSDOF 0
ENDMDL
MODEL 7
REMARK VINA RESULT:    -4.642      1.386      2.494
REMARK INTER + INTRA:          -4.642
REMARK INTER:                  -4.642
REMARK INTRA:                   0.000
REMARK UNBOUND:                 0.000
REMARK SMILES CC1(C)[C@H]2CC[C@]1(C)C(=O)C2
REMARK SMILES IDX 1 1 2 2 4 3 5 4 6 5 7 6 9 7 10 8 11 9 8 10 3 11
REMARK H PARENT
REMARK Flexibility Score: inf
ROOT
ATOM      1  C   UNL     1      13.101  34.067  24.666  1.00  0.00     0.012 C 
ATOM      2  C   UNL     1      11.984  35.087  24.297  1.00  0.00    -0.020 C 
ATOM      3  C   UNL     1      12.499  36.330  23.532  1.00  0.00     0.003 C 
ATOM      4  C   UNL     1      13.024  35.720  22.203  1.00  0.00     0.005 C 
ATOM      5  C   UNL     1      12.019  34.573  21.927  1.00  0.00     0.015 C 
ATOM      6  C   UNL     1      11.058  34.666  23.136  1.00  0.00     0.032 C 
ATOM      7  C   UNL     1      10.287  35.945  22.916  1.00  0.00     0.139 C 
ATOM      8  O   UNL     1       9.138  36.030  22.512  1.00  0.00    -0.299 OA
ATOM      9  C   UNL     1      11.199  37.104  23.177  1.00  0.00     0.080 C 
ATOM     10  C   UNL     1      10.194  33.421  23.366  1.00  0.00     0.020 C 
ATOM     11  C   UNL     1      11.245  35.434  25.627  1.00  0.00     0.012 C 
ENDROOT
TORSDOF 0
ENDMDL
MODEL 8
REMARK VINA RESULT:    -4.498     16.991     18.612
REMARK INTER + INTRA:          -4.498
REMARK INTER:                  -4.498
REMARK INTRA:                   0.000
REMARK UNBOUND:                 0.000
REMARK SMILES CC1(C)[C@H]2CC[C@]1(C)C(=O)C2
REMARK SMILES IDX 1 1 2 2 4 3 5 4 6 5 7 6 9 7 10 8 11 9 8 10 3 11
REMARK H PARENT
REMARK Flexibility Score: inf
ROOT
ATOM      1  C   UNL     1      27.137  22.369  20.721  1.00  0.00     0.012 C 
ATOM      2  C   UNL     1      26.129  23.555  20.731  1.00  0.00    -0.020 C 
ATOM      3  C   UNL     1      24.745  23.196  21.325  1.00  0.00     0.003 C 
ATOM      4  C   UNL     1      25.084  22.867  22.805  1.00  0.00     0.005 C 
ATOM      5  C   UNL     1      26.216  23.872  23.134  1.00  0.00     0.015 C 
ATOM      6  C   UNL     1      26.387  24.638  21.800  1.00  0.00     0.032 C 
ATOM      7  C   UNL     1      25.132  25.466  21.669  1.00  0.00     0.139 C 
ATOM      8  O   UNL     1      25.039  26.666  21.877  1.00  0.00    -0.299 OA
ATOM      9  C   UNL     1      23.991  24.555  21.339  1.00  0.00     0.080 C 
ATOM     10  C   UNL     1      27.697  25.424  21.675  1.00  0.00     0.020 C 
ATOM     11  C   UNL     1      26.060  24.089  19.266  1.00  0.00     0.012 C 
ENDROOT
TORSDOF 0
ENDMDL
MODEL 9
REMARK VINA RESULT:    -4.187     17.508     18.985
REMARK INTER + INTRA:          -4.187
REMARK INTER:                  -4.187
REMARK INTRA:                   0.000
REMARK UNBOUND:                 0.000
REMARK SMILES CC1(C)[C@H]2CC[C@]1(C)C(=O)C2
REMARK SMILES IDX 1 1 2 2 4 3 5 4 6 5 7 6 9 7 10 8 11 9 8 10 3 11
REMARK H PARENT
REMARK Flexibility Score: inf
ROOT
ATOM      1  C   UNL     1      25.482  26.065  22.244  1.00  0.00     0.012 C 
ATOM      2  C   UNL     1      25.998  24.596  22.192  1.00  0.00    -0.020 C 
ATOM      3  C   UNL     1      24.883  23.535  22.351  1.00  0.00     0.003 C 
ATOM      4  C   UNL     1      24.011  23.762  21.085  1.00  0.00     0.005 C 
ATOM      5  C   UNL     1      25.058  24.132  20.005  1.00  0.00     0.015 C 
ATOM      6  C   UNL     1      26.390  24.079  20.791  1.00  0.00     0.032 C 
ATOM      7  C   UNL     1      26.606  22.615  21.083  1.00  0.00     0.139 C 
ATOM      8  O   UNL     1      27.387  21.875  20.506  1.00  0.00    -0.299 OA
ATOM      9  C   UNL     1      25.628  22.188  22.134  1.00  0.00     0.080 C 
ATOM     10  C   UNL     1      27.567  24.783  20.107  1.00  0.00     0.020 C 
ATOM     11  C   UNL     1      27.124  24.485  23.266  1.00  0.00     0.012 C 
ENDROOT
TORSDOF 0
ENDMDL
