MODEL 1
REMARK VINA RESULT:    -4.727      0.000      0.000
REMARK INTER + INTRA:          -5.786
REMARK INTER:                  -5.694
REMARK INTRA:                  -0.092
REMARK UNBOUND:                -0.092
REMARK SMILES NC(=O)C[C@@H]([NH3+])C(=O)[O-]
REMARK SMILES IDX 4 1 5 2 6 3 7 7 8 8 9 9 2 10 3 11 1 12
REMARK H PARENT 6 4 6 5 6 6 1 13 1 14
REMARK Flexibility Score: inf
ROOT
ATOM      1  C   UNL     1      13.332  35.358  13.578  1.00  0.00     0.171 C 
ENDROOT
BRANCH   1   2
ATOM      2  C   UNL     1      14.387  34.319  13.139  1.00  0.00     0.237 C 
BRANCH   2   3
ATOM      3  N   UNL     1      15.554  34.319  14.032  1.00  0.00    -0.350 N 
ATOM      4  H   UNL     1      15.451  33.559  14.744  1.00  0.00     0.345 HD
ATOM      5  H   UNL     1      15.653  35.234  14.528  1.00  0.00     0.345 HD
ATOM      6  H   UNL     1      16.423  34.134  13.480  1.00  0.00     0.345 HD
ENDBRANCH   2   3
BRANCH   2   7
ATOM      7  C   UNL     1      13.789  32.940  13.026  1.00  0.00     0.100 C 
ATOM      8  O   UNL     1      12.825  32.611  13.765  1.00  0.00    -0.544 OA
ATOM      9  O   UNL     1      14.326  32.005  12.148  1.00  0.00    -0.544 OA
ENDBRANCH   2   7
ENDBRANCH   1   2
BRANCH   1  10
ATOM     10  C   UNL     1      13.206  36.515  12.626  1.00  0.00     0.223 C 
ATOM     11  O   UNL     1      13.883  36.529  11.564  1.00  0.00    -0.275 OA
ATOM     12  N   UNL     1      12.339  37.610  12.926  1.00  0.00    -0.369 N 
ATOM     13  H   UNL     1      12.265  38.417  12.269  1.00  0.00     0.159 HD
ATOM     14  H   UNL     1      11.773  37.616  13.802  1.00  0.00     0.159 HD
ENDBRANCH   1  10
TORSDOF 4
ENDMDL
MODEL 2
REMARK VINA RESULT:    -4.492     14.697     15.336
REMARK INTER + INTRA:          -5.503
REMARK INTER:                  -5.369
REMARK INTRA:                  -0.134
REMARK UNBOUND:                -0.092
REMARK SMILES NC(=O)C[C@@H]([NH3+])C(=O)[O-]
REMARK SMILES IDX 4 1 5 2 6 3 7 7 8 8 9 9 2 10 3 11 1 12
REMARK H PARENT 6 4 6 5 6 6 1 13 1 14
REMARK Flexibility Score: inf
ROOT
ATOM      1  C   UNL     1       4.870  47.140   8.892  1.00  0.00     0.171 C 
ENDROOT
BRANCH   1   2
ATOM      2  C   UNL     1       4.618  46.091   9.998  1.00  0.00     0.237 C 
BRANCH   2   3
ATOM      3  N   UNL     1       4.095  46.709  11.224  1.00  0.00    -0.350 N 
ATOM      4  H   UNL     1       4.770  47.431  11.568  1.00  0.00     0.345 HD
ATOM      5  H   UNL     1       3.950  45.997  11.975  1.00  0.00     0.345 HD
ATOM      6  H   UNL     1       3.185  47.184  11.022  1.00  0.00     0.345 HD
ENDBRANCH   2   3
BRANCH   2   7
ATOM      7  C   UNL     1       3.712  44.987   9.515  1.00  0.00     0.100 C 
ATOM      8  O   UNL     1       4.180  43.837   9.307  1.00  0.00    -0.544 OA
ATOM      9  O   UNL     1       2.371  45.238   9.245  1.00  0.00    -0.544 OA
ENDBRANCH   2   7
ENDBRANCH   1   2
BRANCH   1  10
ATOM     10  C   UNL     1       6.207  47.816   9.007  1.00  0.00     0.223 C 
ATOM     11  O   UNL     1       7.114  47.296   9.710  1.00  0.00    -0.275 OA
ATOM     12  N   UNL     1       6.453  49.056   8.341  1.00  0.00    -0.369 N 
ATOM     13  H   UNL     1       7.379  49.529   8.434  1.00  0.00     0.159 HD
ATOM     14  H   UNL     1       5.713  49.502   7.756  1.00  0.00     0.159 HD
ENDBRANCH   1  10
TORSDOF 4
ENDMDL
MODEL 3
REMARK VINA RESULT:    -4.472     15.249     16.413
REMARK INTER + INTRA:          -5.479
REMARK INTER:                  -5.258
REMARK INTRA:                  -0.222
REMARK UNBOUND:                -0.092
REMARK SMILES NC(=O)C[C@@H]([NH3+])C(=O)[O-]
REMARK SMILES IDX 4 1 5 2 6 3 7 7 8 8 9 9 2 10 3 11 1 12
REMARK H PARENT 6 4 6 5 6 6 1 13 1 14
REMARK Flexibility Score: inf
ROOT
ATOM      1  C   UNL     1       5.320  47.204   9.802  1.00  0.00     0.171 C 
ENDROOT
BRANCH   1   2
ATOM      2  C   UNL     1       4.397  46.635   8.702  1.00  0.00     0.237 C 
BRANCH   2   3
ATOM      3  N   UNL     1       3.831  45.335   9.085  1.00  0.00    -0.350 N 
ATOM      4  H   UNL     1       2.960  45.483   9.648  1.00  0.00     0.345 HD
ATOM      5  H   UNL     1       4.509  44.779   9.654  1.00  0.00     0.345 HD
ATOM      6  H   UNL     1       3.576  44.792   8.228  1.00  0.00     0.345 HD
ENDBRANCH   2   3
BRANCH   2   7
ATOM      7  C   UNL     1       3.311  47.614   8.333  1.00  0.00     0.100 C 
ATOM      8  O   UNL     1       2.218  47.604   8.958  1.00  0.00    -0.544 OA
ATOM      9  O   UNL     1       3.483  48.496   7.273  1.00  0.00    -0.544 OA
ENDBRANCH   2   7
ENDBRANCH   1   2
BRANCH   1  10
ATOM     10  C   UNL     1       6.556  47.865   9.257  1.00  0.00     0.223 C 
ATOM     11  O   UNL     1       7.693  47.454   9.608  1.00  0.00    -0.275 OA
ATOM     12  N   UNL     1       6.450  48.971   8.359  1.00  0.00    -0.369 N 
ATOM     13  H   UNL     1       7.310  49.436   7.994  1.00  0.00     0.159 HD
ATOM     14  H   UNL     1       5.516  49.327   8.060  1.00  0.00     0.159 HD
ENDBRANCH   1  10
TORSDOF 4
ENDMDL
MODEL 4
REMARK VINA RESULT:    -4.423     12.912     13.956
REMARK INTER + INTRA:          -5.421
REMARK INTER:                  -5.189
REMARK INTRA:                  -0.232
REMARK UNBOUND:                -0.092
REMARK SMILES NC(=O)C[C@@H]([NH3+])C(=O)[O-]
REMARK SMILES IDX 4 1 5 2 6 3 7 7 8 8 9 9 2 10 3 11 1 12
REMARK H PARENT 6 4 6 5 6 6 1 13 1 14
REMARK Flexibility Score: inf
ROOT
ATOM      1  C   UNL     1       3.241  44.665  11.398  1.00  0.00     0.171 C 
ENDROOT
BRANCH   1   2
ATOM      2  C   UNL     1       3.323  43.230  10.833  1.00  0.00     0.237 C 
BRANCH   2   3
ATOM      3  N   UNL     1       4.693  42.879  10.437  1.00  0.00    -0.350 N 
ATOM      4  H   UNL     1       4.810  41.839  10.463  1.00  0.00     0.345 HD
ATOM      5  H   UNL     1       5.396  43.313  11.077  1.00  0.00     0.345 HD
ATOM      6  H   UNL     1       4.874  43.203   9.459  1.00  0.00     0.345 HD
ENDBRANCH   2   3
BRANCH   2   7
ATOM      7  C   UNL     1       2.761  42.222  11.803  1.00  0.00     0.100 C 
ATOM      8  O   UNL     1       1.648  42.433  12.354  1.00  0.00    -0.544 OA
ATOM      9  O   UNL     1       3.484  41.083  12.140  1.00  0.00    -0.544 OA
ENDBRANCH   2   7
ENDBRANCH   1   2
BRANCH   1  10
ATOM     10  C   UNL     1       3.841  45.699  10.486  1.00  0.00     0.223 C 
ATOM     11  O   UNL     1       4.115  45.399   9.294  1.00  0.00    -0.275 OA
ATOM     12  N   UNL     1       4.121  47.014  10.966  1.00  0.00    -0.369 N 
ATOM     13  H   UNL     1       4.549  47.725  10.333  1.00  0.00     0.159 HD
ATOM     14  H   UNL     1       3.903  47.280  11.951  1.00  0.00     0.159 HD
ENDBRANCH   1  10
TORSDOF 4
ENDMDL
MODEL 5
REMARK VINA RESULT:    -4.415     11.487     13.333
REMARK INTER + INTRA:          -5.411
REMARK INTER:                  -5.160
REMARK INTRA:                  -0.252
REMARK UNBOUND:                -0.092
REMARK SMILES NC(=O)C[C@@H]([NH3+])C(=O)[O-]
REMARK SMILES IDX 4 1 5 2 6 3 7 7 8 8 9 9 2 10 3 11 1 12
REMARK H PARENT 6 4 6 5 6 6 1 13 1 14
REMARK Flexibility Score: inf
ROOT
ATOM      1  C   UNL     1       2.981  41.036  12.112  1.00  0.00     0.171 C 
ENDROOT
BRANCH   1   2
ATOM      2  C   UNL     1       3.515  42.476  11.943  1.00  0.00     0.237 C 
BRANCH   2   3
ATOM      3  N   UNL     1       4.418  42.590  10.790  1.00  0.00    -0.350 N 
ATOM      4  H   UNL     1       4.368  41.715  10.218  1.00  0.00     0.345 HD
ATOM      5  H   UNL     1       5.407  42.736  11.096  1.00  0.00     0.345 HD
ATOM      6  H   UNL     1       4.124  43.392  10.187  1.00  0.00     0.345 HD
ENDBRANCH   2   3
BRANCH   2   7
ATOM      7  C   UNL     1       2.388  43.474  11.853  1.00  0.00     0.100 C 
ATOM      8  O   UNL     1       2.625  44.657  11.491  1.00  0.00    -0.544 OA
ATOM      9  O   UNL     1       1.095  43.118  12.217  1.00  0.00    -0.544 OA
ENDBRANCH   2   7
ENDBRANCH   1   2
BRANCH   1  10
ATOM     10  C   UNL     1       3.929  40.134  12.854  1.00  0.00     0.223 C 
ATOM     11  O   UNL     1       5.106  40.517  13.085  1.00  0.00    -0.275 OA
ATOM     12  N   UNL     1       3.510  38.838  13.282  1.00  0.00    -0.369 N 
ATOM     13  H   UNL     1       4.175  38.210  13.786  1.00  0.00     0.159 HD
ATOM     14  H   UNL     1       2.539  38.503  13.098  1.00  0.00     0.159 HD
ENDBRANCH   1  10
TORSDOF 4
ENDMDL
MODEL 6
REMARK VINA RESULT:    -4.326     13.576     14.771
REMARK INTER + INTRA:          -5.303
REMARK INTER:                  -4.870
REMARK INTRA:                  -0.434
REMARK UNBOUND:                -0.092
REMARK SMILES NC(=O)C[C@@H]([NH3+])C(=O)[O-]
REMARK SMILES IDX 4 1 5 2 6 3 7 7 8 8 9 9 2 10 3 11 1 12
REMARK H PARENT 6 4 6 5 6 6 1 13 1 14
REMARK Flexibility Score: inf
ROOT
ATOM      1  C   UNL     1       3.609  44.296  12.311  1.00  0.00     0.171 C 
ENDROOT
BRANCH   1   2
ATOM      2  C   UNL     1       4.434  44.460  11.016  1.00  0.00     0.237 C 
BRANCH   2   3
ATOM      3  N   UNL     1       4.545  43.195  10.278  1.00  0.00    -0.350 N 
ATOM      4  H   UNL     1       5.555  42.950  10.152  1.00  0.00     0.345 HD
ATOM      5  H   UNL     1       4.094  43.264   9.337  1.00  0.00     0.345 HD
ATOM      6  H   UNL     1       4.088  42.426  10.820  1.00  0.00     0.345 HD
ENDBRANCH   2   3
BRANCH   2   7
ATOM      7  C   UNL     1       3.876  45.554  10.141  1.00  0.00     0.100 C 
ATOM      8  O   UNL     1       4.402  45.793   9.022  1.00  0.00    -0.544 OA
ATOM      9  O   UNL     1       2.816  46.340  10.579  1.00  0.00    -0.544 OA
ENDBRANCH   2   7
ENDBRANCH   1   2
BRANCH   1  10
ATOM     10  C   UNL     1       2.397  43.423  12.138  1.00  0.00     0.223 C 
ATOM     11  O   UNL     1       2.533  42.174  12.044  1.00  0.00    -0.275 OA
ATOM     12  N   UNL     1       1.093  43.999  12.059  1.00  0.00    -0.369 N 
ATOM     13  H   UNL     1       0.256  43.391  11.925  1.00  0.00     0.159 HD
ATOM     14  H   UNL     1       0.962  45.032  12.132  1.00  0.00     0.159 HD
ENDBRANCH   1  10
TORSDOF 4
ENDMDL
MODEL 7
REMARK VINA RESULT:    -4.317     14.068     15.701
REMARK INTER + INTRA:          -5.293
REMARK INTER:                  -5.033
REMARK INTRA:                  -0.261
REMARK UNBOUND:                -0.092
REMARK SMILES NC(=O)C[C@@H]([NH3+])C(=O)[O-]
REMARK SMILES IDX 4 1 5 2 6 3 7 7 8 8 9 9 2 10 3 11 1 12
REMARK H PARENT 6 4 6 5 6 6 1 13 1 14
REMARK Flexibility Score: inf
ROOT
ATOM      1  C   UNL     1       4.133  45.029   9.273  1.00  0.00     0.171 C 
ENDROOT
BRANCH   1   2
ATOM      2  C   UNL     1       3.732  46.482   9.610  1.00  0.00     0.237 C 
BRANCH   2   3
ATOM      3  N   UNL     1       4.107  46.845  10.984  1.00  0.00    -0.350 N 
ATOM      4  H   UNL     1       3.662  46.178  11.656  1.00  0.00     0.345 HD
ATOM      5  H   UNL     1       3.799  47.816  11.217  1.00  0.00     0.345 HD
ATOM      6  H   UNL     1       5.145  46.779  11.097  1.00  0.00     0.345 HD
ENDBRANCH   2   3
BRANCH   2   7
ATOM      7  C   UNL     1       4.306  47.457   8.614  1.00  0.00     0.100 C 
ATOM      8  O   UNL     1       5.509  47.818   8.709  1.00  0.00    -0.544 OA
ATOM      9  O   UNL     1       3.506  48.007   7.619  1.00  0.00    -0.544 OA
ENDBRANCH   2   7
ENDBRANCH   1   2
BRANCH   1  10
ATOM     10  C   UNL     1       3.794  44.051  10.363  1.00  0.00     0.223 C 
ATOM     11  O   UNL     1       2.790  44.253  11.096  1.00  0.00    -0.275 OA
ATOM     12  N   UNL     1       4.614  42.903  10.588  1.00  0.00    -0.369 N 
ATOM     13  H   UNL     1       4.383  42.233  11.354  1.00  0.00     0.159 HD
ATOM     14  H   UNL     1       5.450  42.721   9.991  1.00  0.00     0.159 HD
ENDBRANCH   1  10
TORSDOF 4
ENDMDL
MODEL 8
REMARK VINA RESULT:    -4.276     12.869     13.982
REMARK INTER + INTRA:          -5.244
REMARK INTER:                  -5.077
REMARK INTRA:                  -0.167
REMARK UNBOUND:                -0.092
REMARK SMILES NC(=O)C[C@@H]([NH3+])C(=O)[O-]
REMARK SMILES IDX 4 1 5 2 6 3 7 7 8 8 9 9 2 10 3 11 1 12
REMARK H PARENT 6 4 6 5 6 6 1 13 1 14
REMARK Flexibility Score: inf
ROOT
ATOM      1  C   UNL     1       2.787  42.713  10.565  1.00  0.00     0.171 C 
ENDROOT
BRANCH   1   2
ATOM      2  C   UNL     1       3.996  43.318   9.817  1.00  0.00     0.237 C 
BRANCH   2   3
ATOM      3  N   UNL     1       3.866  43.167   8.362  1.00  0.00    -0.350 N 
ATOM      4  H   UNL     1       3.396  44.012   7.962  1.00  0.00     0.345 HD
ATOM      5  H   UNL     1       3.304  42.320   8.117  1.00  0.00     0.345 HD
ATOM      6  H   UNL     1       4.815  43.084   7.928  1.00  0.00     0.345 HD
ENDBRANCH   2   3
BRANCH   2   7
ATOM      7  C   UNL     1       4.213  44.761  10.197  1.00  0.00     0.100 C 
ATOM      8  O   UNL     1       4.364  45.076  11.407  1.00  0.00    -0.544 OA
ATOM      9  O   UNL     1       4.197  45.759   9.230  1.00  0.00    -0.544 OA
ENDBRANCH   2   7
ENDBRANCH   1   2
BRANCH   1  10
ATOM     10  C   UNL     1       3.180  41.860  11.739  1.00  0.00     0.223 C 
ATOM     11  O   UNL     1       2.293  41.262  12.403  1.00  0.00    -0.275 OA
ATOM     12  N   UNL     1       4.551  41.737  12.119  1.00  0.00    -0.369 N 
ATOM     13  H   UNL     1       4.818  41.154  12.942  1.00  0.00     0.159 HD
ATOM     14  H   UNL     1       5.299  42.227  11.581  1.00  0.00     0.159 HD
ENDBRANCH   1  10
TORSDOF 4
ENDMDL
MODEL 9
REMARK VINA RESULT:    -4.223     14.380     15.159
REMARK INTER + INTRA:          -5.179
REMARK INTER:                  -4.895
REMARK INTRA:                  -0.284
REMARK UNBOUND:                -0.092
REMARK SMILES NC(=O)C[C@@H]([NH3+])C(=O)[O-]
REMARK SMILES IDX 4 1 5 2 6 3 7 7 8 8 9 9 2 10 3 11 1 12
REMARK H PARENT 6 4 6 5 6 6 1 13 1 14
REMARK Flexibility Score: inf
ROOT
ATOM      1  C   UNL     1       4.510  45.739  10.558  1.00  0.00     0.171 C 
ENDROOT
BRANCH   1   2
ATOM      2  C   UNL     1       3.943  44.564   9.730  1.00  0.00     0.237 C 
BRANCH   2   3
ATOM      3  N   UNL     1       4.511  43.277  10.153  1.00  0.00    -0.350 N 
ATOM      4  H   UNL     1       5.555  43.313  10.079  1.00  0.00     0.345 HD
ATOM      5  H   UNL     1       4.157  42.493   9.559  1.00  0.00     0.345 HD
ATOM      6  H   UNL     1       4.261  43.090  11.151  1.00  0.00     0.345 HD
ENDBRANCH   2   3
BRANCH   2   7
ATOM      7  C   UNL     1       2.437  44.535   9.774  1.00  0.00     0.100 C 
ATOM      8  O   UNL     1       1.773  45.388   9.126  1.00  0.00    -0.544 OA
ATOM      9  O   UNL     1       1.768  43.609  10.566  1.00  0.00    -0.544 OA
ENDBRANCH   2   7
ENDBRANCH   1   2
BRANCH   1  10
ATOM     10  C   UNL     1       4.872  46.935   9.723  1.00  0.00     0.223 C 
ATOM     11  O   UNL     1       6.083  47.216   9.523  1.00  0.00    -0.275 OA
ATOM     12  N   UNL     1       3.853  47.769   9.170  1.00  0.00    -0.369 N 
ATOM     13  H   UNL     1       4.108  48.606   8.601  1.00  0.00     0.159 HD
ATOM     14  H   UNL     1       2.844  47.553   9.327  1.00  0.00     0.159 HD
ENDBRANCH   1  10
TORSDOF 4
ENDMDL
