MODEL 1
REMARK VINA RESULT:    -5.258      0.000      0.000
REMARK INTER + INTRA:          -7.701
REMARK INTER:                  -7.102
REMARK INTRA:                  -0.599
REMARK UNBOUND:                -0.599
REMARK SMILES CC(=O)CCC=C(C)CCC=C(C)C
REMARK SMILES IDX 7 1 6 2 8 3 9 4 10 5 11 6 13 7 12 8 14 9 5 10 4 11 2 12 3 13
REMARK SMILES IDX 1 14
REMARK H PARENT
REMARK Flexibility Score: inf
ROOT
ATOM      1  C   UNL     1     -13.438 -21.916  20.293  1.00  0.00    -0.077 C 
ATOM      2  C   UNL     1     -12.335 -21.443  20.917  1.00  0.00    -0.028 C 
ATOM      3  C   UNL     1     -13.350 -22.867  19.123  1.00  0.00     0.039 C 
ENDROOT
BRANCH   1   4
ATOM      4  C   UNL     1     -14.802 -21.481  20.784  1.00  0.00     0.034 C 
BRANCH   4   5
ATOM      5  C   UNL     1     -15.225 -22.300  22.009  1.00  0.00     0.032 C 
BRANCH   5   6
ATOM      6  C   UNL     1     -15.095 -21.481  23.270  1.00  0.00    -0.028 C 
ATOM      7  C   UNL     1     -15.841 -20.068  25.136  1.00  0.00     0.039 C 
ATOM      8  C   UNL     1     -16.113 -20.811  23.854  1.00  0.00    -0.080 C 
ATOM      9  C   UNL     1     -17.499 -20.776  23.252  1.00  0.00     0.039 C 
ENDBRANCH   5   6
ENDBRANCH   4   5
ENDBRANCH   1   4
BRANCH   2  10
ATOM     10  C   UNL     1     -10.915 -21.824  20.565  1.00  0.00     0.035 C 
BRANCH  10  11
ATOM     11  C   UNL     1     -10.336 -20.904  19.485  1.00  0.00     0.079 C 
BRANCH  11  12
ATOM     12  C   UNL     1      -9.943 -21.670  18.248  1.00  0.00     0.130 C 
ATOM     13  O   UNL     1      -9.522 -22.813  18.348  1.00  0.00    -0.300 OA
ATOM     14  C   UNL     1     -10.035 -21.029  16.897  1.00  0.00     0.087 C 
ENDBRANCH  11  12
ENDBRANCH  10  11
ENDBRANCH   2  10
TORSDOF 6
ENDMDL
MODEL 2
REMARK VINA RESULT:    -5.239      1.747      3.155
REMARK INTER + INTRA:          -7.676
REMARK INTER:                  -6.679
REMARK INTRA:                  -0.996
REMARK UNBOUND:                -0.599
REMARK SMILES CC(=O)CCC=C(C)CCC=C(C)C
REMARK SMILES IDX 7 1 6 2 8 3 9 4 10 5 11 6 13 7 12 8 14 9 5 10 4 11 2 12 3 13
REMARK SMILES IDX 1 14
REMARK H PARENT
REMARK Flexibility Score: inf
ROOT
ATOM      1  C   UNL     1     -13.575 -22.934  24.093  1.00  0.00    -0.077 C 
ATOM      2  C   UNL     1     -12.637 -22.493  23.224  1.00  0.00    -0.028 C 
ATOM      3  C   UNL     1     -13.923 -24.398  24.219  1.00  0.00     0.039 C 
ENDROOT
BRANCH   1   4
ATOM      4  C   UNL     1     -14.293 -21.930  24.970  1.00  0.00     0.034 C 
BRANCH   4   5
ATOM      5  C   UNL     1     -14.771 -20.731  24.144  1.00  0.00     0.032 C 
BRANCH   5   6
ATOM      6  C   UNL     1     -16.200 -20.924  23.699  1.00  0.00    -0.028 C 
ATOM      7  C   UNL     1     -18.034 -21.457  22.153  1.00  0.00     0.039 C 
ATOM      8  C   UNL     1     -16.569 -21.259  22.442  1.00  0.00    -0.080 C 
ATOM      9  C   UNL     1     -15.561 -21.421  21.327  1.00  0.00     0.039 C 
ENDBRANCH   5   6
ENDBRANCH   4   5
ENDBRANCH   1   4
BRANCH   2  10
ATOM     10  C   UNL     1     -11.810 -23.381  22.323  1.00  0.00     0.035 C 
BRANCH  10  11
ATOM     11  C   UNL     1     -10.859 -22.561  21.443  1.00  0.00     0.079 C 
BRANCH  11  12
ATOM     12  C   UNL     1     -11.161 -22.734  19.977  1.00  0.00     0.130 C 
ATOM     13  O   UNL     1     -10.247 -22.897  19.182  1.00  0.00    -0.300 OA
ATOM     14  C   UNL     1     -12.574 -22.677  19.482  1.00  0.00     0.087 C 
ENDBRANCH  11  12
ENDBRANCH  10  11
ENDBRANCH   2  10
TORSDOF 6
ENDMDL
MODEL 3
REMARK VINA RESULT:    -5.214      2.883      6.921
REMARK INTER + INTRA:          -7.641
REMARK INTER:                  -6.997
REMARK INTRA:                  -0.644
REMARK UNBOUND:                -0.599
REMARK SMILES CC(=O)CCC=C(C)CCC=C(C)C
REMARK SMILES IDX 7 1 6 2 8 3 9 4 10 5 11 6 13 7 12 8 14 9 5 10 4 11 2 12 3 13
REMARK SMILES IDX 1 14
REMARK H PARENT
REMARK Flexibility Score: inf
ROOT
ATOM      1  C   UNL     1     -13.663 -21.728  21.500  1.00  0.00    -0.077 C 
ATOM      2  C   UNL     1     -13.555 -22.042  22.811  1.00  0.00    -0.028 C 
ATOM      3  C   UNL     1     -14.989 -21.754  20.777  1.00  0.00     0.039 C 
ENDROOT
BRANCH   1   4
ATOM      4  C   UNL     1     -12.418 -21.334  20.734  1.00  0.00     0.034 C 
BRANCH   4   5
ATOM      5  C   UNL     1     -12.121 -22.345  19.621  1.00  0.00     0.032 C 
BRANCH   5   6
ATOM      6  C   UNL     1     -10.676 -22.778  19.665  1.00  0.00    -0.028 C 
ATOM      7  C   UNL     1      -8.306 -22.814  19.019  1.00  0.00     0.039 C 
ATOM      8  C   UNL     1      -9.716 -22.320  18.831  1.00  0.00    -0.080 C 
ATOM      9  C   UNL     1     -10.022 -21.348  17.715  1.00  0.00     0.039 C 
ENDBRANCH   5   6
ENDBRANCH   4   5
ENDBRANCH   1   4
BRANCH   2  10
ATOM     10  C   UNL     1     -14.714 -22.409  23.709  1.00  0.00     0.035 C 
BRANCH  10  11
ATOM     11  C   UNL     1     -14.806 -21.473  24.920  1.00  0.00     0.079 C 
BRANCH  11  12
ATOM     12  C   UNL     1     -15.777 -20.345  24.685  1.00  0.00     0.130 C 
ATOM     13  O   UNL     1     -15.613 -19.274  25.250  1.00  0.00    -0.300 OA
ATOM     14  C   UNL     1     -16.961 -20.537  23.787  1.00  0.00     0.087 C 
ENDBRANCH  11  12
ENDBRANCH  10  11
ENDBRANCH   2  10
TORSDOF 6
ENDMDL
MODEL 4
REMARK VINA RESULT:    -5.169      1.345      1.832
REMARK INTER + INTRA:          -7.581
REMARK INTER:                  -6.552
REMARK INTRA:                  -1.029
REMARK UNBOUND:                -0.599
REMARK SMILES CC(=O)CCC=C(C)CCC=C(C)C
REMARK SMILES IDX 7 1 6 2 8 3 9 4 10 5 11 6 13 7 12 8 14 9 5 10 4 11 2 12 3 13
REMARK SMILES IDX 1 14
REMARK H PARENT
REMARK Flexibility Score: inf
ROOT
ATOM      1  C   UNL     1     -13.041 -22.034  20.535  1.00  0.00    -0.077 C 
ATOM      2  C   UNL     1     -11.882 -22.011  21.232  1.00  0.00    -0.028 C 
ATOM      3  C   UNL     1     -13.186 -22.813  19.249  1.00  0.00     0.039 C 
ENDROOT
BRANCH   1   4
ATOM      4  C   UNL     1     -14.230 -21.260  21.063  1.00  0.00     0.034 C 
BRANCH   4   5
ATOM      5  C   UNL     1     -15.169 -22.176  21.854  1.00  0.00     0.032 C 
BRANCH   5   6
ATOM      6  C   UNL     1     -15.053 -21.909  23.335  1.00  0.00    -0.028 C 
ATOM      7  C   UNL     1     -14.340 -22.299  25.654  1.00  0.00     0.039 C 
ATOM      8  C   UNL     1     -14.408 -22.715  24.208  1.00  0.00    -0.080 C 
ATOM      9  C   UNL     1     -13.774 -24.018  23.777  1.00  0.00     0.039 C 
ENDBRANCH   5   6
ENDBRANCH   4   5
ENDBRANCH   1   4
BRANCH   2  10
ATOM     10  C   UNL     1     -10.631 -22.770  20.852  1.00  0.00     0.035 C 
BRANCH  10  11
ATOM     11  C   UNL     1      -9.547 -21.833  20.307  1.00  0.00     0.079 C 
BRANCH  11  12
ATOM     12  C   UNL     1      -9.238 -22.116  18.860  1.00  0.00     0.130 C 
ATOM     13  O   UNL     1      -8.377 -22.934  18.570  1.00  0.00    -0.300 OA
ATOM     14  C   UNL     1      -9.956 -21.378  17.771  1.00  0.00     0.087 C 
ENDBRANCH  11  12
ENDBRANCH  10  11
ENDBRANCH   2  10
TORSDOF 6
ENDMDL
MODEL 5
REMARK VINA RESULT:    -5.140      1.336      1.994
REMARK INTER + INTRA:          -7.541
REMARK INTER:                  -6.675
REMARK INTRA:                  -0.867
REMARK UNBOUND:                -0.599
REMARK SMILES CC(=O)CCC=C(C)CCC=C(C)C
REMARK SMILES IDX 7 1 6 2 8 3 9 4 10 5 11 6 13 7 12 8 14 9 5 10 4 11 2 12 3 13
REMARK SMILES IDX 1 14
REMARK H PARENT
REMARK Flexibility Score: inf
ROOT
ATOM      1  C   UNL     1     -12.152 -21.174  21.533  1.00  0.00    -0.077 C 
ATOM      2  C   UNL     1     -12.277 -22.287  20.774  1.00  0.00    -0.028 C 
ATOM      3  C   UNL     1     -11.413 -19.951  21.044  1.00  0.00     0.039 C 
ENDROOT
BRANCH   1   4
ATOM      4  C   UNL     1     -12.777 -21.152  22.911  1.00  0.00     0.034 C 
BRANCH   4   5
ATOM      5  C   UNL     1     -13.894 -22.195  23.019  1.00  0.00     0.032 C 
BRANCH   5   6
ATOM      6  C   UNL     1     -15.173 -21.559  23.506  1.00  0.00    -0.028 C 
ATOM      7  C   UNL     1     -17.395 -20.526  23.327  1.00  0.00     0.039 C 
ATOM      8  C   UNL     1     -16.155 -21.101  22.697  1.00  0.00    -0.080 C 
ATOM      9  C   UNL     1     -16.032 -21.137  21.191  1.00  0.00     0.039 C 
ENDBRANCH   5   6
ENDBRANCH   4   5
ENDBRANCH   1   4
BRANCH   2  10
ATOM     10  C   UNL     1     -11.746 -22.435  19.367  1.00  0.00     0.035 C 
BRANCH  10  11
ATOM     11  C   UNL     1     -10.309 -22.969  19.359  1.00  0.00     0.079 C 
BRANCH  11  12
ATOM     12  C   UNL     1      -9.416 -22.164  18.452  1.00  0.00     0.130 C 
ATOM     13  O   UNL     1      -8.202 -22.283  18.530  1.00  0.00    -0.300 OA
ATOM     14  C   UNL     1     -10.004 -21.193  17.474  1.00  0.00     0.087 C 
ENDBRANCH  11  12
ENDBRANCH  10  11
ENDBRANCH   2  10
TORSDOF 6
ENDMDL
MODEL 6
REMARK VINA RESULT:    -5.037      1.412      2.126
REMARK INTER + INTRA:          -7.402
REMARK INTER:                  -6.493
REMARK INTRA:                  -0.909
REMARK UNBOUND:                -0.599
REMARK SMILES CC(=O)CCC=C(C)CCC=C(C)C
REMARK SMILES IDX 7 1 6 2 8 3 9 4 10 5 11 6 13 7 12 8 14 9 5 10 4 11 2 12 3 13
REMARK SMILES IDX 1 14
REMARK H PARENT
REMARK Flexibility Score: inf
ROOT
ATOM      1  C   UNL     1     -12.903 -22.351  20.723  1.00  0.00    -0.077 C 
ATOM      2  C   UNL     1     -12.292 -22.454  19.520  1.00  0.00    -0.028 C 
ATOM      3  C   UNL     1     -12.198 -22.704  22.011  1.00  0.00     0.039 C 
ENDROOT
BRANCH   1   4
ATOM      4  C   UNL     1     -14.334 -21.863  20.779  1.00  0.00     0.034 C 
BRANCH   4   5
ATOM      5  C   UNL     1     -15.066 -22.460  21.986  1.00  0.00     0.032 C 
BRANCH   5   6
ATOM      6  C   UNL     1     -15.563 -21.370  22.902  1.00  0.00    -0.028 C 
ATOM      7  C   UNL     1     -15.820 -20.126  25.006  1.00  0.00     0.039 C 
ATOM      8  C   UNL     1     -15.287 -21.297  24.224  1.00  0.00    -0.080 C 
ATOM      9  C   UNL     1     -14.478 -22.360  24.932  1.00  0.00     0.039 C 
ENDBRANCH   5   6
ENDBRANCH   4   5
ENDBRANCH   1   4
BRANCH   2  10
ATOM     10  C   UNL     1     -10.857 -22.882  19.315  1.00  0.00     0.035 C 
BRANCH  10  11
ATOM     11  C   UNL     1      -9.952 -21.686  18.997  1.00  0.00     0.079 C 
BRANCH  11  12
ATOM     12  C   UNL     1      -9.517 -20.963  20.246  1.00  0.00     0.130 C 
ATOM     13  O   UNL     1      -8.657 -21.452  20.963  1.00  0.00    -0.300 OA
ATOM     14  C   UNL     1     -10.154 -19.663  20.632  1.00  0.00     0.087 C 
ENDBRANCH  11  12
ENDBRANCH  10  11
ENDBRANCH   2  10
TORSDOF 6
ENDMDL
MODEL 7
REMARK VINA RESULT:    -5.000      2.644      6.718
REMARK INTER + INTRA:          -7.352
REMARK INTER:                  -6.482
REMARK INTRA:                  -0.870
REMARK UNBOUND:                -0.599
REMARK SMILES CC(=O)CCC=C(C)CCC=C(C)C
REMARK SMILES IDX 7 1 6 2 8 3 9 4 10 5 11 6 13 7 12 8 14 9 5 10 4 11 2 12 3 13
REMARK SMILES IDX 1 14
REMARK H PARENT
REMARK Flexibility Score: inf
ROOT
ATOM      1  C   UNL     1     -12.200 -21.372  21.204  1.00  0.00    -0.077 C 
ATOM      2  C   UNL     1     -13.514 -21.079  21.072  1.00  0.00    -0.028 C 
ATOM      3  C   UNL     1     -11.705 -22.794  21.321  1.00  0.00     0.039 C 
ENDROOT
BRANCH   1   4
ATOM      4  C   UNL     1     -11.195 -20.241  21.232  1.00  0.00     0.034 C 
BRANCH   4   5
ATOM      5  C   UNL     1      -9.924 -20.623  20.466  1.00  0.00     0.032 C 
BRANCH   5   6
ATOM      6  C   UNL     1     -10.115 -20.429  18.982  1.00  0.00    -0.028 C 
ATOM      7  C   UNL     1     -10.126 -21.045  16.604  1.00  0.00     0.039 C 
ATOM      8  C   UNL     1      -9.847 -21.368  18.048  1.00  0.00    -0.080 C 
ATOM      9  C   UNL     1      -9.265 -22.716  18.411  1.00  0.00     0.039 C 
ENDBRANCH   5   6
ENDBRANCH   4   5
ENDBRANCH   1   4
BRANCH   2  10
ATOM     10  C   UNL     1     -14.622 -22.103  20.984  1.00  0.00     0.035 C 
BRANCH  10  11
ATOM     11  C   UNL     1     -15.802 -21.737  21.893  1.00  0.00     0.079 C 
BRANCH  11  12
ATOM     12  C   UNL     1     -15.371 -21.555  23.325  1.00  0.00     0.130 C 
ATOM     13  O   UNL     1     -15.693 -20.546  23.934  1.00  0.00    -0.300 OA
ATOM     14  C   UNL     1     -14.524 -22.590  24.001  1.00  0.00     0.087 C 
ENDBRANCH  11  12
ENDBRANCH  10  11
ENDBRANCH   2  10
TORSDOF 6
ENDMDL
MODEL 8
REMARK VINA RESULT:    -4.866      2.949      7.021
REMARK INTER + INTRA:          -7.171
REMARK INTER:                  -6.677
REMARK INTRA:                  -0.494
REMARK UNBOUND:                -0.599
REMARK SMILES CC(=O)CCC=C(C)CCC=C(C)C
REMARK SMILES IDX 7 1 6 2 8 3 9 4 10 5 11 6 13 7 12 8 14 9 5 10 4 11 2 12 3 13
REMARK SMILES IDX 1 14
REMARK H PARENT
REMARK Flexibility Score: inf
ROOT
ATOM      1  C   UNL     1     -12.484 -21.805  22.595  1.00  0.00    -0.077 C 
ATOM      2  C   UNL     1     -13.654 -21.436  22.025  1.00  0.00    -0.028 C 
ATOM      3  C   UNL     1     -12.383 -22.151  24.062  1.00  0.00     0.039 C 
ENDROOT
BRANCH   1   4
ATOM      4  C   UNL     1     -11.240 -21.878  21.736  1.00  0.00     0.034 C 
BRANCH   4   5
ATOM      5  C   UNL     1     -11.469 -22.784  20.522  1.00  0.00     0.032 C 
BRANCH   5   6
ATOM      6  C   UNL     1     -11.190 -22.040  19.239  1.00  0.00    -0.028 C 
ATOM      7  C   UNL     1      -9.876 -21.274  17.310  1.00  0.00     0.039 C 
ATOM      8  C   UNL     1      -9.996 -22.031  18.606  1.00  0.00    -0.080 C 
ATOM      9  C   UNL     1      -8.786 -22.741  19.169  1.00  0.00     0.039 C 
ENDBRANCH   5   6
ENDBRANCH   4   5
ENDBRANCH   1   4
BRANCH   2  10
ATOM     10  C   UNL     1     -14.981 -21.364  22.746  1.00  0.00     0.035 C 
BRANCH  10  11
ATOM     11  C   UNL     1     -16.148 -21.708  21.814  1.00  0.00     0.079 C 
BRANCH  11  12
ATOM     12  C   UNL     1     -17.477 -21.340  22.421  1.00  0.00     0.130 C 
ATOM     13  O   UNL     1     -18.508 -21.803  21.955  1.00  0.00    -0.300 OA
ATOM     14  C   UNL     1     -17.548 -20.387  23.574  1.00  0.00     0.087 C 
ENDBRANCH  11  12
ENDBRANCH  10  11
ENDBRANCH   2  10
TORSDOF 6
ENDMDL
MODEL 9
REMARK VINA RESULT:    -4.865      2.528      6.576
REMARK INTER + INTRA:          -7.170
REMARK INTER:                  -6.215
REMARK INTRA:                  -0.955
REMARK UNBOUND:                -0.599
REMARK SMILES CC(=O)CCC=C(C)CCC=C(C)C
REMARK SMILES IDX 7 1 6 2 8 3 9 4 10 5 11 6 13 7 12 8 14 9 5 10 4 11 2 12 3 13
REMARK SMILES IDX 1 14
REMARK H PARENT
REMARK Flexibility Score: inf
ROOT
ATOM      1  C   UNL     1     -11.948 -22.026  21.948  1.00  0.00    -0.077 C 
ATOM      2  C   UNL     1     -12.976 -22.175  21.082  1.00  0.00    -0.028 C 
ATOM      3  C   UNL     1     -11.942 -20.948  23.006  1.00  0.00     0.039 C 
ENDROOT
BRANCH   1   4
ATOM      4  C   UNL     1     -10.769 -22.971  21.857  1.00  0.00     0.034 C 
BRANCH   4   5
ATOM      5  C   UNL     1      -9.543 -22.259  21.277  1.00  0.00     0.032 C 
BRANCH   5   6
ATOM      6  C   UNL     1      -9.596 -22.248  19.769  1.00  0.00    -0.028 C 
ATOM      7  C   UNL     1      -9.880 -21.293  17.523  1.00  0.00     0.039 C 
ATOM      8  C   UNL     1      -9.906 -21.164  19.023  1.00  0.00    -0.080 C 
ATOM      9  C   UNL     1     -10.292 -19.844  19.651  1.00  0.00     0.039 C 
ENDBRANCH   5   6
ENDBRANCH   4   5
ENDBRANCH   1   4
BRANCH   2  10
ATOM     10  C   UNL     1     -14.234 -21.337  21.084  1.00  0.00     0.035 C 
BRANCH  10  11
ATOM     11  C   UNL     1     -15.408 -22.084  21.727  1.00  0.00     0.079 C 
BRANCH  11  12
ATOM     12  C   UNL     1     -16.100 -21.249  22.773  1.00  0.00     0.130 C 
ATOM     13  O   UNL     1     -15.467 -20.823  23.728  1.00  0.00    -0.300 OA
ATOM     14  C   UNL     1     -17.566 -20.960  22.666  1.00  0.00     0.087 C 
ENDBRANCH  11  12
ENDBRANCH  10  11
ENDBRANCH   2  10
TORSDOF 6
ENDMDL
