MODEL 1
REMARK VINA RESULT:    -3.807      0.000      0.000
REMARK INTER + INTRA:         -11.538
REMARK INTER:                  -8.259
REMARK INTRA:                  -3.280
REMARK UNBOUND:                -3.280
REMARK SMILES CCCCCCCCCCCCCCCCCCCCCC(=O)[O-]
REMARK SMILES IDX 12 1 11 2 10 3 9 4 8 5 7 6 6 7 5 8 4 9 3 10 2 11 1 12 13 13
REMARK SMILES IDX 14 14 15 15 16 16 17 17 18 18 19 19 20 20 21 21 22 22 23 23
REMARK SMILES IDX 24 24
REMARK H PARENT
REMARK Flexibility Score: inf
ROOT
ATOM      1  C   UNL     1      14.860 -16.975  20.580  1.00  0.00     0.000 C 
ENDROOT
BRANCH   1   2
ATOM      2  C   UNL     1      15.968 -17.775  19.871  1.00  0.00     0.000 C 
BRANCH   2   3
ATOM      3  C   UNL     1      16.182 -19.207  20.403  1.00  0.00     0.000 C 
BRANCH   3   4
ATOM      4  C   UNL     1      15.709 -20.328  19.459  1.00  0.00    -0.000 C 
BRANCH   4   5
ATOM      5  C   UNL     1      15.078 -21.511  20.211  1.00  0.00    -0.000 C 
BRANCH   5   6
ATOM      6  C   UNL     1      13.573 -21.656  19.935  1.00  0.00    -0.000 C 
BRANCH   6   7
ATOM      7  C   UNL     1      12.721 -21.445  21.198  1.00  0.00    -0.000 C 
BRANCH   7   8
ATOM      8  C   UNL     1      13.538 -21.587  22.493  1.00  0.00    -0.000 C 
BRANCH   8   9
ATOM      9  C   UNL     1      13.390 -20.366  23.421  1.00  0.00    -0.000 C 
BRANCH   9  10
ATOM     10  C   UNL     1      14.694 -20.029  24.163  1.00  0.00    -0.000 C 
BRANCH  10  11
ATOM     11  C   UNL     1      15.574 -21.263  24.407  1.00  0.00    -0.003 C 
ATOM     12  C   UNL     1      16.828 -21.223  23.539  1.00  0.00     0.004 C 
ENDBRANCH  10  11
ENDBRANCH   9  10
ENDBRANCH   8   9
ENDBRANCH   7   8
ENDBRANCH   6   7
ENDBRANCH   5   6
ENDBRANCH   4   5
ENDBRANCH   3   4
ENDBRANCH   2   3
ENDBRANCH   1   2
BRANCH   1  13
ATOM     13  C   UNL     1      13.603 -17.813  20.857  1.00  0.00     0.000 C 
BRANCH  13  14
ATOM     14  C   UNL     1      12.755 -17.964  19.586  1.00  0.00     0.000 C 
BRANCH  14  15
ATOM     15  C   UNL     1      11.267 -18.199  19.894  1.00  0.00     0.000 C 
BRANCH  15  16
ATOM     16  C   UNL     1      10.991 -18.296  21.403  1.00  0.00     0.000 C 
BRANCH  16  17
ATOM     17  C   UNL     1       9.976 -17.247  21.894  1.00  0.00     0.000 C 
BRANCH  17  18
ATOM     18  C   UNL     1      10.109 -15.855  21.243  1.00  0.00     0.000 C 
BRANCH  18  19
ATOM     19  C   UNL     1      11.312 -15.019  21.722  1.00  0.00     0.000 C 
BRANCH  19  20
ATOM     20  C   UNL     1      10.958 -13.835  22.644  1.00  0.00     0.006 C 
BRANCH  20  21
ATOM     21  C   UNL     1      11.873 -12.610  22.486  1.00  0.00     0.053 C 
BRANCH  21  22
ATOM     22  C   UNL     1      13.229 -12.841  23.077  1.00  0.00     0.041 C 
ATOM     23  O   UNL     1      13.454 -12.541  24.279  1.00  0.00    -0.550 OA
ATOM     24  O   UNL     1      14.253 -13.357  22.294  1.00  0.00    -0.550 OA
ENDBRANCH  21  22
ENDBRANCH  20  21
ENDBRANCH  19  20
ENDBRANCH  18  19
ENDBRANCH  17  18
ENDBRANCH  16  17
ENDBRANCH  15  16
ENDBRANCH  14  15
ENDBRANCH  13  14
ENDBRANCH   1  13
TORSDOF 20
ENDMDL
MODEL 2
REMARK VINA RESULT:    -3.642     10.543     14.644
REMARK INTER + INTRA:         -11.181
REMARK INTER:                  -6.857
REMARK INTRA:                  -4.324
REMARK UNBOUND:                -3.280
REMARK SMILES CCCCCCCCCCCCCCCCCCCCCC(=O)[O-]
REMARK SMILES IDX 12 1 11 2 10 3 9 4 8 5 7 6 6 7 5 8 4 9 3 10 2 11 1 12 13 13
REMARK SMILES IDX 14 14 15 15 16 16 17 17 18 18 19 19 20 20 21 21 22 22 23 23
REMARK SMILES IDX 24 24
REMARK H PARENT
REMARK Flexibility Score: inf
ROOT
ATOM      1  C   UNL     1      19.997  -6.386  27.254  1.00  0.00     0.000 C 
ENDROOT
BRANCH   1   2
ATOM      2  C   UNL     1      21.063  -5.913  28.259  1.00  0.00     0.000 C 
BRANCH   2   3
ATOM      3  C   UNL     1      20.716  -6.156  29.742  1.00  0.00     0.000 C 
BRANCH   3   4
ATOM      4  C   UNL     1      20.336  -4.893  30.536  1.00  0.00    -0.000 C 
BRANCH   4   5
ATOM      5  C   UNL     1      19.234  -5.154  31.577  1.00  0.00    -0.000 C 
BRANCH   5   6
ATOM      6  C   UNL     1      19.670  -6.144  32.668  1.00  0.00    -0.000 C 
BRANCH   6   7
ATOM      7  C   UNL     1      18.706  -7.336  32.800  1.00  0.00    -0.000 C 
BRANCH   7   8
ATOM      8  C   UNL     1      19.440  -8.665  33.041  1.00  0.00    -0.000 C 
BRANCH   8   9
ATOM      9  C   UNL     1      19.328  -9.626  31.843  1.00  0.00    -0.000 C 
BRANCH   9  10
ATOM     10  C   UNL     1      20.607  -9.653  30.988  1.00  0.00    -0.000 C 
BRANCH  10  11
ATOM     11  C   UNL     1      20.467 -10.535  29.740  1.00  0.00    -0.003 C 
ATOM     12  C   UNL     1      20.807  -9.753  28.475  1.00  0.00     0.004 C 
ENDBRANCH  10  11
ENDBRANCH   9  10
ENDBRANCH   8   9
ENDBRANCH   7   8
ENDBRANCH   6   7
ENDBRANCH   5   6
ENDBRANCH   4   5
ENDBRANCH   3   4
ENDBRANCH   2   3
ENDBRANCH   1   2
BRANCH   1  13
ATOM     13  C   UNL     1      19.297  -5.224  26.535  1.00  0.00     0.000 C 
BRANCH  13  14
ATOM     14  C   UNL     1      18.317  -4.508  27.476  1.00  0.00     0.000 C 
BRANCH  14  15
ATOM     15  C   UNL     1      17.000  -5.281  27.656  1.00  0.00     0.000 C 
BRANCH  15  16
ATOM     16  C   UNL     1      16.532  -5.306  29.121  1.00  0.00     0.000 C 
BRANCH  16  17
ATOM     17  C   UNL     1      16.345  -6.734  29.665  1.00  0.00     0.000 C 
BRANCH  17  18
ATOM     18  C   UNL     1      17.506  -7.704  29.366  1.00  0.00     0.000 C 
BRANCH  18  19
ATOM     19  C   UNL     1      17.084  -9.099  28.865  1.00  0.00     0.000 C 
BRANCH  19  20
ATOM     20  C   UNL     1      16.597  -9.148  27.403  1.00  0.00     0.006 C 
BRANCH  20  21
ATOM     21  C   UNL     1      17.720  -9.079  26.357  1.00  0.00     0.053 C 
BRANCH  21  22
ATOM     22  C   UNL     1      18.205 -10.440  25.962  1.00  0.00     0.041 C 
ATOM     23  O   UNL     1      19.288 -10.566  25.331  1.00  0.00    -0.550 OA
ATOM     24  O   UNL     1      17.449 -11.564  26.263  1.00  0.00    -0.550 OA
ENDBRANCH  21  22
ENDBRANCH  20  21
ENDBRANCH  19  20
ENDBRANCH  18  19
ENDBRANCH  17  18
ENDBRANCH  16  17
ENDBRANCH  15  16
ENDBRANCH  14  15
ENDBRANCH  13  14
ENDBRANCH   1  13
TORSDOF 20
ENDMDL
MODEL 3
REMARK VINA RESULT:    -3.587     10.999     15.048
REMARK INTER + INTRA:         -11.061
REMARK INTER:                  -7.200
REMARK INTRA:                  -3.860
REMARK UNBOUND:                -3.280
REMARK SMILES CCCCCCCCCCCCCCCCCCCCCC(=O)[O-]
REMARK SMILES IDX 12 1 11 2 10 3 9 4 8 5 7 6 6 7 5 8 4 9 3 10 2 11 1 12 13 13
REMARK SMILES IDX 14 14 15 15 16 16 17 17 18 18 19 19 20 20 21 21 22 22 23 23
REMARK SMILES IDX 24 24
REMARK H PARENT
REMARK Flexibility Score: inf
ROOT
ATOM      1  C   UNL     1      17.413  -6.375  28.584  1.00  0.00     0.000 C 
ENDROOT
BRANCH   1   2
ATOM      2  C   UNL     1      18.341  -5.934  27.438  1.00  0.00     0.000 C 
BRANCH   2   3
ATOM      3  C   UNL     1      19.818  -5.734  27.835  1.00  0.00     0.000 C 
BRANCH   3   4
ATOM      4  C   UNL     1      20.578  -7.026  28.188  1.00  0.00    -0.000 C 
BRANCH   4   5
ATOM      5  C   UNL     1      20.984  -7.092  29.670  1.00  0.00    -0.000 C 
BRANCH   5   6
ATOM      6  C   UNL     1      20.836  -8.500  30.264  1.00  0.00    -0.000 C 
BRANCH   6   7
ATOM      7  C   UNL     1      19.644  -9.268  29.667  1.00  0.00    -0.000 C 
BRANCH   7   8
ATOM      8  C   UNL     1      20.069 -10.574  28.975  1.00  0.00    -0.000 C 
BRANCH   8   9
ATOM      9  C   UNL     1      19.497 -10.700  27.551  1.00  0.00    -0.000 C 
BRANCH   9  10
ATOM     10  C   UNL     1      18.323  -9.739  27.300  1.00  0.00    -0.000 C 
BRANCH  10  11
ATOM     11  C   UNL     1      18.218  -9.300  25.833  1.00  0.00    -0.003 C 
ATOM     12  C   UNL     1      19.012 -10.232  24.923  1.00  0.00     0.004 C 
ENDBRANCH  10  11
ENDBRANCH   9  10
ENDBRANCH   8   9
ENDBRANCH   7   8
ENDBRANCH   6   7
ENDBRANCH   5   6
ENDBRANCH   4   5
ENDBRANCH   3   4
ENDBRANCH   2   3
ENDBRANCH   1   2
BRANCH   1  13
ATOM     13  C   UNL     1      17.506  -5.460  29.813  1.00  0.00     0.000 C 
BRANCH  13  14
ATOM     14  C   UNL     1      17.521  -6.284  31.109  1.00  0.00     0.000 C 
BRANCH  14  15
ATOM     15  C   UNL     1      18.692  -5.911  32.032  1.00  0.00     0.000 C 
BRANCH  15  16
ATOM     16  C   UNL     1      18.688  -6.723  33.338  1.00  0.00     0.000 C 
BRANCH  16  17
ATOM     17  C   UNL     1      20.079  -7.275  33.703  1.00  0.00     0.000 C 
BRANCH  17  18
ATOM     18  C   UNL     1      20.164  -8.810  33.810  1.00  0.00     0.000 C 
BRANCH  18  19
ATOM     19  C   UNL     1      18.897  -9.571  33.374  1.00  0.00     0.000 C 
BRANCH  19  20
ATOM     20  C   UNL     1      19.045 -11.105  33.313  1.00  0.00     0.006 C 
BRANCH  20  21
ATOM     21  C   UNL     1      20.459 -11.593  32.964  1.00  0.00     0.053 C 
BRANCH  21  22
ATOM     22  C   UNL     1      20.443 -12.657  31.910  1.00  0.00     0.041 C 
ATOM     23  O   UNL     1      19.382 -13.291  31.670  1.00  0.00    -0.550 OA
ATOM     24  O   UNL     1      21.604 -12.970  31.217  1.00  0.00    -0.550 OA
ENDBRANCH  21  22
ENDBRANCH  20  21
ENDBRANCH  19  20
ENDBRANCH  18  19
ENDBRANCH  17  18
ENDBRANCH  16  17
ENDBRANCH  15  16
ENDBRANCH  14  15
ENDBRANCH  13  14
ENDBRANCH   1  13
TORSDOF 20
ENDMDL
MODEL 4
REMARK VINA RESULT:    -3.583     12.410     15.933
REMARK INTER + INTRA:         -11.052
REMARK INTER:                  -6.876
REMARK INTRA:                  -4.176
REMARK UNBOUND:                -3.280
REMARK SMILES CCCCCCCCCCCCCCCCCCCCCC(=O)[O-]
REMARK SMILES IDX 12 1 11 2 10 3 9 4 8 5 7 6 6 7 5 8 4 9 3 10 2 11 1 12 13 13
REMARK SMILES IDX 14 14 15 15 16 16 17 17 18 18 19 19 20 20 21 21 22 22 23 23
REMARK SMILES IDX 24 24
REMARK H PARENT
REMARK Flexibility Score: inf
ROOT
ATOM      1  C   UNL     1      16.982  -8.877  30.473  1.00  0.00     0.000 C 
ENDROOT
BRANCH   1   2
ATOM      2  C   UNL     1      16.706  -7.622  29.626  1.00  0.00     0.000 C 
BRANCH   2   3
ATOM      3  C   UNL     1      16.355  -6.355  30.432  1.00  0.00     0.000 C 
BRANCH   3   4
ATOM      4  C   UNL     1      17.339  -5.183  30.261  1.00  0.00    -0.000 C 
BRANCH   4   5
ATOM      5  C   UNL     1      18.268  -5.004  31.474  1.00  0.00    -0.000 C 
BRANCH   5   6
ATOM      6  C   UNL     1      19.751  -5.191  31.120  1.00  0.00    -0.000 C 
BRANCH   6   7
ATOM      7  C   UNL     1      19.972  -5.408  29.613  1.00  0.00    -0.000 C 
BRANCH   7   8
ATOM      8  C   UNL     1      21.121  -6.386  29.319  1.00  0.00    -0.000 C 
BRANCH   8   9
ATOM      9  C   UNL     1      20.739  -7.447  28.271  1.00  0.00    -0.000 C 
BRANCH   9  10
ATOM     10  C   UNL     1      19.584  -6.990  27.364  1.00  0.00    -0.000 C 
BRANCH  10  11
ATOM     11  C   UNL     1      18.867  -8.163  26.680  1.00  0.00    -0.003 C 
ATOM     12  C   UNL     1      19.353  -9.500  27.230  1.00  0.00     0.004 C 
ENDBRANCH  10  11
ENDBRANCH   9  10
ENDBRANCH   8   9
ENDBRANCH   7   8
ENDBRANCH   6   7
ENDBRANCH   5   6
ENDBRANCH   4   5
ENDBRANCH   3   4
ENDBRANCH   2   3
ENDBRANCH   1   2
BRANCH   1  13
ATOM     13  C   UNL     1      18.170  -8.702  31.431  1.00  0.00     0.000 C 
BRANCH  13  14
ATOM     14  C   UNL     1      19.369  -9.546  30.976  1.00  0.00     0.000 C 
BRANCH  14  15
ATOM     15  C   UNL     1      20.662  -9.187  31.726  1.00  0.00     0.000 C 
BRANCH  15  16
ATOM     16  C   UNL     1      20.412  -8.214  32.891  1.00  0.00     0.000 C 
BRANCH  16  17
ATOM     17  C   UNL     1      20.673  -8.850  34.268  1.00  0.00     0.000 C 
BRANCH  17  18
ATOM     18  C   UNL     1      19.426  -9.420  34.972  1.00  0.00     0.000 C 
BRANCH  18  19
ATOM     19  C   UNL     1      19.447 -10.942  35.217  1.00  0.00     0.000 C 
BRANCH  19  20
ATOM     20  C   UNL     1      19.193 -11.807  33.967  1.00  0.00     0.006 C 
BRANCH  20  21
ATOM     21  C   UNL     1      20.400 -12.648  33.521  1.00  0.00     0.053 C 
BRANCH  21  22
ATOM     22  C   UNL     1      20.341 -12.986  32.063  1.00  0.00     0.041 C 
ATOM     23  O   UNL     1      19.243 -13.293  31.530  1.00  0.00    -0.550 OA
ATOM     24  O   UNL     1      21.502 -12.993  31.301  1.00  0.00    -0.550 OA
ENDBRANCH  21  22
ENDBRANCH  20  21
ENDBRANCH  19  20
ENDBRANCH  18  19
ENDBRANCH  17  18
ENDBRANCH  16  17
ENDBRANCH  15  16
ENDBRANCH  14  15
ENDBRANCH  13  14
ENDBRANCH   1  13
TORSDOF 20
ENDMDL
MODEL 5
REMARK VINA RESULT:    -3.574     12.654     14.631
REMARK INTER + INTRA:         -11.032
REMARK INTER:                  -7.418
REMARK INTRA:                  -3.614
REMARK UNBOUND:                -3.280
REMARK SMILES CCCCCCCCCCCCCCCCCCCCCC(=O)[O-]
REMARK SMILES IDX 12 1 11 2 10 3 9 4 8 5 7 6 6 7 5 8 4 9 3 10 2 11 1 12 13 13
REMARK SMILES IDX 14 14 15 15 16 16 17 17 18 18 19 19 20 20 21 21 22 22 23 23
REMARK SMILES IDX 24 24
REMARK H PARENT
REMARK Flexibility Score: inf
ROOT
ATOM      1  C   UNL     1      20.359  -7.141  28.999  1.00  0.00     0.000 C 
ENDROOT
BRANCH   1   2
ATOM      2  C   UNL     1      19.738  -7.326  27.603  1.00  0.00     0.000 C 
BRANCH   2   3
ATOM      3  C   UNL     1      18.796  -8.540  27.464  1.00  0.00     0.000 C 
BRANCH   3   4
ATOM      4  C   UNL     1      19.501  -9.907  27.407  1.00  0.00    -0.000 C 
BRANCH   4   5
ATOM      5  C   UNL     1      19.529 -10.619  28.770  1.00  0.00    -0.000 C 
BRANCH   5   6
ATOM      6  C   UNL     1      20.956 -10.899  29.266  1.00  0.00    -0.000 C 
BRANCH   6   7
ATOM      7  C   UNL     1      21.016 -11.127  30.786  1.00  0.00    -0.000 C 
BRANCH   7   8
ATOM      8  C   UNL     1      21.424 -12.563  31.152  1.00  0.00    -0.000 C 
BRANCH   8   9
ATOM      9  C   UNL     1      20.390 -13.258  32.057  1.00  0.00    -0.000 C 
BRANCH   9  10
ATOM     10  C   UNL     1      18.971 -12.694  31.871  1.00  0.00    -0.000 C 
BRANCH  10  11
ATOM     11  C   UNL     1      18.277 -12.383  33.204  1.00  0.00    -0.003 C 
ATOM     12  C   UNL     1      17.067 -13.287  33.417  1.00  0.00     0.004 C 
ENDBRANCH  10  11
ENDBRANCH   9  10
ENDBRANCH   8   9
ENDBRANCH   7   8
ENDBRANCH   6   7
ENDBRANCH   5   6
ENDBRANCH   4   5
ENDBRANCH   3   4
ENDBRANCH   2   3
ENDBRANCH   1   2
BRANCH   1  13
ATOM     13  C   UNL     1      20.157  -5.727  29.561  1.00  0.00     0.000 C 
BRANCH  13  14
ATOM     14  C   UNL     1      18.834  -5.125  29.063  1.00  0.00     0.000 C 
BRANCH  14  15
ATOM     15  C   UNL     1      17.676  -5.348  30.049  1.00  0.00     0.000 C 
BRANCH  15  16
ATOM     16  C   UNL     1      16.645  -6.359  29.520  1.00  0.00     0.000 C 
BRANCH  16  17
ATOM     17  C   UNL     1      16.584  -7.647  30.361  1.00  0.00     0.000 C 
BRANCH  17  18
ATOM     18  C   UNL     1      17.369  -7.599  31.687  1.00  0.00     0.000 C 
BRANCH  18  19
ATOM     19  C   UNL     1      18.506  -8.632  31.815  1.00  0.00     0.000 C 
BRANCH  19  20
ATOM     20  C   UNL     1      19.760  -8.132  32.560  1.00  0.00     0.006 C 
BRANCH  20  21
ATOM     21  C   UNL     1      19.669  -6.680  33.054  1.00  0.00     0.053 C 
BRANCH  21  22
ATOM     22  C   UNL     1      19.911  -6.571  34.528  1.00  0.00     0.041 C 
ATOM     23  O   UNL     1      19.006  -6.894  35.342  1.00  0.00    -0.550 OA
ATOM     24  O   UNL     1      21.121  -6.084  35.003  1.00  0.00    -0.550 OA
ENDBRANCH  21  22
ENDBRANCH  20  21
ENDBRANCH  19  20
ENDBRANCH  18  19
ENDBRANCH  17  18
ENDBRANCH  16  17
ENDBRANCH  15  16
ENDBRANCH  14  15
ENDBRANCH  13  14
ENDBRANCH   1  13
TORSDOF 20
ENDMDL
MODEL 6
REMARK VINA RESULT:    -3.565     11.070     15.048
REMARK INTER + INTRA:         -11.013
REMARK INTER:                  -7.339
REMARK INTRA:                  -3.674
REMARK UNBOUND:                -3.280
REMARK SMILES CCCCCCCCCCCCCCCCCCCCCC(=O)[O-]
REMARK SMILES IDX 12 1 11 2 10 3 9 4 8 5 7 6 6 7 5 8 4 9 3 10 2 11 1 12 13 13
REMARK SMILES IDX 14 14 15 15 16 16 17 17 18 18 19 19 20 20 21 21 22 22 23 23
REMARK SMILES IDX 24 24
REMARK H PARENT
REMARK Flexibility Score: inf
ROOT
ATOM      1  C   UNL     1      18.192  -5.651  31.430  1.00  0.00     0.000 C 
ENDROOT
BRANCH   1   2
ATOM      2  C   UNL     1      17.099  -5.546  30.351  1.00  0.00     0.000 C 
BRANCH   2   3
ATOM      3  C   UNL     1      17.607  -5.182  28.940  1.00  0.00     0.000 C 
BRANCH   3   4
ATOM      4  C   UNL     1      19.133  -5.014  28.822  1.00  0.00    -0.000 C 
BRANCH   4   5
ATOM      5  C   UNL     1      19.739  -5.860  27.690  1.00  0.00    -0.000 C 
BRANCH   5   6
ATOM      6  C   UNL     1      20.674  -6.963  28.208  1.00  0.00    -0.000 C 
BRANCH   6   7
ATOM      7  C   UNL     1      20.100  -8.373  27.987  1.00  0.00    -0.000 C 
BRANCH   7   8
ATOM      8  C   UNL     1      18.828  -8.364  27.124  1.00  0.00    -0.000 C 
BRANCH   8   9
ATOM      9  C   UNL     1      17.767  -9.361  27.627  1.00  0.00    -0.000 C 
BRANCH   9  10
ATOM     10  C   UNL     1      17.007  -8.841  28.858  1.00  0.00    -0.000 C 
BRANCH  10  11
ATOM     11  C   UNL     1      15.502  -9.136  28.794  1.00  0.00    -0.003 C 
ATOM     12  C   UNL     1      15.143  -9.882  27.513  1.00  0.00     0.004 C 
ENDBRANCH  10  11
ENDBRANCH   9  10
ENDBRANCH   8   9
ENDBRANCH   7   8
ENDBRANCH   6   7
ENDBRANCH   5   6
ENDBRANCH   4   5
ENDBRANCH   3   4
ENDBRANCH   2   3
ENDBRANCH   1   2
BRANCH   1  13
ATOM     13  C   UNL     1      18.543  -7.102  31.786  1.00  0.00     0.000 C 
BRANCH  13  14
ATOM     14  C   UNL     1      20.065  -7.297  31.854  1.00  0.00     0.000 C 
BRANCH  14  15
ATOM     15  C   UNL     1      20.488  -8.747  31.569  1.00  0.00     0.000 C 
BRANCH  15  16
ATOM     16  C   UNL     1      19.307  -9.728  31.654  1.00  0.00     0.000 C 
BRANCH  16  17
ATOM     17  C   UNL     1      19.411 -10.877  30.634  1.00  0.00     0.000 C 
BRANCH  17  18
ATOM     18  C   UNL     1      20.843 -11.367  30.345  1.00  0.00     0.000 C 
BRANCH  18  19
ATOM     19  C   UNL     1      21.410 -12.377  31.362  1.00  0.00     0.000 C 
BRANCH  19  20
ATOM     20  C   UNL     1      20.371 -13.337  31.976  1.00  0.00     0.006 C 
BRANCH  20  21
ATOM     21  C   UNL     1      20.116 -13.123  33.476  1.00  0.00     0.053 C 
BRANCH  21  22
ATOM     22  C   UNL     1      18.667 -13.261  33.826  1.00  0.00     0.041 C 
ATOM     23  O   UNL     1      18.330 -13.720  34.949  1.00  0.00    -0.550 OA
ATOM     24  O   UNL     1      17.690 -12.914  32.903  1.00  0.00    -0.550 OA
ENDBRANCH  21  22
ENDBRANCH  20  21
ENDBRANCH  19  20
ENDBRANCH  18  19
ENDBRANCH  17  18
ENDBRANCH  16  17
ENDBRANCH  15  16
ENDBRANCH  14  15
ENDBRANCH  13  14
ENDBRANCH   1  13
TORSDOF 20
ENDMDL
MODEL 7
REMARK VINA RESULT:    -3.548     10.902     14.741
REMARK INTER + INTRA:         -10.975
REMARK INTER:                  -6.958
REMARK INTRA:                  -4.017
REMARK UNBOUND:                -3.280
REMARK SMILES CCCCCCCCCCCCCCCCCCCCCC(=O)[O-]
REMARK SMILES IDX 12 1 11 2 10 3 9 4 8 5 7 6 6 7 5 8 4 9 3 10 2 11 1 12 13 13
REMARK SMILES IDX 14 14 15 15 16 16 17 17 18 18 19 19 20 20 21 21 22 22 23 23
REMARK SMILES IDX 24 24
REMARK H PARENT
REMARK Flexibility Score: inf
ROOT
ATOM      1  C   UNL     1      17.102  -5.675  28.930  1.00  0.00     0.000 C 
ENDROOT
BRANCH   1   2
ATOM      2  C   UNL     1      16.594  -6.289  30.247  1.00  0.00     0.000 C 
BRANCH   2   3
ATOM      3  C   UNL     1      17.468  -5.999  31.483  1.00  0.00     0.000 C 
BRANCH   3   4
ATOM      4  C   UNL     1      17.827  -7.233  32.331  1.00  0.00    -0.000 C 
BRANCH   4   5
ATOM      5  C   UNL     1      19.063  -7.007  33.217  1.00  0.00    -0.000 C 
BRANCH   5   6
ATOM      6  C   UNL     1      19.899  -8.282  33.408  1.00  0.00    -0.000 C 
BRANCH   6   7
ATOM      7  C   UNL     1      19.070  -9.448  33.974  1.00  0.00    -0.000 C 
BRANCH   7   8
ATOM      8  C   UNL     1      19.606 -10.821  33.536  1.00  0.00    -0.000 C 
BRANCH   8   9
ATOM      9  C   UNL     1      18.657 -11.540  32.559  1.00  0.00    -0.000 C 
BRANCH   9  10
ATOM     10  C   UNL     1      19.320 -12.745  31.872  1.00  0.00    -0.000 C 
BRANCH  10  11
ATOM     11  C   UNL     1      20.849 -12.739  32.010  1.00  0.00    -0.003 C 
ATOM     12  C   UNL     1      21.517 -12.306  30.709  1.00  0.00     0.004 C 
ENDBRANCH  10  11
ENDBRANCH   9  10
ENDBRANCH   8   9
ENDBRANCH   7   8
ENDBRANCH   6   7
ENDBRANCH   5   6
ENDBRANCH   4   5
ENDBRANCH   3   4
ENDBRANCH   2   3
ENDBRANCH   1   2
BRANCH   1  13
ATOM     13  C   UNL     1      18.546  -5.161  29.029  1.00  0.00     0.000 C 
BRANCH  13  14
ATOM     14  C   UNL     1      19.385  -5.652  27.840  1.00  0.00     0.000 C 
BRANCH  14  15
ATOM     15  C   UNL     1      20.716  -6.284  28.278  1.00  0.00     0.000 C 
BRANCH  15  16
ATOM     16  C   UNL     1      20.812  -6.447  29.804  1.00  0.00     0.000 C 
BRANCH  16  17
ATOM     17  C   UNL     1      21.093  -7.899  30.234  1.00  0.00     0.000 C 
BRANCH  17  18
ATOM     18  C   UNL     1      20.388  -8.978  29.390  1.00  0.00     0.000 C 
BRANCH  18  19
ATOM     19  C   UNL     1      18.915  -9.244  29.760  1.00  0.00     0.000 C 
BRANCH  19  20
ATOM     20  C   UNL     1      17.982  -9.522  28.565  1.00  0.00     0.006 C 
BRANCH  20  21
ATOM     21  C   UNL     1      18.612  -9.251  27.190  1.00  0.00     0.053 C 
BRANCH  21  22
ATOM     22  C   UNL     1      18.697 -10.491  26.356  1.00  0.00     0.041 C 
ATOM     23  O   UNL     1      17.977 -11.487  26.629  1.00  0.00    -0.550 OA
ATOM     24  O   UNL     1      19.593 -10.560  25.297  1.00  0.00    -0.550 OA
ENDBRANCH  21  22
ENDBRANCH  20  21
ENDBRANCH  19  20
ENDBRANCH  18  19
ENDBRANCH  17  18
ENDBRANCH  16  17
ENDBRANCH  15  16
ENDBRANCH  14  15
ENDBRANCH  13  14
ENDBRANCH   1  13
TORSDOF 20
ENDMDL
MODEL 8
REMARK VINA RESULT:    -3.543     11.668     15.125
REMARK INTER + INTRA:         -10.965
REMARK INTER:                  -6.701
REMARK INTRA:                  -4.263
REMARK UNBOUND:                -3.280
REMARK SMILES CCCCCCCCCCCCCCCCCCCCCC(=O)[O-]
REMARK SMILES IDX 12 1 11 2 10 3 9 4 8 5 7 6 6 7 5 8 4 9 3 10 2 11 1 12 13 13
REMARK SMILES IDX 14 14 15 15 16 16 17 17 18 18 19 19 20 20 21 21 22 22 23 23
REMARK SMILES IDX 24 24
REMARK H PARENT
REMARK Flexibility Score: inf
ROOT
ATOM      1  C   UNL     1      19.924  -6.340  27.681  1.00  0.00     0.000 C 
ENDROOT
BRANCH   1   2
ATOM      2  C   UNL     1      18.524  -5.904  27.214  1.00  0.00     0.000 C 
BRANCH   2   3
ATOM      3  C   UNL     1      18.031  -4.562  27.793  1.00  0.00     0.000 C 
BRANCH   3   4
ATOM      4  C   UNL     1      16.902  -4.678  28.833  1.00  0.00    -0.000 C 
BRANCH   4   5
ATOM      5  C   UNL     1      16.084  -5.971  28.681  1.00  0.00    -0.000 C 
BRANCH   5   6
ATOM      6  C   UNL     1      16.248  -6.922  29.876  1.00  0.00    -0.000 C 
BRANCH   6   7
ATOM      7  C   UNL     1      16.635  -8.347  29.445  1.00  0.00    -0.000 C 
BRANCH   7   8
ATOM      8  C   UNL     1      16.175  -8.678  28.016  1.00  0.00    -0.000 C 
BRANCH   8   9
ATOM      9  C   UNL     1      17.236  -9.462  27.221  1.00  0.00    -0.000 C 
BRANCH   9  10
ATOM     10  C   UNL     1      18.454  -9.842  28.079  1.00  0.00    -0.000 C 
BRANCH  10  11
ATOM     11  C   UNL     1      19.690 -10.185  27.236  1.00  0.00    -0.003 C 
ATOM     12  C   UNL     1      20.967 -10.064  28.061  1.00  0.00     0.004 C 
ENDBRANCH  10  11
ENDBRANCH   9  10
ENDBRANCH   8   9
ENDBRANCH   7   8
ENDBRANCH   6   7
ENDBRANCH   5   6
ENDBRANCH   4   5
ENDBRANCH   3   4
ENDBRANCH   2   3
ENDBRANCH   1   2
BRANCH   1  13
ATOM     13  C   UNL     1      19.968  -6.713  29.170  1.00  0.00     0.000 C 
BRANCH  13  14
ATOM     14  C   UNL     1      20.800  -5.697  29.965  1.00  0.00     0.000 C 
BRANCH  14  15
ATOM     15  C   UNL     1      19.949  -4.878  30.950  1.00  0.00     0.000 C 
BRANCH  15  16
ATOM     16  C   UNL     1      19.097  -5.770  31.868  1.00  0.00     0.000 C 
BRANCH  16  17
ATOM     17  C   UNL     1      19.883  -6.304  33.080  1.00  0.00     0.000 C 
BRANCH  17  18
ATOM     18  C   UNL     1      20.081  -7.833  33.108  1.00  0.00     0.000 C 
BRANCH  18  19
ATOM     19  C   UNL     1      19.003  -8.648  32.368  1.00  0.00     0.000 C 
BRANCH  19  20
ATOM     20  C   UNL     1      19.545  -9.742  31.426  1.00  0.00     0.006 C 
BRANCH  20  21
ATOM     21  C   UNL     1      20.360 -10.839  32.129  1.00  0.00     0.053 C 
BRANCH  21  22
ATOM     22  C   UNL     1      19.664 -12.165  32.097  1.00  0.00     0.041 C 
ATOM     23  O   UNL     1      20.286 -13.196  31.731  1.00  0.00    -0.550 OA
ATOM     24  O   UNL     1      18.322 -12.257  32.442  1.00  0.00    -0.550 OA
ENDBRANCH  21  22
ENDBRANCH  20  21
ENDBRANCH  19  20
ENDBRANCH  18  19
ENDBRANCH  17  18
ENDBRANCH  16  17
ENDBRANCH  15  16
ENDBRANCH  14  15
ENDBRANCH  13  14
ENDBRANCH   1  13
TORSDOF 20
ENDMDL
MODEL 9
REMARK VINA RESULT:    -3.521     12.733     15.838
REMARK INTER + INTRA:         -10.918
REMARK INTER:                  -7.260
REMARK INTRA:                  -3.658
REMARK UNBOUND:                -3.280
REMARK SMILES CCCCCCCCCCCCCCCCCCCCCC(=O)[O-]
REMARK SMILES IDX 12 1 11 2 10 3 9 4 8 5 7 6 6 7 5 8 4 9 3 10 2 11 1 12 13 13
REMARK SMILES IDX 14 14 15 15 16 16 17 17 18 18 19 19 20 20 21 21 22 22 23 23
REMARK SMILES IDX 24 24
REMARK H PARENT
REMARK Flexibility Score: inf
ROOT
ATOM      1  C   UNL     1      19.994 -11.561  33.404  1.00  0.00     0.000 C 
ENDROOT
BRANCH   1   2
ATOM      2  C   UNL     1      18.470 -11.639  33.605  1.00  0.00     0.000 C 
BRANCH   2   3
ATOM      3  C   UNL     1      17.722 -10.300  33.445  1.00  0.00     0.000 C 
BRANCH   3   4
ATOM      4  C   UNL     1      17.422  -9.892  31.991  1.00  0.00    -0.000 C 
BRANCH   4   5
ATOM      5  C   UNL     1      17.958  -8.492  31.644  1.00  0.00    -0.000 C 
BRANCH   5   6
ATOM      6  C   UNL     1      18.728  -7.847  32.806  1.00  0.00    -0.000 C 
BRANCH   6   7
ATOM      7  C   UNL     1      20.251  -7.879  32.591  1.00  0.00    -0.000 C 
BRANCH   7   8
ATOM      8  C   UNL     1      21.034  -7.908  33.914  1.00  0.00    -0.000 C 
BRANCH   8   9
ATOM      9  C   UNL     1      20.433  -6.968  34.975  1.00  0.00    -0.000 C 
BRANCH   9  10
ATOM     10  C   UNL     1      19.991  -7.717  36.244  1.00  0.00    -0.000 C 
BRANCH  10  11
ATOM     11  C   UNL     1      20.217  -9.232  36.147  1.00  0.00    -0.003 C 
ATOM     12  C   UNL     1      20.616  -9.815  37.499  1.00  0.00     0.004 C 
ENDBRANCH  10  11
ENDBRANCH   9  10
ENDBRANCH   8   9
ENDBRANCH   7   8
ENDBRANCH   6   7
ENDBRANCH   5   6
ENDBRANCH   4   5
ENDBRANCH   3   4
ENDBRANCH   2   3
ENDBRANCH   1   2
BRANCH   1  13
ATOM     13  C   UNL     1      20.570 -12.804  32.710  1.00  0.00     0.000 C 
BRANCH  13  14
ATOM     14  C   UNL     1      21.148 -12.444  31.334  1.00  0.00     0.000 C 
BRANCH  14  15
ATOM     15  C   UNL     1      20.761 -11.026  30.884  1.00  0.00     0.000 C 
BRANCH  15  16
ATOM     16  C   UNL     1      20.754 -10.879  29.353  1.00  0.00     0.000 C 
BRANCH  16  17
ATOM     17  C   UNL     1      19.402 -10.386  28.805  1.00  0.00     0.000 C 
BRANCH  17  18
ATOM     18  C   UNL     1      19.370  -8.905  28.381  1.00  0.00     0.000 C 
BRANCH  18  19
ATOM     19  C   UNL     1      20.710  -8.154  28.513  1.00  0.00     0.000 C 
BRANCH  19  20
ATOM     20  C   UNL     1      20.641  -6.640  28.229  1.00  0.00     0.006 C 
BRANCH  20  21
ATOM     21  C   UNL     1      21.059  -5.752  29.411  1.00  0.00     0.053 C 
BRANCH  21  22
ATOM     22  C   UNL     1      19.877  -5.201  30.147  1.00  0.00     0.041 C 
ATOM     23  O   UNL     1      20.047  -4.473  31.161  1.00  0.00    -0.550 OA
ATOM     24  O   UNL     1      18.589  -5.516  29.734  1.00  0.00    -0.550 OA
ENDBRANCH  21  22
ENDBRANCH  20  21
ENDBRANCH  19  20
ENDBRANCH  18  19
ENDBRANCH  17  18
ENDBRANCH  16  17
ENDBRANCH  15  16
ENDBRANCH  14  15
ENDBRANCH  13  14
ENDBRANCH   1  13
TORSDOF 20
ENDMDL
