MODEL 1
REMARK VINA RESULT:    -2.743      0.000      0.000
REMARK INTER + INTRA:          -2.983
REMARK INTER:                  -2.983
REMARK INTRA:                   0.000
REMARK UNBOUND:                 0.000
REMARK SMILES [NH3+]CC(=O)[O-]
REMARK SMILES IDX 2 1 1 2 3 6 4 7 5 8
REMARK H PARENT 1 3 1 4 1 5
REMARK Flexibility Score: inf
ROOT
ATOM      1  C   UNL     1       0.219  54.483   4.521  1.00  0.00     0.312 C 
ENDROOT
BRANCH   1   2
ATOM      2  N   UNL     1      -1.046  55.139   4.194  1.00  0.00    -0.353 N 
ATOM      3  H   UNL     1      -1.831  54.604   4.632  1.00  0.00     0.344 HD
ATOM      4  H   UNL     1      -1.050  56.115   4.569  1.00  0.00     0.344 HD
ATOM      5  H   UNL     1      -1.184  55.156   3.158  1.00  0.00     0.344 HD
ENDBRANCH   1   2
BRANCH   1   6
ATOM      6  C   UNL     1       0.277  53.115   3.913  1.00  0.00     0.096 C 
ATOM      7  O   UNL     1      -0.602  52.260   4.194  1.00  0.00    -0.544 OA
ATOM      8  O   UNL     1       1.330  52.771   3.075  1.00  0.00    -0.544 OA
ENDBRANCH   1   6
TORSDOF 2
ENDMDL
MODEL 2
REMARK VINA RESULT:    -2.729      0.087      1.451
REMARK INTER + INTRA:          -2.969
REMARK INTER:                  -2.969
REMARK INTRA:                   0.000
REMARK UNBOUND:                 0.000
REMARK SMILES [NH3+]CC(=O)[O-]
REMARK SMILES IDX 2 1 1 2 3 6 4 7 5 8
REMARK H PARENT 1 3 1 4 1 5
REMARK Flexibility Score: inf
ROOT
ATOM      1  C   UNL     1       0.236  54.534   4.510  1.00  0.00     0.312 C 
ENDROOT
BRANCH   1   2
ATOM      2  N   UNL     1      -1.049  55.155   4.192  1.00  0.00    -0.353 N 
ATOM      3  H   UNL     1      -1.484  54.648   3.389  1.00  0.00     0.344 HD
ATOM      4  H   UNL     1      -1.688  55.097   5.018  1.00  0.00     0.344 HD
ATOM      5  H   UNL     1      -0.907  56.156   3.925  1.00  0.00     0.344 HD
ENDBRANCH   1   2
BRANCH   1   6
ATOM      6  C   UNL     1       0.307  53.148   3.946  1.00  0.00     0.096 C 
ATOM      7  O   UNL     1       1.229  52.838   3.146  1.00  0.00    -0.544 OA
ATOM      8  O   UNL     1      -0.673  52.217   4.264  1.00  0.00    -0.544 OA
ENDBRANCH   1   6
TORSDOF 2
ENDMDL
MODEL 3
REMARK VINA RESULT:    -2.719      1.583      1.832
REMARK INTER + INTRA:          -2.957
REMARK INTER:                  -2.957
REMARK INTRA:                   0.000
REMARK UNBOUND:                 0.000
REMARK SMILES [NH3+]CC(=O)[O-]
REMARK SMILES IDX 2 1 1 2 3 6 4 7 5 8
REMARK H PARENT 1 3 1 4 1 5
REMARK Flexibility Score: inf
ROOT
ATOM      1  C   UNL     1      -1.104  54.200   4.776  1.00  0.00     0.312 C 
ENDROOT
BRANCH   1   2
ATOM      2  N   UNL     1      -1.775  55.438   4.382  1.00  0.00    -0.353 N 
ATOM      3  H   UNL     1      -2.249  55.292   3.462  1.00  0.00     0.344 HD
ATOM      4  H   UNL     1      -2.492  55.700   5.097  1.00  0.00     0.344 HD
ATOM      5  H   UNL     1      -1.075  56.209   4.284  1.00  0.00     0.344 HD
ENDBRANCH   1   2
BRANCH   1   6
ATOM      6  C   UNL     1       0.353  54.256   4.435  1.00  0.00     0.096 C 
ATOM      7  O   UNL     1       1.060  55.217   4.838  1.00  0.00    -0.544 OA
ATOM      8  O   UNL     1       0.918  53.274   3.631  1.00  0.00    -0.544 OA
ENDBRANCH   1   6
TORSDOF 2
ENDMDL
MODEL 4
REMARK VINA RESULT:    -2.692      2.506      2.852
REMARK INTER + INTRA:          -2.928
REMARK INTER:                  -2.928
REMARK INTRA:                   0.000
REMARK UNBOUND:                 0.000
REMARK SMILES [NH3+]CC(=O)[O-]
REMARK SMILES IDX 2 1 1 2 3 6 4 7 5 8
REMARK H PARENT 1 3 1 4 1 5
REMARK Flexibility Score: inf
ROOT
ATOM      1  C   UNL     1      -1.420  51.957   4.894  1.00  0.00     0.312 C 
ENDROOT
BRANCH   1   2
ATOM      2  N   UNL     1      -1.294  50.685   4.185  1.00  0.00    -0.353 N 
ATOM      3  H   UNL     1      -2.085  50.060   4.462  1.00  0.00     0.344 HD
ATOM      4  H   UNL     1      -1.333  50.845   3.152  1.00  0.00     0.344 HD
ATOM      5  H   UNL     1      -0.391  50.221   4.437  1.00  0.00     0.344 HD
ENDBRANCH   1   2
BRANCH   1   6
ATOM      6  C   UNL     1      -0.550  53.001   4.264  1.00  0.00     0.096 C 
ATOM      7  O   UNL     1       0.516  52.669   3.682  1.00  0.00    -0.544 OA
ATOM      8  O   UNL     1      -0.891  54.344   4.365  1.00  0.00    -0.544 OA
ENDBRANCH   1   6
TORSDOF 2
ENDMDL
MODEL 5
REMARK VINA RESULT:    -2.571      1.565      1.912
REMARK INTER + INTRA:          -2.797
REMARK INTER:                  -2.797
REMARK INTRA:                   0.000
REMARK UNBOUND:                 0.000
REMARK SMILES [NH3+]CC(=O)[O-]
REMARK SMILES IDX 2 1 1 2 3 6 4 7 5 8
REMARK H PARENT 1 3 1 4 1 5
REMARK Flexibility Score: inf
ROOT
ATOM      1  C   UNL     1      -0.233  53.793   4.151  1.00  0.00     0.312 C 
ENDROOT
BRANCH   1   2
ATOM      2  N   UNL     1      -0.960  55.061   4.163  1.00  0.00    -0.353 N 
ATOM      3  H   UNL     1      -0.277  55.847   4.075  1.00  0.00     0.344 HD
ATOM      4  H   UNL     1      -1.627  55.099   3.358  1.00  0.00     0.344 HD
ATOM      5  H   UNL     1      -1.484  55.166   5.062  1.00  0.00     0.344 HD
ENDBRANCH   1   2
BRANCH   1   6
ATOM      6  C   UNL     1      -0.935  52.773   4.995  1.00  0.00     0.096 C 
ATOM      7  O   UNL     1      -1.342  53.077   6.146  1.00  0.00    -0.544 OA
ATOM      8  O   UNL     1      -1.095  51.475   4.527  1.00  0.00    -0.544 OA
ENDBRANCH   1   6
TORSDOF 2
ENDMDL
MODEL 6
REMARK VINA RESULT:    -2.537      2.330      2.465
REMARK INTER + INTRA:          -2.760
REMARK INTER:                  -2.760
REMARK INTRA:                   0.000
REMARK UNBOUND:                 0.000
REMARK SMILES [NH3+]CC(=O)[O-]
REMARK SMILES IDX 2 1 1 2 3 6 4 7 5 8
REMARK H PARENT 1 3 1 4 1 5
REMARK Flexibility Score: inf
ROOT
ATOM      1  C   UNL     1       0.789  53.324   3.770  1.00  0.00     0.312 C 
ENDROOT
BRANCH   1   2
ATOM      2  N   UNL     1       1.388  52.213   3.031  1.00  0.00    -0.353 N 
ATOM      3  H   UNL     1       0.700  51.427   2.980  1.00  0.00     0.344 HD
ATOM      4  H   UNL     1       1.629  52.518   2.060  1.00  0.00     0.344 HD
ATOM      5  H   UNL     1       2.249  51.880   3.521  1.00  0.00     0.344 HD
ENDBRANCH   1   2
BRANCH   1   6
ATOM      6  C   UNL     1      -0.548  52.933   4.321  1.00  0.00     0.096 C 
ATOM      7  O   UNL     1      -1.352  53.817   4.717  1.00  0.00    -0.544 OA
ATOM      8  O   UNL     1      -0.884  51.591   4.442  1.00  0.00    -0.544 OA
ENDBRANCH   1   6
TORSDOF 2
ENDMDL
MODEL 7
REMARK VINA RESULT:    -2.514      2.353      2.678
REMARK INTER + INTRA:          -2.734
REMARK INTER:                  -2.734
REMARK INTRA:                   0.000
REMARK UNBOUND:                 0.000
REMARK SMILES [NH3+]CC(=O)[O-]
REMARK SMILES IDX 2 1 1 2 3 6 4 7 5 8
REMARK H PARENT 1 3 1 4 1 5
REMARK Flexibility Score: inf
ROOT
ATOM      1  C   UNL     1       0.134  54.008   4.149  1.00  0.00     0.312 C 
ENDROOT
BRANCH   1   2
ATOM      2  N   UNL     1      -0.152  53.121   3.022  1.00  0.00    -0.353 N 
ATOM      3  H   UNL     1       0.463  52.277   3.088  1.00  0.00     0.344 HD
ATOM      4  H   UNL     1      -1.152  52.816   3.051  1.00  0.00     0.344 HD
ATOM      5  H   UNL     1       0.042  53.612   2.120  1.00  0.00     0.344 HD
ENDBRANCH   1   2
BRANCH   1   6
ATOM      6  C   UNL     1      -1.131  54.389   4.855  1.00  0.00     0.096 C 
ATOM      7  O   UNL     1      -1.970  53.505   5.171  1.00  0.00    -0.544 OA
ATOM      8  O   UNL     1      -1.405  55.725   5.119  1.00  0.00    -0.544 OA
ENDBRANCH   1   6
TORSDOF 2
ENDMDL
MODEL 8
REMARK VINA RESULT:    -2.500      3.332      3.533
REMARK INTER + INTRA:          -2.719
REMARK INTER:                  -2.719
REMARK INTRA:                   0.000
REMARK UNBOUND:                 0.000
REMARK SMILES [NH3+]CC(=O)[O-]
REMARK SMILES IDX 2 1 1 2 3 6 4 7 5 8
REMARK H PARENT 1 3 1 4 1 5
REMARK Flexibility Score: inf
ROOT
ATOM      1  C   UNL     1      -0.991  52.186   4.461  1.00  0.00     0.312 C 
ENDROOT
BRANCH   1   2
ATOM      2  N   UNL     1      -1.415  50.790   4.355  1.00  0.00    -0.353 N 
ATOM      3  H   UNL     1      -2.408  50.759   4.032  1.00  0.00     0.344 HD
ATOM      4  H   UNL     1      -0.815  50.286   3.661  1.00  0.00     0.344 HD
ATOM      5  H   UNL     1      -1.346  50.323   5.288  1.00  0.00     0.344 HD
ENDBRANCH   1   2
BRANCH   1   6
ATOM      6  C   UNL     1      -1.559  52.818   5.695  1.00  0.00     0.096 C 
ATOM      7  O   UNL     1      -2.112  53.947   5.629  1.00  0.00    -0.544 OA
ATOM      8  O   UNL     1      -1.432  52.182   6.923  1.00  0.00    -0.544 OA
ENDBRANCH   1   6
TORSDOF 2
ENDMDL
MODEL 9
REMARK VINA RESULT:    -2.420      2.341      2.809
REMARK INTER + INTRA:          -2.632
REMARK INTER:                  -2.632
REMARK INTRA:                   0.000
REMARK UNBOUND:                 0.000
REMARK SMILES [NH3+]CC(=O)[O-]
REMARK SMILES IDX 2 1 1 2 3 6 4 7 5 8
REMARK H PARENT 1 3 1 4 1 5
REMARK Flexibility Score: inf
ROOT
ATOM      1  C   UNL     1      -1.226  55.548   5.699  1.00  0.00     0.312 C 
ENDROOT
BRANCH   1   2
ATOM      2  N   UNL     1      -1.563  55.400   4.284  1.00  0.00    -0.353 N 
ATOM      3  H   UNL     1      -2.194  56.183   3.999  1.00  0.00     0.344 HD
ATOM      4  H   UNL     1      -0.694  55.435   3.703  1.00  0.00     0.344 HD
ATOM      5  H   UNL     1      -2.058  54.492   4.126  1.00  0.00     0.344 HD
ENDBRANCH   1   2
BRANCH   1   6
ATOM      6  C   UNL     1      -0.930  54.215   6.314  1.00  0.00     0.096 C 
ATOM      7  O   UNL     1      -0.600  54.137   7.526  1.00  0.00    -0.544 OA
ATOM      8  O   UNL     1      -0.971  53.065   5.536  1.00  0.00    -0.544 OA
ENDBRANCH   1   6
TORSDOF 2
ENDMDL
