MODEL 1
REMARK VINA RESULT:    -3.730      0.000      0.000
REMARK INTER + INTRA:          -6.815
REMARK INTER:                  -5.910
REMARK INTRA:                  -0.905
REMARK UNBOUND:                -0.905
REMARK SMILES CCCCCCCCCCCC(=O)[O-]
REMARK SMILES IDX 7 1 8 2 9 3 10 4 11 5 12 6 13 7 14 8 6 9 5 10 4 11 3 12 2 13
REMARK SMILES IDX 1 14
REMARK H PARENT
REMARK Flexibility Score: inf
ROOT
ATOM      1  C   UNL     1     -15.431 -16.496   6.032  1.00  0.00     0.000 C 
ENDROOT
BRANCH   1   2
ATOM      2  C   UNL     1     -15.061 -16.205   4.569  1.00  0.00     0.000 C 
BRANCH   2   3
ATOM      3  C   UNL     1     -14.162 -14.964   4.424  1.00  0.00     0.000 C 
BRANCH   3   4
ATOM      4  C   UNL     1     -14.570 -13.826   5.373  1.00  0.00     0.006 C 
BRANCH   4   5
ATOM      5  C   UNL     1     -13.390 -12.921   5.749  1.00  0.00     0.053 C 
BRANCH   5   6
ATOM      6  C   UNL     1     -13.225 -11.832   4.736  1.00  0.00     0.041 C 
ATOM      7  O   UNL     1     -12.316 -11.906   3.867  1.00  0.00    -0.550 OA
ATOM      8  O   UNL     1     -14.105 -10.758   4.721  1.00  0.00    -0.550 OA
ENDBRANCH   5   6
ENDBRANCH   4   5
ENDBRANCH   3   4
ENDBRANCH   2   3
ENDBRANCH   1   2
BRANCH   1   9
ATOM      9  C   UNL     1     -15.376 -17.997   6.367  1.00  0.00     0.000 C 
BRANCH   9  10
ATOM     10  C   UNL     1     -13.938 -18.514   6.528  1.00  0.00    -0.000 C 
BRANCH  10  11
ATOM     11  C   UNL     1     -13.675 -19.793   5.720  1.00  0.00    -0.000 C 
BRANCH  11  12
ATOM     12  C   UNL     1     -12.759 -19.507   4.524  1.00  0.00    -0.000 C 
BRANCH  12  13
ATOM     13  C   UNL     1     -11.955 -18.220   4.741  1.00  0.00    -0.003 C 
ATOM     14  C   UNL     1     -10.545 -18.528   5.235  1.00  0.00     0.004 C 
ENDBRANCH  12  13
ENDBRANCH  11  12
ENDBRANCH  10  11
ENDBRANCH   9  10
ENDBRANCH   1   9
TORSDOF 10
ENDMDL
MODEL 2
REMARK VINA RESULT:    -3.536     19.215     20.868
REMARK INTER + INTRA:          -6.509
REMARK INTER:                  -6.042
REMARK INTRA:                  -0.467
REMARK UNBOUND:                -0.905
REMARK SMILES CCCCCCCCCCCC(=O)[O-]
REMARK SMILES IDX 7 1 8 2 9 3 10 4 11 5 12 6 13 7 14 8 6 9 5 10 4 11 3 12 2 13
REMARK SMILES IDX 1 14
REMARK H PARENT
REMARK Flexibility Score: inf
ROOT
ATOM      1  C   UNL     1      -2.338  -7.517  19.632  1.00  0.00     0.000 C 
ENDROOT
BRANCH   1   2
ATOM      2  C   UNL     1      -1.536  -6.207  19.666  1.00  0.00     0.000 C 
BRANCH   2   3
ATOM      3  C   UNL     1      -0.703  -6.060  20.951  1.00  0.00     0.000 C 
BRANCH   3   4
ATOM      4  C   UNL     1       0.335  -4.929  20.856  1.00  0.00     0.006 C 
BRANCH   4   5
ATOM      5  C   UNL     1       1.776  -5.443  20.955  1.00  0.00     0.053 C 
BRANCH   5   6
ATOM      6  C   UNL     1       2.381  -5.566  19.591  1.00  0.00     0.041 C 
ATOM      7  O   UNL     1       3.387  -6.301  19.408  1.00  0.00    -0.550 OA
ATOM      8  O   UNL     1       1.803  -4.908  18.514  1.00  0.00    -0.550 OA
ENDBRANCH   5   6
ENDBRANCH   4   5
ENDBRANCH   3   4
ENDBRANCH   2   3
ENDBRANCH   1   2
BRANCH   1   9
ATOM      9  C   UNL     1      -3.087  -7.716  18.302  1.00  0.00     0.000 C 
BRANCH   9  10
ATOM     10  C   UNL     1      -4.473  -8.352  18.495  1.00  0.00    -0.000 C 
BRANCH  10  11
ATOM     11  C   UNL     1      -4.495  -9.391  19.625  1.00  0.00    -0.000 C 
BRANCH  11  12
ATOM     12  C   UNL     1      -5.873 -10.052  19.737  1.00  0.00    -0.000 C 
BRANCH  12  13
ATOM     13  C   UNL     1      -6.888  -9.370  18.812  1.00  0.00    -0.003 C 
ATOM     14  C   UNL     1      -8.262 -10.023  18.924  1.00  0.00     0.004 C 
ENDBRANCH  12  13
ENDBRANCH  11  12
ENDBRANCH  10  11
ENDBRANCH   9  10
ENDBRANCH   1   9
TORSDOF 10
ENDMDL
MODEL 3
REMARK VINA RESULT:    -3.475      3.226      6.043
REMARK INTER + INTRA:          -6.412
REMARK INTER:                  -5.366
REMARK INTRA:                  -1.046
REMARK UNBOUND:                -0.905
REMARK SMILES CCCCCCCCCCCC(=O)[O-]
REMARK SMILES IDX 7 1 8 2 9 3 10 4 11 5 12 6 13 7 14 8 6 9 5 10 4 11 3 12 2 13
REMARK SMILES IDX 1 14
REMARK H PARENT
REMARK Flexibility Score: inf
ROOT
ATOM      1  C   UNL     1     -14.867 -13.331   5.374  1.00  0.00     0.000 C 
ENDROOT
BRANCH   1   2
ATOM      2  C   UNL     1     -14.991 -14.862   5.386  1.00  0.00     0.000 C 
BRANCH   2   3
ATOM      3  C   UNL     1     -14.126 -15.532   4.304  1.00  0.00     0.000 C 
BRANCH   3   4
ATOM      4  C   UNL     1     -14.120 -17.065   4.418  1.00  0.00     0.006 C 
BRANCH   4   5
ATOM      5  C   UNL     1     -12.814 -17.687   3.909  1.00  0.00     0.053 C 
BRANCH   5   6
ATOM      6  C   UNL     1     -12.171 -18.504   4.986  1.00  0.00     0.041 C 
ATOM      7  O   UNL     1     -12.878 -19.212   5.751  1.00  0.00    -0.550 OA
ATOM      8  O   UNL     1     -10.789 -18.522   5.114  1.00  0.00    -0.550 OA
ENDBRANCH   5   6
ENDBRANCH   4   5
ENDBRANCH   3   4
ENDBRANCH   2   3
ENDBRANCH   1   2
BRANCH   1   9
ATOM      9  C   UNL     1     -13.408 -12.856   5.498  1.00  0.00     0.000 C 
BRANCH   9  10
ATOM     10  C   UNL     1     -12.998 -11.905   4.362  1.00  0.00    -0.000 C 
BRANCH  10  11
ATOM     11  C   UNL     1     -14.043 -11.842   3.239  1.00  0.00    -0.000 C 
BRANCH  11  12
ATOM     12  C   UNL     1     -13.390 -12.062   1.869  1.00  0.00    -0.000 C 
BRANCH  12  13
ATOM     13  C   UNL     1     -12.266 -13.101   1.956  1.00  0.00    -0.003 C 
ATOM     14  C   UNL     1     -12.600 -14.344   1.137  1.00  0.00     0.004 C 
ENDBRANCH  12  13
ENDBRANCH  11  12
ENDBRANCH  10  11
ENDBRANCH   9  10
ENDBRANCH   1   9
TORSDOF 10
ENDMDL
MODEL 4
REMARK VINA RESULT:    -3.475      3.371      6.453
REMARK INTER + INTRA:          -6.412
REMARK INTER:                  -5.479
REMARK INTRA:                  -0.933
REMARK UNBOUND:                -0.905
REMARK SMILES CCCCCCCCCCCC(=O)[O-]
REMARK SMILES IDX 7 1 8 2 9 3 10 4 11 5 12 6 13 7 14 8 6 9 5 10 4 11 3 12 2 13
REMARK SMILES IDX 1 14
REMARK H PARENT
REMARK Flexibility Score: inf
ROOT
ATOM      1  C   UNL     1     -12.711 -14.134   1.211  1.00  0.00     0.000 C 
ENDROOT
BRANCH   1   2
ATOM      2  C   UNL     1     -13.606 -14.931   2.174  1.00  0.00     0.000 C 
BRANCH   2   3
ATOM      3  C   UNL     1     -13.300 -16.438   2.151  1.00  0.00     0.000 C 
BRANCH   3   4
ATOM      4  C   UNL     1     -13.347 -17.071   3.551  1.00  0.00     0.006 C 
BRANCH   4   5
ATOM      5  C   UNL     1     -12.627 -18.424   3.610  1.00  0.00     0.053 C 
BRANCH   5   6
ATOM      6  C   UNL     1     -12.075 -18.662   4.981  1.00  0.00     0.041 C 
ATOM      7  O   UNL     1     -12.825 -19.082   5.902  1.00  0.00    -0.550 OA
ATOM      8  O   UNL     1     -10.724 -18.467   5.229  1.00  0.00    -0.550 OA
ENDBRANCH   5   6
ENDBRANCH   4   5
ENDBRANCH   3   4
ENDBRANCH   2   3
ENDBRANCH   1   2
BRANCH   1   9
ATOM      9  C   UNL     1     -12.296 -12.768   1.786  1.00  0.00     0.000 C 
BRANCH   9  10
ATOM     10  C   UNL     1     -13.305 -12.227   2.811  1.00  0.00    -0.000 C 
BRANCH  10  11
ATOM     11  C   UNL     1     -12.637 -11.782   4.120  1.00  0.00    -0.000 C 
BRANCH  11  12
ATOM     12  C   UNL     1     -13.252 -12.505   5.324  1.00  0.00    -0.000 C 
BRANCH  12  13
ATOM     13  C   UNL     1     -14.719 -12.866   5.059  1.00  0.00    -0.003 C 
ATOM     14  C   UNL     1     -15.008 -14.314   5.442  1.00  0.00     0.004 C 
ENDBRANCH  12  13
ENDBRANCH  11  12
ENDBRANCH  10  11
ENDBRANCH   9  10
ENDBRANCH   1   9
TORSDOF 10
ENDMDL
MODEL 5
REMARK VINA RESULT:    -3.452      1.284      1.832
REMARK INTER + INTRA:          -6.375
REMARK INTER:                  -5.418
REMARK INTRA:                  -0.958
REMARK UNBOUND:                -0.905
REMARK SMILES CCCCCCCCCCCC(=O)[O-]
REMARK SMILES IDX 7 1 8 2 9 3 10 4 11 5 12 6 13 7 14 8 6 9 5 10 4 11 3 12 2 13
REMARK SMILES IDX 1 14
REMARK H PARENT
REMARK Flexibility Score: inf
ROOT
ATOM      1  C   UNL     1     -14.424 -15.403   4.806  1.00  0.00     0.000 C 
ENDROOT
BRANCH   1   2
ATOM      2  C   UNL     1     -14.032 -16.036   3.462  1.00  0.00     0.000 C 
BRANCH   2   3
ATOM      3  C   UNL     1     -13.476 -15.005   2.465  1.00  0.00     0.000 C 
BRANCH   3   4
ATOM      4  C   UNL     1     -13.907 -13.568   2.799  1.00  0.00     0.006 C 
BRANCH   4   5
ATOM      5  C   UNL     1     -12.727 -12.590   2.823  1.00  0.00     0.053 C 
BRANCH   5   6
ATOM      6  C   UNL     1     -12.812 -11.699   4.023  1.00  0.00     0.041 C 
ATOM      7  O   UNL     1     -13.009 -10.463   3.883  1.00  0.00    -0.550 OA
ATOM      8  O   UNL     1     -12.722 -12.242   5.298  1.00  0.00    -0.550 OA
ENDBRANCH   5   6
ENDBRANCH   4   5
ENDBRANCH   3   4
ENDBRANCH   2   3
ENDBRANCH   1   2
BRANCH   1   9
ATOM      9  C   UNL     1     -15.287 -16.340   5.671  1.00  0.00     0.000 C 
BRANCH   9  10
ATOM     10  C   UNL     1     -15.065 -17.823   5.335  1.00  0.00    -0.000 C 
BRANCH  10  11
ATOM     11  C   UNL     1     -14.123 -18.519   6.328  1.00  0.00    -0.000 C 
BRANCH  11  12
ATOM     12  C   UNL     1     -13.447 -19.735   5.683  1.00  0.00    -0.000 C 
BRANCH  12  13
ATOM     13  C   UNL     1     -12.539 -19.310   4.523  1.00  0.00    -0.003 C 
ATOM     14  C   UNL     1     -11.339 -18.514   5.025  1.00  0.00     0.004 C 
ENDBRANCH  12  13
ENDBRANCH  11  12
ENDBRANCH  10  11
ENDBRANCH   9  10
ENDBRANCH   1   9
TORSDOF 10
ENDMDL
MODEL 6
REMARK VINA RESULT:    -3.431      1.241      1.700
REMARK INTER + INTRA:          -6.342
REMARK INTER:                  -5.705
REMARK INTRA:                  -0.636
REMARK UNBOUND:                -0.905
REMARK SMILES CCCCCCCCCCCC(=O)[O-]
REMARK SMILES IDX 7 1 8 2 9 3 10 4 11 5 12 6 13 7 14 8 6 9 5 10 4 11 3 12 2 13
REMARK SMILES IDX 1 14
REMARK H PARENT
REMARK Flexibility Score: inf
ROOT
ATOM      1  C   UNL     1     -14.989 -15.899   5.186  1.00  0.00     0.000 C 
ENDROOT
BRANCH   1   2
ATOM      2  C   UNL     1     -15.140 -14.373   5.286  1.00  0.00     0.000 C 
BRANCH   2   3
ATOM      3  C   UNL     1     -13.784 -13.649   5.351  1.00  0.00     0.000 C 
BRANCH   3   4
ATOM      4  C   UNL     1     -13.901 -12.147   5.044  1.00  0.00     0.006 C 
BRANCH   4   5
ATOM      5  C   UNL     1     -12.827 -11.661   4.064  1.00  0.00     0.053 C 
BRANCH   5   6
ATOM      6  C   UNL     1     -13.030 -12.283   2.718  1.00  0.00     0.041 C 
ATOM      7  O   UNL     1     -12.086 -12.899   2.156  1.00  0.00    -0.550 OA
ATOM      8  O   UNL     1     -14.275 -12.225   2.106  1.00  0.00    -0.550 OA
ENDBRANCH   5   6
ENDBRANCH   4   5
ENDBRANCH   3   4
ENDBRANCH   2   3
ENDBRANCH   1   2
BRANCH   1   9
ATOM      9  C   UNL     1     -15.718 -16.640   6.320  1.00  0.00     0.000 C 
BRANCH   9  10
ATOM     10  C   UNL     1     -15.004 -17.937   6.732  1.00  0.00    -0.000 C 
BRANCH  10  11
ATOM     11  C   UNL     1     -14.561 -18.777   5.526  1.00  0.00    -0.000 C 
BRANCH  11  12
ATOM     12  C   UNL     1     -13.121 -19.273   5.702  1.00  0.00    -0.000 C 
BRANCH  12  13
ATOM     13  C   UNL     1     -12.180 -18.599   4.696  1.00  0.00    -0.003 C 
ATOM     14  C   UNL     1     -10.770 -18.468   5.264  1.00  0.00     0.004 C 
ENDBRANCH  12  13
ENDBRANCH  11  12
ENDBRANCH  10  11
ENDBRANCH   9  10
ENDBRANCH   1   9
TORSDOF 10
ENDMDL
MODEL 7
REMARK VINA RESULT:    -3.415      2.756      5.646
REMARK INTER + INTRA:          -6.316
REMARK INTER:                  -5.581
REMARK INTRA:                  -0.735
REMARK UNBOUND:                -0.905
REMARK SMILES CCCCCCCCCCCC(=O)[O-]
REMARK SMILES IDX 7 1 8 2 9 3 10 4 11 5 12 6 13 7 14 8 6 9 5 10 4 11 3 12 2 13
REMARK SMILES IDX 1 14
REMARK H PARENT
REMARK Flexibility Score: inf
ROOT
ATOM      1  C   UNL     1     -16.013 -16.064   6.224  1.00  0.00     0.000 C 
ENDROOT
BRANCH   1   2
ATOM      2  C   UNL     1     -15.971 -17.438   6.912  1.00  0.00     0.000 C 
BRANCH   2   3
ATOM      3  C   UNL     1     -15.314 -18.517   6.034  1.00  0.00     0.000 C 
BRANCH   3   4
ATOM      4  C   UNL     1     -13.842 -18.763   6.403  1.00  0.00     0.006 C 
BRANCH   4   5
ATOM      5  C   UNL     1     -13.097 -19.579   5.340  1.00  0.00     0.053 C 
BRANCH   5   6
ATOM      6  C   UNL     1     -12.093 -18.721   4.634  1.00  0.00     0.041 C 
ATOM      7  O   UNL     1     -12.380 -18.190   3.528  1.00  0.00    -0.550 OA
ATOM      8  O   UNL     1     -10.860 -18.469   5.220  1.00  0.00    -0.550 OA
ENDBRANCH   5   6
ENDBRANCH   4   5
ENDBRANCH   3   4
ENDBRANCH   2   3
ENDBRANCH   1   2
BRANCH   1   9
ATOM      9  C   UNL     1     -15.552 -16.125   4.756  1.00  0.00     0.000 C 
BRANCH   9  10
ATOM     10  C   UNL     1     -14.248 -15.348   4.515  1.00  0.00    -0.000 C 
BRANCH  10  11
ATOM     11  C   UNL     1     -14.472 -13.833   4.419  1.00  0.00    -0.000 C 
BRANCH  11  12
ATOM     12  C   UNL     1     -13.724 -13.096   5.536  1.00  0.00    -0.000 C 
BRANCH  12  13
ATOM     13  C   UNL     1     -12.934 -11.906   4.979  1.00  0.00    -0.003 C 
ATOM     14  C   UNL     1     -12.737 -12.033   3.471  1.00  0.00     0.004 C 
ENDBRANCH  12  13
ENDBRANCH  11  12
ENDBRANCH  10  11
ENDBRANCH   9  10
ENDBRANCH   1   9
TORSDOF 10
ENDMDL
MODEL 8
REMARK VINA RESULT:    -3.285      3.529      6.590
REMARK INTER + INTRA:          -6.111
REMARK INTER:                  -5.029
REMARK INTRA:                  -1.082
REMARK UNBOUND:                -0.905
REMARK SMILES CCCCCCCCCCCC(=O)[O-]
REMARK SMILES IDX 7 1 8 2 9 3 10 4 11 5 12 6 13 7 14 8 6 9 5 10 4 11 3 12 2 13
REMARK SMILES IDX 1 14
REMARK H PARENT
REMARK Flexibility Score: inf
ROOT
ATOM      1  C   UNL     1     -13.146 -14.942   1.839  1.00  0.00     0.000 C 
ENDROOT
BRANCH   1   2
ATOM      2  C   UNL     1     -14.277 -15.212   2.843  1.00  0.00     0.000 C 
BRANCH   2   3
ATOM      3  C   UNL     1     -13.817 -16.073   4.032  1.00  0.00     0.000 C 
BRANCH   3   4
ATOM      4  C   UNL     1     -13.427 -17.499   3.612  1.00  0.00     0.006 C 
BRANCH   4   5
ATOM      5  C   UNL     1     -12.469 -18.165   4.608  1.00  0.00     0.053 C 
BRANCH   5   6
ATOM      6  C   UNL     1     -13.207 -19.148   5.463  1.00  0.00     0.041 C 
ATOM      7  O   UNL     1     -13.853 -18.753   6.470  1.00  0.00    -0.550 OA
ATOM      8  O   UNL     1     -13.221 -20.493   5.119  1.00  0.00    -0.550 OA
ENDBRANCH   5   6
ENDBRANCH   4   5
ENDBRANCH   3   4
ENDBRANCH   2   3
ENDBRANCH   1   2
BRANCH   1   9
ATOM      9  C   UNL     1     -12.657 -13.483   1.879  1.00  0.00     0.000 C 
BRANCH   9  10
ATOM     10  C   UNL     1     -13.815 -12.472   1.881  1.00  0.00    -0.000 C 
BRANCH  10  11
ATOM     11  C   UNL     1     -13.869 -11.637   3.168  1.00  0.00    -0.000 C 
BRANCH  11  12
ATOM     12  C   UNL     1     -12.600 -11.836   4.005  1.00  0.00    -0.000 C 
BRANCH  12  13
ATOM     13  C   UNL     1     -12.936 -12.398   5.391  1.00  0.00    -0.003 C 
ATOM     14  C   UNL     1     -14.434 -12.643   5.539  1.00  0.00     0.004 C 
ENDBRANCH  12  13
ENDBRANCH  11  12
ENDBRANCH  10  11
ENDBRANCH   9  10
ENDBRANCH   1   9
TORSDOF 10
ENDMDL
MODEL 9
REMARK VINA RESULT:    -3.285      3.126      5.883
REMARK INTER + INTRA:          -6.111
REMARK INTER:                  -5.035
REMARK INTRA:                  -1.075
REMARK UNBOUND:                -0.905
REMARK SMILES CCCCCCCCCCCC(=O)[O-]
REMARK SMILES IDX 7 1 8 2 9 3 10 4 11 5 12 6 13 7 14 8 6 9 5 10 4 11 3 12 2 13
REMARK SMILES IDX 1 14
REMARK H PARENT
REMARK Flexibility Score: inf
ROOT
ATOM      1  C   UNL     1     -13.509 -16.201   3.514  1.00  0.00     0.000 C 
ENDROOT
BRANCH   1   2
ATOM      2  C   UNL     1     -13.528 -17.613   2.908  1.00  0.00     0.000 C 
BRANCH   2   3
ATOM      3  C   UNL     1     -12.467 -18.536   3.532  1.00  0.00     0.000 C 
BRANCH   3   4
ATOM      4  C   UNL     1     -12.460 -18.474   5.068  1.00  0.00     0.006 C 
BRANCH   4   5
ATOM      5  C   UNL     1     -13.421 -19.487   5.702  1.00  0.00     0.053 C 
BRANCH   5   6
ATOM      6  C   UNL     1     -14.706 -18.818   6.084  1.00  0.00     0.041 C 
ATOM      7  O   UNL     1     -14.750 -18.056   7.085  1.00  0.00    -0.550 OA
ATOM      8  O   UNL     1     -15.841 -18.999   5.305  1.00  0.00    -0.550 OA
ENDBRANCH   5   6
ENDBRANCH   4   5
ENDBRANCH   3   4
ENDBRANCH   2   3
ENDBRANCH   1   2
BRANCH   1   9
ATOM      9  C   UNL     1     -14.896 -15.753   4.009  1.00  0.00     0.000 C 
BRANCH   9  10
ATOM     10  C   UNL     1     -14.820 -14.912   5.294  1.00  0.00    -0.000 C 
BRANCH  10  11
ATOM     11  C   UNL     1     -14.746 -13.405   5.010  1.00  0.00    -0.000 C 
BRANCH  11  12
ATOM     12  C   UNL     1     -13.424 -12.816   5.514  1.00  0.00    -0.000 C 
BRANCH  12  13
ATOM     13  C   UNL     1     -12.803 -11.881   4.468  1.00  0.00    -0.003 C 
ATOM     14  C   UNL     1     -12.983 -12.435   3.058  1.00  0.00     0.004 C 
ENDBRANCH  12  13
ENDBRANCH  11  12
ENDBRANCH  10  11
ENDBRANCH   9  10
ENDBRANCH   1   9
TORSDOF 10
ENDMDL
