MODEL 1
REMARK VINA RESULT:    -2.405      0.000      0.000
REMARK INTER + INTRA:          -2.405
REMARK INTER:                  -2.405
REMARK INTRA:                   0.000
REMARK UNBOUND:                 0.000
REMARK SMILES CC(=O)[O-]
REMARK SMILES IDX 1 1 2 2 3 3 4 4
REMARK H PARENT
REMARK Flexibility Score: inf
ROOT
ATOM      1  C   UNL     1      -5.904  31.489  55.689  1.00  0.00     0.063 C 
ATOM      2  C   UNL     1      -7.295  31.785  55.239  1.00  0.00     0.038 C 
ATOM      3  O   UNL     1      -8.270  31.534  55.996  1.00  0.00    -0.550 OA
ATOM      4  O   UNL     1      -7.522  32.286  53.964  1.00  0.00    -0.550 OA
ENDROOT
TORSDOF 0
ENDMDL
MODEL 2
REMARK VINA RESULT:    -2.395      0.134      1.626
REMARK INTER + INTRA:          -2.395
REMARK INTER:                  -2.395
REMARK INTRA:                   0.000
REMARK UNBOUND:                 0.000
REMARK SMILES CC(=O)[O-]
REMARK SMILES IDX 1 1 2 2 3 3 4 4
REMARK H PARENT
REMARK Flexibility Score: inf
ROOT
ATOM      1  C   UNL     1      -5.859  31.530  55.484  1.00  0.00     0.063 C 
ATOM      2  C   UNL     1      -7.277  31.770  55.092  1.00  0.00     0.038 C 
ATOM      3  O   UNL     1      -7.547  32.266  53.966  1.00  0.00    -0.550 OA
ATOM      4  O   UNL     1      -8.302  31.498  55.989  1.00  0.00    -0.550 OA
ENDROOT
TORSDOF 0
ENDMDL
MODEL 3
REMARK VINA RESULT:    -2.338      7.154      7.541
REMARK INTER + INTRA:          -2.338
REMARK INTER:                  -2.338
REMARK INTRA:                   0.000
REMARK UNBOUND:                 0.000
REMARK SMILES CC(=O)[O-]
REMARK SMILES IDX 1 1 2 2 3 3 4 4
REMARK H PARENT
REMARK Flexibility Score: inf
ROOT
ATOM      1  C   UNL     1      -7.465  25.896  58.229  1.00  0.00     0.063 C 
ATOM      2  C   UNL     1      -7.778  24.740  57.341  1.00  0.00     0.038 C 
ATOM      3  O   UNL     1      -8.857  24.716  56.691  1.00  0.00    -0.550 OA
ATOM      4  O   UNL     1      -6.905  23.661  57.269  1.00  0.00    -0.550 OA
ENDROOT
TORSDOF 0
ENDMDL
MODEL 4
REMARK VINA RESULT:    -2.324      6.301      6.714
REMARK INTER + INTRA:          -2.324
REMARK INTER:                  -2.324
REMARK INTRA:                   0.000
REMARK UNBOUND:                 0.000
REMARK SMILES CC(=O)[O-]
REMARK SMILES IDX 1 1 2 2 3 3 4 4
REMARK H PARENT
REMARK Flexibility Score: inf
ROOT
ATOM      1  C   UNL     1      -7.407  26.037  60.247  1.00  0.00     0.063 C 
ATOM      2  C   UNL     1      -7.721  26.253  58.805  1.00  0.00     0.038 C 
ATOM      3  O   UNL     1      -8.537  25.495  58.216  1.00  0.00    -0.550 OA
ATOM      4  O   UNL     1      -7.073  27.255  58.094  1.00  0.00    -0.550 OA
ENDROOT
TORSDOF 0
ENDMDL
MODEL 5
REMARK VINA RESULT:    -2.317     10.316     10.578
REMARK INTER + INTRA:          -2.317
REMARK INTER:                  -2.317
REMARK INTRA:                   0.000
REMARK UNBOUND:                 0.000
REMARK SMILES CC(=O)[O-]
REMARK SMILES IDX 1 1 2 2 3 3 4 4
REMARK H PARENT
REMARK Flexibility Score: inf
ROOT
ATOM      1  C   UNL     1     -13.531  25.480  48.524  1.00  0.00     0.063 C 
ATOM      2  C   UNL     1     -14.177  26.209  49.653  1.00  0.00     0.038 C 
ATOM      3  O   UNL     1     -14.612  25.572  50.649  1.00  0.00    -0.550 OA
ATOM      4  O   UNL     1     -14.351  27.585  49.585  1.00  0.00    -0.550 OA
ENDROOT
TORSDOF 0
ENDMDL
MODEL 6
REMARK VINA RESULT:    -2.280      7.494      7.873
REMARK INTER + INTRA:          -2.280
REMARK INTER:                  -2.280
REMARK INTRA:                   0.000
REMARK UNBOUND:                 0.000
REMARK SMILES CC(=O)[O-]
REMARK SMILES IDX 1 1 2 2 3 3 4 4
REMARK H PARENT
REMARK Flexibility Score: inf
ROOT
ATOM      1  C   UNL     1      -7.040  25.839  57.679  1.00  0.00     0.063 C 
ATOM      2  C   UNL     1      -7.149  24.358  57.551  1.00  0.00     0.038 C 
ATOM      3  O   UNL     1      -6.494  23.608  58.323  1.00  0.00    -0.550 OA
ATOM      4  O   UNL     1      -7.929  23.800  56.547  1.00  0.00    -0.550 OA
ENDROOT
TORSDOF 0
ENDMDL
MODEL 7
REMARK VINA RESULT:    -2.265      7.227      7.501
REMARK INTER + INTRA:          -2.265
REMARK INTER:                  -2.265
REMARK INTRA:                   0.000
REMARK UNBOUND:                 0.000
REMARK SMILES CC(=O)[O-]
REMARK SMILES IDX 1 1 2 2 3 3 4 4
REMARK H PARENT
REMARK Flexibility Score: inf
ROOT
ATOM      1  C   UNL     1      -6.218  23.989  57.591  1.00  0.00     0.063 C 
ATOM      2  C   UNL     1      -7.282  24.456  56.656  1.00  0.00     0.038 C 
ATOM      3  O   UNL     1      -8.239  23.693  56.357  1.00  0.00    -0.550 OA
ATOM      4  O   UNL     1      -7.193  25.711  56.070  1.00  0.00    -0.550 OA
ENDROOT
TORSDOF 0
ENDMDL
MODEL 8
REMARK VINA RESULT:    -2.250      7.210      7.577
REMARK INTER + INTRA:          -2.250
REMARK INTER:                  -2.250
REMARK INTRA:                   0.000
REMARK UNBOUND:                 0.000
REMARK SMILES CC(=O)[O-]
REMARK SMILES IDX 1 1 2 2 3 3 4 4
REMARK H PARENT
REMARK Flexibility Score: inf
ROOT
ATOM      1  C   UNL     1      -6.336  24.106  57.760  1.00  0.00     0.063 C 
ATOM      2  C   UNL     1      -7.304  24.525  56.706  1.00  0.00     0.038 C 
ATOM      3  O   UNL     1      -7.247  25.687  56.222  1.00  0.00    -0.550 OA
ATOM      4  O   UNL     1      -8.306  23.656  56.296  1.00  0.00    -0.550 OA
ENDROOT
TORSDOF 0
ENDMDL
MODEL 9
REMARK VINA RESULT:    -2.108      6.180      6.727
REMARK INTER + INTRA:          -2.108
REMARK INTER:                  -2.108
REMARK INTRA:                   0.000
REMARK UNBOUND:                 0.000
REMARK SMILES CC(=O)[O-]
REMARK SMILES IDX 1 1 2 2 3 3 4 4
REMARK H PARENT
REMARK Flexibility Score: inf
ROOT
ATOM      1  C   UNL     1      -6.185  24.950  58.210  1.00  0.00     0.063 C 
ATOM      2  C   UNL     1      -7.260  25.983  58.167  1.00  0.00     0.038 C 
ATOM      3  O   UNL     1      -6.966  27.193  57.978  1.00  0.00    -0.550 OA
ATOM      4  O   UNL     1      -8.582  25.621  58.390  1.00  0.00    -0.550 OA
ENDROOT
TORSDOF 0
ENDMDL
