MODEL 1
REMARK VINA RESULT:    -3.623      0.000      0.000
REMARK INTER + INTRA:          -4.358
REMARK INTER:                  -4.259
REMARK INTRA:                  -0.099
REMARK UNBOUND:                -0.099
REMARK SMILES CCCCC(=O)[O-]
REMARK SMILES IDX 4 1 5 2 6 3 7 4 3 5 2 6 1 7
REMARK H PARENT
REMARK Flexibility Score: inf
ROOT
ATOM      1  C   UNL     1      -3.147 -35.579  55.149  1.00  0.00     0.053 C 
ENDROOT
BRANCH   1   2
ATOM      2  C   UNL     1      -1.817 -35.135  54.627  1.00  0.00     0.041 C 
ATOM      3  O   UNL     1      -0.755 -35.542  55.170  1.00  0.00    -0.550 OA
ATOM      4  O   UNL     1      -1.748 -34.233  53.573  1.00  0.00    -0.550 OA
ENDBRANCH   1   2
BRANCH   1   5
ATOM      5  C   UNL     1      -4.270 -34.724  54.548  1.00  0.00     0.006 C 
BRANCH   5   6
ATOM      6  C   UNL     1      -5.101 -35.491  53.508  1.00  0.00    -0.003 C 
ATOM      7  C   UNL     1      -5.117 -34.805  52.142  1.00  0.00     0.004 C 
ENDBRANCH   5   6
ENDBRANCH   1   5
TORSDOF 3
ENDMDL
MODEL 2
REMARK VINA RESULT:    -3.603     13.023     13.740
REMARK INTER + INTRA:          -4.334
REMARK INTER:                  -4.240
REMARK INTRA:                  -0.094
REMARK UNBOUND:                -0.099
REMARK SMILES CCCCC(=O)[O-]
REMARK SMILES IDX 4 1 5 2 6 3 7 4 3 5 2 6 1 7
REMARK H PARENT
REMARK Flexibility Score: inf
ROOT
ATOM      1  C   UNL     1      -7.994 -33.198  41.108  1.00  0.00     0.053 C 
ENDROOT
BRANCH   1   2
ATOM      2  C   UNL     1      -7.763 -31.902  41.820  1.00  0.00     0.041 C 
ATOM      3  O   UNL     1      -7.373 -31.898  43.018  1.00  0.00    -0.550 OA
ATOM      4  O   UNL     1      -8.025 -30.699  41.178  1.00  0.00    -0.550 OA
ENDBRANCH   1   2
BRANCH   1   5
ATOM      5  C   UNL     1      -9.495 -33.509  41.037  1.00  0.00     0.006 C 
BRANCH   5   6
ATOM      6  C   UNL     1      -9.984 -34.327  42.241  1.00  0.00    -0.003 C 
ATOM      7  C   UNL     1     -10.709 -33.473  43.280  1.00  0.00     0.004 C 
ENDBRANCH   5   6
ENDBRANCH   1   5
TORSDOF 3
ENDMDL
MODEL 3
REMARK VINA RESULT:    -3.579     12.595     13.745
REMARK INTER + INTRA:          -4.307
REMARK INTER:                  -4.237
REMARK INTRA:                  -0.070
REMARK UNBOUND:                -0.099
REMARK SMILES CCCCC(=O)[O-]
REMARK SMILES IDX 4 1 5 2 6 3 7 4 3 5 2 6 1 7
REMARK H PARENT
REMARK Flexibility Score: inf
ROOT
ATOM      1  C   UNL     1      -9.572 -33.339  40.973  1.00  0.00     0.053 C 
ENDROOT
BRANCH   1   2
ATOM      2  C   UNL     1      -8.231 -32.708  41.178  1.00  0.00     0.041 C 
ATOM      3  O   UNL     1      -7.192 -33.419  41.196  1.00  0.00    -0.550 OA
ATOM      4  O   UNL     1      -8.133 -31.339  41.397  1.00  0.00    -0.550 OA
ENDBRANCH   1   2
BRANCH   1   5
ATOM      5  C   UNL     1      -9.893 -34.300  42.126  1.00  0.00     0.006 C 
BRANCH   5   6
ATOM      6  C   UNL     1     -10.441 -33.572  43.363  1.00  0.00    -0.003 C 
ATOM      7  C   UNL     1     -10.601 -34.497  44.570  1.00  0.00     0.004 C 
ENDBRANCH   5   6
ENDBRANCH   1   5
TORSDOF 3
ENDMDL
MODEL 4
REMARK VINA RESULT:    -3.558      2.331      3.583
REMARK INTER + INTRA:          -4.281
REMARK INTER:                  -4.188
REMARK INTRA:                  -0.093
REMARK UNBOUND:                -0.099
REMARK SMILES CCCCC(=O)[O-]
REMARK SMILES IDX 4 1 5 2 6 3 7 4 3 5 2 6 1 7
REMARK H PARENT
REMARK Flexibility Score: inf
ROOT
ATOM      1  C   UNL     1      -4.569 -35.801  53.342  1.00  0.00     0.053 C 
ENDROOT
BRANCH   1   2
ATOM      2  C   UNL     1      -4.841 -34.700  52.367  1.00  0.00     0.041 C 
ATOM      3  O   UNL     1      -5.255 -34.968  51.208  1.00  0.00    -0.550 OA
ATOM      4  O   UNL     1      -4.591 -33.380  52.720  1.00  0.00    -0.550 OA
ENDBRANCH   1   2
BRANCH   1   5
ATOM      5  C   UNL     1      -5.030 -35.396  54.749  1.00  0.00     0.006 C 
BRANCH   5   6
ATOM      6  C   UNL     1      -3.905 -35.498  55.789  1.00  0.00    -0.003 C 
ATOM      7  C   UNL     1      -2.530 -35.703  55.154  1.00  0.00     0.004 C 
ENDBRANCH   5   6
ENDBRANCH   1   5
TORSDOF 3
ENDMDL
MODEL 5
REMARK VINA RESULT:    -3.539      1.462      1.710
REMARK INTER + INTRA:          -4.259
REMARK INTER:                  -4.215
REMARK INTRA:                  -0.043
REMARK UNBOUND:                -0.099
REMARK SMILES CCCCC(=O)[O-]
REMARK SMILES IDX 4 1 5 2 6 3 7 4 3 5 2 6 1 7
REMARK H PARENT
REMARK Flexibility Score: inf
ROOT
ATOM      1  C   UNL     1      -2.689 -34.782  53.659  1.00  0.00     0.053 C 
ENDROOT
BRANCH   1   2
ATOM      2  C   UNL     1      -2.446 -35.532  54.931  1.00  0.00     0.041 C 
ATOM      3  O   UNL     1      -1.343 -36.106  55.127  1.00  0.00    -0.550 OA
ATOM      4  O   UNL     1      -3.456 -35.640  55.879  1.00  0.00    -0.550 OA
ENDBRANCH   1   2
BRANCH   1   5
ATOM      5  C   UNL     1      -3.606 -35.588  52.729  1.00  0.00     0.006 C 
BRANCH   5   6
ATOM      6  C   UNL     1      -5.068 -35.121  52.793  1.00  0.00    -0.003 C 
ATOM      7  C   UNL     1      -5.431 -34.160  51.662  1.00  0.00     0.004 C 
ENDBRANCH   5   6
ENDBRANCH   1   5
TORSDOF 3
ENDMDL
MODEL 6
REMARK VINA RESULT:    -3.417     11.935     13.210
REMARK INTER + INTRA:          -4.115
REMARK INTER:                  -4.005
REMARK INTRA:                  -0.110
REMARK UNBOUND:                -0.099
REMARK SMILES CCCCC(=O)[O-]
REMARK SMILES IDX 4 1 5 2 6 3 7 4 3 5 2 6 1 7
REMARK H PARENT
REMARK Flexibility Score: inf
ROOT
ATOM      1  C   UNL     1     -10.407 -33.445  42.908  1.00  0.00     0.053 C 
ENDROOT
BRANCH   1   2
ATOM      2  C   UNL     1      -9.552 -34.159  43.907  1.00  0.00     0.041 C 
ATOM      3  O   UNL     1      -9.148 -33.560  44.938  1.00  0.00    -0.550 OA
ATOM      4  O   UNL     1      -9.159 -35.471  43.675  1.00  0.00    -0.550 OA
ENDBRANCH   1   2
BRANCH   1   5
ATOM      5  C   UNL     1      -9.843 -33.626  41.493  1.00  0.00     0.006 C 
BRANCH   5   6
ATOM      6  C   UNL     1      -8.735 -32.613  41.166  1.00  0.00    -0.003 C 
ATOM      7  C   UNL     1      -7.346 -33.250  41.125  1.00  0.00     0.004 C 
ENDBRANCH   5   6
ENDBRANCH   1   5
TORSDOF 3
ENDMDL
MODEL 7
REMARK VINA RESULT:    -3.360     12.117     13.717
REMARK INTER + INTRA:          -4.048
REMARK INTER:                  -3.995
REMARK INTRA:                  -0.054
REMARK UNBOUND:                -0.099
REMARK SMILES CCCCC(=O)[O-]
REMARK SMILES IDX 4 1 5 2 6 3 7 4 3 5 2 6 1 7
REMARK H PARENT
REMARK Flexibility Score: inf
ROOT
ATOM      1  C   UNL     1      -7.900 -33.576  41.457  1.00  0.00     0.053 C 
ENDROOT
BRANCH   1   2
ATOM      2  C   UNL     1      -9.376 -33.695  41.243  1.00  0.00     0.041 C 
ATOM      3  O   UNL     1      -9.920 -33.131  40.256  1.00  0.00    -0.550 OA
ATOM      4  O   UNL     1     -10.159 -34.386  42.158  1.00  0.00    -0.550 OA
ENDBRANCH   1   2
BRANCH   1   5
ATOM      5  C   UNL     1      -7.571 -32.279  42.208  1.00  0.00     0.006 C 
BRANCH   5   6
ATOM      6  C   UNL     1      -7.571 -32.464  43.733  1.00  0.00    -0.003 C 
ATOM      7  C   UNL     1      -6.497 -31.629  44.429  1.00  0.00     0.004 C 
ENDBRANCH   5   6
ENDBRANCH   1   5
TORSDOF 3
ENDMDL
MODEL 8
REMARK VINA RESULT:    -3.324     12.904     13.956
REMARK INTER + INTRA:          -4.006
REMARK INTER:                  -3.979
REMARK INTRA:                  -0.027
REMARK UNBOUND:                -0.099
REMARK SMILES CCCCC(=O)[O-]
REMARK SMILES IDX 4 1 5 2 6 3 7 4 3 5 2 6 1 7
REMARK H PARENT
REMARK Flexibility Score: inf
ROOT
ATOM      1  C   UNL     1      -5.764 -43.858  43.917  1.00  0.00     0.053 C 
ENDROOT
BRANCH   1   2
ATOM      2  C   UNL     1      -5.331 -42.582  44.567  1.00  0.00     0.041 C 
ATOM      3  O   UNL     1      -5.868 -41.491  44.240  1.00  0.00    -0.550 OA
ATOM      4  O   UNL     1      -4.300 -42.590  45.498  1.00  0.00    -0.550 OA
ENDBRANCH   1   2
BRANCH   1   5
ATOM      5  C   UNL     1      -6.757 -43.571  42.783  1.00  0.00     0.006 C 
BRANCH   5   6
ATOM      6  C   UNL     1      -7.651 -44.778  42.463  1.00  0.00    -0.003 C 
ATOM      7  C   UNL     1      -6.868 -45.954  41.877  1.00  0.00     0.004 C 
ENDBRANCH   5   6
ENDBRANCH   1   5
TORSDOF 3
ENDMDL
MODEL 9
REMARK VINA RESULT:    -3.314      2.321      3.798
REMARK INTER + INTRA:          -3.995
REMARK INTER:                  -3.912
REMARK INTRA:                  -0.083
REMARK UNBOUND:                -0.099
REMARK SMILES CCCCC(=O)[O-]
REMARK SMILES IDX 4 1 5 2 6 3 7 4 3 5 2 6 1 7
REMARK H PARENT
REMARK Flexibility Score: inf
ROOT
ATOM      1  C   UNL     1      -3.766 -34.062  53.222  1.00  0.00     0.053 C 
ENDROOT
BRANCH   1   2
ATOM      2  C   UNL     1      -4.800 -34.857  53.955  1.00  0.00     0.041 C 
ATOM      3  O   UNL     1      -5.731 -35.422  53.322  1.00  0.00    -0.550 OA
ATOM      4  O   UNL     1      -4.766 -34.933  55.342  1.00  0.00    -0.550 OA
ENDBRANCH   1   2
BRANCH   1   5
ATOM      5  C   UNL     1      -2.457 -34.857  53.115  1.00  0.00     0.006 C 
BRANCH   5   6
ATOM      6  C   UNL     1      -1.515 -34.602  54.301  1.00  0.00    -0.003 C 
ATOM      7  C   UNL     1      -1.347 -35.829  55.196  1.00  0.00     0.004 C 
ENDBRANCH   5   6
ENDBRANCH   1   5
TORSDOF 3
ENDMDL
