MODEL 1
REMARK VINA RESULT:    -6.913      0.000      0.000
REMARK INTER + INTRA:          -6.913
REMARK INTER:                  -6.913
REMARK INTRA:                   0.000
REMARK UNBOUND:                 0.000
REMARK SMILES C[C@H]1CCC=C2CC[C@@H]3[C@@H](C3(C)C)[C@]21C
REMARK SMILES IDX 1 1 2 2 3 3 4 4 5 5 6 6 14 7 10 8 9 9 11 10 12 11 13 12 8 13
REMARK SMILES IDX 7 14 15 15
REMARK H PARENT
REMARK Flexibility Score: inf
ROOT
ATOM      1  C   UNL     1     109.770 112.814 111.973  1.00  0.00     0.008 C 
ATOM      2  C   UNL     1     111.058 111.972 112.011  1.00  0.00    -0.004 C 
ATOM      3  C   UNL     1     110.800 110.644 112.742  1.00  0.00     0.008 C 
ATOM      4  C   UNL     1     112.091 109.839 112.823  1.00  0.00     0.027 C 
ATOM      5  C   UNL     1     112.628 109.572 111.451  1.00  0.00    -0.027 C 
ATOM      6  C   UNL     1     112.499 110.457 110.440  1.00  0.00    -0.068 C 
ATOM      7  C   UNL     1     111.787 111.807 110.605  1.00  0.00    -0.005 C 
ATOM      8  C   UNL     1     110.837 112.115 109.390  1.00  0.00     0.009 C 
ATOM      9  C   UNL     1     111.039 111.324 108.076  1.00  0.00    -0.000 C 
ATOM     10  C   UNL     1     109.723 111.191 108.867  1.00  0.00    -0.028 C 
ATOM     11  C   UNL     1     108.529 111.917 108.234  1.00  0.00     0.012 C 
ATOM     12  C   UNL     1     109.378 109.873 109.578  1.00  0.00     0.012 C 
ATOM     13  C   UNL     1     111.968 110.090 108.037  1.00  0.00     0.009 C 
ATOM     14  C   UNL     1     113.071 110.118 109.086  1.00  0.00     0.031 C 
ATOM     15  C   UNL     1     112.893 112.895 110.548  1.00  0.00     0.017 C 
ENDROOT
TORSDOF 0
ENDMDL
MODEL 2
REMARK VINA RESULT:    -6.892      1.507      3.913
REMARK INTER + INTRA:          -6.892
REMARK INTER:                  -6.892
REMARK INTRA:                   0.000
REMARK UNBOUND:                 0.000
REMARK SMILES C[C@H]1CCC=C2CC[C@@H]3[C@@H](C3(C)C)[C@]21C
REMARK SMILES IDX 1 1 2 2 3 3 4 4 5 5 6 6 14 7 10 8 9 9 11 10 12 11 13 12 8 13
REMARK SMILES IDX 7 14 15 15
REMARK H PARENT
REMARK Flexibility Score: inf
ROOT
ATOM      1  C   UNL     1     109.561 110.199 113.889  1.00  0.00     0.008 C 
ATOM      2  C   UNL     1     109.269 111.153 112.717  1.00  0.00    -0.004 C 
ATOM      3  C   UNL     1     109.457 112.612 113.163  1.00  0.00     0.008 C 
ATOM      4  C   UNL     1     109.113 113.552 112.014  1.00  0.00     0.027 C 
ATOM      5  C   UNL     1     109.978 113.264 110.826  1.00  0.00    -0.027 C 
ATOM      6  C   UNL     1     110.390 112.016 110.518  1.00  0.00    -0.068 C 
ATOM      7  C   UNL     1     110.016 110.788 111.359  1.00  0.00    -0.005 C 
ATOM      8  C   UNL     1     111.250 109.840 111.584  1.00  0.00     0.009 C 
ATOM      9  C   UNL     1     112.477 109.991 110.653  1.00  0.00    -0.000 C 
ATOM     10  C   UNL     1     112.611 110.262 112.164  1.00  0.00    -0.028 C 
ATOM     11  C   UNL     1     113.349 109.163 112.940  1.00  0.00     0.012 C 
ATOM     12  C   UNL     1     112.854 111.691 112.675  1.00  0.00     0.012 C 
ATOM     13  C   UNL     1     112.597 111.204 109.704  1.00  0.00     0.009 C 
ATOM     14  C   UNL     1     111.256 111.805 109.302  1.00  0.00     0.031 C 
ATOM     15  C   UNL     1     109.014 109.964 110.508  1.00  0.00     0.017 C 
ENDROOT
TORSDOF 0
ENDMDL
MODEL 3
REMARK VINA RESULT:    -6.882      1.285      2.596
REMARK INTER + INTRA:          -6.882
REMARK INTER:                  -6.882
REMARK INTRA:                   0.000
REMARK UNBOUND:                 0.000
REMARK SMILES C[C@H]1CCC=C2CC[C@@H]3[C@@H](C3(C)C)[C@]21C
REMARK SMILES IDX 1 1 2 2 3 3 4 4 5 5 6 6 14 7 10 8 9 9 11 10 12 11 13 12 8 13
REMARK SMILES IDX 7 14 15 15
REMARK H PARENT
REMARK Flexibility Score: inf
ROOT
ATOM      1  C   UNL     1     112.522 112.097 114.084  1.00  0.00     0.008 C 
ATOM      2  C   UNL     1     112.906 111.174 112.913  1.00  0.00    -0.004 C 
ATOM      3  C   UNL     1     112.755 109.701 113.328  1.00  0.00     0.008 C 
ATOM      4  C   UNL     1     113.188 108.795 112.183  1.00  0.00     0.027 C 
ATOM      5  C   UNL     1     112.369 109.068 110.960  1.00  0.00    -0.027 C 
ATOM      6  C   UNL     1     111.923 110.304 110.651  1.00  0.00    -0.068 C 
ATOM      7  C   UNL     1     112.208 111.532 111.527  1.00  0.00    -0.005 C 
ATOM      8  C   UNL     1     110.929 112.428 111.707  1.00  0.00     0.009 C 
ATOM      9  C   UNL     1     109.754 112.245 110.717  1.00  0.00    -0.000 C 
ATOM     10  C   UNL     1     109.560 111.944 112.217  1.00  0.00    -0.028 C 
ATOM     11  C   UNL     1     108.744 113.000 112.973  1.00  0.00     0.012 C 
ATOM     12  C   UNL     1     109.351 110.498 112.695  1.00  0.00     0.012 C 
ATOM     13  C   UNL     1     109.725 111.044 109.746  1.00  0.00     0.009 C 
ATOM     14  C   UNL     1     111.106 110.502 109.399  1.00  0.00     0.031 C 
ATOM     15  C   UNL     1     113.216 112.408 110.736  1.00  0.00     0.017 C 
ENDROOT
TORSDOF 0
ENDMDL
MODEL 4
REMARK VINA RESULT:    -6.872      1.260      3.172
REMARK INTER + INTRA:          -6.872
REMARK INTER:                  -6.872
REMARK INTRA:                   0.000
REMARK UNBOUND:                 0.000
REMARK SMILES C[C@H]1CCC=C2CC[C@@H]3[C@@H](C3(C)C)[C@]21C
REMARK SMILES IDX 1 1 2 2 3 3 4 4 5 5 6 6 14 7 10 8 9 9 11 10 12 11 13 12 8 13
REMARK SMILES IDX 7 14 15 15
REMARK H PARENT
REMARK Flexibility Score: inf
ROOT
ATOM      1  C   UNL     1     113.229 111.054 108.434  1.00  0.00     0.008 C 
ATOM      2  C   UNL     1     113.039 111.031 109.961  1.00  0.00    -0.004 C 
ATOM      3  C   UNL     1     113.051 112.465 110.517  1.00  0.00     0.008 C 
ATOM      4  C   UNL     1     112.918 112.431 112.034  1.00  0.00     0.027 C 
ATOM      5  C   UNL     1     111.652 111.739 112.433  1.00  0.00    -0.027 C 
ATOM      6  C   UNL     1     111.144 110.702 111.733  1.00  0.00    -0.068 C 
ATOM      7  C   UNL     1     111.813 110.149 110.467  1.00  0.00    -0.005 C 
ATOM      8  C   UNL     1     110.763 109.865 109.331  1.00  0.00     0.009 C 
ATOM      9  C   UNL     1     109.269 109.753 109.718  1.00  0.00    -0.000 C 
ATOM     10  C   UNL     1     109.746 110.878 108.777  1.00  0.00    -0.028 C 
ATOM     11  C   UNL     1     109.369 110.672 107.305  1.00  0.00     0.012 C 
ATOM     12  C   UNL     1     109.734 112.340 109.251  1.00  0.00     0.012 C 
ATOM     13  C   UNL     1     108.790 110.167 111.127  1.00  0.00     0.009 C 
ATOM     14  C   UNL     1     109.866 110.052 112.200  1.00  0.00     0.031 C 
ATOM     15  C   UNL     1     112.392 108.761 110.849  1.00  0.00     0.017 C 
ENDROOT
TORSDOF 0
ENDMDL
MODEL 5
REMARK VINA RESULT:    -6.848      1.087      3.445
REMARK INTER + INTRA:          -6.848
REMARK INTER:                  -6.848
REMARK INTRA:                   0.000
REMARK UNBOUND:                 0.000
REMARK SMILES C[C@H]1CCC=C2CC[C@@H]3[C@@H](C3(C)C)[C@]21C
REMARK SMILES IDX 1 1 2 2 3 3 4 4 5 5 6 6 14 7 10 8 9 9 11 10 12 11 13 12 8 13
REMARK SMILES IDX 7 14 15 15
REMARK H PARENT
REMARK Flexibility Score: inf
ROOT
ATOM      1  C   UNL     1     112.300 109.502 111.978  1.00  0.00     0.008 C 
ATOM      2  C   UNL     1     111.040 110.385 111.957  1.00  0.00    -0.004 C 
ATOM      3  C   UNL     1     111.318 111.722 112.663  1.00  0.00     0.008 C 
ATOM      4  C   UNL     1     110.052 112.568 112.686  1.00  0.00     0.027 C 
ATOM      5  C   UNL     1     109.564 112.817 111.292  1.00  0.00    -0.027 C 
ATOM      6  C   UNL     1     109.693 111.903 110.307  1.00  0.00    -0.068 C 
ATOM      7  C   UNL     1     110.357 110.536 110.526  1.00  0.00    -0.005 C 
ATOM      8  C   UNL     1     111.331 110.168 109.349  1.00  0.00     0.009 C 
ATOM      9  C   UNL     1     111.193 110.931 108.010  1.00  0.00    -0.000 C 
ATOM     10  C   UNL     1     112.490 111.043 108.837  1.00  0.00    -0.028 C 
ATOM     11  C   UNL     1     113.677 110.264 108.258  1.00  0.00     0.012 C 
ATOM     12  C   UNL     1     112.856 112.368 109.525  1.00  0.00     0.012 C 
ATOM     13  C   UNL     1     110.306 112.192 107.913  1.00  0.00     0.009 C 
ATOM     14  C   UNL     1     109.172 112.225 108.929  1.00  0.00     0.031 C 
ATOM     15  C   UNL     1     109.219 109.483 110.463  1.00  0.00     0.017 C 
ENDROOT
TORSDOF 0
ENDMDL
MODEL 6
REMARK VINA RESULT:    -6.823      3.376      5.929
REMARK INTER + INTRA:          -6.823
REMARK INTER:                  -6.823
REMARK INTRA:                   0.000
REMARK UNBOUND:                 0.000
REMARK SMILES C[C@H]1CCC=C2CC[C@@H]3[C@@H](C3(C)C)[C@]21C
REMARK SMILES IDX 1 1 2 2 3 3 4 4 5 5 6 6 14 7 10 8 9 9 11 10 12 11 13 12 8 13
REMARK SMILES IDX 7 14 15 15
REMARK H PARENT
REMARK Flexibility Score: inf
ROOT
ATOM      1  C   UNL     1     112.294 109.490 116.874  1.00  0.00     0.008 C 
ATOM      2  C   UNL     1     111.041 110.384 116.856  1.00  0.00    -0.004 C 
ATOM      3  C   UNL     1     111.329 111.714 117.572  1.00  0.00     0.008 C 
ATOM      4  C   UNL     1     110.069 112.570 117.598  1.00  0.00     0.027 C 
ATOM      5  C   UNL     1     109.586 112.832 116.205  1.00  0.00    -0.027 C 
ATOM      6  C   UNL     1     109.711 111.924 115.214  1.00  0.00    -0.068 C 
ATOM      7  C   UNL     1     110.363 110.551 115.424  1.00  0.00    -0.005 C 
ATOM      8  C   UNL     1     111.338 110.183 114.247  1.00  0.00     0.009 C 
ATOM      9  C   UNL     1     111.209 110.957 112.913  1.00  0.00    -0.000 C 
ATOM     10  C   UNL     1     112.504 111.052 113.744  1.00  0.00    -0.028 C 
ATOM     11  C   UNL     1     113.687 110.268 113.162  1.00  0.00     0.012 C 
ATOM     12  C   UNL     1     112.879 112.369 114.443  1.00  0.00     0.012 C 
ATOM     13  C   UNL     1     110.333 112.225 112.823  1.00  0.00     0.009 C 
ATOM     14  C   UNL     1     109.196 112.260 113.837  1.00  0.00     0.031 C 
ATOM     15  C   UNL     1     109.217 109.507 115.351  1.00  0.00     0.017 C 
ENDROOT
TORSDOF 0
ENDMDL
MODEL 7
REMARK VINA RESULT:    -6.804      3.234      5.788
REMARK INTER + INTRA:          -6.804
REMARK INTER:                  -6.804
REMARK INTRA:                   0.000
REMARK UNBOUND:                 0.000
REMARK SMILES C[C@H]1CCC=C2CC[C@@H]3[C@@H](C3(C)C)[C@]21C
REMARK SMILES IDX 1 1 2 2 3 3 4 4 5 5 6 6 14 7 10 8 9 9 11 10 12 11 13 12 8 13
REMARK SMILES IDX 7 14 15 15
REMARK H PARENT
REMARK Flexibility Score: inf
ROOT
ATOM      1  C   UNL     1     113.240 110.980 113.269  1.00  0.00     0.008 C 
ATOM      2  C   UNL     1     113.032 110.990 114.794  1.00  0.00    -0.004 C 
ATOM      3  C   UNL     1     113.050 112.434 115.322  1.00  0.00     0.008 C 
ATOM      4  C   UNL     1     112.899 112.431 116.838  1.00  0.00     0.027 C 
ATOM      5  C   UNL     1     111.622 111.758 117.235  1.00  0.00    -0.027 C 
ATOM      6  C   UNL     1     111.113 110.712 116.549  1.00  0.00    -0.068 C 
ATOM      7  C   UNL     1     111.792 110.129 115.302  1.00  0.00    -0.005 C 
ATOM      8  C   UNL     1     110.753 109.831 114.160  1.00  0.00     0.009 C 
ATOM      9  C   UNL     1     109.254 109.740 114.531  1.00  0.00    -0.000 C 
ATOM     10  C   UNL     1     109.751 110.842 113.574  1.00  0.00    -0.028 C 
ATOM     11  C   UNL     1     109.390 110.610 112.102  1.00  0.00     0.012 C 
ATOM     12  C   UNL     1     109.747 112.313 114.020  1.00  0.00     0.012 C 
ATOM     13  C   UNL     1     108.762 110.186 115.926  1.00  0.00     0.009 C 
ATOM     14  C   UNL     1     109.824 110.083 117.014  1.00  0.00     0.031 C 
ATOM     15  C   UNL     1     112.354 108.743 115.718  1.00  0.00     0.017 C 
ENDROOT
TORSDOF 0
ENDMDL
MODEL 8
REMARK VINA RESULT:    -6.784      4.574      7.204
REMARK INTER + INTRA:          -6.784
REMARK INTER:                  -6.784
REMARK INTRA:                   0.000
REMARK UNBOUND:                 0.000
REMARK SMILES C[C@H]1CCC=C2CC[C@@H]3[C@@H](C3(C)C)[C@]21C
REMARK SMILES IDX 1 1 2 2 3 3 4 4 5 5 6 6 14 7 10 8 9 9 11 10 12 11 13 12 8 13
REMARK SMILES IDX 7 14 15 15
REMARK H PARENT
REMARK Flexibility Score: inf
ROOT
ATOM      1  C   UNL     1     109.581 110.210 118.759  1.00  0.00     0.008 C 
ATOM      2  C   UNL     1     109.280 111.169 117.594  1.00  0.00    -0.004 C 
ATOM      3  C   UNL     1     109.483 112.626 118.040  1.00  0.00     0.008 C 
ATOM      4  C   UNL     1     109.131 113.571 116.899  1.00  0.00     0.027 C 
ATOM      5  C   UNL     1     109.979 113.281 115.699  1.00  0.00    -0.027 C 
ATOM      6  C   UNL     1     110.378 112.031 115.382  1.00  0.00    -0.068 C 
ATOM      7  C   UNL     1     110.007 110.803 116.225  1.00  0.00    -0.005 C 
ATOM      8  C   UNL     1     111.238 109.846 116.431  1.00  0.00     0.009 C 
ATOM      9  C   UNL     1     112.453 109.991 115.485  1.00  0.00    -0.000 C 
ATOM     10  C   UNL     1     112.609 110.257 116.996  1.00  0.00    -0.028 C 
ATOM     11  C   UNL     1     113.349 109.152 117.759  1.00  0.00     0.012 C 
ATOM     12  C   UNL     1     112.867 111.684 117.507  1.00  0.00     0.012 C 
ATOM     13  C   UNL     1     112.569 111.206 114.538  1.00  0.00     0.009 C 
ATOM     14  C   UNL     1     111.227 111.817 114.154  1.00  0.00     0.031 C 
ATOM     15  C   UNL     1     108.988 109.987 115.385  1.00  0.00     0.017 C 
ENDROOT
TORSDOF 0
ENDMDL
MODEL 9
REMARK VINA RESULT:    -6.728      2.575      4.007
REMARK INTER + INTRA:          -6.728
REMARK INTER:                  -6.728
REMARK INTRA:                   0.000
REMARK UNBOUND:                 0.000
REMARK SMILES C[C@H]1CCC=C2CC[C@@H]3[C@@H](C3(C)C)[C@]21C
REMARK SMILES IDX 1 1 2 2 3 3 4 4 5 5 6 6 14 7 10 8 9 9 11 10 12 11 13 12 8 13
REMARK SMILES IDX 7 14 15 15
REMARK H PARENT
REMARK Flexibility Score: inf
ROOT
ATOM      1  C   UNL     1     109.947 113.086 115.643  1.00  0.00     0.008 C 
ATOM      2  C   UNL     1     110.997 111.998 115.931  1.00  0.00    -0.004 C 
ATOM      3  C   UNL     1     110.312 110.728 116.461  1.00  0.00     0.008 C 
ATOM      4  C   UNL     1     111.362 109.675 116.795  1.00  0.00     0.027 C 
ATOM      5  C   UNL     1     112.179 109.349 115.584  1.00  0.00    -0.027 C 
ATOM      6  C   UNL     1     112.489 110.273 114.650  1.00  0.00    -0.068 C 
ATOM      7  C   UNL     1     112.026 111.734 114.744  1.00  0.00    -0.005 C 
ATOM      8  C   UNL     1     111.502 112.267 113.360  1.00  0.00     0.009 C 
ATOM      9  C   UNL     1     111.889 111.494 112.077  1.00  0.00    -0.000 C 
ATOM     10  C   UNL     1     110.410 111.607 112.500  1.00  0.00    -0.028 C 
ATOM     11  C   UNL     1     109.583 112.580 111.651  1.00  0.00     0.012 C 
ATOM     12  C   UNL     1     109.649 110.364 112.989  1.00  0.00     0.012 C 
ATOM     13  C   UNL     1     112.545 110.099 112.168  1.00  0.00     0.009 C 
ATOM     14  C   UNL     1     113.321 109.869 113.459  1.00  0.00     0.031 C 
ATOM     15  C   UNL     1     113.292 112.575 115.056  1.00  0.00     0.017 C 
ENDROOT
TORSDOF 0
ENDMDL
