MODEL 1
REMARK VINA RESULT:    -5.182      0.000      0.000
REMARK INTER + INTRA:         -11.093
REMARK INTER:                 -10.029
REMARK INTRA:                  -1.063
REMARK UNBOUND:                -1.063
REMARK SMILES CCCCCCCCCCCCCCCCCC(=O)[O-]
REMARK SMILES IDX 10 1 11 2 12 3 13 4 14 5 15 6 16 7 17 8 18 9 19 10 20 11
REMARK SMILES IDX 9 12 8 13 7 14 6 15 5 16 4 17 3 18 2 19 1 20
REMARK H PARENT
REMARK Flexibility Score: inf
ROOT
ATOM      1  C   UNL     1       2.463  21.016 -13.742  1.00  0.00     0.000 C 
ENDROOT
BRANCH   1   2
ATOM      2  C   UNL     1       2.547  21.004 -15.277  1.00  0.00     0.000 C 
BRANCH   2   3
ATOM      3  C   UNL     1       3.558  22.025 -15.830  1.00  0.00     0.000 C 
BRANCH   3   4
ATOM      4  C   UNL     1       3.224  22.593 -17.224  1.00  0.00     0.000 C 
BRANCH   4   5
ATOM      5  C   UNL     1       1.769  23.059 -17.409  1.00  0.00     0.000 C 
BRANCH   5   6
ATOM      6  C   UNL     1       0.985  22.186 -18.399  1.00  0.00     0.000 C 
BRANCH   6   7
ATOM      7  C   UNL     1       1.903  21.652 -19.508  1.00  0.00     0.006 C 
BRANCH   7   8
ATOM      8  C   UNL     1       1.713  20.148 -19.746  1.00  0.00     0.053 C 
BRANCH   8   9
ATOM      9  C   UNL     1       2.626  19.634 -20.815  1.00  0.00     0.041 C 
ATOM     10  O   UNL     1       2.468  18.474 -21.280  1.00  0.00    -0.550 OA
ATOM     11  O   UNL     1       3.632  20.447 -21.323  1.00  0.00    -0.550 OA
ENDBRANCH   8   9
ENDBRANCH   7   8
ENDBRANCH   6   7
ENDBRANCH   5   6
ENDBRANCH   4   5
ENDBRANCH   3   4
ENDBRANCH   2   3
ENDBRANCH   1   2
BRANCH   1  12
ATOM     12  C   UNL     1       1.945  19.687 -13.170  1.00  0.00     0.000 C 
BRANCH  12  13
ATOM     13  C   UNL     1       1.712  19.743 -11.652  1.00  0.00    -0.000 C 
BRANCH  13  14
ATOM     14  C   UNL     1       1.617  21.197 -11.167  1.00  0.00    -0.000 C 
BRANCH  14  15
ATOM     15  C   UNL     1       1.663  21.321  -9.633  1.00  0.00    -0.000 C 
BRANCH  15  16
ATOM     16  C   UNL     1       3.071  21.219  -9.011  1.00  0.00    -0.000 C 
BRANCH  16  17
ATOM     17  C   UNL     1       3.096  20.919  -7.502  1.00  0.00    -0.000 C 
BRANCH  17  18
ATOM     18  C   UNL     1       2.275  19.673  -7.129  1.00  0.00    -0.000 C 
BRANCH  18  19
ATOM     19  C   UNL     1       1.385  19.901  -5.898  1.00  0.00    -0.003 C 
ATOM     20  C   UNL     1       0.450  21.099  -6.061  1.00  0.00     0.004 C 
ENDBRANCH  18  19
ENDBRANCH  17  18
ENDBRANCH  16  17
ENDBRANCH  15  16
ENDBRANCH  14  15
ENDBRANCH  13  14
ENDBRANCH  12  13
ENDBRANCH   1  12
TORSDOF 16
ENDMDL
MODEL 2
REMARK VINA RESULT:    -5.110      9.676     12.412
REMARK INTER + INTRA:         -10.954
REMARK INTER:                  -8.872
REMARK INTRA:                  -2.081
REMARK UNBOUND:                -1.063
REMARK SMILES CCCCCCCCCCCCCCCCCC(=O)[O-]
REMARK SMILES IDX 10 1 11 2 12 3 13 4 14 5 15 6 16 7 17 8 18 9 19 10 20 11
REMARK SMILES IDX 9 12 8 13 7 14 6 15 5 16 4 17 3 18 2 19 1 20
REMARK H PARENT
REMARK Flexibility Score: inf
ROOT
ATOM      1  C   UNL     1       9.106  31.359 -13.797  1.00  0.00     0.000 C 
ENDROOT
BRANCH   1   2
ATOM      2  C   UNL     1       9.170  29.833 -13.979  1.00  0.00     0.000 C 
BRANCH   2   3
ATOM      3  C   UNL     1       8.163  29.082 -13.090  1.00  0.00     0.000 C 
BRANCH   3   4
ATOM      4  C   UNL     1       7.187  28.153 -13.842  1.00  0.00     0.000 C 
BRANCH   4   5
ATOM      5  C   UNL     1       6.823  26.853 -13.104  1.00  0.00     0.000 C 
BRANCH   5   6
ATOM      6  C   UNL     1       8.044  25.965 -12.822  1.00  0.00     0.000 C 
BRANCH   6   7
ATOM      7  C   UNL     1       7.625  24.652 -12.146  1.00  0.00     0.006 C 
BRANCH   7   8
ATOM      8  C   UNL     1       8.590  24.241 -11.027  1.00  0.00     0.053 C 
BRANCH   8   9
ATOM      9  C   UNL     1       8.173  22.958 -10.375  1.00  0.00     0.041 C 
ATOM     10  O   UNL     1       7.749  22.959  -9.190  1.00  0.00    -0.550 OA
ATOM     11  O   UNL     1       8.221  21.767 -11.088  1.00  0.00    -0.550 OA
ENDBRANCH   8   9
ENDBRANCH   7   8
ENDBRANCH   6   7
ENDBRANCH   5   6
ENDBRANCH   4   5
ENDBRANCH   3   4
ENDBRANCH   2   3
ENDBRANCH   1   2
BRANCH   1  12
ATOM     12  C   UNL     1       8.624  31.765 -12.396  1.00  0.00     0.000 C 
BRANCH  12  13
ATOM     13  C   UNL     1       7.445  32.751 -12.435  1.00  0.00    -0.000 C 
BRANCH  13  14
ATOM     14  C   UNL     1       6.113  32.019 -12.212  1.00  0.00    -0.000 C 
BRANCH  14  15
ATOM     15  C   UNL     1       4.912  32.762 -12.827  1.00  0.00    -0.000 C 
BRANCH  15  16
ATOM     16  C   UNL     1       4.487  32.271 -14.226  1.00  0.00    -0.000 C 
BRANCH  16  17
ATOM     17  C   UNL     1       5.140  30.955 -14.681  1.00  0.00    -0.000 C 
BRANCH  17  18
ATOM     18  C   UNL     1       6.107  31.146 -15.862  1.00  0.00    -0.000 C 
BRANCH  18  19
ATOM     19  C   UNL     1       5.994  32.541 -16.495  1.00  0.00    -0.003 C 
ATOM     20  C   UNL     1       7.200  33.429 -16.185  1.00  0.00     0.004 C 
ENDBRANCH  18  19
ENDBRANCH  17  18
ENDBRANCH  16  17
ENDBRANCH  15  16
ENDBRANCH  14  15
ENDBRANCH  13  14
ENDBRANCH  12  13
ENDBRANCH   1  12
TORSDOF 16
ENDMDL
MODEL 3
REMARK VINA RESULT:    -5.038      5.278     10.839
REMARK INTER + INTRA:         -10.814
REMARK INTER:                  -9.962
REMARK INTRA:                  -0.852
REMARK UNBOUND:                -1.063
REMARK SMILES CCCCCCCCCCCCCCCCCC(=O)[O-]
REMARK SMILES IDX 10 1 11 2 12 3 13 4 14 5 15 6 16 7 17 8 18 9 19 10 20 11
REMARK SMILES IDX 9 12 8 13 7 14 6 15 5 16 4 17 3 18 2 19 1 20
REMARK H PARENT
REMARK Flexibility Score: inf
ROOT
ATOM      1  C   UNL     1       2.237  20.811 -13.514  1.00  0.00     0.000 C 
ENDROOT
BRANCH   1   2
ATOM      2  C   UNL     1       2.177  19.489 -12.731  1.00  0.00     0.000 C 
BRANCH   2   3
ATOM      3  C   UNL     1       2.331  19.684 -11.212  1.00  0.00     0.000 C 
BRANCH   3   4
ATOM      4  C   UNL     1       1.441  20.783 -10.596  1.00  0.00     0.000 C 
BRANCH   4   5
ATOM      5  C   UNL     1       2.157  21.734  -9.621  1.00  0.00     0.000 C 
BRANCH   5   6
ATOM      6  C   UNL     1       1.797  21.465  -8.153  1.00  0.00     0.000 C 
BRANCH   6   7
ATOM      7  C   UNL     1       2.920  20.694  -7.444  1.00  0.00     0.006 C 
BRANCH   7   8
ATOM      8  C   UNL     1       2.443  19.342  -6.900  1.00  0.00     0.053 C 
BRANCH   8   9
ATOM      9  C   UNL     1       1.880  19.465  -5.517  1.00  0.00     0.041 C 
ATOM     10  O   UNL     1       1.470  18.443  -4.907  1.00  0.00    -0.550 OA
ATOM     11  O   UNL     1       1.840  20.704  -4.890  1.00  0.00    -0.550 OA
ENDBRANCH   8   9
ENDBRANCH   7   8
ENDBRANCH   6   7
ENDBRANCH   5   6
ENDBRANCH   4   5
ENDBRANCH   3   4
ENDBRANCH   2   3
ENDBRANCH   1   2
BRANCH   1  12
ATOM     12  C   UNL     1       2.522  20.599 -15.009  1.00  0.00     0.000 C 
BRANCH  12  13
ATOM     13  C   UNL     1       3.198  21.814 -15.663  1.00  0.00    -0.000 C 
BRANCH  13  14
ATOM     14  C   UNL     1       2.222  22.545 -16.597  1.00  0.00    -0.000 C 
BRANCH  14  15
ATOM     15  C   UNL     1       2.871  22.968 -17.928  1.00  0.00    -0.000 C 
BRANCH  15  16
ATOM     16  C   UNL     1       1.997  22.746 -19.180  1.00  0.00    -0.000 C 
BRANCH  16  17
ATOM     17  C   UNL     1       1.104  21.494 -19.137  1.00  0.00    -0.000 C 
BRANCH  17  18
ATOM     18  C   UNL     1       1.741  20.283 -19.840  1.00  0.00    -0.000 C 
BRANCH  18  19
ATOM     19  C   UNL     1       2.975  20.667 -20.670  1.00  0.00    -0.003 C 
ATOM     20  C   UNL     1       3.780  19.449 -21.125  1.00  0.00     0.004 C 
ENDBRANCH  18  19
ENDBRANCH  17  18
ENDBRANCH  16  17
ENDBRANCH  15  16
ENDBRANCH  14  15
ENDBRANCH  13  14
ENDBRANCH  12  13
ENDBRANCH   1  12
TORSDOF 16
ENDMDL
MODEL 4
REMARK VINA RESULT:    -4.996      1.128      1.782
REMARK INTER + INTRA:         -10.733
REMARK INTER:                  -9.816
REMARK INTRA:                  -0.917
REMARK UNBOUND:                -1.063
REMARK SMILES CCCCCCCCCCCCCCCCCC(=O)[O-]
REMARK SMILES IDX 10 1 11 2 12 3 13 4 14 5 15 6 16 7 17 8 18 9 19 10 20 11
REMARK SMILES IDX 9 12 8 13 7 14 6 15 5 16 4 17 3 18 2 19 1 20
REMARK H PARENT
REMARK Flexibility Score: inf
ROOT
ATOM      1  C   UNL     1       1.700  19.982 -12.820  1.00  0.00     0.000 C 
ENDROOT
BRANCH   1   2
ATOM      2  C   UNL     1       2.457  21.117 -13.530  1.00  0.00     0.000 C 
BRANCH   2   3
ATOM      3  C   UNL     1       2.499  20.944 -15.059  1.00  0.00     0.000 C 
BRANCH   3   4
ATOM      4  C   UNL     1       3.436  21.915 -15.805  1.00  0.00     0.000 C 
BRANCH   4   5
ATOM      5  C   UNL     1       2.868  22.500 -17.110  1.00  0.00     0.000 C 
BRANCH   5   6
ATOM      6  C   UNL     1       1.520  21.879 -17.505  1.00  0.00     0.000 C 
BRANCH   6   7
ATOM      7  C   UNL     1       1.385  21.784 -19.032  1.00  0.00     0.006 C 
BRANCH   7   8
ATOM      8  C   UNL     1       1.846  20.424 -19.572  1.00  0.00     0.053 C 
BRANCH   8   9
ATOM      9  C   UNL     1       2.950  20.568 -20.574  1.00  0.00     0.041 C 
ATOM     10  O   UNL     1       3.342  21.712 -20.925  1.00  0.00    -0.550 OA
ATOM     11  O   UNL     1       3.569  19.439 -21.095  1.00  0.00    -0.550 OA
ENDBRANCH   8   9
ENDBRANCH   7   8
ENDBRANCH   6   7
ENDBRANCH   5   6
ENDBRANCH   4   5
ENDBRANCH   3   4
ENDBRANCH   2   3
ENDBRANCH   1   2
BRANCH   1  12
ATOM     12  C   UNL     1       2.604  18.784 -12.492  1.00  0.00     0.000 C 
BRANCH  12  13
ATOM     13  C   UNL     1       3.241  18.885 -11.097  1.00  0.00    -0.000 C 
BRANCH  13  14
ATOM     14  C   UNL     1       2.213  19.357 -10.059  1.00  0.00    -0.000 C 
BRANCH  14  15
ATOM     15  C   UNL     1       2.751  19.307  -8.617  1.00  0.00    -0.000 C 
BRANCH  15  16
ATOM     16  C   UNL     1       2.542  20.596  -7.796  1.00  0.00    -0.000 C 
BRANCH  16  17
ATOM     17  C   UNL     1       1.084  20.886  -7.398  1.00  0.00    -0.000 C 
BRANCH  17  18
ATOM     18  C   UNL     1       0.894  21.004  -5.876  1.00  0.00    -0.000 C 
BRANCH  18  19
ATOM     19  C   UNL     1       0.266  19.743  -5.262  1.00  0.00    -0.003 C 
ATOM     20  C   UNL     1      -0.114  18.702  -6.315  1.00  0.00     0.004 C 
ENDBRANCH  18  19
ENDBRANCH  17  18
ENDBRANCH  16  17
ENDBRANCH  15  16
ENDBRANCH  14  15
ENDBRANCH  13  14
ENDBRANCH  12  13
ENDBRANCH   1  12
TORSDOF 16
ENDMDL
MODEL 5
REMARK VINA RESULT:    -4.890      1.890      3.757
REMARK INTER + INTRA:         -10.528
REMARK INTER:                  -8.987
REMARK INTRA:                  -1.541
REMARK UNBOUND:                -1.063
REMARK SMILES CCCCCCCCCCCCCCCCCC(=O)[O-]
REMARK SMILES IDX 10 1 11 2 12 3 13 4 14 5 15 6 16 7 17 8 18 9 19 10 20 11
REMARK SMILES IDX 9 12 8 13 7 14 6 15 5 16 4 17 3 18 2 19 1 20
REMARK H PARENT
REMARK Flexibility Score: inf
ROOT
ATOM      1  C   UNL     1       1.106  18.473 -10.577  1.00  0.00     0.000 C 
ENDROOT
BRANCH   1   2
ATOM      2  C   UNL     1       0.832  19.354 -11.806  1.00  0.00     0.000 C 
BRANCH   2   3
ATOM      3  C   UNL     1       2.058  19.497 -12.725  1.00  0.00     0.000 C 
BRANCH   3   4
ATOM      4  C   UNL     1       2.226  20.880 -13.388  1.00  0.00     0.000 C 
BRANCH   4   5
ATOM      5  C   UNL     1       2.546  20.849 -14.893  1.00  0.00     0.000 C 
BRANCH   5   6
ATOM      6  C   UNL     1       3.271  22.114 -15.375  1.00  0.00     0.000 C 
BRANCH   6   7
ATOM      7  C   UNL     1       2.865  22.464 -16.815  1.00  0.00     0.006 C 
BRANCH   7   8
ATOM      8  C   UNL     1       1.726  21.576 -17.330  1.00  0.00     0.053 C 
BRANCH   8   9
ATOM      9  C   UNL     1       1.407  21.857 -18.766  1.00  0.00     0.041 C 
ATOM     10  O   UNL     1       0.947  20.946 -19.503  1.00  0.00    -0.550 OA
ATOM     11  O   UNL     1       1.585  23.135 -19.282  1.00  0.00    -0.550 OA
ENDBRANCH   8   9
ENDBRANCH   7   8
ENDBRANCH   6   7
ENDBRANCH   5   6
ENDBRANCH   4   5
ENDBRANCH   3   4
ENDBRANCH   2   3
ENDBRANCH   1   2
BRANCH   1  12
ATOM     12  C   UNL     1      -0.145  17.715 -10.105  1.00  0.00     0.000 C 
BRANCH  12  13
ATOM     13  C   UNL     1      -0.172  17.501  -8.583  1.00  0.00    -0.000 C 
BRANCH  13  14
ATOM     14  C   UNL     1       1.203  17.794  -7.965  1.00  0.00    -0.000 C 
BRANCH  14  15
ATOM     15  C   UNL     1       1.110  18.352  -6.533  1.00  0.00    -0.000 C 
BRANCH  15  16
ATOM     16  C   UNL     1       0.189  19.579  -6.369  1.00  0.00    -0.000 C 
BRANCH  16  17
ATOM     17  C   UNL     1       0.861  20.937  -6.636  1.00  0.00    -0.000 C 
BRANCH  17  18
ATOM     18  C   UNL     1       0.854  21.322  -8.126  1.00  0.00    -0.000 C 
BRANCH  18  19
ATOM     19  C   UNL     1       2.267  21.552  -8.682  1.00  0.00    -0.003 C 
ATOM     20  C   UNL     1       3.354  20.929  -7.804  1.00  0.00     0.004 C 
ENDBRANCH  18  19
ENDBRANCH  17  18
ENDBRANCH  16  17
ENDBRANCH  15  16
ENDBRANCH  14  15
ENDBRANCH  13  14
ENDBRANCH  12  13
ENDBRANCH   1  12
TORSDOF 16
ENDMDL
MODEL 6
REMARK VINA RESULT:    -4.858      9.902     12.078
REMARK INTER + INTRA:         -10.466
REMARK INTER:                  -8.764
REMARK INTRA:                  -1.702
REMARK UNBOUND:                -1.063
REMARK SMILES CCCCCCCCCCCCCCCCCC(=O)[O-]
REMARK SMILES IDX 10 1 11 2 12 3 13 4 14 5 15 6 16 7 17 8 18 9 19 10 20 11
REMARK SMILES IDX 9 12 8 13 7 14 6 15 5 16 4 17 3 18 2 19 1 20
REMARK H PARENT
REMARK Flexibility Score: inf
ROOT
ATOM      1  C   UNL     1       8.726  30.318 -12.725  1.00  0.00     0.000 C 
ENDROOT
BRANCH   1   2
ATOM      2  C   UNL     1       7.634  29.238 -12.794  1.00  0.00     0.000 C 
BRANCH   2   3
ATOM      3  C   UNL     1       8.186  27.852 -13.172  1.00  0.00     0.000 C 
BRANCH   3   4
ATOM      4  C   UNL     1       9.724  27.754 -13.247  1.00  0.00     0.000 C 
BRANCH   4   5
ATOM      5  C   UNL     1      10.291  26.325 -13.185  1.00  0.00     0.000 C 
BRANCH   5   6
ATOM      6  C   UNL     1       9.754  25.521 -11.993  1.00  0.00     0.000 C 
BRANCH   6   7
ATOM      7  C   UNL     1       8.992  24.275 -12.468  1.00  0.00     0.006 C 
BRANCH   7   8
ATOM      8  C   UNL     1       7.728  24.016 -11.639  1.00  0.00     0.053 C 
BRANCH   8   9
ATOM      9  C   UNL     1       7.933  22.921 -10.638  1.00  0.00     0.041 C 
ATOM     10  O   UNL     1       7.862  23.168  -9.406  1.00  0.00    -0.550 OA
ATOM     11  O   UNL     1       8.170  21.621 -11.067  1.00  0.00    -0.550 OA
ENDBRANCH   8   9
ENDBRANCH   7   8
ENDBRANCH   6   7
ENDBRANCH   5   6
ENDBRANCH   4   5
ENDBRANCH   3   4
ENDBRANCH   2   3
ENDBRANCH   1   2
BRANCH   1  12
ATOM     12  C   UNL     1       8.274  31.654 -13.337  1.00  0.00     0.000 C 
BRANCH  12  13
ATOM     13  C   UNL     1       7.739  31.502 -14.769  1.00  0.00    -0.000 C 
BRANCH  13  14
ATOM     14  C   UNL     1       6.432  32.287 -14.950  1.00  0.00    -0.000 C 
BRANCH  14  15
ATOM     15  C   UNL     1       5.178  31.429 -14.696  1.00  0.00    -0.000 C 
BRANCH  15  16
ATOM     16  C   UNL     1       3.993  32.179 -14.052  1.00  0.00    -0.000 C 
BRANCH  16  17
ATOM     17  C   UNL     1       4.368  33.471 -13.307  1.00  0.00    -0.000 C 
BRANCH  17  18
ATOM     18  C   UNL     1       4.167  33.362 -11.786  1.00  0.00    -0.000 C 
BRANCH  18  19
ATOM     19  C   UNL     1       5.252  32.512 -11.108  1.00  0.00    -0.003 C 
ATOM     20  C   UNL     1       6.461  33.339 -10.670  1.00  0.00     0.004 C 
ENDBRANCH  18  19
ENDBRANCH  17  18
ENDBRANCH  16  17
ENDBRANCH  15  16
ENDBRANCH  14  15
ENDBRANCH  13  14
ENDBRANCH  12  13
ENDBRANCH   1  12
TORSDOF 16
ENDMDL
MODEL 7
REMARK VINA RESULT:    -4.846      9.678     11.775
REMARK INTER + INTRA:         -10.441
REMARK INTER:                  -8.271
REMARK INTRA:                  -2.170
REMARK UNBOUND:                -1.063
REMARK SMILES CCCCCCCCCCCCCCCCCC(=O)[O-]
REMARK SMILES IDX 10 1 11 2 12 3 13 4 14 5 15 6 16 7 17 8 18 9 19 10 20 11
REMARK SMILES IDX 9 12 8 13 7 14 6 15 5 16 4 17 3 18 2 19 1 20
REMARK H PARENT
REMARK Flexibility Score: inf
ROOT
ATOM      1  C   UNL     1       7.053  29.121 -15.142  1.00  0.00     0.000 C 
ENDROOT
BRANCH   1   2
ATOM      2  C   UNL     1       7.002  28.112 -13.983  1.00  0.00     0.000 C 
BRANCH   2   3
ATOM      3  C   UNL     1       7.917  28.503 -12.808  1.00  0.00     0.000 C 
BRANCH   3   4
ATOM      4  C   UNL     1       9.412  28.648 -13.159  1.00  0.00     0.000 C 
BRANCH   4   5
ATOM      5  C   UNL     1      10.086  27.371 -13.690  1.00  0.00     0.000 C 
BRANCH   5   6
ATOM      6  C   UNL     1      10.049  26.214 -12.683  1.00  0.00     0.000 C 
BRANCH   6   7
ATOM      7  C   UNL     1       9.353  24.983 -13.285  1.00  0.00     0.006 C 
BRANCH   7   8
ATOM      8  C   UNL     1       8.914  23.980 -12.210  1.00  0.00     0.053 C 
BRANCH   8   9
ATOM      9  C   UNL     1       7.463  24.130 -11.868  1.00  0.00     0.041 C 
ATOM     10  O   UNL     1       7.003  23.606 -10.820  1.00  0.00    -0.550 OA
ATOM     11  O   UNL     1       6.628  24.877 -12.689  1.00  0.00    -0.550 OA
ENDBRANCH   8   9
ENDBRANCH   7   8
ENDBRANCH   6   7
ENDBRANCH   5   6
ENDBRANCH   4   5
ENDBRANCH   3   4
ENDBRANCH   2   3
ENDBRANCH   1   2
BRANCH   1  12
ATOM     12  C   UNL     1       5.760  29.943 -15.265  1.00  0.00     0.000 C 
BRANCH  12  13
ATOM     13  C   UNL     1       5.954  31.418 -14.881  1.00  0.00    -0.000 C 
BRANCH  13  14
ATOM     14  C   UNL     1       7.441  31.798 -14.904  1.00  0.00    -0.000 C 
BRANCH  14  15
ATOM     15  C   UNL     1       7.928  32.393 -13.569  1.00  0.00    -0.000 C 
BRANCH  15  16
ATOM     16  C   UNL     1       7.174  31.894 -12.318  1.00  0.00    -0.000 C 
BRANCH  16  17
ATOM     17  C   UNL     1       6.424  32.985 -11.533  1.00  0.00    -0.000 C 
BRANCH  17  18
ATOM     18  C   UNL     1       4.948  32.630 -11.284  1.00  0.00    -0.000 C 
BRANCH  18  19
ATOM     19  C   UNL     1       4.002  33.310 -12.285  1.00  0.00    -0.003 C 
ATOM     20  C   UNL     1       4.654  34.494 -13.001  1.00  0.00     0.004 C 
ENDBRANCH  18  19
ENDBRANCH  17  18
ENDBRANCH  16  17
ENDBRANCH  15  16
ENDBRANCH  14  15
ENDBRANCH  13  14
ENDBRANCH  12  13
ENDBRANCH   1  12
TORSDOF 16
ENDMDL
MODEL 8
REMARK VINA RESULT:    -4.843      9.948     11.679
REMARK INTER + INTRA:         -10.437
REMARK INTER:                  -8.744
REMARK INTRA:                  -1.693
REMARK UNBOUND:                -1.063
REMARK SMILES CCCCCCCCCCCCCCCCCC(=O)[O-]
REMARK SMILES IDX 10 1 11 2 12 3 13 4 14 5 15 6 16 7 17 8 18 9 19 10 20 11
REMARK SMILES IDX 9 12 8 13 7 14 6 15 5 16 4 17 3 18 2 19 1 20
REMARK H PARENT
REMARK Flexibility Score: inf
ROOT
ATOM      1  C   UNL     1       8.454  31.750 -12.581  1.00  0.00     0.000 C 
ENDROOT
BRANCH   1   2
ATOM      2  C   UNL     1       7.464  32.915 -12.416  1.00  0.00     0.000 C 
BRANCH   2   3
ATOM      3  C   UNL     1       6.417  32.661 -11.317  1.00  0.00     0.000 C 
BRANCH   3   4
ATOM      4  C   UNL     1       4.956  32.589 -11.804  1.00  0.00     0.000 C 
BRANCH   4   5
ATOM      5  C   UNL     1       4.568  33.636 -12.862  1.00  0.00     0.000 C 
BRANCH   5   6
ATOM      6  C   UNL     1       3.854  33.023 -14.076  1.00  0.00     0.000 C 
BRANCH   6   7
ATOM      7  C   UNL     1       4.795  32.091 -14.853  1.00  0.00     0.006 C 
BRANCH   7   8
ATOM      8  C   UNL     1       5.809  32.866 -15.705  1.00  0.00     0.053 C 
BRANCH   8   9
ATOM      9  C   UNL     1       5.406  32.910 -17.147  1.00  0.00     0.041 C 
ATOM     10  O   UNL     1       4.650  33.827 -17.565  1.00  0.00    -0.550 OA
ATOM     11  O   UNL     1       5.892  31.960 -18.035  1.00  0.00    -0.550 OA
ENDBRANCH   8   9
ENDBRANCH   7   8
ENDBRANCH   6   7
ENDBRANCH   5   6
ENDBRANCH   4   5
ENDBRANCH   3   4
ENDBRANCH   2   3
ENDBRANCH   1   2
BRANCH   1  12
ATOM     12  C   UNL     1       7.747  30.396 -12.747  1.00  0.00     0.000 C 
BRANCH  12  13
ATOM     13  C   UNL     1       7.668  29.942 -14.213  1.00  0.00    -0.000 C 
BRANCH  13  14
ATOM     14  C   UNL     1       7.131  28.506 -14.312  1.00  0.00    -0.000 C 
BRANCH  14  15
ATOM     15  C   UNL     1       7.496  27.644 -13.089  1.00  0.00    -0.000 C 
BRANCH  15  16
ATOM     16  C   UNL     1       8.934  27.086 -13.089  1.00  0.00    -0.000 C 
BRANCH  16  17
ATOM     17  C   UNL     1       9.074  25.648 -12.562  1.00  0.00    -0.000 C 
BRANCH  17  18
ATOM     18  C   UNL     1       7.809  24.804 -12.790  1.00  0.00    -0.000 C 
BRANCH  18  19
ATOM     19  C   UNL     1       7.324  24.111 -11.507  1.00  0.00    -0.003 C 
ATOM     20  C   UNL     1       8.454  23.864 -10.507  1.00  0.00     0.004 C 
ENDBRANCH  18  19
ENDBRANCH  17  18
ENDBRANCH  16  17
ENDBRANCH  15  16
ENDBRANCH  14  15
ENDBRANCH  13  14
ENDBRANCH  12  13
ENDBRANCH   1  12
TORSDOF 16
ENDMDL
MODEL 9
REMARK VINA RESULT:    -4.831     10.316     12.626
REMARK INTER + INTRA:         -10.414
REMARK INTER:                  -8.407
REMARK INTRA:                  -2.007
REMARK UNBOUND:                -1.063
REMARK SMILES CCCCCCCCCCCCCCCCCC(=O)[O-]
REMARK SMILES IDX 10 1 11 2 12 3 13 4 14 5 15 6 16 7 17 8 18 9 19 10 20 11
REMARK SMILES IDX 9 12 8 13 7 14 6 15 5 16 4 17 3 18 2 19 1 20
REMARK H PARENT
REMARK Flexibility Score: inf
ROOT
ATOM      1  C   UNL     1       8.550  32.541 -12.269  1.00  0.00     0.000 C 
ENDROOT
BRANCH   1   2
ATOM      2  C   UNL     1       9.700  31.528 -12.392  1.00  0.00     0.000 C 
BRANCH   2   3
ATOM      3  C   UNL     1       9.220  30.122 -12.792  1.00  0.00     0.000 C 
BRANCH   3   4
ATOM      4  C   UNL     1       7.689  29.947 -12.873  1.00  0.00     0.000 C 
BRANCH   4   5
ATOM      5  C   UNL     1       7.214  28.657 -13.564  1.00  0.00     0.000 C 
BRANCH   5   6
ATOM      6  C   UNL     1       7.984  27.413 -13.099  1.00  0.00     0.000 C 
BRANCH   6   7
ATOM      7  C   UNL     1       7.062  26.185 -13.045  1.00  0.00     0.006 C 
BRANCH   7   8
ATOM      8  C   UNL     1       7.849  24.872 -12.943  1.00  0.00     0.053 C 
BRANCH   8   9
ATOM      9  C   UNL     1       7.648  24.204 -11.618  1.00  0.00     0.041 C 
ATOM     10  O   UNL     1       6.491  23.884 -11.239  1.00  0.00    -0.550 OA
ATOM     11  O   UNL     1       8.742  23.905 -10.816  1.00  0.00    -0.550 OA
ENDBRANCH   8   9
ENDBRANCH   7   8
ENDBRANCH   6   7
ENDBRANCH   5   6
ENDBRANCH   4   5
ENDBRANCH   3   4
ENDBRANCH   2   3
ENDBRANCH   1   2
BRANCH   1  12
ATOM     12  C   UNL     1       8.696  33.720 -13.243  1.00  0.00     0.000 C 
BRANCH  12  13
ATOM     13  C   UNL     1       7.511  33.841 -14.214  1.00  0.00    -0.000 C 
BRANCH  13  14
ATOM     14  C   UNL     1       7.615  32.797 -15.336  1.00  0.00    -0.000 C 
BRANCH  14  15
ATOM     15  C   UNL     1       6.271  32.110 -15.640  1.00  0.00    -0.000 C 
BRANCH  15  16
ATOM     16  C   UNL     1       5.101  33.068 -15.943  1.00  0.00    -0.000 C 
BRANCH  16  17
ATOM     17  C   UNL     1       3.957  33.045 -14.914  1.00  0.00    -0.000 C 
BRANCH  17  18
ATOM     18  C   UNL     1       4.309  32.239 -13.651  1.00  0.00    -0.000 C 
BRANCH  18  19
ATOM     19  C   UNL     1       4.223  33.082 -12.371  1.00  0.00    -0.003 C 
ATOM     20  C   UNL     1       5.077  32.517 -11.235  1.00  0.00     0.004 C 
ENDBRANCH  18  19
ENDBRANCH  17  18
ENDBRANCH  16  17
ENDBRANCH  15  16
ENDBRANCH  14  15
ENDBRANCH  13  14
ENDBRANCH  12  13
ENDBRANCH   1  12
TORSDOF 16
ENDMDL
