MODEL 1
REMARK VINA RESULT:    -4.950      0.000      0.000
REMARK INTER + INTRA:          -6.309
REMARK INTER:                  -6.107
REMARK INTRA:                  -0.202
REMARK UNBOUND:                -0.202
REMARK SMILES O=c1c(O)c(-c2cc(O)c(O)c(O)c2)oc2cc(O)cc(O)c12
REMARK SMILES IDX 5 1 3 2 2 3 1 4 23 5 21 6 20 7 18 8 17 9 16 10 15 11 6 12
REMARK SMILES IDX 7 13 8 14 14 15 10 16 12 17 9 18 11 20 13 22 4 24 22 26
REMARK SMILES IDX 19 28
REMARK H PARENT 9 19 11 21 13 23 4 25 22 27 19 29
REMARK Flexibility Score: inf
ROOT
ATOM      1  C   UNL     1     -17.825  19.204  -7.387  1.00  0.00     0.180 A 
ATOM      2  C   UNL     1     -16.689  19.845  -6.862  1.00  0.00     0.208 A 
ATOM      3  C   UNL     1     -16.492  19.848  -5.471  1.00  0.00     0.238 A 
ATOM      4  O   UNL     1     -15.436  20.358  -5.014  1.00  0.00    -0.285 OA
ATOM      5  C   UNL     1     -17.459  19.262  -4.620  1.00  0.00     0.111 A 
ATOM      6  C   UNL     1     -17.385  19.248  -3.194  1.00  0.00     0.134 A 
ATOM      7  C   UNL     1     -18.348  18.544  -2.459  1.00  0.00     0.093 A 
ATOM      8  C   UNL     1     -19.416  17.911  -3.092  1.00  0.00     0.123 A 
ATOM      9  C   UNL     1     -19.529  17.965  -4.482  1.00  0.00     0.094 A 
ATOM     10  C   UNL     1     -18.564  18.626  -5.245  1.00  0.00     0.146 A 
ATOM     11  O   UNL     1     -18.698  18.634  -6.566  1.00  0.00    -0.452 OA
ENDROOT
BRANCH   1  12
ATOM     12  C   UNL     1     -18.094  19.146  -8.842  1.00  0.00     0.029 A 
ATOM     13  C   UNL     1     -19.269  19.719  -9.350  1.00  0.00     0.062 A 
ATOM     14  C   UNL     1     -19.560  19.661 -10.716  1.00  0.00     0.162 A 
ATOM     15  C   UNL     1     -17.226  18.475  -9.720  1.00  0.00     0.062 A 
ATOM     16  C   UNL     1     -18.678  19.009 -11.594  1.00  0.00     0.200 A 
ATOM     17  C   UNL     1     -17.510  18.410 -11.091  1.00  0.00     0.162 A 
BRANCH  14  18
ATOM     18  O   UNL     1     -20.732  20.257 -11.183  1.00  0.00    -0.504 OA
ATOM     19  H   UNL     1     -21.631  20.088 -10.751  1.00  0.00     0.293 HD
ENDBRANCH  14  18
BRANCH  16  20
ATOM     20  O   UNL     1     -18.974  18.957 -12.957  1.00  0.00    -0.502 OA
ATOM     21  H   UNL     1     -18.261  19.059 -13.669  1.00  0.00     0.293 HD
ENDBRANCH  16  20
BRANCH  17  22
ATOM     22  O   UNL     1     -16.638  17.748 -11.955  1.00  0.00    -0.504 OA
ATOM     23  H   UNL     1     -16.775  16.776 -12.205  1.00  0.00     0.293 HD
ENDBRANCH  17  22
ENDBRANCH   1  12
BRANCH   2  24
ATOM     24  O   UNL     1     -15.785  20.484  -7.714  1.00  0.00    -0.502 OA
ATOM     25  H   UNL     1     -15.985  21.378  -8.147  1.00  0.00     0.293 HD
ENDBRANCH   2  24
BRANCH   6  26
ATOM     26  O   UNL     1     -16.410  19.922  -2.454  1.00  0.00    -0.507 OA
ATOM     27  H   UNL     1     -15.503  19.550  -2.217  1.00  0.00     0.293 HD
ENDBRANCH   6  26
BRANCH   8  28
ATOM     28  O   UNL     1     -20.365  17.234  -2.328  1.00  0.00    -0.508 OA
ATOM     29  H   UNL     1     -20.163  16.337  -1.904  1.00  0.00     0.293 HD
ENDBRANCH   8  28
TORSDOF 7
ENDMDL
MODEL 2
REMARK VINA RESULT:    -4.927      1.203      2.315
REMARK INTER + INTRA:          -6.281
REMARK INTER:                  -5.973
REMARK INTRA:                  -0.308
REMARK UNBOUND:                -0.202
REMARK SMILES O=c1c(O)c(-c2cc(O)c(O)c(O)c2)oc2cc(O)cc(O)c12
REMARK SMILES IDX 5 1 3 2 2 3 1 4 23 5 21 6 20 7 18 8 17 9 16 10 15 11 6 12
REMARK SMILES IDX 7 13 8 14 14 15 10 16 12 17 9 18 11 20 13 22 4 24 22 26
REMARK SMILES IDX 19 28
REMARK H PARENT 9 19 11 21 13 23 4 25 22 27 19 29
REMARK Flexibility Score: inf
ROOT
ATOM      1  C   UNL     1     -17.257  18.479  -7.613  1.00  0.00     0.180 A 
ATOM      2  C   UNL     1     -16.584  19.578  -7.051  1.00  0.00     0.208 A 
ATOM      3  C   UNL     1     -16.784  19.878  -5.693  1.00  0.00     0.238 A 
ATOM      4  O   UNL     1     -16.122  20.816  -5.179  1.00  0.00    -0.285 OA
ATOM      5  C   UNL     1     -17.696  19.110  -4.929  1.00  0.00     0.111 A 
ATOM      6  C   UNL     1     -18.011  19.352  -3.557  1.00  0.00     0.134 A 
ATOM      7  C   UNL     1     -18.849  18.462  -2.874  1.00  0.00     0.093 A 
ATOM      8  C   UNL     1     -19.433  17.378  -3.526  1.00  0.00     0.123 A 
ATOM      9  C   UNL     1     -19.177  17.163  -4.881  1.00  0.00     0.094 A 
ATOM     10  C   UNL     1     -18.315  18.011  -5.581  1.00  0.00     0.146 A 
ATOM     11  O   UNL     1     -18.081  17.758  -6.862  1.00  0.00    -0.452 OA
ENDROOT
BRANCH   1  12
ATOM     12  C   UNL     1     -17.086  18.092  -9.032  1.00  0.00     0.029 A 
ATOM     13  C   UNL     1     -16.236  17.026  -9.358  1.00  0.00     0.062 A 
ATOM     14  C   UNL     1     -16.039  16.651 -10.691  1.00  0.00     0.162 A 
ATOM     15  C   UNL     1     -17.711  18.809 -10.066  1.00  0.00     0.062 A 
ATOM     16  C   UNL     1     -16.684  17.357 -11.721  1.00  0.00     0.200 A 
ATOM     17  C   UNL     1     -17.519  18.443 -11.405  1.00  0.00     0.162 A 
BRANCH  14  18
ATOM     18  O   UNL     1     -15.197  15.575 -10.973  1.00  0.00    -0.504 OA
ATOM     19  H   UNL     1     -14.196  15.686 -11.071  1.00  0.00     0.293 HD
ENDBRANCH  14  18
BRANCH  16  20
ATOM     20  O   UNL     1     -16.484  16.976 -13.049  1.00  0.00    -0.502 OA
ATOM     21  H   UNL     1     -15.634  17.197 -13.552  1.00  0.00     0.293 HD
ENDBRANCH  16  20
BRANCH  17  22
ATOM     22  O   UNL     1     -18.150  19.157 -12.422  1.00  0.00    -0.504 OA
ATOM     23  H   UNL     1     -18.954  19.745 -12.239  1.00  0.00     0.293 HD
ENDBRANCH  17  22
ENDBRANCH   1  12
BRANCH   2  24
ATOM     24  O   UNL     1     -15.746  20.369  -7.842  1.00  0.00    -0.502 OA
ATOM     25  H   UNL     1     -15.126  19.976  -8.539  1.00  0.00     0.293 HD
ENDBRANCH   2  24
BRANCH   6  26
ATOM     26  O   UNL     1     -17.553  20.455  -2.832  1.00  0.00    -0.507 OA
ATOM     27  H   UNL     1     -17.695  21.419  -3.093  1.00  0.00     0.293 HD
ENDBRANCH   6  26
BRANCH   8  28
ATOM     28  O   UNL     1     -20.275  16.522  -2.819  1.00  0.00    -0.508 OA
ATOM     29  H   UNL     1     -20.392  15.552  -3.086  1.00  0.00     0.293 HD
ENDBRANCH   8  28
TORSDOF 7
ENDMDL
MODEL 3
REMARK VINA RESULT:    -4.872      1.649      7.490
REMARK INTER + INTRA:          -6.213
REMARK INTER:                  -5.868
REMARK INTRA:                  -0.344
REMARK UNBOUND:                -0.202
REMARK SMILES O=c1c(O)c(-c2cc(O)c(O)c(O)c2)oc2cc(O)cc(O)c12
REMARK SMILES IDX 5 1 3 2 2 3 1 4 23 5 21 6 20 7 18 8 17 9 16 10 15 11 6 12
REMARK SMILES IDX 7 13 8 14 14 15 10 16 12 17 9 18 11 20 13 22 4 24 22 26
REMARK SMILES IDX 19 28
REMARK H PARENT 9 19 11 21 13 23 4 25 22 27 19 29
REMARK Flexibility Score: inf
ROOT
ATOM      1  C   UNL     1     -17.669  18.837  -8.961  1.00  0.00     0.180 A 
ATOM      2  C   UNL     1     -18.716  19.435  -9.684  1.00  0.00     0.208 A 
ATOM      3  C   UNL     1     -18.870  19.122 -11.045  1.00  0.00     0.238 A 
ATOM      4  O   UNL     1     -19.852  19.603 -11.666  1.00  0.00    -0.285 OA
ATOM      5  C   UNL     1     -17.943  18.259 -11.678  1.00  0.00     0.111 A 
ATOM      6  C   UNL     1     -17.976  17.909 -13.063  1.00  0.00     0.134 A 
ATOM      7  C   UNL     1     -17.069  16.962 -13.557  1.00  0.00     0.093 A 
ATOM      8  C   UNL     1     -16.093  16.402 -12.735  1.00  0.00     0.123 A 
ATOM      9  C   UNL     1     -16.016  16.779 -11.394  1.00  0.00     0.094 A 
ATOM     10  C   UNL     1     -16.930  17.692 -10.862  1.00  0.00     0.146 A 
ATOM     11  O   UNL     1     -16.835  18.006  -9.576  1.00  0.00    -0.452 OA
ENDROOT
BRANCH   1  12
ATOM     12  C   UNL     1     -17.451  19.106  -7.521  1.00  0.00     0.029 A 
ATOM     13  C   UNL     1     -16.427  19.980  -7.131  1.00  0.00     0.062 A 
ATOM     14  C   UNL     1     -16.184  20.237  -5.778  1.00  0.00     0.162 A 
ATOM     15  C   UNL     1     -18.211  18.458  -6.533  1.00  0.00     0.062 A 
ATOM     16  C   UNL     1     -16.961  19.604  -4.793  1.00  0.00     0.200 A 
ATOM     17  C   UNL     1     -17.974  18.707  -5.174  1.00  0.00     0.162 A 
BRANCH  14  18
ATOM     18  O   UNL     1     -15.165  21.125  -5.431  1.00  0.00    -0.504 OA
ATOM     19  H   UNL     1     -14.837  21.842  -6.065  1.00  0.00     0.293 HD
ENDBRANCH  14  18
BRANCH  16  20
ATOM     20  O   UNL     1     -16.714  19.868  -3.444  1.00  0.00    -0.502 OA
ATOM     21  H   UNL     1     -16.527  20.802  -3.103  1.00  0.00     0.293 HD
ENDBRANCH  16  20
BRANCH  17  22
ATOM     22  O   UNL     1     -18.739  18.065  -4.202  1.00  0.00    -0.504 OA
ATOM     23  H   UNL     1     -19.641  18.423  -3.913  1.00  0.00     0.293 HD
ENDBRANCH  17  22
ENDBRANCH   1  12
BRANCH   2  24
ATOM     24  O   UNL     1     -19.574  20.343  -9.057  1.00  0.00    -0.502 OA
ATOM     25  H   UNL     1     -19.980  21.132  -9.545  1.00  0.00     0.293 HD
ENDBRANCH   2  24
BRANCH   6  26
ATOM     26  O   UNL     1     -18.853  18.473 -13.993  1.00  0.00    -0.507 OA
ATOM     27  H   UNL     1     -19.772  18.828 -13.779  1.00  0.00     0.293 HD
ENDBRANCH   6  26
BRANCH   8  28
ATOM     28  O   UNL     1     -15.197  15.476 -13.264  1.00  0.00    -0.508 OA
ATOM     29  H   UNL     1     -15.403  14.964 -14.114  1.00  0.00     0.293 HD
ENDBRANCH   8  28
TORSDOF 7
ENDMDL
MODEL 4
REMARK VINA RESULT:    -4.872     15.246     16.871
REMARK INTER + INTRA:          -6.213
REMARK INTER:                  -5.997
REMARK INTRA:                  -0.216
REMARK UNBOUND:                -0.202
REMARK SMILES O=c1c(O)c(-c2cc(O)c(O)c(O)c2)oc2cc(O)cc(O)c12
REMARK SMILES IDX 5 1 3 2 2 3 1 4 23 5 21 6 20 7 18 8 17 9 16 10 15 11 6 12
REMARK SMILES IDX 7 13 8 14 14 15 10 16 12 17 9 18 11 20 13 22 4 24 22 26
REMARK SMILES IDX 19 28
REMARK H PARENT 9 19 11 21 13 23 4 25 22 27 19 29
REMARK Flexibility Score: inf
ROOT
ATOM      1  C   UNL     1     -15.992   3.332  -5.160  1.00  0.00     0.180 A 
ATOM      2  C   UNL     1     -16.381   2.660  -6.333  1.00  0.00     0.208 A 
ATOM      3  C   UNL     1     -17.742   2.629  -6.680  1.00  0.00     0.238 A 
ATOM      4  O   UNL     1     -18.074   2.090  -7.768  1.00  0.00    -0.285 OA
ATOM      5  C   UNL     1     -18.702   3.219  -5.824  1.00  0.00     0.111 A 
ATOM      6  C   UNL     1     -20.111   3.207  -6.053  1.00  0.00     0.134 A 
ATOM      7  C   UNL     1     -20.957   3.916  -5.190  1.00  0.00     0.093 A 
ATOM      8  C   UNL     1     -20.454   4.582  -4.074  1.00  0.00     0.123 A 
ATOM      9  C   UNL     1     -19.085   4.554  -3.809  1.00  0.00     0.094 A 
ATOM     10  C   UNL     1     -18.210   3.888  -4.671  1.00  0.00     0.146 A 
ATOM     11  O   UNL     1     -16.913   3.905  -4.394  1.00  0.00    -0.452 OA
ENDROOT
BRANCH   1  12
ATOM     12  C   UNL     1     -14.576   3.421  -4.736  1.00  0.00     0.029 A 
ATOM     13  C   UNL     1     -14.186   2.855  -3.514  1.00  0.00     0.062 A 
ATOM     14  C   UNL     1     -12.861   2.942  -3.077  1.00  0.00     0.162 A 
ATOM     15  C   UNL     1     -13.624   4.112  -5.504  1.00  0.00     0.062 A 
ATOM     16  C   UNL     1     -11.907   3.615  -3.859  1.00  0.00     0.200 A 
ATOM     17  C   UNL     1     -12.294   4.206  -5.075  1.00  0.00     0.162 A 
BRANCH  14  18
ATOM     18  O   UNL     1     -12.510   2.354  -1.862  1.00  0.00    -0.504 OA
ATOM     19  H   UNL     1     -12.789   2.748  -0.972  1.00  0.00     0.293 HD
ENDBRANCH  14  18
BRANCH  16  20
ATOM     20  O   UNL     1     -10.585   3.695  -3.418  1.00  0.00    -0.502 OA
ATOM     21  H   UNL     1     -10.212   3.069  -2.715  1.00  0.00     0.293 HD
ENDBRANCH  16  20
BRANCH  17  22
ATOM     22  O   UNL     1     -11.356   4.888  -5.848  1.00  0.00    -0.504 OA
ATOM     23  H   UNL     1     -11.537   5.125  -6.816  1.00  0.00     0.293 HD
ENDBRANCH  17  22
ENDBRANCH   1  12
BRANCH   2  24
ATOM     24  O   UNL     1     -15.426   2.018  -7.125  1.00  0.00    -0.502 OA
ATOM     25  H   UNL     1     -14.763   1.352  -6.746  1.00  0.00     0.293 HD
ENDBRANCH   2  24
BRANCH   6  26
ATOM     26  O   UNL     1     -20.730   2.501  -7.088  1.00  0.00    -0.507 OA
ATOM     27  H   UNL     1     -20.263   2.153  -7.911  1.00  0.00     0.293 HD
ENDBRANCH   6  26
BRANCH   8  28
ATOM     28  O   UNL     1     -21.327   5.263  -3.228  1.00  0.00    -0.508 OA
ATOM     29  H   UNL     1     -21.058   5.525  -2.288  1.00  0.00     0.293 HD
ENDBRANCH   8  28
TORSDOF 7
ENDMDL
MODEL 5
REMARK VINA RESULT:    -4.863     14.833     16.315
REMARK INTER + INTRA:          -6.202
REMARK INTER:                  -5.849
REMARK INTRA:                  -0.353
REMARK UNBOUND:                -0.202
REMARK SMILES O=c1c(O)c(-c2cc(O)c(O)c(O)c2)oc2cc(O)cc(O)c12
REMARK SMILES IDX 5 1 3 2 2 3 1 4 23 5 21 6 20 7 18 8 17 9 16 10 15 11 6 12
REMARK SMILES IDX 7 13 8 14 14 15 10 16 12 17 9 18 11 20 13 22 4 24 22 26
REMARK SMILES IDX 19 28
REMARK H PARENT 9 19 11 21 13 23 4 25 22 27 19 29
REMARK Flexibility Score: inf
ROOT
ATOM      1  C   UNL     1     -15.830   3.773  -5.430  1.00  0.00     0.180 A 
ATOM      2  C   UNL     1     -16.294   2.785  -6.315  1.00  0.00     0.208 A 
ATOM      3  C   UNL     1     -17.675   2.538  -6.398  1.00  0.00     0.238 A 
ATOM      4  O   UNL     1     -18.089   1.706  -7.245  1.00  0.00    -0.285 OA
ATOM      5  C   UNL     1     -18.568   3.242  -5.555  1.00  0.00     0.111 A 
ATOM      6  C   UNL     1     -19.982   3.041  -5.520  1.00  0.00     0.134 A 
ATOM      7  C   UNL     1     -20.778   3.871  -4.720  1.00  0.00     0.093 A 
ATOM      8  C   UNL     1     -20.209   4.849  -3.907  1.00  0.00     0.123 A 
ATOM      9  C   UNL     1     -18.824   5.017  -3.890  1.00  0.00     0.094 A 
ATOM     10  C   UNL     1     -18.006   4.231  -4.705  1.00  0.00     0.146 A 
ATOM     11  O   UNL     1     -16.695   4.439  -4.675  1.00  0.00    -0.452 OA
ENDROOT
BRANCH   1  12
ATOM     12  C   UNL     1     -14.392   4.099  -5.298  1.00  0.00     0.029 A 
ATOM     13  C   UNL     1     -13.810   5.019  -6.182  1.00  0.00     0.062 A 
ATOM     14  C   UNL     1     -12.450   5.331  -6.095  1.00  0.00     0.162 A 
ATOM     15  C   UNL     1     -13.582   3.463  -4.342  1.00  0.00     0.062 A 
ATOM     16  C   UNL     1     -11.648   4.709  -5.123  1.00  0.00     0.200 A 
ATOM     17  C   UNL     1     -12.218   3.768  -4.248  1.00  0.00     0.162 A 
BRANCH  14  18
ATOM     18  O   UNL     1     -11.912   6.262  -6.984  1.00  0.00    -0.504 OA
ATOM     19  H   UNL     1     -12.461   6.678  -7.726  1.00  0.00     0.293 HD
ENDBRANCH  14  18
BRANCH  16  20
ATOM     20  O   UNL     1     -10.291   5.028  -5.041  1.00  0.00    -0.502 OA
ATOM     21  H   UNL     1      -9.783   5.003  -4.165  1.00  0.00     0.293 HD
ENDBRANCH  16  20
BRANCH  17  22
ATOM     22  O   UNL     1     -11.425   3.136  -3.291  1.00  0.00    -0.504 OA
ATOM     23  H   UNL     1     -10.887   2.306  -3.511  1.00  0.00     0.293 HD
ENDBRANCH  17  22
ENDBRANCH   1  12
BRANCH   2  24
ATOM     24  O   UNL     1     -15.390   2.048  -7.084  1.00  0.00    -0.502 OA
ATOM     25  H   UNL     1     -14.857   1.274  -6.705  1.00  0.00     0.293 HD
ENDBRANCH   2  24
BRANCH   6  26
ATOM     26  O   UNL     1     -20.647   2.034  -6.226  1.00  0.00    -0.507 OA
ATOM     27  H   UNL     1     -21.286   1.369  -5.820  1.00  0.00     0.293 HD
ENDBRANCH   6  26
BRANCH   8  28
ATOM     28  O   UNL     1     -21.031   5.645  -3.112  1.00  0.00    -0.508 OA
ATOM     29  H   UNL     1     -20.686   6.084  -2.266  1.00  0.00     0.293 HD
ENDBRANCH   8  28
TORSDOF 7
ENDMDL
MODEL 6
REMARK VINA RESULT:    -4.822      2.323      7.225
REMARK INTER + INTRA:          -6.151
REMARK INTER:                  -5.932
REMARK INTRA:                  -0.219
REMARK UNBOUND:                -0.202
REMARK SMILES O=c1c(O)c(-c2cc(O)c(O)c(O)c2)oc2cc(O)cc(O)c12
REMARK SMILES IDX 5 1 3 2 2 3 1 4 23 5 21 6 20 7 18 8 17 9 16 10 15 11 6 12
REMARK SMILES IDX 7 13 8 14 14 15 10 16 12 17 9 18 11 20 13 22 4 24 22 26
REMARK SMILES IDX 19 28
REMARK H PARENT 9 19 11 21 13 23 4 25 22 27 19 29
REMARK Flexibility Score: inf
ROOT
ATOM      1  C   UNL     1     -16.651  18.343  -6.944  1.00  0.00     0.180 A 
ATOM      2  C   UNL     1     -17.076  19.149  -8.014  1.00  0.00     0.208 A 
ATOM      3  C   UNL     1     -16.924  18.674  -9.327  1.00  0.00     0.238 A 
ATOM      4  O   UNL     1     -17.375  19.369 -10.275  1.00  0.00    -0.285 OA
ATOM      5  C   UNL     1     -16.298  17.426  -9.557  1.00  0.00     0.111 A 
ATOM      6  C   UNL     1     -16.050  16.867 -10.847  1.00  0.00     0.134 A 
ATOM      7  C   UNL     1     -15.518  15.575 -10.950  1.00  0.00     0.093 A 
ATOM      8  C   UNL     1     -15.166  14.849  -9.814  1.00  0.00     0.123 A 
ATOM      9  C   UNL     1     -15.352  15.407  -8.549  1.00  0.00     0.094 A 
ATOM     10  C   UNL     1     -15.916  16.678  -8.412  1.00  0.00     0.146 A 
ATOM     11  O   UNL     1     -16.096  17.162  -7.190  1.00  0.00    -0.452 OA
ENDROOT
BRANCH   1  12
ATOM     12  C   UNL     1     -16.791  18.768  -5.532  1.00  0.00     0.029 A 
ATOM     13  C   UNL     1     -15.643  18.931  -4.744  1.00  0.00     0.062 A 
ATOM     14  C   UNL     1     -15.745  19.311  -3.402  1.00  0.00     0.162 A 
ATOM     15  C   UNL     1     -18.054  18.955  -4.947  1.00  0.00     0.062 A 
ATOM     16  C   UNL     1     -17.010  19.519  -2.827  1.00  0.00     0.200 A 
ATOM     17  C   UNL     1     -18.168  19.334  -3.603  1.00  0.00     0.162 A 
BRANCH  14  18
ATOM     18  O   UNL     1     -14.578  19.477  -2.656  1.00  0.00    -0.504 OA
ATOM     19  H   UNL     1     -13.658  19.354  -3.061  1.00  0.00     0.293 HD
ENDBRANCH  14  18
BRANCH  16  20
ATOM     20  O   UNL     1     -17.104  19.901  -1.487  1.00  0.00    -0.502 OA
ATOM     21  H   UNL     1     -16.630  20.718  -1.124  1.00  0.00     0.293 HD
ENDBRANCH  16  20
BRANCH  17  22
ATOM     22  O   UNL     1     -19.426  19.524  -3.033  1.00  0.00    -0.504 OA
ATOM     23  H   UNL     1     -20.223  19.812  -3.589  1.00  0.00     0.293 HD
ENDBRANCH  17  22
ENDBRANCH   1  12
BRANCH   2  24
ATOM     24  O   UNL     1     -17.623  20.412  -7.769  1.00  0.00    -0.502 OA
ATOM     25  H   UNL     1     -18.618  20.594  -7.825  1.00  0.00     0.293 HD
ENDBRANCH   2  24
BRANCH   6  26
ATOM     26  O   UNL     1     -16.281  17.541 -12.050  1.00  0.00    -0.507 OA
ATOM     27  H   UNL     1     -16.951  17.261 -12.750  1.00  0.00     0.293 HD
ENDBRANCH   6  26
BRANCH   8  28
ATOM     28  O   UNL     1     -14.624  13.573  -9.954  1.00  0.00    -0.508 OA
ATOM     29  H   UNL     1     -15.185  12.740  -9.821  1.00  0.00     0.293 HD
ENDBRANCH   8  28
TORSDOF 7
ENDMDL
MODEL 7
REMARK VINA RESULT:    -4.787     15.283     16.493
REMARK INTER + INTRA:          -6.108
REMARK INTER:                  -5.757
REMARK INTRA:                  -0.351
REMARK UNBOUND:                -0.202
REMARK SMILES O=c1c(O)c(-c2cc(O)c(O)c(O)c2)oc2cc(O)cc(O)c12
REMARK SMILES IDX 5 1 3 2 2 3 1 4 23 5 21 6 20 7 18 8 17 9 16 10 15 11 6 12
REMARK SMILES IDX 7 13 8 14 14 15 10 16 12 17 9 18 11 20 13 22 4 24 22 26
REMARK SMILES IDX 19 28
REMARK H PARENT 9 19 11 21 13 23 4 25 22 27 19 29
REMARK Flexibility Score: inf
ROOT
ATOM      1  C   UNL     1     -14.515   3.718  -5.206  1.00  0.00     0.180 A 
ATOM      2  C   UNL     1     -13.911   3.132  -4.080  1.00  0.00     0.208 A 
ATOM      3  C   UNL     1     -12.584   3.471  -3.765  1.00  0.00     0.238 A 
ATOM      4  O   UNL     1     -12.075   3.000  -2.715  1.00  0.00    -0.285 OA
ATOM      5  C   UNL     1     -11.861   4.347  -4.610  1.00  0.00     0.111 A 
ATOM      6  C   UNL     1     -10.498   4.724  -4.413  1.00  0.00     0.134 A 
ATOM      7  C   UNL     1      -9.917   5.682  -5.255  1.00  0.00     0.093 A 
ATOM      8  C   UNL     1     -10.628   6.227  -6.323  1.00  0.00     0.123 A 
ATOM      9  C   UNL     1     -11.943   5.825  -6.558  1.00  0.00     0.094 A 
ATOM     10  C   UNL     1     -12.562   4.900  -5.714  1.00  0.00     0.146 A 
ATOM     11  O   UNL     1     -13.821   4.562  -5.961  1.00  0.00    -0.452 OA
ENDROOT
BRANCH   1  12
ATOM     12  C   UNL     1     -15.913   3.422  -5.593  1.00  0.00     0.029 A 
ATOM     13  C   UNL     1     -16.162   2.514  -6.633  1.00  0.00     0.062 A 
ATOM     14  C   UNL     1     -17.472   2.231  -7.035  1.00  0.00     0.162 A 
ATOM     15  C   UNL     1     -16.996   4.075  -4.981  1.00  0.00     0.062 A 
ATOM     16  C   UNL     1     -18.553   2.870  -6.405  1.00  0.00     0.200 A 
ATOM     17  C   UNL     1     -18.311   3.799  -5.378  1.00  0.00     0.162 A 
BRANCH  14  18
ATOM     18  O   UNL     1     -17.678   1.311  -8.063  1.00  0.00    -0.504 OA
ATOM     19  H   UNL     1     -16.960   0.660  -8.356  1.00  0.00     0.293 HD
ENDBRANCH  14  18
BRANCH  16  20
ATOM     20  O   UNL     1     -19.857   2.579  -6.810  1.00  0.00    -0.502 OA
ATOM     21  H   UNL     1     -20.318   1.712  -6.563  1.00  0.00     0.293 HD
ENDBRANCH  16  20
BRANCH  17  22
ATOM     22  O   UNL     1     -19.379   4.447  -4.759  1.00  0.00    -0.504 OA
ATOM     23  H   UNL     1     -20.200   4.733  -5.279  1.00  0.00     0.293 HD
ENDBRANCH  17  22
ENDBRANCH   1  12
BRANCH   2  24
ATOM     24  O   UNL     1     -14.617   2.211  -3.302  1.00  0.00    -0.502 OA
ATOM     25  H   UNL     1     -15.291   2.495  -2.602  1.00  0.00     0.293 HD
ENDBRANCH   2  24
BRANCH   6  26
ATOM     26  O   UNL     1      -9.668   4.176  -3.431  1.00  0.00    -0.507 OA
ATOM     27  H   UNL     1      -9.479   3.192  -3.317  1.00  0.00     0.293 HD
ENDBRANCH   6  26
BRANCH   8  28
ATOM     28  O   UNL     1     -10.013   7.165  -7.150  1.00  0.00    -0.508 OA
ATOM     29  H   UNL     1     -10.553   7.834  -7.685  1.00  0.00     0.293 HD
ENDBRANCH   8  28
TORSDOF 7
ENDMDL
MODEL 8
REMARK VINA RESULT:    -4.715     14.305     15.656
REMARK INTER + INTRA:          -6.020
REMARK INTER:                  -5.784
REMARK INTRA:                  -0.236
REMARK UNBOUND:                -0.202
REMARK SMILES O=c1c(O)c(-c2cc(O)c(O)c(O)c2)oc2cc(O)cc(O)c12
REMARK SMILES IDX 5 1 3 2 2 3 1 4 23 5 21 6 20 7 18 8 17 9 16 10 15 11 6 12
REMARK SMILES IDX 7 13 8 14 14 15 10 16 12 17 9 18 11 20 13 22 4 24 22 26
REMARK SMILES IDX 19 28
REMARK H PARENT 9 19 11 21 13 23 4 25 22 27 19 29
REMARK Flexibility Score: inf
ROOT
ATOM      1  C   UNL     1     -16.344   4.178  -6.351  1.00  0.00     0.180 A 
ATOM      2  C   UNL     1     -15.345   3.394  -5.750  1.00  0.00     0.208 A 
ATOM      3  C   UNL     1     -14.024   3.872  -5.730  1.00  0.00     0.238 A 
ATOM      4  O   UNL     1     -13.149   3.200  -5.125  1.00  0.00    -0.285 OA
ATOM      5  C   UNL     1     -13.709   5.099  -6.361  1.00  0.00     0.111 A 
ATOM      6  C   UNL     1     -12.397   5.658  -6.443  1.00  0.00     0.134 A 
ATOM      7  C   UNL     1     -12.222   6.931  -7.000  1.00  0.00     0.093 A 
ATOM      8  C   UNL     1     -13.297   7.637  -7.535  1.00  0.00     0.123 A 
ATOM      9  C   UNL     1     -14.575   7.078  -7.511  1.00  0.00     0.094 A 
ATOM     10  C   UNL     1     -14.789   5.826  -6.928  1.00  0.00     0.146 A 
ATOM     11  O   UNL     1     -16.024   5.340  -6.907  1.00  0.00    -0.452 OA
ENDROOT
BRANCH   1  12
ATOM     12  C   UNL     1     -17.761   3.748  -6.398  1.00  0.00     0.029 A 
ATOM     13  C   UNL     1     -18.368   3.511  -7.639  1.00  0.00     0.062 A 
ATOM     14  C   UNL     1     -19.710   3.125  -7.716  1.00  0.00     0.162 A 
ATOM     15  C   UNL     1     -18.529   3.631  -5.227  1.00  0.00     0.062 A 
ATOM     16  C   UNL     1     -20.468   2.987  -6.541  1.00  0.00     0.200 A 
ATOM     17  C   UNL     1     -19.874   3.246  -5.293  1.00  0.00     0.162 A 
BRANCH  14  18
ATOM     18  O   UNL     1     -20.273   2.884  -8.969  1.00  0.00    -0.504 OA
ATOM     19  H   UNL     1     -19.888   3.278  -9.818  1.00  0.00     0.293 HD
ENDBRANCH  14  18
BRANCH  16  20
ATOM     20  O   UNL     1     -21.807   2.598  -6.625  1.00  0.00    -0.502 OA
ATOM     21  H   UNL     1     -22.117   1.670  -6.367  1.00  0.00     0.293 HD
ENDBRANCH  16  20
BRANCH  17  22
ATOM     22  O   UNL     1     -20.625   3.125  -4.125  1.00  0.00    -0.504 OA
ATOM     23  H   UNL     1     -21.362   3.782  -3.897  1.00  0.00     0.293 HD
ENDBRANCH  17  22
ENDBRANCH   1  12
BRANCH   2  24
ATOM     24  O   UNL     1     -15.663   2.149  -5.199  1.00  0.00    -0.502 OA
ATOM     25  H   UNL     1     -15.727   1.308  -5.758  1.00  0.00     0.293 HD
ENDBRANCH   2  24
BRANCH   6  26
ATOM     26  O   UNL     1     -11.239   5.000  -6.019  1.00  0.00    -0.507 OA
ATOM     27  H   UNL     1     -11.009   4.795  -5.059  1.00  0.00     0.293 HD
ENDBRANCH   6  26
BRANCH   8  28
ATOM     28  O   UNL     1     -13.084   8.894  -8.096  1.00  0.00    -0.508 OA
ATOM     29  H   UNL     1     -13.846   9.442  -8.476  1.00  0.00     0.293 HD
ENDBRANCH   8  28
TORSDOF 7
ENDMDL
MODEL 9
REMARK VINA RESULT:    -4.561     16.896     18.155
REMARK INTER + INTRA:          -5.829
REMARK INTER:                  -5.477
REMARK INTRA:                  -0.352
REMARK UNBOUND:                -0.202
REMARK SMILES O=c1c(O)c(-c2cc(O)c(O)c(O)c2)oc2cc(O)cc(O)c12
REMARK SMILES IDX 5 1 3 2 2 3 1 4 23 5 21 6 20 7 18 8 17 9 16 10 15 11 6 12
REMARK SMILES IDX 7 13 8 14 14 15 10 16 12 17 9 18 11 20 13 22 4 24 22 26
REMARK SMILES IDX 19 28
REMARK H PARENT 9 19 11 21 13 23 4 25 22 27 19 29
REMARK Flexibility Score: inf
ROOT
ATOM      1  C   UNL     1      -4.951   7.633  -8.938  1.00  0.00     0.180 A 
ATOM      2  C   UNL     1      -6.227   7.462  -8.372  1.00  0.00     0.208 A 
ATOM      3  C   UNL     1      -6.406   6.489  -7.375  1.00  0.00     0.238 A 
ATOM      4  O   UNL     1      -7.531   6.393  -6.821  1.00  0.00    -0.285 OA
ATOM      5  C   UNL     1      -5.321   5.662  -6.995  1.00  0.00     0.111 A 
ATOM      6  C   UNL     1      -5.399   4.614  -6.028  1.00  0.00     0.134 A 
ATOM      7  C   UNL     1      -4.234   3.930  -5.655  1.00  0.00     0.093 A 
ATOM      8  C   UNL     1      -3.010   4.211  -6.258  1.00  0.00     0.123 A 
ATOM      9  C   UNL     1      -2.932   5.195  -7.244  1.00  0.00     0.094 A 
ATOM     10  C   UNL     1      -4.069   5.921  -7.611  1.00  0.00     0.146 A 
ATOM     11  O   UNL     1      -3.946   6.864  -8.537  1.00  0.00    -0.452 OA
ENDROOT
BRANCH   1  12
ATOM     12  C   UNL     1      -4.682   8.646  -9.983  1.00  0.00     0.029 A 
ATOM     13  C   UNL     1      -4.243   9.924  -9.607  1.00  0.00     0.062 A 
ATOM     14  C   UNL     1      -4.001  10.909 -10.570  1.00  0.00     0.162 A 
ATOM     15  C   UNL     1      -4.914   8.375 -11.342  1.00  0.00     0.062 A 
ATOM     16  C   UNL     1      -4.213  10.626 -11.930  1.00  0.00     0.200 A 
ATOM     17  C   UNL     1      -4.675   9.355 -12.315  1.00  0.00     0.162 A 
BRANCH  14  18
ATOM     18  O   UNL     1      -3.551  12.162 -10.157  1.00  0.00    -0.504 OA
ATOM     19  H   UNL     1      -2.888  12.702 -10.698  1.00  0.00     0.293 HD
ENDBRANCH  14  18
BRANCH  16  20
ATOM     20  O   UNL     1      -3.966  11.613 -12.887  1.00  0.00    -0.502 OA
ATOM     21  H   UNL     1      -4.049  11.435 -13.880  1.00  0.00     0.293 HD
ENDBRANCH  16  20
BRANCH  17  22
ATOM     22  O   UNL     1      -4.901   9.073 -13.661  1.00  0.00    -0.504 OA
ATOM     23  H   UNL     1      -4.179   9.204 -14.359  1.00  0.00     0.293 HD
ENDBRANCH  17  22
ENDBRANCH   1  12
BRANCH   2  24
ATOM     24  O   UNL     1      -7.302   8.237  -8.815  1.00  0.00    -0.502 OA
ATOM     25  H   UNL     1      -8.253   8.076  -8.506  1.00  0.00     0.293 HD
ENDBRANCH   2  24
BRANCH   6  26
ATOM     26  O   UNL     1      -6.587   4.190  -5.426  1.00  0.00    -0.507 OA
ATOM     27  H   UNL     1      -7.236   4.791  -4.942  1.00  0.00     0.293 HD
ENDBRANCH   6  26
BRANCH   8  28
ATOM     28  O   UNL     1      -1.875   3.500  -5.875  1.00  0.00    -0.508 OA
ATOM     29  H   UNL     1      -1.673   2.582  -6.250  1.00  0.00     0.293 HD
ENDBRANCH   8  28
TORSDOF 7
ENDMDL
