MODEL 1
REMARK VINA RESULT:    -4.460      0.000      0.000
REMARK INTER + INTRA:          -6.917
REMARK INTER:                  -5.503
REMARK INTRA:                  -1.414
REMARK UNBOUND:                -1.414
REMARK SMILES CC(C)=CCC[C@@H](C)c1ccc(C)cc1
REMARK SMILES IDX 6 1 7 2 8 3 9 4 13 5 12 6 11 7 14 8 10 9 15 10 5 11 4 12
REMARK SMILES IDX 2 13 1 14 3 15
REMARK H PARENT
REMARK Flexibility Score: inf
ROOT
ATOM      1  C   UNL     1       2.721  22.741  27.125  1.00  0.00     0.012 C 
ENDROOT
BRANCH   1   2
ATOM      2  C   UNL     1       1.592  22.330  26.148  1.00  0.00     0.016 C 
ATOM      3  C   UNL     1       0.197  22.456  26.778  1.00  0.00     0.013 C 
BRANCH   2   4
ATOM      4  C   UNL     1       1.676  23.155  24.875  1.00  0.00    -0.045 A 
ATOM      5  C   UNL     1       1.851  25.524  21.268  1.00  0.00     0.044 C 
ATOM      6  C   UNL     1       1.820  24.703  22.523  1.00  0.00    -0.051 A 
ATOM      7  C   UNL     1       1.657  25.324  23.769  1.00  0.00     0.004 A 
ATOM      8  C   UNL     1       1.884  23.304  22.453  1.00  0.00     0.004 A 
ATOM      9  C   UNL     1       1.590  24.556  24.937  1.00  0.00     0.004 A 
ATOM     10  C   UNL     1       1.818  22.536  23.619  1.00  0.00     0.004 A 
ENDBRANCH   2   4
ENDBRANCH   1   2
BRANCH   1  11
ATOM     11  C   UNL     1       4.143  22.488  26.591  1.00  0.00     0.028 C 
BRANCH  11  12
ATOM     12  C   UNL     1       5.034  23.700  26.732  1.00  0.00    -0.028 C 
ATOM     13  C   UNL     1       5.533  24.411  25.697  1.00  0.00    -0.080 C 
ATOM     14  C   UNL     1       5.191  24.088  24.261  1.00  0.00     0.039 C 
ATOM     15  C   UNL     1       6.441  25.575  26.000  1.00  0.00     0.039 C 
ENDBRANCH  11  12
ENDBRANCH   1  11
TORSDOF 4
ENDMDL
MODEL 2
REMARK VINA RESULT:    -3.576      1.581      4.520
REMARK INTER + INTRA:          -5.826
REMARK INTER:                  -4.421
REMARK INTRA:                  -1.405
REMARK UNBOUND:                -1.414
REMARK SMILES CC(C)=CCC[C@@H](C)c1ccc(C)cc1
REMARK SMILES IDX 6 1 7 2 8 3 9 4 13 5 12 6 11 7 14 8 10 9 15 10 5 11 4 12
REMARK SMILES IDX 2 13 1 14 3 15
REMARK H PARENT
REMARK Flexibility Score: inf
ROOT
ATOM      1  C   UNL     1       1.027  25.135  26.297  1.00  0.00     0.012 C 
ENDROOT
BRANCH   1   2
ATOM      2  C   UNL     1       0.917  23.810  27.091  1.00  0.00     0.016 C 
ATOM      3  C   UNL     1      -0.196  22.896  26.555  1.00  0.00     0.013 C 
BRANCH   2   4
ATOM      4  C   UNL     1       2.251  23.084  27.083  1.00  0.00    -0.045 A 
ATOM      5  C   UNL     1       6.059  21.047  26.997  1.00  0.00     0.044 C 
ATOM      6  C   UNL     1       4.738  21.755  27.057  1.00  0.00    -0.051 A 
ATOM      7  C   UNL     1       4.683  23.154  26.992  1.00  0.00     0.004 A 
ATOM      8  C   UNL     1       3.545  21.020  27.106  1.00  0.00     0.004 A 
ATOM      9  C   UNL     1       3.450  23.814  27.011  1.00  0.00     0.004 A 
ATOM     10  C   UNL     1       2.311  21.678  27.124  1.00  0.00     0.004 A 
ENDBRANCH   2   4
ENDBRANCH   1   2
BRANCH   1  11
ATOM     11  C   UNL     1       0.576  25.033  24.829  1.00  0.00     0.028 C 
BRANCH  11  12
ATOM     12  C   UNL     1       1.742  25.006  23.870  1.00  0.00    -0.028 C 
ATOM     13  C   UNL     1       2.145  23.917  23.179  1.00  0.00    -0.080 C 
ATOM     14  C   UNL     1       1.410  22.599  23.258  1.00  0.00     0.039 C 
ATOM     15  C   UNL     1       3.353  24.040  22.287  1.00  0.00     0.039 C 
ENDBRANCH  11  12
ENDBRANCH   1  11
TORSDOF 4
ENDMDL
MODEL 3
REMARK VINA RESULT:    -3.100      1.578      5.141
REMARK INTER + INTRA:          -5.239
REMARK INTER:                  -4.659
REMARK INTRA:                  -0.580
REMARK UNBOUND:                -1.414
REMARK SMILES CC(C)=CCC[C@@H](C)c1ccc(C)cc1
REMARK SMILES IDX 6 1 7 2 8 3 9 4 13 5 12 6 11 7 14 8 10 9 15 10 5 11 4 12
REMARK SMILES IDX 2 13 1 14 3 15
REMARK H PARENT
REMARK Flexibility Score: inf
ROOT
ATOM      1  C   UNL     1       1.680  25.366  23.126  1.00  0.00     0.012 C 
ENDROOT
BRANCH   1   2
ATOM      2  C   UNL     1       2.250  23.931  23.248  1.00  0.00     0.016 C 
ATOM      3  C   UNL     1       2.499  23.282  21.878  1.00  0.00     0.013 C 
BRANCH   2   4
ATOM      4  C   UNL     1       3.525  23.943  24.071  1.00  0.00    -0.045 A 
ATOM      5  C   UNL     1       7.125  24.025  26.457  1.00  0.00     0.044 C 
ATOM      6  C   UNL     1       5.881  23.968  25.621  1.00  0.00    -0.051 A 
ATOM      7  C   UNL     1       4.661  23.585  26.195  1.00  0.00     0.004 A 
ATOM      8  C   UNL     1       5.915  24.366  24.277  1.00  0.00     0.004 A 
ATOM      9  C   UNL     1       3.493  23.567  25.426  1.00  0.00     0.004 A 
ATOM     10  C   UNL     1       4.749  24.349  23.506  1.00  0.00     0.004 A 
ENDBRANCH   2   4
ENDBRANCH   1   2
BRANCH   1  11
ATOM     11  C   UNL     1       1.098  25.929  24.436  1.00  0.00     0.028 C 
BRANCH  11  12
ATOM     12  C   UNL     1       0.378  24.875  25.244  1.00  0.00    -0.028 C 
ATOM     13  C   UNL     1      -0.254  25.104  26.417  1.00  0.00    -0.080 C 
ATOM     14  C   UNL     1      -0.352  26.486  27.019  1.00  0.00     0.039 C 
ATOM     15  C   UNL     1      -0.895  23.939  27.124  1.00  0.00     0.039 C 
ENDBRANCH  11  12
ENDBRANCH   1  11
TORSDOF 4
ENDMDL
MODEL 4
REMARK VINA RESULT:    -2.960      2.295      6.057
REMARK INTER + INTRA:          -5.066
REMARK INTER:                  -4.519
REMARK INTRA:                  -0.547
REMARK UNBOUND:                -1.414
REMARK SMILES CC(C)=CCC[C@@H](C)c1ccc(C)cc1
REMARK SMILES IDX 6 1 7 2 8 3 9 4 13 5 12 6 11 7 14 8 10 9 15 10 5 11 4 12
REMARK SMILES IDX 2 13 1 14 3 15
REMARK H PARENT
REMARK Flexibility Score: inf
ROOT
ATOM      1  C   UNL     1       2.035  26.092  22.008  1.00  0.00     0.012 C 
ENDROOT
BRANCH   1   2
ATOM      2  C   UNL     1       1.853  24.641  22.516  1.00  0.00     0.016 C 
ATOM      3  C   UNL     1       2.091  23.599  21.413  1.00  0.00     0.013 C 
BRANCH   2   4
ATOM      4  C   UNL     1       2.770  24.382  23.698  1.00  0.00    -0.045 A 
ATOM      5  C   UNL     1       5.404  23.587  27.029  1.00  0.00     0.044 C 
ATOM      6  C   UNL     1       4.491  23.893  25.878  1.00  0.00    -0.051 A 
ATOM      7  C   UNL     1       5.015  24.072  24.590  1.00  0.00     0.004 A 
ATOM      8  C   UNL     1       3.103  23.931  26.069  1.00  0.00     0.004 A 
ATOM      9  C   UNL     1       4.162  24.320  23.509  1.00  0.00     0.004 A 
ATOM     10  C   UNL     1       2.249  24.178  24.990  1.00  0.00     0.004 A 
ENDBRANCH   2   4
ENDBRANCH   1   2
BRANCH   1  11
ATOM     11  C   UNL     1       0.988  27.086  22.543  1.00  0.00     0.028 C 
BRANCH  11  12
ATOM     12  C   UNL     1       0.974  28.381  21.766  1.00  0.00    -0.028 C 
ATOM     13  C   UNL     1      -0.007  28.757  20.916  1.00  0.00    -0.080 C 
ATOM     14  C   UNL     1      -1.248  27.921  20.702  1.00  0.00     0.039 C 
ATOM     15  C   UNL     1       0.142  30.065  20.183  1.00  0.00     0.039 C 
ENDBRANCH  11  12
ENDBRANCH   1  11
TORSDOF 4
ENDMDL
MODEL 5
REMARK VINA RESULT:    -2.890     13.521     15.871
REMARK INTER + INTRA:          -4.980
REMARK INTER:                  -3.838
REMARK INTRA:                  -1.142
REMARK UNBOUND:                -1.414
REMARK SMILES CC(C)=CCC[C@@H](C)c1ccc(C)cc1
REMARK SMILES IDX 6 1 7 2 8 3 9 4 13 5 12 6 11 7 14 8 10 9 15 10 5 11 4 12
REMARK SMILES IDX 2 13 1 14 3 15
REMARK H PARENT
REMARK Flexibility Score: inf
ROOT
ATOM      1  C   UNL     1      -8.833  17.626  24.747  1.00  0.00     0.012 C 
ENDROOT
BRANCH   1   2
ATOM      2  C   UNL     1      -8.855  16.084  24.597  1.00  0.00     0.016 C 
ATOM      3  C   UNL     1      -9.087  15.368  25.937  1.00  0.00     0.013 C 
BRANCH   2   4
ATOM      4  C   UNL     1      -9.909  15.672  23.585  1.00  0.00    -0.045 A 
ATOM      5  C   UNL     1     -12.857  14.506  20.652  1.00  0.00     0.044 C 
ATOM      6  C   UNL     1     -11.848  14.895  21.691  1.00  0.00    -0.051 A 
ATOM      7  C   UNL     1     -10.698  14.118  21.885  1.00  0.00     0.004 A 
ATOM      8  C   UNL     1     -12.013  16.078  22.426  1.00  0.00     0.004 A 
ATOM      9  C   UNL     1      -9.738  14.500  22.828  1.00  0.00     0.004 A 
ATOM     10  C   UNL     1     -11.055  16.461  23.369  1.00  0.00     0.004 A 
ENDBRANCH   2   4
ENDBRANCH   1   2
BRANCH   1  11
ATOM     11  C   UNL     1      -9.333  18.136  26.111  1.00  0.00     0.028 C 
BRANCH  11  12
ATOM     12  C   UNL     1     -10.468  19.122  25.975  1.00  0.00    -0.028 C 
ATOM     13  C   UNL     1     -11.768  18.835  26.206  1.00  0.00    -0.080 C 
ATOM     14  C   UNL     1     -12.216  17.476  26.693  1.00  0.00     0.039 C 
ATOM     15  C   UNL     1     -12.792  19.919  25.989  1.00  0.00     0.039 C 
ENDBRANCH  11  12
ENDBRANCH   1  11
TORSDOF 4
ENDMDL
MODEL 6
REMARK VINA RESULT:    -2.667     13.582     15.559
REMARK INTER + INTRA:          -4.705
REMARK INTER:                  -4.332
REMARK INTRA:                  -0.372
REMARK UNBOUND:                -1.414
REMARK SMILES CC(C)=CCC[C@@H](C)c1ccc(C)cc1
REMARK SMILES IDX 6 1 7 2 8 3 9 4 13 5 12 6 11 7 14 8 10 9 15 10 5 11 4 12
REMARK SMILES IDX 2 13 1 14 3 15
REMARK H PARENT
REMARK Flexibility Score: inf
ROOT
ATOM      1  C   UNL     1     -11.506  18.134  25.386  1.00  0.00     0.012 C 
ENDROOT
BRANCH   1   2
ATOM      2  C   UNL     1     -11.711  16.736  24.751  1.00  0.00     0.016 C 
ATOM      3  C   UNL     1     -12.687  16.769  23.565  1.00  0.00     0.013 C 
BRANCH   2   4
ATOM      4  C   UNL     1     -10.375  16.154  24.325  1.00  0.00    -0.045 A 
ATOM      5  C   UNL     1      -6.595  14.436  23.135  1.00  0.00     0.044 C 
ATOM      6  C   UNL     1      -7.904  15.054  23.527  1.00  0.00    -0.051 A 
ATOM      7  C   UNL     1      -9.100  14.600  22.952  1.00  0.00     0.004 A 
ATOM      8  C   UNL     1      -7.949  16.040  24.522  1.00  0.00     0.004 A 
ATOM      9  C   UNL     1     -10.325  15.149  23.343  1.00  0.00     0.004 A 
ATOM     10  C   UNL     1      -9.173  16.590  24.915  1.00  0.00     0.004 A 
ENDBRANCH   2   4
ENDBRANCH   1   2
BRANCH   1  11
ATOM     11  C   UNL     1     -12.767  18.720  26.047  1.00  0.00     0.028 C 
BRANCH  11  12
ATOM     12  C   UNL     1     -13.039  20.139  25.608  1.00  0.00    -0.028 C 
ATOM     13  C   UNL     1     -12.321  21.216  25.997  1.00  0.00    -0.080 C 
ATOM     14  C   UNL     1     -11.105  21.091  26.886  1.00  0.00     0.039 C 
ATOM     15  C   UNL     1     -12.741  22.575  25.501  1.00  0.00     0.039 C 
ENDBRANCH  11  12
ENDBRANCH   1  11
TORSDOF 4
ENDMDL
MODEL 7
REMARK VINA RESULT:    -2.509      1.353      5.113
REMARK INTER + INTRA:          -4.510
REMARK INTER:                  -3.747
REMARK INTRA:                  -0.763
REMARK UNBOUND:                -1.414
REMARK SMILES CC(C)=CCC[C@@H](C)c1ccc(C)cc1
REMARK SMILES IDX 6 1 7 2 8 3 9 4 13 5 12 6 11 7 14 8 10 9 15 10 5 11 4 12
REMARK SMILES IDX 2 13 1 14 3 15
REMARK H PARENT
REMARK Flexibility Score: inf
ROOT
ATOM      1  C   UNL     1       2.030  23.268  23.050  1.00  0.00     0.012 C 
ENDROOT
BRANCH   1   2
ATOM      2  C   UNL     1       2.044  23.936  24.447  1.00  0.00     0.016 C 
ATOM      3  C   UNL     1       0.859  23.494  25.319  1.00  0.00     0.013 C 
BRANCH   2   4
ATOM      4  C   UNL     1       3.358  23.649  25.151  1.00  0.00    -0.045 A 
ATOM      5  C   UNL     1       7.120  22.797  27.095  1.00  0.00     0.044 C 
ATOM      6  C   UNL     1       5.811  23.117  26.437  1.00  0.00    -0.051 A 
ATOM      7  C   UNL     1       5.780  23.875  25.258  1.00  0.00     0.004 A 
ATOM      8  C   UNL     1       4.615  22.602  26.956  1.00  0.00     0.004 A 
ATOM      9  C   UNL     1       4.563  24.143  24.622  1.00  0.00     0.004 A 
ATOM     10  C   UNL     1       3.398  22.869  26.323  1.00  0.00     0.004 A 
ENDBRANCH   2   4
ENDBRANCH   1   2
BRANCH   1  11
ATOM     11  C   UNL     1       2.269  24.242  21.881  1.00  0.00     0.028 C 
BRANCH  11  12
ATOM     12  C   UNL     1       2.052  25.682  22.279  1.00  0.00    -0.028 C 
ATOM     13  C   UNL     1       1.289  26.562  21.594  1.00  0.00    -0.080 C 
ATOM     14  C   UNL     1       0.510  26.162  20.362  1.00  0.00     0.039 C 
ATOM     15  C   UNL     1       1.201  27.979  22.099  1.00  0.00     0.039 C 
ENDBRANCH  11  12
ENDBRANCH   1  11
TORSDOF 4
ENDMDL
MODEL 8
REMARK VINA RESULT:    -2.442      1.289      2.268
REMARK INTER + INTRA:          -4.427
REMARK INTER:                  -3.862
REMARK INTRA:                  -0.565
REMARK UNBOUND:                -1.414
REMARK SMILES CC(C)=CCC[C@@H](C)c1ccc(C)cc1
REMARK SMILES IDX 6 1 7 2 8 3 9 4 13 5 12 6 11 7 14 8 10 9 15 10 5 11 4 12
REMARK SMILES IDX 2 13 1 14 3 15
REMARK H PARENT
REMARK Flexibility Score: inf
ROOT
ATOM      1  C   UNL     1       1.800  22.742  25.426  1.00  0.00     0.012 C 
ENDROOT
BRANCH   1   2
ATOM      2  C   UNL     1       2.176  22.891  23.931  1.00  0.00     0.016 C 
ATOM      3  C   UNL     1       1.475  21.850  23.044  1.00  0.00     0.013 C 
BRANCH   2   4
ATOM      4  C   UNL     1       1.863  24.297  23.451  1.00  0.00    -0.045 A 
ATOM      5  C   UNL     1       0.902  28.284  22.094  1.00  0.00     0.044 C 
ATOM      6  C   UNL     1       1.262  26.909  22.575  1.00  0.00    -0.051 A 
ATOM      7  C   UNL     1       0.910  26.498  23.868  1.00  0.00     0.004 A 
ATOM      8  C   UNL     1       1.891  26.001  21.711  1.00  0.00     0.004 A 
ATOM      9  C   UNL     1       1.212  25.204  24.305  1.00  0.00     0.004 A 
ATOM     10  C   UNL     1       2.194  24.708  22.145  1.00  0.00     0.004 A 
ENDBRANCH   2   4
ENDBRANCH   1   2
BRANCH   1  11
ATOM     11  C   UNL     1       2.671  23.576  26.384  1.00  0.00     0.028 C 
BRANCH  11  12
ATOM     12  C   UNL     1       4.022  22.945  26.628  1.00  0.00    -0.028 C 
ATOM     13  C   UNL     1       5.176  23.356  26.058  1.00  0.00    -0.080 C 
ATOM     14  C   UNL     1       5.237  24.556  25.142  1.00  0.00     0.039 C 
ATOM     15  C   UNL     1       6.440  22.598  26.373  1.00  0.00     0.039 C 
ENDBRANCH  11  12
ENDBRANCH   1  11
TORSDOF 4
ENDMDL
