MODEL 1
REMARK VINA RESULT:    -3.078      0.000      0.000
REMARK INTER + INTRA:          -3.064
REMARK INTER:                  -3.798
REMARK INTRA:                   0.734
REMARK UNBOUND:                 0.734
REMARK SMILES CC1=CC=CC(C)(C)CC1=O
REMARK SMILES IDX 1 1 2 2 3 3 10 4 11 5 9 6 4 8 5 9 6 10 7 11 8 12
REMARK H PARENT
REMARK Flexibility Score: 80.00
ROOT
ATOM      1  C   UNL     1       9.833  30.410  15.481  1.00  0.00     0.048 C 
ATOM      2  C   UNL     1       8.419  30.020  15.840  1.00  0.00    -0.008 C 
ATOM      3  C   UNL     1       7.882  30.567  16.953  1.00  0.00     0.007 C 
ENDROOT
BRANCH   2   4
ATOM      4  C   UNL     1       7.759  29.006  14.980  1.00  0.00     0.159 C 
ATOM      5  O   UNL     1       8.453  28.386  14.129  1.00  0.00    -0.295 OA
BRANCH   4   6
ATOM      6  C   UNL     1       6.298  28.683  15.056  1.00  0.00     0.091 CG0
ATOM      7  G   UNL     1       5.853  28.202  16.455  1.00  0.00     0.000 G0
ENDBRANCH   4   6
ENDBRANCH   2   4
BRANCH   3   8
ATOM      8  C   UNL     1       6.549  30.360  17.566  1.00  0.00    -0.003 C 
ATOM      9  C   UNL     1       5.678  29.362  17.375  1.00  0.00    -0.020 C 
BRANCH   9  10
ATOM     10  C   UNL     1       5.848  28.188  16.440  1.00  0.00    -0.010 CG0
ATOM     11  C   UNL     1       6.803  27.147  17.067  1.00  0.00     0.016 C 
ATOM     12  C   UNL     1       4.469  27.517  16.249  1.00  0.00     0.016 C 
ATOM     13  G   UNL     1       6.334  28.688  15.061  1.00  0.00     0.000 G0
ENDBRANCH   9  10
ENDBRANCH   3   8
TORSDOF 0
ENDMDL
MODEL 2
REMARK VINA RESULT:    -3.073      1.658      3.550
REMARK INTER + INTRA:          -3.058
REMARK INTER:                  -3.809
REMARK INTRA:                   0.751
REMARK UNBOUND:                 0.734
REMARK SMILES CC1=CC=CC(C)(C)CC1=O
REMARK SMILES IDX 1 1 2 2 3 3 10 4 11 5 9 6 4 8 5 9 6 10 7 11 8 12
REMARK H PARENT
REMARK Flexibility Score: 80.00
ROOT
ATOM      1  C   UNL     1       5.888  27.109  16.859  1.00  0.00     0.048 C 
ATOM      2  C   UNL     1       6.865  28.219  16.551  1.00  0.00    -0.008 C 
ATOM      3  C   UNL     1       6.768  29.356  17.273  1.00  0.00     0.007 C 
ENDROOT
BRANCH   2   4
ATOM      4  C   UNL     1       7.806  27.997  15.424  1.00  0.00     0.159 C 
ATOM      5  O   UNL     1       7.613  27.014  14.657  1.00  0.00    -0.295 OA
BRANCH   4   6
ATOM      6  C   UNL     1       8.989  28.873  15.151  1.00  0.00     0.091 CG0
ATOM      7  G   UNL     1       8.608  30.346  14.881  1.00  0.00     0.000 G0
ENDBRANCH   4   6
ENDBRANCH   2   4
BRANCH   3   8
ATOM      8  C   UNL     1       7.556  30.608  17.185  1.00  0.00    -0.003 C 
ATOM      9  C   UNL     1       8.328  31.051  16.184  1.00  0.00    -0.020 C 
BRANCH   9  10
ATOM     10  C   UNL     1       8.604  30.340  14.881  1.00  0.00    -0.010 CG0
ATOM     11  C   UNL     1       7.387  30.475  13.937  1.00  0.00     0.016 C 
ATOM     12  C   UNL     1       9.813  31.024  14.202  1.00  0.00     0.016 C 
ATOM     13  G   UNL     1       8.980  28.867  15.161  1.00  0.00     0.000 G0
ENDBRANCH   9  10
ENDBRANCH   3   8
TORSDOF 0
ENDMDL
MODEL 3
REMARK VINA RESULT:    -3.024      6.190      7.768
REMARK INTER + INTRA:          -2.997
REMARK INTER:                  -3.739
REMARK INTRA:                   0.742
REMARK UNBOUND:                 0.734
REMARK SMILES CC1=CC=CC(C)(C)CC1=O
REMARK SMILES IDX 1 1 2 2 3 3 10 4 11 5 9 6 4 8 5 9 6 10 7 11 8 12
REMARK H PARENT
REMARK Flexibility Score: 80.00
ROOT
ATOM      1  C   UNL     1      17.368  26.703  14.781  1.00  0.00     0.048 C 
ATOM      2  C   UNL     1      15.900  26.870  15.098  1.00  0.00    -0.008 C 
ATOM      3  C   UNL     1      15.300  25.894  15.814  1.00  0.00     0.007 C 
ENDROOT
BRANCH   2   4
ATOM      4  C   UNL     1      15.217  28.059  14.530  1.00  0.00     0.159 C 
ATOM      5  O   UNL     1      15.822  28.753  13.668  1.00  0.00    -0.295 OA
BRANCH   4   6
ATOM      6  C   UNL     1      13.843  28.495  14.937  1.00  0.00     0.091 CG0
ATOM      7  G   UNL     1      12.765  27.415  14.696  1.00  0.00     0.000 G0
ENDBRANCH   4   6
ENDBRANCH   2   4
BRANCH   3   8
ATOM      8  C   UNL     1      13.890  25.765  16.250  1.00  0.00    -0.003 C 
ATOM      9  C   UNL     1      12.802  26.393  15.786  1.00  0.00    -0.020 C 
BRANCH   9  10
ATOM     10  C   UNL     1      12.763  27.432  14.690  1.00  0.00    -0.010 CG0
ATOM     11  C   UNL     1      12.887  26.747  13.309  1.00  0.00     0.016 C 
ATOM     12  C   UNL     1      11.394  28.147  14.748  1.00  0.00     0.016 C 
ATOM     13  G   UNL     1      13.867  28.486  14.933  1.00  0.00     0.000 G0
ENDBRANCH   9  10
ENDBRANCH   3   8
TORSDOF 0
ENDMDL
MODEL 4
REMARK VINA RESULT:    -2.989      7.038      8.579
REMARK INTER + INTRA:          -2.955
REMARK INTER:                  -3.702
REMARK INTRA:                   0.748
REMARK UNBOUND:                 0.734
REMARK SMILES CC1=CC=CC(C)(C)CC1=O
REMARK SMILES IDX 1 1 2 2 3 3 10 4 11 5 9 6 4 8 5 9 6 10 7 11 8 12
REMARK H PARENT
REMARK Flexibility Score: 80.00
ROOT
ATOM      1  C   UNL     1      17.578  24.831  15.742  1.00  0.00     0.048 C 
ATOM      2  C   UNL     1      16.456  25.710  15.240  1.00  0.00    -0.008 C 
ATOM      3  C   UNL     1      16.628  27.048  15.315  1.00  0.00     0.007 C 
ENDROOT
BRANCH   2   4
ATOM      4  C   UNL     1      15.222  25.029  14.775  1.00  0.00     0.159 C 
ATOM      5  O   UNL     1      15.084  23.796  15.004  1.00  0.00    -0.295 OA
BRANCH   4   6
ATOM      6  C   UNL     1      14.124  25.726  14.030  1.00  0.00     0.091 CG0
ATOM      7  G   UNL     1      13.489  26.888  14.827  1.00  0.00     0.000 G0
ENDBRANCH   4   6
ENDBRANCH   2   4
BRANCH   3   8
ATOM      8  C   UNL     1      15.711  28.146  14.932  1.00  0.00    -0.003 C 
ATOM      9  C   UNL     1      14.387  28.110  14.728  1.00  0.00    -0.020 C 
BRANCH   9  10
ATOM     10  C   UNL     1      13.499  26.892  14.819  1.00  0.00    -0.010 CG0
ATOM     11  C   UNL     1      13.232  26.542  16.301  1.00  0.00     0.016 C 
ATOM     12  C   UNL     1      12.143  27.231  14.157  1.00  0.00     0.016 C 
ATOM     13  G   UNL     1      14.137  25.722  14.037  1.00  0.00     0.000 G0
ENDBRANCH   9  10
ENDBRANCH   3   8
TORSDOF 0
ENDMDL
MODEL 5
REMARK VINA RESULT:    -2.873     11.444     12.949
REMARK INTER + INTRA:          -2.811
REMARK INTER:                  -3.570
REMARK INTRA:                   0.759
REMARK UNBOUND:                 0.734
REMARK SMILES CC1=CC=CC(C)(C)CC1=O
REMARK SMILES IDX 1 1 2 2 3 3 10 4 11 5 9 6 4 8 5 9 6 10 7 11 8 12
REMARK H PARENT
REMARK Flexibility Score: 80.00
ROOT
ATOM      1  C   UNL     1       3.338  17.995  15.189  1.00  0.00     0.048 C 
ATOM      2  C   UNL     1       4.455  17.199  14.556  1.00  0.00    -0.008 C 
ATOM      3  C   UNL     1       4.254  15.875  14.375  1.00  0.00     0.007 C 
ENDROOT
BRANCH   2   4
ATOM      4  C   UNL     1       5.714  17.924  14.254  1.00  0.00     0.159 C 
ATOM      5  O   UNL     1       5.874  19.085  14.720  1.00  0.00    -0.295 OA
BRANCH   4   6
ATOM      6  C   UNL     1       6.811  17.356  13.407  1.00  0.00     0.091 CG0
ATOM      7  G   UNL     1       7.390  16.036  13.965  1.00  0.00     0.000 G0
ENDBRANCH   4   6
ENDBRANCH   2   4
BRANCH   3   8
ATOM      8  C   UNL     1       5.159  14.845  13.815  1.00  0.00    -0.003 C 
ATOM      9  C   UNL     1       6.487  14.889  13.644  1.00  0.00    -0.020 C 
BRANCH   9  10
ATOM     10  C   UNL     1       7.396  16.050  13.973  1.00  0.00    -0.010 CG0
ATOM     11  C   UNL     1       7.635  16.117  15.499  1.00  0.00     0.016 C 
ATOM     12  C   UNL     1       8.759  15.807  13.285  1.00  0.00     0.016 C 
ATOM     13  G   UNL     1       6.797  17.356  13.406  1.00  0.00     0.000 G0
ENDBRANCH   9  10
ENDBRANCH   3   8
TORSDOF 0
ENDMDL
MODEL 6
REMARK VINA RESULT:    -2.843      7.701      9.360
REMARK INTER + INTRA:          -2.774
REMARK INTER:                  -3.514
REMARK INTRA:                   0.740
REMARK UNBOUND:                 0.734
REMARK SMILES CC1=CC=CC(C)(C)CC1=O
REMARK SMILES IDX 1 1 2 2 3 3 10 4 11 5 9 6 4 8 5 9 6 10 7 11 8 12
REMARK H PARENT
REMARK Flexibility Score: 80.00
ROOT
ATOM      1  C   UNL     1      12.903  24.124  15.663  1.00  0.00     0.048 C 
ATOM      2  C   UNL     1      13.767  25.350  15.483  1.00  0.00    -0.008 C 
ATOM      3  C   UNL     1      13.147  26.547  15.408  1.00  0.00     0.007 C 
ENDROOT
BRANCH   2   4
ATOM      4  C   UNL     1      15.227  25.129  15.326  1.00  0.00     0.159 C 
ATOM      5  O   UNL     1      15.648  23.954  15.145  1.00  0.00    -0.295 OA
BRANCH   4   6
ATOM      6  C   UNL     1      16.240  26.231  15.383  1.00  0.00     0.091 CG0
ATOM      7  G   UNL     1      16.030  27.308  14.295  1.00  0.00     0.000 G0
ENDBRANCH   4   6
ENDBRANCH   2   4
BRANCH   3   8
ATOM      8  C   UNL     1      13.715  27.901  15.210  1.00  0.00    -0.003 C 
ATOM      9  C   UNL     1      14.917  28.251  14.733  1.00  0.00    -0.020 C 
BRANCH   9  10
ATOM     10  C   UNL     1      16.017  27.314  14.297  1.00  0.00    -0.010 CG0
ATOM     11  C   UNL     1      15.691  26.730  12.903  1.00  0.00     0.016 C 
ATOM     12  C   UNL     1      17.328  28.125  14.180  1.00  0.00     0.016 C 
ATOM     13  G   UNL     1      16.224  26.219  15.368  1.00  0.00     0.000 G0
ENDBRANCH   9  10
ENDBRANCH   3   8
TORSDOF 0
ENDMDL
MODEL 7
REMARK VINA RESULT:    -2.820     16.873     18.144
REMARK INTER + INTRA:          -2.746
REMARK INTER:                  -3.496
REMARK INTRA:                   0.750
REMARK UNBOUND:                 0.734
REMARK SMILES CC1=CC=CC(C)(C)CC1=O
REMARK SMILES IDX 1 1 2 2 3 3 10 4 11 5 9 6 4 8 5 9 6 10 7 11 8 12
REMARK H PARENT
REMARK Flexibility Score: 80.00
ROOT
ATOM      1  C   UNL     1      13.698  15.900  15.894  1.00  0.00     0.048 C 
ATOM      2  C   UNL     1      14.801  14.893  15.667  1.00  0.00    -0.008 C 
ATOM      3  C   UNL     1      16.039  15.369  15.410  1.00  0.00     0.007 C 
ENDROOT
BRANCH   2   4
ATOM      4  C   UNL     1      14.418  13.459  15.669  1.00  0.00     0.159 C 
ATOM      5  O   UNL     1      13.193  13.157  15.669  1.00  0.00    -0.295 OA
BRANCH   4   6
ATOM      6  C   UNL     1      15.411  12.338  15.685  1.00  0.00     0.091 CG0
ATOM      7  G   UNL     1      16.373  12.359  14.476  1.00  0.00     0.000 G0
ENDBRANCH   4   6
ENDBRANCH   2   4
BRANCH   3   8
ATOM      8  C   UNL     1      17.297  14.640  15.123  1.00  0.00    -0.003 C 
ATOM      9  C   UNL     1      17.466  13.375  14.718  1.00  0.00    -0.020 C 
BRANCH   9  10
ATOM     10  C   UNL     1      16.378  12.356  14.477  1.00  0.00    -0.010 CG0
ATOM     11  C   UNL     1      15.672  12.646  13.132  1.00  0.00     0.016 C 
ATOM     12  C   UNL     1      17.033  10.960  14.381  1.00  0.00     0.016 C 
ATOM     13  G   UNL     1      15.399  12.347  15.673  1.00  0.00     0.000 G0
ENDBRANCH   9  10
ENDBRANCH   3   8
TORSDOF 0
ENDMDL
MODEL 8
REMARK VINA RESULT:    -2.705      1.713      2.759
REMARK INTER + INTRA:          -2.604
REMARK INTER:                  -3.362
REMARK INTRA:                   0.758
REMARK UNBOUND:                 0.734
REMARK SMILES CC1=CC=CC(C)(C)CC1=O
REMARK SMILES IDX 1 1 2 2 3 3 10 4 11 5 9 6 4 8 5 9 6 10 7 11 8 12
REMARK H PARENT
REMARK Flexibility Score: 80.00
ROOT
ATOM      1  C   UNL     1       7.250  30.758  17.393  1.00  0.00     0.048 C 
ATOM      2  C   UNL     1       7.011  29.511  16.574  1.00  0.00    -0.008 C 
ATOM      3  C   UNL     1       6.746  28.366  17.241  1.00  0.00     0.007 C 
ENDROOT
BRANCH   2   4
ATOM      4  C   UNL     1       7.164  29.629  15.103  1.00  0.00     0.159 C 
ATOM      5  O   UNL     1       7.673  30.682  14.627  1.00  0.00    -0.295 OA
BRANCH   4   6
ATOM      6  C   UNL     1       6.734  28.567  14.139  1.00  0.00     0.091 CG0
ATOM      7  G   UNL     1       7.455  27.218  14.357  1.00  0.00     0.000 G0
ENDBRANCH   4   6
ENDBRANCH   2   4
BRANCH   3   8
ATOM      8  C   UNL     1       6.499  27.000  16.723  1.00  0.00    -0.003 C 
ATOM      9  C   UNL     1       6.798  26.485  15.523  1.00  0.00    -0.020 C 
BRANCH   9  10
ATOM     10  C   UNL     1       7.455  27.211  14.373  1.00  0.00    -0.010 CG0
ATOM     11  C   UNL     1       8.968  27.370  14.645  1.00  0.00     0.016 C 
ATOM     12  C   UNL     1       7.286  26.352  13.099  1.00  0.00     0.016 C 
ATOM     13  G   UNL     1       6.746  28.563  14.138  1.00  0.00     0.000 G0
ENDBRANCH   9  10
ENDBRANCH   3   8
TORSDOF 0
ENDMDL
MODEL 9
REMARK VINA RESULT:    -2.701      1.886      3.472
REMARK INTER + INTRA:          -2.599
REMARK INTER:                  -3.352
REMARK INTRA:                   0.753
REMARK UNBOUND:                 0.734
REMARK SMILES CC1=CC=CC(C)(C)CC1=O
REMARK SMILES IDX 1 1 2 2 3 3 10 4 11 5 9 6 4 8 5 9 6 10 7 11 8 12
REMARK H PARENT
REMARK Flexibility Score: 80.00
ROOT
ATOM      1  C   UNL     1       5.693  29.623  17.660  1.00  0.00     0.048 C 
ATOM      2  C   UNL     1       6.892  29.237  16.826  1.00  0.00    -0.008 C 
ATOM      3  C   UNL     1       7.858  30.165  16.651  1.00  0.00     0.007 C 
ENDROOT
BRANCH   2   4
ATOM      4  C   UNL     1       6.875  27.891  16.200  1.00  0.00     0.159 C 
ATOM      5  O   UNL     1       5.807  27.220  16.231  1.00  0.00    -0.295 OA
BRANCH   4   6
ATOM      6  C   UNL     1       8.067  27.271  15.540  1.00  0.00     0.091 CG0
ATOM      7  G   UNL     1       8.614  28.107  14.361  1.00  0.00     0.000 G0
ENDBRANCH   4   6
ENDBRANCH   2   4
BRANCH   3   8
ATOM      8  C   UNL     1       9.118  30.091  15.876  1.00  0.00    -0.003 C 
ATOM      9  C   UNL     1       9.460  29.240  14.900  1.00  0.00    -0.020 C 
BRANCH   9  10
ATOM     10  C   UNL     1       8.622  28.105  14.364  1.00  0.00    -0.010 CG0
ATOM     11  C   UNL     1       7.515  28.658  13.436  1.00  0.00     0.016 C 
ATOM     12  C   UNL     1       9.534  27.184  13.522  1.00  0.00     0.016 C 
ATOM     13  G   UNL     1       8.055  27.277  15.539  1.00  0.00     0.000 G0
ENDBRANCH   9  10
ENDBRANCH   3   8
TORSDOF 0
ENDMDL
