MODEL 1
REMARK VINA RESULT:    -3.827      0.000      0.000
REMARK INTER + INTRA:          -6.082
REMARK INTER:                  -5.840
REMARK INTRA:                  -0.242
REMARK UNBOUND:                -0.242
REMARK SMILES CC1=CCC[C@H](C)C(=O)C[C@@H](C(C)C)C(=O)C1
REMARK SMILES IDX 8 1 9 2 6 3 7 4 5 5 4 6 3 7 2 8 1 9 10 11 11 12 15 13 16 14
REMARK SMILES IDX 17 15 12 17 13 18 14 19
REMARK H PARENT
REMARK Flexibility Score: 70.00
ROOT
ATOM      1  C   UNL     1     -13.743 -21.421  21.034  1.00  0.00     0.136 C 
ATOM      2  O   UNL     1     -13.938 -22.072  20.017  1.00  0.00    -0.299 OA
ENDROOT
BRANCH   1   3
ATOM      3  C   UNL     1     -14.747 -21.471  22.162  1.00  0.00     0.053 C 
ATOM      4  C   UNL     1     -16.183 -21.422  21.631  1.00  0.00     0.016 C 
BRANCH   3   5
ATOM      5  C   UNL     1     -14.496 -22.745  23.008  1.00  0.00     0.015 C 
BRANCH   5   6
ATOM      6  C   UNL     1     -14.224 -22.514  24.507  1.00  0.00     0.028 C 
BRANCH   6   7
ATOM      7  C   UNL     1     -12.871 -22.945  25.034  1.00  0.00    -0.028 C 
ATOM      8  C   UNL     1     -11.685 -22.321  24.838  1.00  0.00    -0.070 CG0
ATOM      9  C   UNL     1     -10.444 -22.991  25.376  1.00  0.00     0.039 C 
ATOM     10  G   UNL     1     -11.534 -20.961  24.179  1.00  0.00     0.000 G0
ENDBRANCH   6   7
ENDBRANCH   5   6
ENDBRANCH   3   5
ENDBRANCH   1   3
BRANCH   1  11
ATOM     11  C   UNL     1     -12.457 -20.642  21.177  1.00  0.00     0.087 C 
BRANCH  11  12
ATOM     12  C   UNL     1     -11.261 -21.551  21.595  1.00  0.00     0.066 C 
BRANCH  12  13
ATOM     13  C   UNL     1     -10.689 -21.055  22.919  1.00  0.00     0.140 C 
ATOM     14  O   UNL     1      -9.497 -20.785  22.981  1.00  0.00    -0.299 OA
BRANCH  13  15
ATOM     15  C   UNL     1     -11.528 -20.957  24.176  1.00  0.00     0.106 CG0
ATOM     16  G   UNL     1     -11.687 -22.318  24.830  1.00  0.00     0.000 G0
ENDBRANCH  13  15
ENDBRANCH  12  13
BRANCH  12  17
ATOM     17  C   UNL     1     -10.151 -21.610  20.493  1.00  0.00    -0.006 C 
ATOM     18  C   UNL     1     -10.249 -20.416  19.521  1.00  0.00     0.008 C 
ATOM     19  C   UNL     1     -10.224 -22.909  19.666  1.00  0.00     0.008 C 
ENDBRANCH  12  17
ENDBRANCH  11  12
ENDBRANCH   1  11
TORSDOF 1
ENDMDL
MODEL 2
REMARK VINA RESULT:    -3.772      1.676      4.326
REMARK INTER + INTRA:          -5.999
REMARK INTER:                  -5.647
REMARK INTRA:                  -0.352
REMARK UNBOUND:                -0.242
REMARK SMILES CC1=CCC[C@H](C)C(=O)C[C@@H](C(C)C)C(=O)C1
REMARK SMILES IDX 8 1 9 2 6 3 7 4 5 5 4 6 3 7 2 8 1 9 10 11 11 12 15 13 16 14
REMARK SMILES IDX 17 15 12 17 13 18 14 19
REMARK H PARENT
REMARK Flexibility Score: 70.00
ROOT
ATOM      1  C   UNL     1     -11.382 -22.595  20.879  1.00  0.00     0.136 C 
ATOM      2  O   UNL     1     -12.252 -22.813  20.047  1.00  0.00    -0.299 OA
ENDROOT
BRANCH   1   3
ATOM      3  C   UNL     1     -10.075 -21.968  20.451  1.00  0.00     0.053 C 
ATOM      4  C   UNL     1      -9.363 -22.829  19.402  1.00  0.00     0.016 C 
BRANCH   3   5
ATOM      5  C   UNL     1     -10.347 -20.538  19.923  1.00  0.00     0.015 C 
BRANCH   5   6
ATOM      6  C   UNL     1     -10.349 -19.419  20.982  1.00  0.00     0.028 C 
BRANCH   6   7
ATOM      7  C   UNL     1      -9.389 -19.571  22.144  1.00  0.00    -0.028 C 
ATOM      8  C   UNL     1      -9.705 -19.607  23.461  1.00  0.00    -0.070 CG0
ATOM      9  C   UNL     1      -8.569 -19.662  24.452  1.00  0.00     0.039 C 
ATOM     10  G   UNL     1     -11.125 -19.670  23.996  1.00  0.00     0.000 G0
ENDBRANCH   6   7
ENDBRANCH   5   6
ENDBRANCH   3   5
ENDBRANCH   1   3
BRANCH   1  11
ATOM     11  C   UNL     1     -11.663 -22.879  22.335  1.00  0.00     0.087 C 
BRANCH  11  12
ATOM     12  C   UNL     1     -12.471 -21.730  23.014  1.00  0.00     0.066 C 
BRANCH  12  13
ATOM     13  C   UNL     1     -11.619 -21.092  24.105  1.00  0.00     0.140 C 
ATOM     14  O   UNL     1     -11.381 -21.735  25.119  1.00  0.00    -0.299 OA
BRANCH  13  15
ATOM     15  C   UNL     1     -11.121 -19.664  24.011  1.00  0.00     0.106 CG0
ATOM     16  G   UNL     1      -9.706 -19.617  23.462  1.00  0.00     0.000 G0
ENDBRANCH  13  15
ENDBRANCH  12  13
BRANCH  12  17
ATOM     17  C   UNL     1     -13.837 -22.231  23.591  1.00  0.00    -0.006 C 
ATOM     18  C   UNL     1     -13.820 -23.750  23.859  1.00  0.00     0.008 C 
ATOM     19  C   UNL     1     -15.014 -21.925  22.644  1.00  0.00     0.008 C 
ENDBRANCH  12  17
ENDBRANCH  11  12
ENDBRANCH   1  11
TORSDOF 1
ENDMDL
MODEL 3
REMARK VINA RESULT:    -3.525      1.764      2.120
REMARK INTER + INTRA:          -5.622
REMARK INTER:                  -5.196
REMARK INTRA:                  -0.426
REMARK UNBOUND:                -0.242
REMARK SMILES CC1=CCC[C@H](C)C(=O)C[C@@H](C(C)C)C(=O)C1
REMARK SMILES IDX 8 1 9 2 6 3 7 4 5 5 4 6 3 7 2 8 1 9 10 11 11 12 15 13 16 14
REMARK SMILES IDX 17 15 12 17 13 18 14 19
REMARK H PARENT
REMARK Flexibility Score: 70.00
ROOT
ATOM      1  C   UNL     1     -13.392 -21.393  23.061  1.00  0.00     0.136 C 
ATOM      2  O   UNL     1     -14.196 -21.001  22.228  1.00  0.00    -0.299 OA
ENDROOT
BRANCH   1   3
ATOM      3  C   UNL     1     -13.874 -22.172  24.263  1.00  0.00     0.053 C 
ATOM      4  C   UNL     1     -15.113 -21.521  24.888  1.00  0.00     0.016 C 
BRANCH   3   5
ATOM      5  C   UNL     1     -14.153 -23.636  23.839  1.00  0.00     0.015 C 
BRANCH   5   6
ATOM      6  C   UNL     1     -13.274 -24.709  24.509  1.00  0.00     0.028 C 
BRANCH   6   7
ATOM      7  C   UNL     1     -12.135 -24.220  25.380  1.00  0.00    -0.028 C 
ATOM      8  C   UNL     1     -10.835 -24.091  25.023  1.00  0.00    -0.070 CG0
ATOM      9  C   UNL     1      -9.853 -23.680  26.092  1.00  0.00     0.039 C 
ATOM     10  G   UNL     1     -10.318 -24.263  23.605  1.00  0.00     0.000 G0
ENDBRANCH   6   7
ENDBRANCH   5   6
ENDBRANCH   3   5
ENDBRANCH   1   3
BRANCH   1  11
ATOM     11  C   UNL     1     -11.917 -21.162  22.831  1.00  0.00     0.087 C 
BRANCH  11  12
ATOM     12  C   UNL     1     -11.254 -22.333  22.042  1.00  0.00     0.066 C 
BRANCH  12  13
ATOM     13  C   UNL     1     -10.137 -22.939  22.884  1.00  0.00     0.140 C 
ATOM     14  O   UNL     1      -9.058 -22.362  22.935  1.00  0.00    -0.299 OA
BRANCH  13  15
ATOM     15  C   UNL     1     -10.291 -24.267  23.596  1.00  0.00     0.106 CG0
ATOM     16  G   UNL     1     -10.823 -24.070  25.004  1.00  0.00     0.000 G0
ENDBRANCH  13  15
ENDBRANCH  12  13
BRANCH  12  17
ATOM     17  C   UNL     1     -10.716 -21.872  20.646  1.00  0.00    -0.006 C 
ATOM     18  C   UNL     1     -11.184 -20.445  20.297  1.00  0.00     0.008 C 
ATOM     19  C   UNL     1     -11.166 -22.815  19.511  1.00  0.00     0.008 C 
ENDBRANCH  12  17
ENDBRANCH  11  12
ENDBRANCH   1  11
TORSDOF 1
ENDMDL
MODEL 4
REMARK VINA RESULT:    -3.501      2.098      4.192
REMARK INTER + INTRA:          -5.585
REMARK INTER:                  -6.631
REMARK INTRA:                   1.046
REMARK UNBOUND:                -0.242
REMARK SMILES CC1=CCC[C@H](C)C(=O)C[C@@H](C(C)C)C(=O)C1
REMARK SMILES IDX 8 1 9 2 6 3 7 4 5 5 4 6 3 7 2 8 1 9 10 11 11 12 15 13 16 14
REMARK SMILES IDX 17 15 12 17 13 18 14 19
REMARK H PARENT
REMARK Flexibility Score: 70.00
ROOT
ATOM      1  C   UNL     1     -15.169 -21.062  23.953  1.00  0.00     0.136 C 
ATOM      2  O   UNL     1     -15.713 -20.627  24.957  1.00  0.00    -0.299 OA
ENDROOT
BRANCH   1   3
ATOM      3  C   UNL     1     -16.008 -21.579  22.807  1.00  0.00     0.053 C 
ATOM      4  C   UNL     1     -17.468 -21.133  22.942  1.00  0.00     0.016 C 
BRANCH   3   5
ATOM      5  C   UNL     1     -15.389 -21.103  21.470  1.00  0.00     0.015 C 
BRANCH   5   6
ATOM      6  C   UNL     1     -14.472 -22.115  20.756  1.00  0.00     0.028 C 
BRANCH   6   7
ATOM      7  C   UNL     1     -13.010 -21.741  20.621  1.00  0.00    -0.028 C 
ATOM      8  C   UNL     1     -11.985 -22.174  21.394  1.00  0.00    -0.070 CG0
ATOM      9  C   UNL     1     -10.619 -21.586  21.140  1.00  0.00     0.039 C 
ATOM     10  G   UNL     1     -12.110 -23.261  22.447  1.00  0.00     0.000 G0
ENDBRANCH   6   7
ENDBRANCH   5   6
ENDBRANCH   3   5
ENDBRANCH   1   3
BRANCH   1  11
ATOM     11  C   UNL     1     -13.664 -20.997  23.840  1.00  0.00     0.087 C 
BRANCH  11  12
ATOM     12  C   UNL     1     -12.962 -22.112  24.676  1.00  0.00     0.066 C 
BRANCH  12  13
ATOM     13  C   UNL     1     -11.861 -22.751  23.837  1.00  0.00     0.140 C 
ATOM     14  O   UNL     1     -10.721 -22.780  24.285  1.00  0.00    -0.299 OA
BRANCH  13  15
ATOM     15  C   UNL     1     -12.112 -23.283  22.441  1.00  0.00     0.106 CG0
ATOM     16  G   UNL     1     -11.989 -22.177  21.408  1.00  0.00     0.000 G0
ENDBRANCH  13  15
ENDBRANCH  12  13
BRANCH  12  17
ATOM     17  C   UNL     1     -13.974 -23.191  25.187  1.00  0.00    -0.006 C 
ATOM     18  C   UNL     1     -13.954 -23.308  26.725  1.00  0.00     0.008 C 
ATOM     19  C   UNL     1     -13.683 -24.585  24.596  1.00  0.00     0.008 C 
ENDBRANCH  12  17
ENDBRANCH  11  12
ENDBRANCH   1  11
TORSDOF 1
ENDMDL
MODEL 5
REMARK VINA RESULT:    -3.459      6.356      7.779
REMARK INTER + INTRA:          -5.521
REMARK INTER:                  -5.335
REMARK INTRA:                  -0.186
REMARK UNBOUND:                -0.242
REMARK SMILES CC1=CCC[C@H](C)C(=O)C[C@@H](C(C)C)C(=O)C1
REMARK SMILES IDX 8 1 9 2 6 3 7 4 5 5 4 6 3 7 2 8 1 9 10 11 11 12 15 13 16 14
REMARK SMILES IDX 17 15 12 17 13 18 14 19
REMARK H PARENT
REMARK Flexibility Score: 70.00
ROOT
ATOM      1  C   UNL     1      -7.850 -15.493  23.197  1.00  0.00     0.136 C 
ATOM      2  O   UNL     1      -7.695 -14.762  22.229  1.00  0.00    -0.299 OA
ENDROOT
BRANCH   1   3
ATOM      3  C   UNL     1      -8.836 -16.637  23.124  1.00  0.00     0.053 C 
ATOM      4  C   UNL     1      -8.244 -17.834  22.372  1.00  0.00     0.016 C 
BRANCH   3   5
ATOM      5  C   UNL     1      -9.269 -17.025  24.560  1.00  0.00     0.015 C 
BRANCH   5   6
ATOM      6  C   UNL     1      -9.097 -18.509  24.936  1.00  0.00     0.028 C 
BRANCH   6   7
ATOM      7  C   UNL     1      -8.557 -18.810  26.319  1.00  0.00    -0.028 C 
ATOM      8  C   UNL     1      -7.255 -18.911  26.679  1.00  0.00    -0.070 CG0
ATOM      9  C   UNL     1      -6.952 -19.322  28.099  1.00  0.00     0.039 C 
ATOM     10  G   UNL     1      -6.088 -18.569  25.770  1.00  0.00     0.000 G0
ENDBRANCH   6   7
ENDBRANCH   5   6
ENDBRANCH   3   5
ENDBRANCH   1   3
BRANCH   1  11
ATOM     11  C   UNL     1      -6.991 -15.290  24.422  1.00  0.00     0.087 C 
BRANCH  11  12
ATOM     12  C   UNL     1      -5.768 -16.258  24.451  1.00  0.00     0.066 C 
BRANCH  12  13
ATOM     13  C   UNL     1      -5.795 -17.065  25.744  1.00  0.00     0.140 C 
ATOM     14  O   UNL     1      -5.519 -16.503  26.795  1.00  0.00    -0.299 OA
BRANCH  13  15
ATOM     15  C   UNL     1      -6.076 -18.554  25.762  1.00  0.00     0.106 CG0
ATOM     16  G   UNL     1      -7.240 -18.875  26.683  1.00  0.00     0.000 G0
ENDBRANCH  13  15
ENDBRANCH  12  13
BRANCH  12  17
ATOM     17  C   UNL     1      -4.410 -15.497  24.294  1.00  0.00    -0.006 C 
ATOM     18  C   UNL     1      -4.547 -14.005  24.660  1.00  0.00     0.008 C 
ATOM     19  C   UNL     1      -3.856 -15.589  22.858  1.00  0.00     0.008 C 
ENDBRANCH  12  17
ENDBRANCH  11  12
ENDBRANCH   1  11
TORSDOF 1
ENDMDL
MODEL 6
REMARK VINA RESULT:    -3.413      1.621      3.758
REMARK INTER + INTRA:          -5.451
REMARK INTER:                  -5.052
REMARK INTRA:                  -0.399
REMARK UNBOUND:                -0.242
REMARK SMILES CC1=CCC[C@H](C)C(=O)C[C@@H](C(C)C)C(=O)C1
REMARK SMILES IDX 8 1 9 2 6 3 7 4 5 5 4 6 3 7 2 8 1 9 10 11 11 12 15 13 16 14
REMARK SMILES IDX 17 15 12 17 13 18 14 19
REMARK H PARENT
REMARK Flexibility Score: 70.00
ROOT
ATOM      1  C   UNL     1     -10.034 -23.617  22.707  1.00  0.00     0.136 C 
ATOM      2  O   UNL     1      -8.890 -23.497  22.293  1.00  0.00    -0.299 OA
ENDROOT
BRANCH   1   3
ATOM      3  C   UNL     1     -10.274 -24.027  24.142  1.00  0.00     0.053 C 
ATOM      4  C   UNL     1      -9.640 -25.389  24.444  1.00  0.00     0.016 C 
BRANCH   3   5
ATOM      5  C   UNL     1      -9.726 -22.924  25.082  1.00  0.00     0.015 C 
BRANCH   5   6
ATOM      6  C   UNL     1     -10.766 -21.923  25.621  1.00  0.00     0.028 C 
BRANCH   6   7
ATOM      7  C   UNL     1     -12.224 -22.321  25.513  1.00  0.00    -0.028 C 
ATOM      8  C   UNL     1     -13.163 -21.760  24.714  1.00  0.00    -0.070 CG0
ATOM      9  C   UNL     1     -14.583 -22.254  24.850  1.00  0.00     0.039 C 
ATOM     10  G   UNL     1     -12.866 -20.723  23.646  1.00  0.00     0.000 G0
ENDBRANCH   6   7
ENDBRANCH   5   6
ENDBRANCH   3   5
ENDBRANCH   1   3
BRANCH   1  11
ATOM     11  C   UNL     1     -11.190 -23.272  21.799  1.00  0.00     0.087 C 
BRANCH  11  12
ATOM     12  C   UNL     1     -11.397 -21.731  21.669  1.00  0.00     0.066 C 
BRANCH  12  13
ATOM     13  C   UNL     1     -12.749 -21.352  22.264  1.00  0.00     0.140 C 
ATOM     14  O   UNL     1     -13.757 -21.515  21.588  1.00  0.00    -0.299 OA
BRANCH  13  15
ATOM     15  C   UNL     1     -12.880 -20.711  23.630  1.00  0.00     0.106 CG0
ATOM     16  G   UNL     1     -13.168 -21.754  24.694  1.00  0.00     0.000 G0
ENDBRANCH  13  15
ENDBRANCH  12  13
BRANCH  12  17
ATOM     17  C   UNL     1     -11.282 -21.245  20.185  1.00  0.00    -0.006 C 
ATOM     18  C   UNL     1     -10.781 -22.367  19.254  1.00  0.00     0.008 C 
ATOM     19  C   UNL     1     -10.328 -20.042  20.042  1.00  0.00     0.008 C 
ENDBRANCH  12  17
ENDBRANCH  11  12
ENDBRANCH   1  11
TORSDOF 1
ENDMDL
MODEL 7
REMARK VINA RESULT:    -3.384      1.450      1.901
REMARK INTER + INTRA:          -5.407
REMARK INTER:                  -5.057
REMARK INTRA:                  -0.350
REMARK UNBOUND:                -0.242
REMARK SMILES CC1=CCC[C@H](C)C(=O)C[C@@H](C(C)C)C(=O)C1
REMARK SMILES IDX 8 1 9 2 6 3 7 4 5 5 4 6 3 7 2 8 1 9 10 11 11 12 15 13 16 14
REMARK SMILES IDX 17 15 12 17 13 18 14 19
REMARK H PARENT
REMARK Flexibility Score: 70.00
ROOT
ATOM      1  C   UNL     1     -12.922 -21.472  21.110  1.00  0.00     0.136 C 
ATOM      2  O   UNL     1     -13.589 -21.952  20.204  1.00  0.00    -0.299 OA
ENDROOT
BRANCH   1   3
ATOM      3  C   UNL     1     -13.223 -21.845  22.543  1.00  0.00     0.053 C 
ATOM      4  C   UNL     1     -14.731 -21.847  22.812  1.00  0.00     0.016 C 
BRANCH   3   5
ATOM      5  C   UNL     1     -12.588 -23.223  22.852  1.00  0.00     0.015 C 
BRANCH   5   6
ATOM      6  C   UNL     1     -11.397 -23.211  23.830  1.00  0.00     0.028 C 
BRANCH   6   7
ATOM      7  C   UNL     1     -11.115 -21.910  24.553  1.00  0.00    -0.028 C 
ATOM      8  C   UNL     1     -10.062 -21.082  24.355  1.00  0.00    -0.070 CG0
ATOM      9  C   UNL     1      -9.930 -19.887  25.268  1.00  0.00     0.039 C 
ATOM     10  G   UNL     1      -9.052 -21.238  23.232  1.00  0.00     0.000 G0
ENDBRANCH   6   7
ENDBRANCH   5   6
ENDBRANCH   3   5
ENDBRANCH   1   3
BRANCH   1  11
ATOM     11  C   UNL     1     -11.752 -20.578  20.773  1.00  0.00     0.087 C 
BRANCH  11  12
ATOM     12  C   UNL     1     -10.385 -21.314  20.922  1.00  0.00     0.066 C 
BRANCH  12  13
ATOM     13  C   UNL     1      -9.526 -20.579  21.944  1.00  0.00     0.140 C 
ATOM     14  O   UNL     1      -9.164 -19.436  21.696  1.00  0.00    -0.299 OA
BRANCH  13  15
ATOM     15  C   UNL     1      -9.042 -21.239  23.219  1.00  0.00     0.106 CG0
ATOM     16  G   UNL     1     -10.057 -21.073  24.336  1.00  0.00     0.000 G0
ENDBRANCH  13  15
ENDBRANCH  12  13
BRANCH  12  17
ATOM     17  C   UNL     1      -9.637 -21.451  19.555  1.00  0.00    -0.006 C 
ATOM     18  C   UNL     1     -10.315 -20.618  18.448  1.00  0.00     0.008 C 
ATOM     19  C   UNL     1      -9.564 -22.915  19.077  1.00  0.00     0.008 C 
ENDBRANCH  12  17
ENDBRANCH  11  12
ENDBRANCH   1  11
TORSDOF 1
ENDMDL
MODEL 8
REMARK VINA RESULT:    -3.358      6.618      8.695
REMARK INTER + INTRA:          -5.366
REMARK INTER:                  -5.010
REMARK INTRA:                  -0.356
REMARK UNBOUND:                -0.242
REMARK SMILES CC1=CCC[C@H](C)C(=O)C[C@@H](C(C)C)C(=O)C1
REMARK SMILES IDX 8 1 9 2 6 3 7 4 5 5 4 6 3 7 2 8 1 9 10 11 11 12 15 13 16 14
REMARK SMILES IDX 17 15 12 17 13 18 14 19
REMARK H PARENT
REMARK Flexibility Score: 70.00
ROOT
ATOM      1  C   UNL     1      -7.208 -15.209  22.858  1.00  0.00     0.136 C 
ATOM      2  O   UNL     1      -8.301 -14.665  22.799  1.00  0.00    -0.299 OA
ENDROOT
BRANCH   1   3
ATOM      3  C   UNL     1      -5.976 -14.388  23.163  1.00  0.00     0.053 C 
ATOM      4  C   UNL     1      -5.860 -14.096  24.663  1.00  0.00     0.016 C 
BRANCH   3   5
ATOM      5  C   UNL     1      -4.726 -15.131  22.630  1.00  0.00     0.015 C 
BRANCH   5   6
ATOM      6  C   UNL     1      -3.837 -15.801  23.695  1.00  0.00     0.028 C 
BRANCH   6   7
ATOM      7  C   UNL     1      -3.462 -17.251  23.463  1.00  0.00    -0.028 C 
ATOM      8  C   UNL     1      -3.988 -18.336  24.080  1.00  0.00    -0.070 CG0
ATOM      9  C   UNL     1      -3.385 -19.683  23.763  1.00  0.00     0.039 C 
ATOM     10  G   UNL     1      -5.188 -18.291  25.010  1.00  0.00     0.000 G0
ENDBRANCH   6   7
ENDBRANCH   5   6
ENDBRANCH   3   5
ENDBRANCH   1   3
BRANCH   1  11
ATOM     11  C   UNL     1      -7.118 -16.709  22.707  1.00  0.00     0.087 C 
BRANCH  11  12
ATOM     12  C   UNL     1      -7.507 -17.458  24.019  1.00  0.00     0.066 C 
BRANCH  12  13
ATOM     13  C   UNL     1      -6.492 -18.562  24.288  1.00  0.00     0.140 C 
ATOM     14  O   UNL     1      -6.763 -19.707  23.950  1.00  0.00    -0.299 OA
BRANCH  13  15
ATOM     15  C   UNL     1      -5.195 -18.305  25.027  1.00  0.00     0.106 CG0
ATOM     16  G   UNL     1      -4.011 -18.342  24.077  1.00  0.00     0.000 G0
ENDBRANCH  13  15
ENDBRANCH  12  13
BRANCH  12  17
ATOM     17  C   UNL     1      -8.961 -18.035  23.959  1.00  0.00    -0.006 C 
ATOM     18  C   UNL     1      -9.524 -18.014  22.524  1.00  0.00     0.008 C 
ATOM     19  C   UNL     1      -9.932 -17.255  24.867  1.00  0.00     0.008 C 
ENDBRANCH  12  17
ENDBRANCH  11  12
ENDBRANCH   1  11
TORSDOF 1
ENDMDL
MODEL 9
REMARK VINA RESULT:    -3.251      2.236      4.983
REMARK INTER + INTRA:          -5.203
REMARK INTER:                  -4.912
REMARK INTRA:                  -0.292
REMARK UNBOUND:                -0.242
REMARK SMILES CC1=CCC[C@H](C)C(=O)C[C@@H](C(C)C)C(=O)C1
REMARK SMILES IDX 8 1 9 2 6 3 7 4 5 5 4 6 3 7 2 8 1 9 10 11 11 12 15 13 16 14
REMARK SMILES IDX 17 15 12 17 13 18 14 19
REMARK H PARENT
REMARK Flexibility Score: 70.00
ROOT
ATOM      1  C   UNL     1     -11.486 -20.606  24.773  1.00  0.00     0.136 C 
ATOM      2  O   UNL     1     -11.120 -21.259  25.739  1.00  0.00    -0.299 OA
ENDROOT
BRANCH   1   3
ATOM      3  C   UNL     1     -10.851 -19.263  24.490  1.00  0.00     0.053 C 
ATOM      4  C   UNL     1     -10.785 -18.402  25.755  1.00  0.00     0.016 C 
BRANCH   3   5
ATOM      5  C   UNL     1      -9.445 -19.486  23.879  1.00  0.00     0.015 C 
BRANCH   5   6
ATOM      6  C   UNL     1      -9.239 -18.945  22.451  1.00  0.00     0.028 C 
BRANCH   6   7
ATOM      7  C   UNL     1      -9.006 -19.965  21.356  1.00  0.00    -0.028 C 
ATOM      8  C   UNL     1      -9.948 -20.679  20.696  1.00  0.00    -0.070 CG0
ATOM      9  C   UNL     1      -9.475 -21.719  19.709  1.00  0.00     0.039 C 
ATOM     10  G   UNL     1     -11.443 -20.452  20.833  1.00  0.00     0.000 G0
ENDBRANCH   6   7
ENDBRANCH   5   6
ENDBRANCH   3   5
ENDBRANCH   1   3
BRANCH   1  11
ATOM     11  C   UNL     1     -12.510 -21.191  23.829  1.00  0.00     0.087 C 
BRANCH  11  12
ATOM     12  C   UNL     1     -11.873 -22.190  22.815  1.00  0.00     0.066 C 
BRANCH  12  13
ATOM     13  C   UNL     1     -12.134 -21.700  21.395  1.00  0.00     0.140 C 
ATOM     14  O   UNL     1     -12.868 -22.359  20.670  1.00  0.00    -0.299 OA
BRANCH  13  15
ATOM     15  C   UNL     1     -11.457 -20.470  20.826  1.00  0.00     0.106 CG0
ATOM     16  G   UNL     1      -9.959 -20.683  20.700  1.00  0.00     0.000 G0
ENDBRANCH  13  15
ENDBRANCH  12  13
BRANCH  12  17
ATOM     17  C   UNL     1     -12.405 -23.648  23.011  1.00  0.00    -0.006 C 
ATOM     18  C   UNL     1     -13.708 -23.675  23.834  1.00  0.00     0.008 C 
ATOM     19  C   UNL     1     -11.373 -24.551  23.717  1.00  0.00     0.008 C 
ENDBRANCH  12  17
ENDBRANCH  11  12
ENDBRANCH   1  11
TORSDOF 1
ENDMDL
