MODEL 1
REMARK VINA RESULT:    -4.752      0.000      0.000
REMARK INTER + INTRA:          -5.442
REMARK INTER:                  -5.307
REMARK INTRA:                  -0.135
REMARK UNBOUND:                -0.135
REMARK SMILES O=C([O-])C=Cc1ccccc1
REMARK SMILES IDX 4 1 5 2 2 3 1 4 3 5 6 6 7 7 11 8 8 9 10 10 9 11
REMARK H PARENT
REMARK Flexibility Score: inf
ROOT
ATOM      1  C   UNL     1      16.873  62.266  44.781  1.00  0.00     0.025 C 
ATOM      2  C   UNL     1      17.671  63.210  44.259  1.00  0.00     0.010 C 
ENDROOT
BRANCH   1   3
ATOM      3  C   UNL     1      16.130  61.314  43.939  1.00  0.00     0.064 C 
ATOM      4  O   UNL     1      14.884  61.173  44.056  1.00  0.00    -0.545 OA
ATOM      5  O   UNL     1      16.815  60.558  42.996  1.00  0.00    -0.545 OA
ENDBRANCH   1   3
BRANCH   2   6
ATOM      6  C   UNL     1      18.446  64.202  45.052  1.00  0.00    -0.026 A 
ATOM      7  C   UNL     1      18.362  65.597  44.846  1.00  0.00     0.008 A 
ATOM      8  C   UNL     1      19.304  63.721  46.060  1.00  0.00     0.008 A 
ATOM      9  C   UNL     1      19.120  66.475  45.629  1.00  0.00     0.001 A 
ATOM     10  C   UNL     1      20.057  64.605  46.838  1.00  0.00     0.001 A 
ATOM     11  C   UNL     1      19.966  65.981  46.622  1.00  0.00     0.000 A 
ENDBRANCH   2   6
TORSDOF 2
ENDMDL
MODEL 2
REMARK VINA RESULT:    -4.654      0.119      1.758
REMARK INTER + INTRA:          -5.333
REMARK INTER:                  -5.204
REMARK INTRA:                  -0.129
REMARK UNBOUND:                -0.135
REMARK SMILES O=C([O-])C=Cc1ccccc1
REMARK SMILES IDX 4 1 5 2 2 3 1 4 3 5 6 6 7 7 11 8 8 9 10 10 9 11
REMARK H PARENT
REMARK Flexibility Score: inf
ROOT
ATOM      1  C   UNL     1      17.029  62.205  44.779  1.00  0.00     0.025 C 
ATOM      2  C   UNL     1      17.704  63.251  44.279  1.00  0.00     0.010 C 
ENDROOT
BRANCH   1   3
ATOM      3  C   UNL     1      16.256  61.289  43.925  1.00  0.00     0.064 C 
ATOM      4  O   UNL     1      16.819  60.591  43.039  1.00  0.00    -0.545 OA
ATOM      5  O   UNL     1      14.882  61.190  44.099  1.00  0.00    -0.545 OA
ENDBRANCH   1   3
BRANCH   2   6
ATOM      6  C   UNL     1      18.502  64.214  45.086  1.00  0.00    -0.026 A 
ATOM      7  C   UNL     1      19.381  63.820  46.118  1.00  0.00     0.008 A 
ATOM      8  C   UNL     1      18.371  65.587  44.801  1.00  0.00     0.008 A 
ATOM      9  C   UNL     1      20.102  64.778  46.839  1.00  0.00     0.001 A 
ATOM     10  C   UNL     1      19.095  66.538  45.525  1.00  0.00     0.001 A 
ATOM     11  C   UNL     1      19.959  66.135  46.544  1.00  0.00     0.000 A 
ENDBRANCH   2   6
TORSDOF 2
ENDMDL
MODEL 3
REMARK VINA RESULT:    -4.497      9.246     12.366
REMARK INTER + INTRA:          -5.157
REMARK INTER:                  -5.030
REMARK INTRA:                  -0.127
REMARK UNBOUND:                -0.135
REMARK SMILES O=C([O-])C=Cc1ccccc1
REMARK SMILES IDX 4 1 5 2 2 3 1 4 3 5 6 6 7 7 11 8 8 9 10 10 9 11
REMARK H PARENT
REMARK Flexibility Score: inf
ROOT
ATOM      1  C   UNL     1      15.354  53.774  44.978  1.00  0.00     0.025 C 
ATOM      2  C   UNL     1      15.148  53.708  43.654  1.00  0.00     0.010 C 
ENDROOT
BRANCH   1   3
ATOM      3  C   UNL     1      16.073  54.896  45.604  1.00  0.00     0.064 C 
ATOM      4  O   UNL     1      17.188  55.283  45.165  1.00  0.00    -0.545 OA
ATOM      5  O   UNL     1      15.511  55.541  46.698  1.00  0.00    -0.545 OA
ENDBRANCH   1   3
BRANCH   2   6
ATOM      6  C   UNL     1      14.431  52.604  42.958  1.00  0.00    -0.026 A 
ATOM      7  C   UNL     1      13.024  52.496  42.919  1.00  0.00     0.008 A 
ATOM      8  C   UNL     1      15.200  51.621  42.307  1.00  0.00     0.008 A 
ATOM      9  C   UNL     1      12.414  51.431  42.246  1.00  0.00     0.001 A 
ATOM     10  C   UNL     1      14.584  50.560  41.638  1.00  0.00     0.001 A 
ATOM     11  C   UNL     1      13.192  50.465  41.607  1.00  0.00     0.000 A 
ENDBRANCH   2   6
TORSDOF 2
ENDMDL
MODEL 4
REMARK VINA RESULT:    -4.494      9.246     12.393
REMARK INTER + INTRA:          -5.154
REMARK INTER:                  -5.024
REMARK INTRA:                  -0.130
REMARK UNBOUND:                -0.135
REMARK SMILES O=C([O-])C=Cc1ccccc1
REMARK SMILES IDX 4 1 5 2 2 3 1 4 3 5 6 6 7 7 11 8 8 9 10 10 9 11
REMARK H PARENT
REMARK Flexibility Score: inf
ROOT
ATOM      1  C   UNL     1      15.412  53.761  45.001  1.00  0.00     0.025 C 
ATOM      2  C   UNL     1      15.244  53.689  43.672  1.00  0.00     0.010 C 
ENDROOT
BRANCH   1   3
ATOM      3  C   UNL     1      16.099  54.893  45.644  1.00  0.00     0.064 C 
ATOM      4  O   UNL     1      17.210  55.310  45.219  1.00  0.00    -0.545 OA
ATOM      5  O   UNL     1      15.511  55.516  46.737  1.00  0.00    -0.545 OA
ENDBRANCH   1   3
BRANCH   2   6
ATOM      6  C   UNL     1      14.561  52.573  42.961  1.00  0.00    -0.026 A 
ATOM      7  C   UNL     1      15.254  51.550  42.277  1.00  0.00     0.008 A 
ATOM      8  C   UNL     1      13.153  52.540  42.975  1.00  0.00     0.008 A 
ATOM      9  C   UNL     1      14.549  50.530  41.629  1.00  0.00     0.001 A 
ATOM     10  C   UNL     1      12.457  51.518  42.324  1.00  0.00     0.001 A 
ATOM     11  C   UNL     1      13.154  50.513  41.652  1.00  0.00     0.000 A 
ENDBRANCH   2   6
TORSDOF 2
ENDMDL
MODEL 5
REMARK VINA RESULT:    -4.489      2.793      5.663
REMARK INTER + INTRA:          -5.148
REMARK INTER:                  -5.008
REMARK INTRA:                  -0.140
REMARK UNBOUND:                -0.135
REMARK SMILES O=C([O-])C=Cc1ccccc1
REMARK SMILES IDX 4 1 5 2 2 3 1 4 3 5 6 6 7 7 11 8 8 9 10 10 9 11
REMARK H PARENT
REMARK Flexibility Score: inf
ROOT
ATOM      1  C   UNL     1      17.735  63.691  44.498  1.00  0.00     0.025 C 
ATOM      2  C   UNL     1      17.772  62.419  44.924  1.00  0.00     0.010 C 
ENDROOT
BRANCH   1   3
ATOM      3  C   UNL     1      18.634  64.725  45.037  1.00  0.00     0.064 C 
ATOM      4  O   UNL     1      18.307  65.941  45.033  1.00  0.00    -0.545 OA
ATOM      5  O   UNL     1      19.866  64.353  45.560  1.00  0.00    -0.545 OA
ENDBRANCH   1   3
BRANCH   2   6
ATOM      6  C   UNL     1      16.892  61.328  44.424  1.00  0.00    -0.026 A 
ATOM      7  C   UNL     1      17.335  60.002  44.229  1.00  0.00     0.008 A 
ATOM      8  C   UNL     1      15.550  61.640  44.133  1.00  0.00     0.008 A 
ATOM      9  C   UNL     1      16.454  59.024  43.755  1.00  0.00     0.001 A 
ATOM     10  C   UNL     1      14.676  60.657  43.660  1.00  0.00     0.001 A 
ATOM     11  C   UNL     1      15.127  59.350  43.471  1.00  0.00     0.000 A 
ENDBRANCH   2   6
TORSDOF 2
ENDMDL
MODEL 6
REMARK VINA RESULT:    -4.476      1.261      1.714
REMARK INTER + INTRA:          -5.134
REMARK INTER:                  -5.003
REMARK INTRA:                  -0.131
REMARK UNBOUND:                -0.135
REMARK SMILES O=C([O-])C=Cc1ccccc1
REMARK SMILES IDX 4 1 5 2 2 3 1 4 3 5 6 6 7 7 11 8 8 9 10 10 9 11
REMARK H PARENT
REMARK Flexibility Score: inf
ROOT
ATOM      1  C   UNL     1      16.537  60.836  43.857  1.00  0.00     0.025 C 
ATOM      2  C   UNL     1      16.417  61.915  44.644  1.00  0.00     0.010 C 
ENDROOT
BRANCH   1   3
ATOM      3  C   UNL     1      15.398  59.954  43.554  1.00  0.00     0.064 C 
ATOM      4  O   UNL     1      14.233  60.414  43.422  1.00  0.00    -0.545 OA
ATOM      5  O   UNL     1      15.612  58.589  43.409  1.00  0.00    -0.545 OA
ENDBRANCH   1   3
BRANCH   2   6
ATOM      6  C   UNL     1      17.527  62.845  44.990  1.00  0.00    -0.026 A 
ATOM      7  C   UNL     1      17.654  64.139  44.440  1.00  0.00     0.008 A 
ATOM      8  C   UNL     1      18.495  62.407  45.913  1.00  0.00     0.008 A 
ATOM      9  C   UNL     1      18.723  64.963  44.809  1.00  0.00     0.001 A 
ATOM     10  C   UNL     1      19.560  63.236  46.277  1.00  0.00     0.001 A 
ATOM     11  C   UNL     1      19.675  64.512  45.725  1.00  0.00     0.000 A 
ENDBRANCH   2   6
TORSDOF 2
ENDMDL
MODEL 7
REMARK VINA RESULT:    -4.317      8.691     11.955
REMARK INTER + INTRA:          -4.956
REMARK INTER:                  -4.814
REMARK INTRA:                  -0.142
REMARK UNBOUND:                -0.135
REMARK SMILES O=C([O-])C=Cc1ccccc1
REMARK SMILES IDX 4 1 5 2 2 3 1 4 3 5 6 6 7 7 11 8 8 9 10 10 9 11
REMARK H PARENT
REMARK Flexibility Score: inf
ROOT
ATOM      1  C   UNL     1      16.237  54.600  44.977  1.00  0.00     0.025 C 
ATOM      2  C   UNL     1      15.643  53.419  45.202  1.00  0.00     0.010 C 
ENDROOT
BRANCH   1   3
ATOM      3  C   UNL     1      16.261  55.671  45.986  1.00  0.00     0.064 C 
ATOM      4  O   UNL     1      15.723  55.517  47.115  1.00  0.00    -0.545 OA
ATOM      5  O   UNL     1      16.891  56.873  45.691  1.00  0.00    -0.545 OA
ENDBRANCH   1   3
BRANCH   2   6
ATOM      6  C   UNL     1      15.581  52.297  44.225  1.00  0.00    -0.026 A 
ATOM      7  C   UNL     1      15.655  50.938  44.600  1.00  0.00     0.008 A 
ATOM      8  C   UNL     1      15.441  52.613  42.860  1.00  0.00     0.008 A 
ATOM      9  C   UNL     1      15.591  49.932  43.629  1.00  0.00     0.001 A 
ATOM     10  C   UNL     1      15.377  51.602  41.897  1.00  0.00     0.001 A 
ATOM     11  C   UNL     1      15.452  50.263  42.280  1.00  0.00     0.000 A 
ENDBRANCH   2   6
TORSDOF 2
ENDMDL
MODEL 8
REMARK VINA RESULT:    -4.292      1.602      2.247
REMARK INTER + INTRA:          -4.928
REMARK INTER:                  -4.793
REMARK INTRA:                  -0.135
REMARK UNBOUND:                -0.135
REMARK SMILES O=C([O-])C=Cc1ccccc1
REMARK SMILES IDX 4 1 5 2 2 3 1 4 3 5 6 6 7 7 11 8 8 9 10 10 9 11
REMARK H PARENT
REMARK Flexibility Score: inf
ROOT
ATOM      1  C   UNL     1      18.348  63.407  45.204  1.00  0.00     0.025 C 
ATOM      2  C   UNL     1      18.093  64.547  44.545  1.00  0.00     0.010 C 
ENDROOT
BRANCH   1   3
ATOM      3  C   UNL     1      17.507  62.208  45.054  1.00  0.00     0.064 C 
ATOM      4  O   UNL     1      16.250  62.286  45.081  1.00  0.00    -0.545 OA
ATOM      5  O   UNL     1      18.109  60.970  44.877  1.00  0.00    -0.545 OA
ENDBRANCH   1   3
BRANCH   2   6
ATOM      6  C   UNL     1      18.902  65.792  44.653  1.00  0.00    -0.026 A 
ATOM      7  C   UNL     1      19.479  66.441  43.540  1.00  0.00     0.008 A 
ATOM      8  C   UNL     1      19.096  66.347  45.932  1.00  0.00     0.008 A 
ATOM      9  C   UNL     1      20.229  67.610  43.712  1.00  0.00     0.001 A 
ATOM     10  C   UNL     1      19.847  67.516  46.096  1.00  0.00     0.001 A 
ATOM     11  C   UNL     1      20.413  68.146  44.987  1.00  0.00     0.000 A 
ENDBRANCH   2   6
TORSDOF 2
ENDMDL
MODEL 9
REMARK VINA RESULT:    -4.251      4.822      6.217
REMARK INTER + INTRA:          -4.883
REMARK INTER:                  -4.750
REMARK INTRA:                  -0.133
REMARK UNBOUND:                -0.135
REMARK SMILES O=C([O-])C=Cc1ccccc1
REMARK SMILES IDX 4 1 5 2 2 3 1 4 3 5 6 6 7 7 11 8 8 9 10 10 9 11
REMARK H PARENT
REMARK Flexibility Score: inf
ROOT
ATOM      1  C   UNL     1      20.755  67.831  45.878  1.00  0.00     0.025 C 
ATOM      2  C   UNL     1      19.546  67.263  46.008  1.00  0.00     0.010 C 
ENDROOT
BRANCH   1   3
ATOM      3  C   UNL     1      20.984  69.259  46.153  1.00  0.00     0.064 C 
ATOM      4  O   UNL     1      20.113  70.125  45.874  1.00  0.00    -0.545 OA
ATOM      5  O   UNL     1      22.181  69.658  46.732  1.00  0.00    -0.545 OA
ENDBRANCH   1   3
BRANCH   2   6
ATOM      6  C   UNL     1      19.248  65.828  45.745  1.00  0.00    -0.026 A 
ATOM      7  C   UNL     1      18.384  65.391  44.717  1.00  0.00     0.008 A 
ATOM      8  C   UNL     1      19.862  64.862  46.565  1.00  0.00     0.008 A 
ATOM      9  C   UNL     1      18.147  64.026  44.524  1.00  0.00     0.001 A 
ATOM     10  C   UNL     1      19.620  63.500  46.365  1.00  0.00     0.001 A 
ATOM     11  C   UNL     1      18.763  63.082  45.347  1.00  0.00     0.000 A 
ENDBRANCH   2   6
TORSDOF 2
ENDMDL
