MODEL 1
REMARK VINA RESULT:    -7.381      0.000      0.000
REMARK INTER + INTRA:         -14.420
REMARK INTER:                 -12.128
REMARK INTRA:                  -2.292
REMARK UNBOUND:                -2.292
REMARK SMILES COc1ccc([C@@H]2CC(=O)c3c(O)cc(O[C@H]4O[C@H](CO[C@@H]5O[C@@H](C)[C@@H](O)[C@H](O)[C@@H]5O)[C@@H](O)[C@@H](O)[C@@H]4O)cc3O2)cc1O
REMARK SMILES IDX 19 1 32 2 34 3 36 4 17 5 18 6 20 7 21 8 22 9 25 10 24 11
REMARK SMILES IDX 26 12 23 13 28 14 30 15 27 16 29 18 31 20 33 22 35 24 16 26
REMARK SMILES IDX 15 27 14 28 38 29 12 30 39 31 11 32 40 33 9 34 7 35 10 36
REMARK SMILES IDX 8 37 13 38 6 40 41 41 5 42 42 43 4 44 3 45 43 46 2 48 1 49
REMARK SMILES IDX 37 50
REMARK H PARENT 27 17 29 19 31 21 33 23 35 25 13 39 43 47 37 51
REMARK Flexibility Score: inf
ROOT
ATOM      1  C   UNL     1       3.229  40.932  85.561  1.00  0.00     0.180 C 
ATOM      2  C   UNL     1       4.163  40.837  86.782  1.00  0.00     0.177 C 
ATOM      3  C   UNL     1       4.429  42.267  87.298  1.00  0.00     0.180 C 
ATOM      4  C   UNL     1       3.098  43.042  87.517  1.00  0.00     0.214 C 
ATOM      5  C   UNL     1       2.050  42.767  86.384  1.00  0.00     0.339 C 
ATOM      6  O   UNL     1       1.983  41.399  86.015  1.00  0.00    -0.332 OA
ENDROOT
BRANCH   1   7
ATOM      7  C   UNL     1       3.033  39.620  84.798  1.00  0.00     0.198 C 
BRANCH   7   8
ATOM      8  O   UNL     1       1.871  39.655  83.990  1.00  0.00    -0.347 OA
BRANCH   8   9
ATOM      9  C   UNL     1       2.053  40.424  82.792  1.00  0.00     0.281 C 
ATOM     10  C   UNL     1      -0.848  42.697  83.110  1.00  0.00     0.041 C 
ATOM     11  C   UNL     1      -0.088  41.405  82.790  1.00  0.00     0.150 C 
ATOM     12  C   UNL     1      -0.429  40.950  81.355  1.00  0.00     0.174 C 
ATOM     13  O   UNL     1       1.318  41.642  82.862  1.00  0.00    -0.344 OA
ATOM     14  C   UNL     1       0.219  39.567  81.151  1.00  0.00     0.179 C 
ATOM     15  C   UNL     1       1.733  39.599  81.508  1.00  0.00     0.202 C 
BRANCH  12  16
ATOM     16  O   UNL     1       0.094  41.869  80.428  1.00  0.00    -0.388 OA
ATOM     17  H   UNL     1       1.050  42.021  80.698  1.00  0.00     0.211 HD
ENDBRANCH  12  16
BRANCH  14  18
ATOM     18  O   UNL     1      -0.505  38.572  81.845  1.00  0.00    -0.387 OA
ATOM     19  H   UNL     1       0.077  38.150  82.539  1.00  0.00     0.211 HD
ENDBRANCH  14  18
BRANCH  15  20
ATOM     20  O   UNL     1       2.240  38.298  81.650  1.00  0.00    -0.385 OA
ATOM     21  H   UNL     1       1.464  37.670  81.738  1.00  0.00     0.211 HD
ENDBRANCH  15  20
ENDBRANCH   8   9
ENDBRANCH   7   8
ENDBRANCH   1   7
BRANCH   2  22
ATOM     22  O   UNL     1       5.389  40.165  86.502  1.00  0.00    -0.387 OA
ATOM     23  H   UNL     1       5.175  39.332  86.028  1.00  0.00     0.211 HD
ENDBRANCH   2  22
BRANCH   3  24
ATOM     24  O   UNL     1       5.295  42.934  86.415  1.00  0.00    -0.387 OA
ATOM     25  H   UNL     1       5.029  42.710  85.472  1.00  0.00     0.211 HD
ENDBRANCH   3  24
BRANCH   5  26
ATOM     26  O   UNL     1       2.332  43.566  85.220  1.00  0.00    -0.462 OA
BRANCH  26  27
ATOM     27  C   UNL     1       1.717  44.771  84.868  1.00  0.00     0.130 A 
ATOM     28  C   UNL     1       0.973  45.555  85.778  1.00  0.00     0.093 A 
ATOM     29  C   UNL     1       1.782  45.133  83.522  1.00  0.00     0.094 A 
ATOM     30  C   UNL     1       0.298  46.697  85.334  1.00  0.00     0.133 A 
ATOM     31  C   UNL     1       0.874  46.094  83.040  1.00  0.00     0.138 A 
ATOM     32  C   UNL     1       0.223  46.974  83.950  1.00  0.00     0.102 A 
ATOM     33  O   UNL     1       0.455  46.045  81.698  1.00  0.00    -0.484 OA
ATOM     34  C   UNL     1      -0.763  47.932  83.364  1.00  0.00     0.174 C 
ATOM     35  C   UNL     1      -0.877  46.449  81.409  1.00  0.00     0.211 C 
ATOM     36  O   UNL     1      -1.420  48.720  84.104  1.00  0.00    -0.294 OA
ATOM     37  C   UNL     1      -1.081  47.889  81.885  1.00  0.00     0.131 C 
BRANCH  30  38
ATOM     38  O   UNL     1      -0.362  47.465  86.285  1.00  0.00    -0.507 OA
ATOM     39  H   UNL     1      -1.085  47.068  86.852  1.00  0.00     0.293 HD
ENDBRANCH  30  38
BRANCH  35  40
ATOM     40  C   UNL     1      -1.314  46.151  79.993  1.00  0.00    -0.003 A 
ATOM     41  C   UNL     1      -0.842  46.994  78.956  1.00  0.00     0.057 A 
ATOM     42  C   UNL     1      -2.042  44.985  79.635  1.00  0.00     0.011 A 
ATOM     43  C   UNL     1      -0.953  46.632  77.613  1.00  0.00     0.158 A 
ATOM     44  C   UNL     1      -2.194  44.637  78.286  1.00  0.00     0.051 A 
ATOM     45  C   UNL     1      -1.652  45.454  77.271  1.00  0.00     0.160 A 
BRANCH  43  46
ATOM     46  O   UNL     1      -0.303  47.367  76.629  1.00  0.00    -0.504 OA
ATOM     47  H   UNL     1       0.684  47.212  76.415  1.00  0.00     0.293 HD
ENDBRANCH  43  46
BRANCH  45  48
ATOM     48  O   UNL     1      -1.680  45.070  75.915  1.00  0.00    -0.493 OA
ATOM     49  C   UNL     1      -2.825  45.083  75.077  1.00  0.00     0.278 C 
ENDBRANCH  45  48
ENDBRANCH  35  40
ENDBRANCH  26  27
ENDBRANCH   5  26
BRANCH   4  50
ATOM     50  O   UNL     1       2.577  42.701  88.778  1.00  0.00    -0.384 OA
ATOM     51  H   UNL     1       1.851  42.027  88.632  1.00  0.00     0.211 HD
ENDBRANCH   4  50
TORSDOF 15
ENDMDL
MODEL 2
REMARK VINA RESULT:    -7.288      2.088      9.575
REMARK INTER + INTRA:         -14.266
REMARK INTER:                 -11.985
REMARK INTRA:                  -2.281
REMARK UNBOUND:                -2.292
REMARK SMILES COc1ccc([C@@H]2CC(=O)c3c(O)cc(O[C@H]4O[C@H](CO[C@@H]5O[C@@H](C)[C@@H](O)[C@H](O)[C@@H]5O)[C@@H](O)[C@@H](O)[C@@H]4O)cc3O2)cc1O
REMARK SMILES IDX 19 1 32 2 34 3 36 4 17 5 18 6 20 7 21 8 22 9 25 10 24 11
REMARK SMILES IDX 26 12 23 13 28 14 30 15 27 16 29 18 31 20 33 22 35 24 16 26
REMARK SMILES IDX 15 27 14 28 38 29 12 30 39 31 11 32 40 33 9 34 7 35 10 36
REMARK SMILES IDX 8 37 13 38 6 40 41 41 5 42 42 43 4 44 3 45 43 46 2 48 1 49
REMARK SMILES IDX 37 50
REMARK H PARENT 27 17 29 19 31 21 33 23 35 25 13 39 43 47 37 51
REMARK Flexibility Score: inf
ROOT
ATOM      1  C   UNL     1      -2.908  47.308  80.203  1.00  0.00     0.180 C 
ATOM      2  C   UNL     1      -2.158  47.934  79.012  1.00  0.00     0.177 C 
ATOM      3  C   UNL     1      -1.187  46.878  78.444  1.00  0.00     0.180 C 
ATOM      4  C   UNL     1      -1.920  45.537  78.158  1.00  0.00     0.214 C 
ATOM      5  C   UNL     1      -2.960  45.171  79.273  1.00  0.00     0.339 C 
ATOM      6  O   UNL     1      -3.729  46.286  79.697  1.00  0.00    -0.332 OA
ENDROOT
BRANCH   1   7
ATOM      7  C   UNL     1      -3.759  48.288  81.014  1.00  0.00     0.198 C 
BRANCH   7   8
ATOM      8  O   UNL     1      -3.023  48.859  82.080  1.00  0.00    -0.347 OA
BRANCH   8   9
ATOM      9  C   UNL     1      -2.164  47.909  82.730  1.00  0.00     0.281 C 
ATOM     10  C   UNL     1      -4.104  47.400  85.838  1.00  0.00     0.041 C 
ATOM     11  C   UNL     1      -3.147  48.094  84.862  1.00  0.00     0.150 C 
ATOM     12  C   UNL     1      -1.820  48.411  85.582  1.00  0.00     0.174 C 
ATOM     13  O   UNL     1      -2.865  47.226  83.764  1.00  0.00    -0.344 OA
ATOM     14  C   UNL     1      -0.969  49.256  84.614  1.00  0.00     0.179 C 
ATOM     15  C   UNL     1      -0.838  48.561  83.229  1.00  0.00     0.202 C 
BRANCH  12  16
ATOM     16  O   UNL     1      -1.150  47.214  85.893  1.00  0.00    -0.388 OA
ATOM     17  H   UNL     1      -1.782  46.684  86.467  1.00  0.00     0.211 HD
ENDBRANCH  12  16
BRANCH  14  18
ATOM     18  O   UNL     1      -1.467  50.576  84.539  1.00  0.00    -0.387 OA
ATOM     19  H   UNL     1      -0.723  51.208  84.327  1.00  0.00     0.211 HD
ENDBRANCH  14  18
BRANCH  15  20
ATOM     20  O   UNL     1      -0.366  49.461  82.261  1.00  0.00    -0.385 OA
ATOM     21  H   UNL     1       0.293  50.073  82.701  1.00  0.00     0.211 HD
ENDBRANCH  15  20
ENDBRANCH   8   9
ENDBRANCH   7   8
ENDBRANCH   1   7
BRANCH   2  22
ATOM     22  O   UNL     1      -1.460  49.131  79.352  1.00  0.00    -0.387 OA
ATOM     23  H   UNL     1      -1.078  49.013  80.250  1.00  0.00     0.211 HD
ENDBRANCH   2  22
BRANCH   3  24
ATOM     24  O   UNL     1      -0.101  46.715  79.322  1.00  0.00    -0.387 OA
ATOM     25  H   UNL     1       0.154  47.614  79.690  1.00  0.00     0.211 HD
ENDBRANCH   3  24
BRANCH   5  26
ATOM     26  O   UNL     1      -2.305  44.578  80.410  1.00  0.00    -0.462 OA
BRANCH  26  27
ATOM     27  C   UNL     1      -1.620  43.360  80.435  1.00  0.00     0.130 A 
ATOM     28  C   UNL     1      -2.270  42.106  80.424  1.00  0.00     0.093 A 
ATOM     29  C   UNL     1      -0.234  43.429  80.576  1.00  0.00     0.094 A 
ATOM     30  C   UNL     1      -1.527  40.928  80.554  1.00  0.00     0.133 A 
ATOM     31  C   UNL     1       0.457  42.278  80.998  1.00  0.00     0.138 A 
ATOM     32  C   UNL     1      -0.150  40.997  80.863  1.00  0.00     0.102 A 
ATOM     33  O   UNL     1       1.646  42.411  81.739  1.00  0.00    -0.484 OA
ATOM     34  C   UNL     1       0.628  39.831  81.381  1.00  0.00     0.174 C 
ATOM     35  C   UNL     1       1.917  41.428  82.730  1.00  0.00     0.211 C 
ATOM     36  O   UNL     1       0.147  38.662  81.342  1.00  0.00    -0.294 OA
ATOM     37  C   UNL     1       1.957  40.047  82.073  1.00  0.00     0.131 C 
BRANCH  30  38
ATOM     38  O   UNL     1      -2.212  39.722  80.469  1.00  0.00    -0.507 OA
ATOM     39  H   UNL     1      -2.807  39.525  79.688  1.00  0.00     0.293 HD
ENDBRANCH  30  38
BRANCH  35  40
ATOM     40  C   UNL     1       3.085  41.769  83.626  1.00  0.00    -0.003 A 
ATOM     41  C   UNL     1       3.100  43.042  84.250  1.00  0.00     0.057 A 
ATOM     42  C   UNL     1       4.082  40.827  83.995  1.00  0.00     0.011 A 
ATOM     43  C   UNL     1       3.971  43.330  85.302  1.00  0.00     0.158 A 
ATOM     44  C   UNL     1       4.987  41.125  85.022  1.00  0.00     0.051 A 
ATOM     45  C   UNL     1       4.937  42.373  85.679  1.00  0.00     0.160 A 
BRANCH  43  46
ATOM     46  O   UNL     1       3.829  44.503  86.033  1.00  0.00    -0.504 OA
ATOM     47  H   UNL     1       4.501  45.267  85.946  1.00  0.00     0.293 HD
ENDBRANCH  43  46
BRANCH  45  48
ATOM     48  O   UNL     1       5.750  42.656  86.796  1.00  0.00    -0.493 OA
ATOM     49  C   UNL     1       5.535  42.180  88.116  1.00  0.00     0.278 C 
ENDBRANCH  45  48
ENDBRANCH  35  40
ENDBRANCH  26  27
ENDBRANCH   5  26
BRANCH   4  50
ATOM     50  O   UNL     1      -2.541  45.620  76.899  1.00  0.00    -0.384 OA
ATOM     51  H   UNL     1      -2.289  46.501  76.496  1.00  0.00     0.211 HD
ENDBRANCH   4  50
TORSDOF 15
ENDMDL
MODEL 3
REMARK VINA RESULT:    -7.245      2.032      6.850
REMARK INTER + INTRA:         -14.196
REMARK INTER:                 -11.498
REMARK INTRA:                  -2.697
REMARK UNBOUND:                -2.292
REMARK SMILES COc1ccc([C@@H]2CC(=O)c3c(O)cc(O[C@H]4O[C@H](CO[C@@H]5O[C@@H](C)[C@@H](O)[C@H](O)[C@@H]5O)[C@@H](O)[C@@H](O)[C@@H]4O)cc3O2)cc1O
REMARK SMILES IDX 19 1 32 2 34 3 36 4 17 5 18 6 20 7 21 8 22 9 25 10 24 11
REMARK SMILES IDX 26 12 23 13 28 14 30 15 27 16 29 18 31 20 33 22 35 24 16 26
REMARK SMILES IDX 15 27 14 28 38 29 12 30 39 31 11 32 40 33 9 34 7 35 10 36
REMARK SMILES IDX 8 37 13 38 6 40 41 41 5 42 42 43 4 44 3 45 43 46 2 48 1 49
REMARK SMILES IDX 37 50
REMARK H PARENT 27 17 29 19 31 21 33 23 35 25 13 39 43 47 37 51
REMARK Flexibility Score: inf
ROOT
ATOM      1  C   UNL     1       0.267  48.028  85.706  1.00  0.00     0.180 C 
ATOM      2  C   UNL     1      -0.199  49.188  86.606  1.00  0.00     0.177 C 
ATOM      3  C   UNL     1      -0.961  50.203  85.728  1.00  0.00     0.180 C 
ATOM      4  C   UNL     1      -2.069  49.502  84.892  1.00  0.00     0.214 C 
ATOM      5  C   UNL     1      -1.605  48.118  84.320  1.00  0.00     0.339 C 
ATOM      6  O   UNL     1      -0.880  47.347  85.264  1.00  0.00    -0.332 OA
ENDROOT
BRANCH   1   7
ATOM      7  C   UNL     1       1.221  47.037  86.376  1.00  0.00     0.198 C 
BRANCH   7   8
ATOM      8  O   UNL     1       1.598  45.997  85.493  1.00  0.00    -0.347 OA
BRANCH   8   9
ATOM      9  C   UNL     1       1.828  44.752  86.171  1.00  0.00     0.281 C 
ATOM     10  C   UNL     1       4.638  43.486  84.126  1.00  0.00     0.041 C 
ATOM     11  C   UNL     1       3.185  43.799  84.498  1.00  0.00     0.150 C 
ATOM     12  C   UNL     1       2.333  42.519  84.365  1.00  0.00     0.174 C 
ATOM     13  O   UNL     1       3.119  44.242  85.854  1.00  0.00    -0.344 OA
ATOM     14  C   UNL     1       0.863  42.928  84.580  1.00  0.00     0.179 C 
ATOM     15  C   UNL     1       0.689  43.720  85.907  1.00  0.00     0.202 C 
BRANCH  12  16
ATOM     16  O   UNL     1       2.722  41.585  85.343  1.00  0.00    -0.388 OA
ATOM     17  H   UNL     1       2.823  42.104  86.197  1.00  0.00     0.211 HD
ENDBRANCH  12  16
BRANCH  14  18
ATOM     18  O   UNL     1       0.366  43.608  83.446  1.00  0.00    -0.387 OA
ATOM     19  H   UNL     1       0.650  44.565  83.472  1.00  0.00     0.211 HD
ENDBRANCH  14  18
BRANCH  15  20
ATOM     20  O   UNL     1      -0.552  44.374  85.939  1.00  0.00    -0.385 OA
ATOM     21  H   UNL     1      -0.382  45.356  86.050  1.00  0.00     0.211 HD
ENDBRANCH  15  20
ENDBRANCH   8   9
ENDBRANCH   7   8
ENDBRANCH   1   7
BRANCH   2  22
ATOM     22  O   UNL     1       0.871  49.825  87.302  1.00  0.00    -0.387 OA
ATOM     23  H   UNL     1       1.714  49.536  86.890  1.00  0.00     0.211 HD
ENDBRANCH   2  22
BRANCH   3  24
ATOM     24  O   UNL     1      -0.051  50.908  84.922  1.00  0.00    -0.387 OA
ATOM     25  H   UNL     1      -0.280  50.742  83.957  1.00  0.00     0.211 HD
ENDBRANCH   3  24
BRANCH   5  26
ATOM     26  O   UNL     1      -0.811  48.296  83.132  1.00  0.00    -0.462 OA
BRANCH  26  27
ATOM     27  C   UNL     1      -0.987  47.643  81.908  1.00  0.00     0.130 A 
ATOM     28  C   UNL     1      -2.073  47.900  81.042  1.00  0.00     0.093 A 
ATOM     29  C   UNL     1      -0.079  46.626  81.609  1.00  0.00     0.094 A 
ATOM     30  C   UNL     1      -2.243  47.138  79.881  1.00  0.00     0.133 A 
ATOM     31  C   UNL     1      -0.421  45.689  80.617  1.00  0.00     0.138 A 
ATOM     32  C   UNL     1      -1.428  46.005  79.661  1.00  0.00     0.102 A 
ATOM     33  O   UNL     1       0.075  44.375  80.699  1.00  0.00    -0.484 OA
ATOM     34  C   UNL     1      -1.767  44.937  78.672  1.00  0.00     0.174 C 
ATOM     35  C   UNL     1      -0.761  43.326  80.228  1.00  0.00     0.211 C 
ATOM     36  O   UNL     1      -2.680  45.115  77.814  1.00  0.00    -0.294 OA
ATOM     37  C   UNL     1      -1.108  43.578  78.759  1.00  0.00     0.131 C 
BRANCH  30  38
ATOM     38  O   UNL     1      -3.289  47.479  79.035  1.00  0.00    -0.507 OA
ATOM     39  H   UNL     1      -4.111  47.927  79.391  1.00  0.00     0.293 HD
ENDBRANCH  30  38
BRANCH  35  40
ATOM     40  C   UNL     1      -0.252  41.942  80.560  1.00  0.00    -0.003 A 
ATOM     41  C   UNL     1       1.147  41.761  80.702  1.00  0.00     0.057 A 
ATOM     42  C   UNL     1      -1.109  40.858  80.887  1.00  0.00     0.011 A 
ATOM     43  C   UNL     1       1.679  40.608  81.283  1.00  0.00     0.158 A 
ATOM     44  C   UNL     1      -0.578  39.680  81.431  1.00  0.00     0.051 A 
ATOM     45  C   UNL     1       0.813  39.549  81.632  1.00  0.00     0.160 A 
BRANCH  43  46
ATOM     46  O   UNL     1       3.029  40.538  81.602  1.00  0.00    -0.504 OA
ATOM     47  H   UNL     1       3.361  39.970  82.383  1.00  0.00     0.293 HD
ENDBRANCH  43  46
BRANCH  45  48
ATOM     48  O   UNL     1       1.366  38.431  82.290  1.00  0.00    -0.493 OA
ATOM     49  C   UNL     1       1.457  38.262  83.696  1.00  0.00     0.278 C 
ENDBRANCH  45  48
ENDBRANCH  35  40
ENDBRANCH  26  27
ENDBRANCH   5  26
BRANCH   4  50
ATOM     50  O   UNL     1      -3.217  49.356  85.692  1.00  0.00    -0.384 OA
ATOM     51  H   UNL     1      -3.021  49.779  86.579  1.00  0.00     0.211 HD
ENDBRANCH   4  50
TORSDOF 15
ENDMDL
MODEL 4
REMARK VINA RESULT:    -7.242      2.484      9.481
REMARK INTER + INTRA:         -14.191
REMARK INTER:                 -11.991
REMARK INTRA:                  -2.201
REMARK UNBOUND:                -2.292
REMARK SMILES COc1ccc([C@@H]2CC(=O)c3c(O)cc(O[C@H]4O[C@H](CO[C@@H]5O[C@@H](C)[C@@H](O)[C@H](O)[C@@H]5O)[C@@H](O)[C@@H](O)[C@@H]4O)cc3O2)cc1O
REMARK SMILES IDX 19 1 32 2 34 3 36 4 17 5 18 6 20 7 21 8 22 9 25 10 24 11
REMARK SMILES IDX 26 12 23 13 28 14 30 15 27 16 29 18 31 20 33 22 35 24 16 26
REMARK SMILES IDX 15 27 14 28 38 29 12 30 39 31 11 32 40 33 9 34 7 35 10 36
REMARK SMILES IDX 8 37 13 38 6 40 41 41 5 42 42 43 4 44 3 45 43 46 2 48 1 49
REMARK SMILES IDX 37 50
REMARK H PARENT 27 17 29 19 31 21 33 23 35 25 13 39 43 47 37 51
REMARK Flexibility Score: inf
ROOT
ATOM      1  C   UNL     1      -2.380  46.575  82.079  1.00  0.00     0.180 C 
ATOM      2  C   UNL     1      -2.019  47.174  80.706  1.00  0.00     0.177 C 
ATOM      3  C   UNL     1      -0.928  46.289  80.066  1.00  0.00     0.180 C 
ATOM      4  C   UNL     1      -1.348  44.792  80.067  1.00  0.00     0.214 C 
ATOM      5  C   UNL     1      -2.062  44.369  81.397  1.00  0.00     0.339 C 
ATOM      6  O   UNL     1      -2.998  45.334  81.851  1.00  0.00    -0.332 OA
ENDROOT
BRANCH   1   7
ATOM      7  C   UNL     1      -3.295  47.448  82.940  1.00  0.00     0.198 C 
BRANCH   7   8
ATOM      8  O   UNL     1      -2.555  48.366  83.723  1.00  0.00    -0.347 OA
BRANCH   8   9
ATOM      9  C   UNL     1      -1.652  47.716  84.631  1.00  0.00     0.281 C 
ATOM     10  C   UNL     1      -2.904  49.132  87.811  1.00  0.00     0.041 C 
ATOM     11  C   UNL     1      -2.131  49.083  86.489  1.00  0.00     0.150 C 
ATOM     12  C   UNL     1      -0.659  49.468  86.740  1.00  0.00     0.174 C 
ATOM     13  O   UNL     1      -2.163  47.757  85.959  1.00  0.00    -0.344 OA
ATOM     14  C   UNL     1       0.025  49.572  85.362  1.00  0.00     0.179 C 
ATOM     15  C   UNL     1      -0.203  48.282  84.525  1.00  0.00     0.202 C 
BRANCH  12  16
ATOM     16  O   UNL     1      -0.033  48.476  87.515  1.00  0.00    -0.388 OA
ATOM     17  H   UNL     1      -0.709  48.194  88.203  1.00  0.00     0.211 HD
ENDBRANCH  12  16
BRANCH  14  18
ATOM     18  O   UNL     1      -0.373  50.754  84.699  1.00  0.00    -0.387 OA
ATOM     19  H   UNL     1      -1.364  50.761  84.581  1.00  0.00     0.211 HD
ENDBRANCH  14  18
BRANCH  15  20
ATOM     20  O   UNL     1       0.116  48.499  83.175  1.00  0.00    -0.385 OA
ATOM     21  H   UNL     1      -0.740  48.530  82.655  1.00  0.00     0.211 HD
ENDBRANCH  15  20
ENDBRANCH   8   9
ENDBRANCH   7   8
ENDBRANCH   1   7
BRANCH   2  22
ATOM     22  O   UNL     1      -1.589  48.532  80.780  1.00  0.00    -0.387 OA
ATOM     23  H   UNL     1      -2.387  49.104  80.753  1.00  0.00     0.211 HD
ENDBRANCH   2  22
BRANCH   3  24
ATOM     24  O   UNL     1       0.296  46.500  80.722  1.00  0.00    -0.387 OA
ATOM     25  H   UNL     1       0.362  45.861  81.496  1.00  0.00     0.211 HD
ENDBRANCH   3  24
BRANCH   5  26
ATOM     26  O   UNL     1      -1.100  44.107  82.435  1.00  0.00    -0.462 OA
BRANCH  26  27
ATOM     27  C   UNL     1      -0.236  43.011  82.512  1.00  0.00     0.130 A 
ATOM     28  C   UNL     1      -0.675  41.696  82.787  1.00  0.00     0.093 A 
ATOM     29  C   UNL     1       1.128  43.285  82.404  1.00  0.00     0.094 A 
ATOM     30  C   UNL     1       0.254  40.664  82.952  1.00  0.00     0.133 A 
ATOM     31  C   UNL     1       2.046  42.320  82.859  1.00  0.00     0.138 A 
ATOM     32  C   UNL     1       1.634  40.965  83.009  1.00  0.00     0.102 A 
ATOM     33  O   UNL     1       3.295  42.728  83.361  1.00  0.00    -0.484 OA
ATOM     34  C   UNL     1       2.654  40.013  83.544  1.00  0.00     0.174 C 
ATOM     35  C   UNL     1       3.861  41.964  84.418  1.00  0.00     0.211 C 
ATOM     36  O   UNL     1       2.362  38.799  83.751  1.00  0.00    -0.294 OA
ATOM     37  C   UNL     1       4.019  40.512  83.963  1.00  0.00     0.131 C 
BRANCH  30  38
ATOM     38  O   UNL     1      -0.238  39.381  83.154  1.00  0.00    -0.507 OA
ATOM     39  H   UNL     1      -1.185  39.236  83.445  1.00  0.00     0.293 HD
ENDBRANCH  30  38
BRANCH  35  40
ATOM     40  C   UNL     1       5.081  42.599  85.046  1.00  0.00    -0.003 A 
ATOM     41  C   UNL     1       5.933  43.372  84.219  1.00  0.00     0.057 A 
ATOM     42  C   UNL     1       5.329  42.586  86.445  1.00  0.00     0.011 A 
ATOM     43  C   UNL     1       6.903  44.219  84.759  1.00  0.00     0.158 A 
ATOM     44  C   UNL     1       6.329  43.402  86.990  1.00  0.00     0.051 A 
ATOM     45  C   UNL     1       7.119  44.220  86.154  1.00  0.00     0.160 A 
BRANCH  43  46
ATOM     46  O   UNL     1       7.583  45.119  83.947  1.00  0.00    -0.504 OA
ATOM     47  H   UNL     1       8.593  45.058  83.817  1.00  0.00     0.293 HD
ENDBRANCH  43  46
BRANCH  45  48
ATOM     48  O   UNL     1       8.047  45.142  86.679  1.00  0.00    -0.493 OA
ATOM     49  C   UNL     1       8.802  44.967  87.869  1.00  0.00     0.278 C 
ENDBRANCH  45  48
ENDBRANCH  35  40
ENDBRANCH  26  27
ENDBRANCH   5  26
BRANCH   4  50
ATOM     50  O   UNL     1      -2.173  44.552  78.954  1.00  0.00    -0.384 OA
ATOM     51  H   UNL     1      -3.121  44.683  79.248  1.00  0.00     0.211 HD
ENDBRANCH   4  50
TORSDOF 15
ENDMDL
MODEL 5
REMARK VINA RESULT:    -7.211      3.403      7.342
REMARK INTER + INTRA:         -14.141
REMARK INTER:                 -12.688
REMARK INTRA:                  -1.452
REMARK UNBOUND:                -2.292
REMARK SMILES COc1ccc([C@@H]2CC(=O)c3c(O)cc(O[C@H]4O[C@H](CO[C@@H]5O[C@@H](C)[C@@H](O)[C@H](O)[C@@H]5O)[C@@H](O)[C@@H](O)[C@@H]4O)cc3O2)cc1O
REMARK SMILES IDX 19 1 32 2 34 3 36 4 17 5 18 6 20 7 21 8 22 9 25 10 24 11
REMARK SMILES IDX 26 12 23 13 28 14 30 15 27 16 29 18 31 20 33 22 35 24 16 26
REMARK SMILES IDX 15 27 14 28 38 29 12 30 39 31 11 32 40 33 9 34 7 35 10 36
REMARK SMILES IDX 8 37 13 38 6 40 41 41 5 42 42 43 4 44 3 45 43 46 2 48 1 49
REMARK SMILES IDX 37 50
REMARK H PARENT 27 17 29 19 31 21 33 23 35 25 13 39 43 47 37 51
REMARK Flexibility Score: inf
ROOT
ATOM      1  C   UNL     1       5.037  39.676  88.845  1.00  0.00     0.180 C 
ATOM      2  C   UNL     1       5.418  40.874  89.735  1.00  0.00     0.177 C 
ATOM      3  C   UNL     1       5.067  42.171  88.975  1.00  0.00     0.180 C 
ATOM      4  C   UNL     1       3.599  42.142  88.464  1.00  0.00     0.214 C 
ATOM      5  C   UNL     1       3.183  40.736  87.910  1.00  0.00     0.339 C 
ATOM      6  O   UNL     1       3.636  39.666  88.724  1.00  0.00    -0.332 OA
ENDROOT
BRANCH   1   7
ATOM      7  C   UNL     1       5.512  38.316  89.360  1.00  0.00     0.198 C 
BRANCH   7   8
ATOM      8  O   UNL     1       6.786  37.978  88.842  1.00  0.00    -0.347 OA
BRANCH   8   9
ATOM      9  C   UNL     1       6.855  36.619  88.386  1.00  0.00     0.281 C 
ATOM     10  C   UNL     1      10.164  35.709  89.767  1.00  0.00     0.041 C 
ATOM     11  C   UNL     1       9.157  36.331  88.793  1.00  0.00     0.150 C 
ATOM     12  C   UNL     1       9.478  35.868  87.357  1.00  0.00     0.174 C 
ATOM     13  O   UNL     1       7.837  35.895  89.120  1.00  0.00    -0.344 OA
ATOM     14  C   UNL     1       8.552  36.653  86.409  1.00  0.00     0.179 C 
ATOM     15  C   UNL     1       7.064  36.525  86.844  1.00  0.00     0.202 C 
BRANCH  12  16
ATOM     16  O   UNL     1       9.232  34.488  87.236  1.00  0.00    -0.388 OA
ATOM     17  H   UNL     1       9.715  34.192  86.405  1.00  0.00     0.211 HD
ENDBRANCH  12  16
BRANCH  14  18
ATOM     18  O   UNL     1       8.990  37.991  86.281  1.00  0.00    -0.387 OA
ATOM     19  H   UNL     1       9.297  38.160  85.346  1.00  0.00     0.211 HD
ENDBRANCH  14  18
BRANCH  15  20
ATOM     20  O   UNL     1       6.272  37.492  86.205  1.00  0.00    -0.385 OA
ATOM     21  H   UNL     1       6.878  38.093  85.681  1.00  0.00     0.211 HD
ENDBRANCH  15  20
ENDBRANCH   8   9
ENDBRANCH   7   8
ENDBRANCH   1   7
BRANCH   2  22
ATOM     22  O   UNL     1       6.790  40.872  90.125  1.00  0.00    -0.387 OA
ATOM     23  H   UNL     1       7.080  39.937  90.204  1.00  0.00     0.211 HD
ENDBRANCH   2  22
BRANCH   3  24
ATOM     24  O   UNL     1       5.990  42.373  87.935  1.00  0.00    -0.387 OA
ATOM     25  H   UNL     1       5.509  42.779  87.152  1.00  0.00     0.211 HD
ENDBRANCH   3  24
BRANCH   5  26
ATOM     26  O   UNL     1       3.663  40.553  86.564  1.00  0.00    -0.462 OA
BRANCH  26  27
ATOM     27  C   UNL     1       2.963  40.830  85.386  1.00  0.00     0.130 A 
ATOM     28  C   UNL     1       3.390  40.394  84.111  1.00  0.00     0.093 A 
ATOM     29  C   UNL     1       1.850  41.662  85.504  1.00  0.00     0.094 A 
ATOM     30  C   UNL     1       2.699  40.794  82.963  1.00  0.00     0.133 A 
ATOM     31  C   UNL     1       1.353  42.288  84.346  1.00  0.00     0.138 A 
ATOM     32  C   UNL     1       1.677  41.765  83.062  1.00  0.00     0.102 A 
ATOM     33  O   UNL     1       0.716  43.539  84.449  1.00  0.00    -0.484 OA
ATOM     34  C   UNL     1       1.151  42.517  81.883  1.00  0.00     0.174 C 
ATOM     35  C   UNL     1       0.881  44.451  83.371  1.00  0.00     0.211 C 
ATOM     36  O   UNL     1       1.427  42.149  80.704  1.00  0.00    -0.294 OA
ATOM     37  C   UNL     1       0.378  43.802  82.080  1.00  0.00     0.131 C 
BRANCH  30  38
ATOM     38  O   UNL     1       3.124  40.280  81.745  1.00  0.00    -0.507 OA
ATOM     39  H   UNL     1       2.466  40.077  81.018  1.00  0.00     0.293 HD
ENDBRANCH  30  38
BRANCH  35  40
ATOM     40  C   UNL     1       0.361  45.841  83.660  1.00  0.00    -0.003 A 
ATOM     41  C   UNL     1       0.211  46.229  85.015  1.00  0.00     0.057 A 
ATOM     42  C   UNL     1       0.165  46.821  82.652  1.00  0.00     0.011 A 
ATOM     43  C   UNL     1       0.019  47.564  85.375  1.00  0.00     0.158 A 
ATOM     44  C   UNL     1      -0.070  48.157  83.005  1.00  0.00     0.051 A 
ATOM     45  C   UNL     1      -0.144  48.535  84.363  1.00  0.00     0.160 A 
BRANCH  43  46
ATOM     46  O   UNL     1       0.082  47.951  86.708  1.00  0.00    -0.504 OA
ATOM     47  H   UNL     1       0.977  48.063  87.186  1.00  0.00     0.293 HD
ENDBRANCH  43  46
BRANCH  45  48
ATOM     48  O   UNL     1      -0.255  49.885  84.753  1.00  0.00    -0.493 OA
ATOM     49  C   UNL     1      -0.921  50.904  84.022  1.00  0.00     0.278 C 
ENDBRANCH  45  48
ENDBRANCH  35  40
ENDBRANCH  26  27
ENDBRANCH   5  26
BRANCH   4  50
ATOM     50  O   UNL     1       2.747  42.543  89.509  1.00  0.00    -0.384 OA
ATOM     51  H   UNL     1       1.828  42.207  89.294  1.00  0.00     0.211 HD
ENDBRANCH   4  50
TORSDOF 15
ENDMDL
MODEL 6
REMARK VINA RESULT:    -7.155      2.596      5.055
REMARK INTER + INTRA:         -14.048
REMARK INTER:                 -12.281
REMARK INTRA:                  -1.767
REMARK UNBOUND:                -2.292
REMARK SMILES COc1ccc([C@@H]2CC(=O)c3c(O)cc(O[C@H]4O[C@H](CO[C@@H]5O[C@@H](C)[C@@H](O)[C@H](O)[C@@H]5O)[C@@H](O)[C@@H](O)[C@@H]4O)cc3O2)cc1O
REMARK SMILES IDX 19 1 32 2 34 3 36 4 17 5 18 6 20 7 21 8 22 9 25 10 24 11
REMARK SMILES IDX 26 12 23 13 28 14 30 15 27 16 29 18 31 20 33 22 35 24 16 26
REMARK SMILES IDX 15 27 14 28 38 29 12 30 39 31 11 32 40 33 9 34 7 35 10 36
REMARK SMILES IDX 8 37 13 38 6 40 41 41 5 42 42 43 4 44 3 45 43 46 2 48 1 49
REMARK SMILES IDX 37 50
REMARK H PARENT 27 17 29 19 31 21 33 23 35 25 13 39 43 47 37 51
REMARK Flexibility Score: inf
ROOT
ATOM      1  C   UNL     1       4.287  40.497  85.360  1.00  0.00     0.180 C 
ATOM      2  C   UNL     1       3.627  39.271  84.701  1.00  0.00     0.177 C 
ATOM      3  C   UNL     1       2.295  39.722  84.067  1.00  0.00     0.180 C 
ATOM      4  C   UNL     1       2.500  40.961  83.150  1.00  0.00     0.214 C 
ATOM      5  C   UNL     1       3.506  41.999  83.757  1.00  0.00     0.339 C 
ATOM      6  O   UNL     1       4.648  41.387  84.334  1.00  0.00    -0.332 OA
ENDROOT
BRANCH   1   7
ATOM      7  C   UNL     1       5.516  40.183  86.217  1.00  0.00     0.198 C 
BRANCH   7   8
ATOM      8  O   UNL     1       5.976  38.861  86.005  1.00  0.00    -0.347 OA
BRANCH   8   9
ATOM      9  C   UNL     1       6.734  38.355  87.113  1.00  0.00     0.281 C 
ATOM     10  C   UNL     1       8.981  36.057  85.282  1.00  0.00     0.041 C 
ATOM     11  C   UNL     1       7.694  36.540  85.958  1.00  0.00     0.150 C 
ATOM     12  C   UNL     1       7.221  35.483  86.978  1.00  0.00     0.174 C 
ATOM     13  O   UNL     1       7.945  37.758  86.660  1.00  0.00    -0.344 OA
ATOM     14  C   UNL     1       5.842  35.937  87.496  1.00  0.00     0.179 C 
ATOM     15  C   UNL     1       5.892  37.401  88.016  1.00  0.00     0.202 C 
BRANCH  12  16
ATOM     16  O   UNL     1       8.135  35.408  88.044  1.00  0.00    -0.388 OA
ATOM     17  H   UNL     1       8.359  36.357  88.285  1.00  0.00     0.211 HD
ENDBRANCH  12  16
BRANCH  14  18
ATOM     18  O   UNL     1       4.847  35.718  86.516  1.00  0.00    -0.387 OA
ATOM     19  H   UNL     1       4.614  34.747  86.480  1.00  0.00     0.211 HD
ENDBRANCH  14  18
BRANCH  15  20
ATOM     20  O   UNL     1       4.598  37.923  88.166  1.00  0.00    -0.385 OA
ATOM     21  H   UNL     1       4.226  37.584  89.033  1.00  0.00     0.211 HD
ENDBRANCH  15  20
ENDBRANCH   8   9
ENDBRANCH   7   8
ENDBRANCH   1   7
BRANCH   2  22
ATOM     22  O   UNL     1       3.415  38.190  85.607  1.00  0.00    -0.387 OA
ATOM     23  H   UNL     1       2.641  37.676  85.288  1.00  0.00     0.211 HD
ENDBRANCH   2  22
BRANCH   3  24
ATOM     24  O   UNL     1       1.348  39.960  85.078  1.00  0.00    -0.387 OA
ATOM     25  H   UNL     1       1.554  39.362  85.860  1.00  0.00     0.211 HD
ENDBRANCH   3  24
BRANCH   5  26
ATOM     26  O   UNL     1       2.856  42.826  84.741  1.00  0.00    -0.462 OA
BRANCH  26  27
ATOM     27  C   UNL     1       2.255  44.069  84.518  1.00  0.00     0.130 A 
ATOM     28  C   UNL     1       1.595  44.802  85.529  1.00  0.00     0.093 A 
ATOM     29  C   UNL     1       2.242  44.526  83.199  1.00  0.00     0.094 A 
ATOM     30  C   UNL     1       0.927  45.990  85.214  1.00  0.00     0.133 A 
ATOM     31  C   UNL     1       1.332  45.541  82.849  1.00  0.00     0.138 A 
ATOM     32  C   UNL     1       0.769  46.369  83.862  1.00  0.00     0.102 A 
ATOM     33  O   UNL     1       0.825  45.600  81.538  1.00  0.00    -0.484 OA
ATOM     34  C   UNL     1      -0.225  47.390  83.412  1.00  0.00     0.174 C 
ATOM     35  C   UNL     1      -0.511  46.057  81.370  1.00  0.00     0.211 C 
ATOM     36  O   UNL     1      -0.808  48.138  84.249  1.00  0.00    -0.294 OA
ATOM     37  C   UNL     1      -0.641  47.463  81.960  1.00  0.00     0.131 C 
BRANCH  30  38
ATOM     38  O   UNL     1       0.354  46.703  86.259  1.00  0.00    -0.507 OA
ATOM     39  H   UNL     1      -0.640  46.730  86.376  1.00  0.00     0.293 HD
ENDBRANCH  30  38
BRANCH  35  40
ATOM     40  C   UNL     1      -1.048  45.873  79.969  1.00  0.00    -0.003 A 
ATOM     41  C   UNL     1      -0.663  46.810  78.977  1.00  0.00     0.057 A 
ATOM     42  C   UNL     1      -1.789  44.731  79.566  1.00  0.00     0.011 A 
ATOM     43  C   UNL     1      -0.870  46.561  77.619  1.00  0.00     0.158 A 
ATOM     44  C   UNL     1      -2.038  44.496  78.207  1.00  0.00     0.051 A 
ATOM     45  C   UNL     1      -1.581  45.406  77.229  1.00  0.00     0.160 A 
BRANCH  43  46
ATOM     46  O   UNL     1      -0.303  47.388  76.657  1.00  0.00    -0.504 OA
ATOM     47  H   UNL     1      -0.868  47.808  75.918  1.00  0.00     0.293 HD
ENDBRANCH  43  46
BRANCH  45  48
ATOM     48  O   UNL     1      -1.705  45.138  75.851  1.00  0.00    -0.493 OA
ATOM     49  C   UNL     1      -2.920  45.136  75.116  1.00  0.00     0.278 C 
ENDBRANCH  45  48
ENDBRANCH  35  40
ENDBRANCH  26  27
ENDBRANCH   5  26
BRANCH   4  50
ATOM     50  O   UNL     1       2.933  40.522  81.885  1.00  0.00    -0.384 OA
ATOM     51  H   UNL     1       3.930  40.613  81.860  1.00  0.00     0.211 HD
ENDBRANCH   4  50
TORSDOF 15
ENDMDL
MODEL 7
REMARK VINA RESULT:    -6.995      1.712      7.696
REMARK INTER + INTRA:         -13.786
REMARK INTER:                 -10.837
REMARK INTRA:                  -2.949
REMARK UNBOUND:                -2.292
REMARK SMILES COc1ccc([C@@H]2CC(=O)c3c(O)cc(O[C@H]4O[C@H](CO[C@@H]5O[C@@H](C)[C@@H](O)[C@H](O)[C@@H]5O)[C@@H](O)[C@@H](O)[C@@H]4O)cc3O2)cc1O
REMARK SMILES IDX 19 1 32 2 34 3 36 4 17 5 18 6 20 7 21 8 22 9 25 10 24 11
REMARK SMILES IDX 26 12 23 13 28 14 30 15 27 16 29 18 31 20 33 22 35 24 16 26
REMARK SMILES IDX 15 27 14 28 38 29 12 30 39 31 11 32 40 33 9 34 7 35 10 36
REMARK SMILES IDX 8 37 13 38 6 40 41 41 5 42 42 43 4 44 3 45 43 46 2 48 1 49
REMARK SMILES IDX 37 50
REMARK H PARENT 27 17 29 19 31 21 33 23 35 25 13 39 43 47 37 51
REMARK Flexibility Score: inf
ROOT
ATOM      1  C   UNL     1      -1.545  44.471  79.250  1.00  0.00     0.180 C 
ATOM      2  C   UNL     1      -1.848  44.741  77.764  1.00  0.00     0.177 C 
ATOM      3  C   UNL     1      -2.176  46.241  77.604  1.00  0.00     0.180 C 
ATOM      4  C   UNL     1      -1.073  47.129  78.246  1.00  0.00     0.214 C 
ATOM      5  C   UNL     1      -0.552  46.551  79.607  1.00  0.00     0.339 C 
ATOM      6  O   UNL     1      -0.354  45.146  79.570  1.00  0.00    -0.332 OA
ENDROOT
BRANCH   1   7
ATOM      7  C   UNL     1      -1.406  42.993  79.620  1.00  0.00     0.198 C 
BRANCH   7   8
ATOM      8  O   UNL     1      -0.868  42.828  80.919  1.00  0.00    -0.347 OA
BRANCH   8   9
ATOM      9  C   UNL     1       0.185  41.853  80.962  1.00  0.00     0.281 C 
ATOM     10  C   UNL     1      -1.772  38.932  82.112  1.00  0.00     0.041 C 
ATOM     11  C   UNL     1      -1.001  40.253  82.219  1.00  0.00     0.150 C 
ATOM     12  C   UNL     1       0.081  40.130  83.312  1.00  0.00     0.174 C 
ATOM     13  O   UNL     1      -0.354  40.536  80.978  1.00  0.00    -0.344 OA
ATOM     14  C   UNL     1       0.702  41.528  83.495  1.00  0.00     0.179 C 
ATOM     15  C   UNL     1       1.179  42.113  82.136  1.00  0.00     0.202 C 
BRANCH  12  16
ATOM     16  O   UNL     1       1.067  39.213  82.903  1.00  0.00    -0.388 OA
ATOM     17  H   UNL     1       1.939  39.570  83.255  1.00  0.00     0.211 HD
ENDBRANCH  12  16
BRANCH  14  18
ATOM     18  O   UNL     1      -0.184  42.376  84.197  1.00  0.00    -0.387 OA
ATOM     19  H   UNL     1      -0.434  43.154  83.623  1.00  0.00     0.211 HD
ENDBRANCH  14  18
BRANCH  15  20
ATOM     20  O   UNL     1       1.425  43.490  82.243  1.00  0.00    -0.385 OA
ATOM     21  H   UNL     1       0.544  43.956  82.347  1.00  0.00     0.211 HD
ENDBRANCH  15  20
ENDBRANCH   8   9
ENDBRANCH   7   8
ENDBRANCH   1   7
BRANCH   2  22
ATOM     22  O   UNL     1      -2.907  43.935  77.250  1.00  0.00    -0.387 OA
ATOM     23  H   UNL     1      -2.519  43.305  76.603  1.00  0.00     0.211 HD
ENDBRANCH   2  22
BRANCH   3  24
ATOM     24  O   UNL     1      -3.449  46.505  78.135  1.00  0.00    -0.387 OA
ATOM     25  H   UNL     1      -3.390  47.316  78.727  1.00  0.00     0.211 HD
ENDBRANCH   3  24
BRANCH   5  26
ATOM     26  O   UNL     1      -1.453  46.880  80.681  1.00  0.00    -0.462 OA
BRANCH  26  27
ATOM     27  C   UNL     1      -1.109  47.104  82.017  1.00  0.00     0.130 A 
ATOM     28  C   UNL     1      -0.857  48.390  82.547  1.00  0.00     0.093 A 
ATOM     29  C   UNL     1      -0.919  45.971  82.809  1.00  0.00     0.094 A 
ATOM     30  C   UNL     1      -0.417  48.533  83.867  1.00  0.00     0.133 A 
ATOM     31  C   UNL     1      -0.204  46.106  84.014  1.00  0.00     0.138 A 
ATOM     32  C   UNL     1      -0.064  47.388  84.617  1.00  0.00     0.102 A 
ATOM     33  O   UNL     1       0.544  45.020  84.505  1.00  0.00    -0.484 OA
ATOM     34  C   UNL     1       0.751  47.453  85.867  1.00  0.00     0.174 C 
ATOM     35  C   UNL     1       1.750  45.311  85.199  1.00  0.00     0.211 C 
ATOM     36  O   UNL     1       0.963  48.558  86.446  1.00  0.00    -0.294 OA
ATOM     37  C   UNL     1       1.438  46.213  86.396  1.00  0.00     0.131 C 
BRANCH  30  38
ATOM     38  O   UNL     1      -0.250  49.823  84.354  1.00  0.00    -0.507 OA
ATOM     39  H   UNL     1      -0.772  50.142  85.146  1.00  0.00     0.293 HD
ENDBRANCH  30  38
BRANCH  35  40
ATOM     40  C   UNL     1       2.598  44.095  85.489  1.00  0.00    -0.003 A 
ATOM     41  C   UNL     1       3.722  43.851  84.661  1.00  0.00     0.057 A 
ATOM     42  C   UNL     1       2.417  43.278  86.637  1.00  0.00     0.011 A 
ATOM     43  C   UNL     1       4.711  42.934  85.023  1.00  0.00     0.158 A 
ATOM     44  C   UNL     1       3.385  42.326  86.984  1.00  0.00     0.051 A 
ATOM     45  C   UNL     1       4.534  42.150  86.183  1.00  0.00     0.160 A 
BRANCH  43  46
ATOM     46  O   UNL     1       5.900  42.861  84.307  1.00  0.00    -0.504 OA
ATOM     47  H   UNL     1       6.077  42.101  83.648  1.00  0.00     0.293 HD
ENDBRANCH  43  46
BRANCH  45  48
ATOM     48  O   UNL     1       5.583  41.292  86.569  1.00  0.00    -0.493 OA
ATOM     49  C   UNL     1       5.578  39.877  86.453  1.00  0.00     0.278 C 
ENDBRANCH  45  48
ENDBRANCH  35  40
ENDBRANCH  26  27
ENDBRANCH   5  26
BRANCH   4  50
ATOM     50  O   UNL     1      -0.018  47.277  77.326  1.00  0.00    -0.384 OA
ATOM     51  H   UNL     1       0.535  46.443  77.365  1.00  0.00     0.211 HD
ENDBRANCH   4  50
TORSDOF 15
ENDMDL
MODEL 8
REMARK VINA RESULT:    -6.970      2.375      6.802
REMARK INTER + INTRA:         -13.745
REMARK INTER:                 -11.722
REMARK INTRA:                  -2.023
REMARK UNBOUND:                -2.292
REMARK SMILES COc1ccc([C@@H]2CC(=O)c3c(O)cc(O[C@H]4O[C@H](CO[C@@H]5O[C@@H](C)[C@@H](O)[C@H](O)[C@@H]5O)[C@@H](O)[C@@H](O)[C@@H]4O)cc3O2)cc1O
REMARK SMILES IDX 19 1 32 2 34 3 36 4 17 5 18 6 20 7 21 8 22 9 25 10 24 11
REMARK SMILES IDX 26 12 23 13 28 14 30 15 27 16 29 18 31 20 33 22 35 24 16 26
REMARK SMILES IDX 15 27 14 28 38 29 12 30 39 31 11 32 40 33 9 34 7 35 10 36
REMARK SMILES IDX 8 37 13 38 6 40 41 41 5 42 42 43 4 44 3 45 43 46 2 48 1 49
REMARK SMILES IDX 37 50
REMARK H PARENT 27 17 29 19 31 21 33 23 35 25 13 39 43 47 37 51
REMARK Flexibility Score: inf
ROOT
ATOM      1  C   UNL     1       0.785  42.106  84.018  1.00  0.00     0.180 C 
ATOM      2  C   UNL     1       1.338  40.681  84.210  1.00  0.00     0.177 C 
ATOM      3  C   UNL     1       1.093  39.889  82.909  1.00  0.00     0.180 C 
ATOM      4  C   UNL     1       1.625  40.664  81.671  1.00  0.00     0.214 C 
ATOM      5  C   UNL     1       1.334  42.203  81.754  1.00  0.00     0.339 C 
ATOM      6  O   UNL     1       1.576  42.740  83.044  1.00  0.00    -0.332 OA
ENDROOT
BRANCH   1   7
ATOM      7  C   UNL     1       0.756  42.962  85.286  1.00  0.00     0.198 C 
BRANCH   7   8
ATOM      8  O   UNL     1       1.546  42.396  86.315  1.00  0.00    -0.347 OA
BRANCH   8   9
ATOM      9  C   UNL     1       2.595  43.273  86.753  1.00  0.00     0.281 C 
ATOM     10  C   UNL     1       5.161  42.420  84.229  1.00  0.00     0.041 C 
ATOM     11  C   UNL     1       4.312  42.265  85.496  1.00  0.00     0.150 C 
ATOM     12  C   UNL     1       5.237  42.042  86.710  1.00  0.00     0.174 C 
ATOM     13  O   UNL     1       3.558  43.456  85.720  1.00  0.00    -0.344 OA
ATOM     14  C   UNL     1       4.334  41.721  87.916  1.00  0.00     0.179 C 
ATOM     15  C   UNL     1       3.232  42.803  88.096  1.00  0.00     0.202 C 
BRANCH  12  16
ATOM     16  O   UNL     1       5.981  43.209  86.962  1.00  0.00    -0.388 OA
ATOM     17  H   UNL     1       6.360  43.102  87.887  1.00  0.00     0.211 HD
ENDBRANCH  12  16
BRANCH  14  18
ATOM     18  O   UNL     1       3.825  40.406  87.820  1.00  0.00    -0.387 OA
ATOM     19  H   UNL     1       2.898  40.427  87.448  1.00  0.00     0.211 HD
ENDBRANCH  14  18
BRANCH  15  20
ATOM     20  O   UNL     1       2.223  42.350  88.959  1.00  0.00    -0.385 OA
ATOM     21  H   UNL     1       1.353  42.742  88.653  1.00  0.00     0.211 HD
ENDBRANCH  15  20
ENDBRANCH   8   9
ENDBRANCH   7   8
ENDBRANCH   1   7
BRANCH   2  22
ATOM     22  O   UNL     1       0.770  40.003  85.329  1.00  0.00    -0.387 OA
ATOM     23  H   UNL     1       1.422  39.339  85.643  1.00  0.00     0.211 HD
ENDBRANCH   2  22
BRANCH   3  24
ATOM     24  O   UNL     1      -0.272  39.577  82.795  1.00  0.00    -0.387 OA
ATOM     25  H   UNL     1      -0.810  40.364  83.113  1.00  0.00     0.211 HD
ENDBRANCH   3  24
BRANCH   5  26
ATOM     26  O   UNL     1      -0.021  42.489  81.360  1.00  0.00    -0.462 OA
BRANCH  26  27
ATOM     27  C   UNL     1      -0.565  43.752  81.105  1.00  0.00     0.130 A 
ATOM     28  C   UNL     1      -0.103  44.599  80.073  1.00  0.00     0.093 A 
ATOM     29  C   UNL     1      -1.541  44.200  81.995  1.00  0.00     0.094 A 
ATOM     30  C   UNL     1      -0.622  45.891  79.938  1.00  0.00     0.133 A 
ATOM     31  C   UNL     1      -1.834  45.576  82.034  1.00  0.00     0.138 A 
ATOM     32  C   UNL     1      -1.485  46.407  80.932  1.00  0.00     0.102 A 
ATOM     33  O   UNL     1      -2.275  46.160  83.235  1.00  0.00    -0.484 OA
ATOM     34  C   UNL     1      -1.785  47.864  81.073  1.00  0.00     0.174 C 
ATOM     35  C   UNL     1      -1.878  47.500  83.500  1.00  0.00     0.211 C 
ATOM     36  O   UNL     1      -1.469  48.682  80.161  1.00  0.00    -0.294 OA
ATOM     37  C   UNL     1      -2.362  48.403  82.363  1.00  0.00     0.131 C 
BRANCH  30  38
ATOM     38  O   UNL     1      -0.179  46.654  78.866  1.00  0.00    -0.507 OA
ATOM     39  H   UNL     1      -0.103  47.650  78.944  1.00  0.00     0.293 HD
ENDBRANCH  30  38
BRANCH  35  40
ATOM     40  C   UNL     1      -2.198  47.968  84.901  1.00  0.00    -0.003 A 
ATOM     41  C   UNL     1      -1.132  48.437  85.709  1.00  0.00     0.057 A 
ATOM     42  C   UNL     1      -3.525  48.106  85.388  1.00  0.00     0.011 A 
ATOM     43  C   UNL     1      -1.368  49.147  86.888  1.00  0.00     0.158 A 
ATOM     44  C   UNL     1      -3.766  48.781  86.593  1.00  0.00     0.051 A 
ATOM     45  C   UNL     1      -2.694  49.303  87.346  1.00  0.00     0.160 A 
BRANCH  43  46
ATOM     46  O   UNL     1      -0.321  49.774  87.553  1.00  0.00    -0.504 OA
ATOM     47  H   UNL     1       0.274  49.263  88.207  1.00  0.00     0.293 HD
ENDBRANCH  43  46
BRANCH  45  48
ATOM     48  O   UNL     1      -2.908  50.092  88.495  1.00  0.00    -0.493 OA
ATOM     49  C   UNL     1      -4.125  50.739  88.837  1.00  0.00     0.278 C 
ENDBRANCH  45  48
ENDBRANCH  35  40
ENDBRANCH  26  27
ENDBRANCH   5  26
BRANCH   4  50
ATOM     50  O   UNL     1       3.005  40.420  81.541  1.00  0.00    -0.384 OA
ATOM     51  H   UNL     1       3.379  41.122  80.933  1.00  0.00     0.211 HD
ENDBRANCH   4  50
TORSDOF 15
ENDMDL
MODEL 9
REMARK VINA RESULT:    -6.904      2.663      9.764
REMARK INTER + INTRA:         -13.636
REMARK INTER:                 -11.663
REMARK INTRA:                  -1.973
REMARK UNBOUND:                -2.292
REMARK SMILES COc1ccc([C@@H]2CC(=O)c3c(O)cc(O[C@H]4O[C@H](CO[C@@H]5O[C@@H](C)[C@@H](O)[C@H](O)[C@@H]5O)[C@@H](O)[C@@H](O)[C@@H]4O)cc3O2)cc1O
REMARK SMILES IDX 19 1 32 2 34 3 36 4 17 5 18 6 20 7 21 8 22 9 25 10 24 11
REMARK SMILES IDX 26 12 23 13 28 14 30 15 27 16 29 18 31 20 33 22 35 24 16 26
REMARK SMILES IDX 15 27 14 28 38 29 12 30 39 31 11 32 40 33 9 34 7 35 10 36
REMARK SMILES IDX 8 37 13 38 6 40 41 41 5 42 42 43 4 44 3 45 43 46 2 48 1 49
REMARK SMILES IDX 37 50
REMARK H PARENT 27 17 29 19 31 21 33 23 35 25 13 39 43 47 37 51
REMARK Flexibility Score: inf
ROOT
ATOM      1  C   UNL     1      -1.203  44.593  82.585  1.00  0.00     0.180 C 
ATOM      2  C   UNL     1      -1.484  45.012  81.129  1.00  0.00     0.177 C 
ATOM      3  C   UNL     1      -0.202  44.777  80.303  1.00  0.00     0.180 C 
ATOM      4  C   UNL     1       0.340  43.333  80.504  1.00  0.00     0.214 C 
ATOM      5  C   UNL     1       0.231  42.852  81.993  1.00  0.00     0.339 C 
ATOM      6  O   UNL     1      -1.005  43.201  82.595  1.00  0.00    -0.332 OA
ENDROOT
BRANCH   1   7
ATOM      7  C   UNL     1      -2.304  44.958  83.583  1.00  0.00     0.198 C 
BRANCH   7   8
ATOM      8  O   UNL     1      -1.863  45.931  84.512  1.00  0.00    -0.347 OA
BRANCH   8   9
ATOM      9  C   UNL     1      -2.569  47.175  84.388  1.00  0.00     0.281 C 
ATOM     10  C   UNL     1       0.041  49.160  82.676  1.00  0.00     0.041 C 
ATOM     11  C   UNL     1      -0.688  48.483  83.842  1.00  0.00     0.150 C 
ATOM     12  C   UNL     1      -0.925  49.512  84.967  1.00  0.00     0.174 C 
ATOM     13  O   UNL     1      -1.958  48.001  83.402  1.00  0.00    -0.344 OA
ATOM     14  C   UNL     1      -1.499  48.743  86.172  1.00  0.00     0.179 C 
ATOM     15  C   UNL     1      -2.737  47.896  85.760  1.00  0.00     0.202 C 
BRANCH  12  16
ATOM     16  O   UNL     1      -1.843  50.486  84.535  1.00  0.00    -0.388 OA
ATOM     17  H   UNL     1      -1.341  51.073  83.891  1.00  0.00     0.211 HD
ENDBRANCH  12  16
BRANCH  14  18
ATOM     18  O   UNL     1      -0.486  47.991  86.810  1.00  0.00    -0.387 OA
ATOM     19  H   UNL     1      -0.610  47.019  86.613  1.00  0.00     0.211 HD
ENDBRANCH  14  18
BRANCH  15  20
ATOM     20  O   UNL     1      -3.048  46.951  86.750  1.00  0.00    -0.385 OA
ATOM     21  H   UNL     1      -3.756  47.342  87.341  1.00  0.00     0.211 HD
ENDBRANCH  15  20
ENDBRANCH   8   9
ENDBRANCH   7   8
ENDBRANCH   1   7
BRANCH   2  22
ATOM     22  O   UNL     1      -1.924  46.363  81.007  1.00  0.00    -0.387 OA
ATOM     23  H   UNL     1      -2.210  46.669  81.895  1.00  0.00     0.211 HD
ENDBRANCH   2  22
BRANCH   3  24
ATOM     24  O   UNL     1       0.754  45.754  80.628  1.00  0.00    -0.387 OA
ATOM     25  H   UNL     1       0.465  46.632  80.232  1.00  0.00     0.211 HD
ENDBRANCH   3  24
BRANCH   5  26
ATOM     26  O   UNL     1       1.315  43.377  82.781  1.00  0.00    -0.462 OA
BRANCH  26  27
ATOM     27  C   UNL     1       1.612  43.053  84.109  1.00  0.00     0.130 A 
ATOM     28  C   UNL     1       1.874  44.024  85.102  1.00  0.00     0.093 A 
ATOM     29  C   UNL     1       1.743  41.696  84.404  1.00  0.00     0.094 A 
ATOM     30  C   UNL     1       2.265  43.628  86.385  1.00  0.00     0.133 A 
ATOM     31  C   UNL     1       2.413  41.327  85.585  1.00  0.00     0.138 A 
ATOM     32  C   UNL     1       2.559  42.270  86.642  1.00  0.00     0.102 A 
ATOM     33  O   UNL     1       3.113  40.108  85.637  1.00  0.00    -0.484 OA
ATOM     34  C   UNL     1       3.326  41.815  87.841  1.00  0.00     0.174 C 
ATOM     35  C   UNL     1       4.298  40.063  86.422  1.00  0.00     0.211 C 
ATOM     36  O   UNL     1       3.542  42.602  88.808  1.00  0.00    -0.294 OA
ATOM     37  C   UNL     1       3.961  40.442  87.866  1.00  0.00     0.131 C 
BRANCH  30  38
ATOM     38  O   UNL     1       2.443  44.622  87.338  1.00  0.00    -0.507 OA
ATOM     39  H   UNL     1       2.059  45.537  87.202  1.00  0.00     0.293 HD
ENDBRANCH  30  38
BRANCH  35  40
ATOM     40  C   UNL     1       5.104  38.798  86.241  1.00  0.00    -0.003 A 
ATOM     41  C   UNL     1       6.518  38.904  86.212  1.00  0.00     0.057 A 
ATOM     42  C   UNL     1       4.526  37.500  86.253  1.00  0.00     0.011 A 
ATOM     43  C   UNL     1       7.337  37.781  86.338  1.00  0.00     0.158 A 
ATOM     44  C   UNL     1       5.344  36.365  86.337  1.00  0.00     0.051 A 
ATOM     45  C   UNL     1       6.749  36.498  86.381  1.00  0.00     0.160 A 
BRANCH  43  46
ATOM     46  O   UNL     1       8.708  37.925  86.516  1.00  0.00    -0.504 OA
ATOM     47  H   UNL     1       9.178  38.810  86.321  1.00  0.00     0.293 HD
ENDBRANCH  43  46
BRANCH  45  48
ATOM     48  O   UNL     1       7.593  35.389  86.589  1.00  0.00    -0.493 OA
ATOM     49  C   UNL     1       8.127  34.555  85.572  1.00  0.00     0.278 C 
ENDBRANCH  45  48
ENDBRANCH  35  40
ENDBRANCH  26  27
ENDBRANCH   5  26
BRANCH   4  50
ATOM     50  O   UNL     1      -0.355  42.465  79.643  1.00  0.00    -0.384 OA
ATOM     51  H   UNL     1      -0.183  41.529  79.956  1.00  0.00     0.211 HD
ENDBRANCH   4  50
TORSDOF 15
ENDMDL
