MODEL 1
REMARK VINA RESULT:    -3.636      0.000      0.000
REMARK INTER + INTRA:          -4.659
REMARK INTER:                  -4.487
REMARK INTRA:                  -0.173
REMARK UNBOUND:                -0.173
REMARK SMILES CCCCC=CC(C)=O
REMARK SMILES IDX 4 1 3 2 2 3 1 4 5 5 6 6 7 7 9 8 8 9
REMARK H PARENT
REMARK Flexibility Score: inf
ROOT
ATOM      1  C   UNL     1       0.064 -20.450 -19.570  1.00  0.00     0.027 C 
ENDROOT
BRANCH   1   2
ATOM      2  C   UNL     1       0.747 -19.174 -20.084  1.00  0.00     0.004 C 
BRANCH   2   3
ATOM      3  C   UNL     1       1.725 -18.578 -19.062  1.00  0.00    -0.003 C 
ATOM      4  C   UNL     1       2.736 -19.600 -18.541  1.00  0.00     0.004 C 
ENDBRANCH   2   3
ENDBRANCH   1   2
BRANCH   1   5
ATOM      5  C   UNL     1      -1.407 -20.232 -19.362  1.00  0.00    -0.023 C 
ATOM      6  C   UNL     1      -2.125 -21.024 -18.556  1.00  0.00     0.042 C 
BRANCH   6   7
ATOM      7  C   UNL     1      -3.566 -20.819 -18.327  1.00  0.00     0.152 C 
ATOM      8  O   UNL     1      -4.151 -21.376 -17.359  1.00  0.00    -0.295 OA
ATOM      9  C   UNL     1      -4.344 -19.938 -19.249  1.00  0.00     0.093 C 
ENDBRANCH   6   7
ENDBRANCH   1   5
TORSDOF 4
ENDMDL
MODEL 2
REMARK VINA RESULT:    -3.413      2.772      5.567
REMARK INTER + INTRA:          -4.383
REMARK INTER:                  -4.274
REMARK INTRA:                  -0.110
REMARK UNBOUND:                -0.173
REMARK SMILES CCCCC=CC(C)=O
REMARK SMILES IDX 4 1 3 2 2 3 1 4 5 5 6 6 7 7 9 8 8 9
REMARK H PARENT
REMARK Flexibility Score: inf
ROOT
ATOM      1  C   UNL     1      -0.613 -19.974 -19.724  1.00  0.00     0.027 C 
ENDROOT
BRANCH   1   2
ATOM      2  C   UNL     1      -1.549 -21.028 -19.115  1.00  0.00     0.004 C 
BRANCH   2   3
ATOM      3  C   UNL     1      -2.888 -20.432 -18.657  1.00  0.00    -0.003 C 
ATOM      4  C   UNL     1      -3.619 -21.319 -17.650  1.00  0.00     0.004 C 
ENDBRANCH   2   3
ENDBRANCH   1   2
BRANCH   1   5
ATOM      5  C   UNL     1       0.818 -20.237 -19.351  1.00  0.00    -0.023 C 
ATOM      6  C   UNL     1       1.636 -19.248 -18.974  1.00  0.00     0.042 C 
BRANCH   6   7
ATOM      7  C   UNL     1       3.039 -19.485 -18.590  1.00  0.00     0.152 C 
ATOM      8  O   UNL     1       3.416 -19.332 -17.397  1.00  0.00    -0.295 OA
ATOM      9  C   UNL     1       4.026 -19.918 -19.625  1.00  0.00     0.093 C 
ENDBRANCH   6   7
ENDBRANCH   1   5
TORSDOF 4
ENDMDL
MODEL 3
REMARK VINA RESULT:    -3.039     14.766     15.898
REMARK INTER + INTRA:          -3.923
REMARK INTER:                  -3.705
REMARK INTRA:                  -0.217
REMARK UNBOUND:                -0.173
REMARK SMILES CCCCC=CC(C)=O
REMARK SMILES IDX 4 1 3 2 2 3 1 4 5 5 6 6 7 7 9 8 8 9
REMARK H PARENT
REMARK Flexibility Score: inf
ROOT
ATOM      1  C   UNL     1       8.113  -8.438 -19.845  1.00  0.00     0.027 C 
ENDROOT
BRANCH   1   2
ATOM      2  C   UNL     1       8.666  -7.233 -19.070  1.00  0.00     0.004 C 
BRANCH   2   3
ATOM      3  C   UNL     1       9.763  -6.488 -19.845  1.00  0.00    -0.003 C 
ATOM      4  C   UNL     1      10.944  -6.086 -18.961  1.00  0.00     0.004 C 
ENDBRANCH   2   3
ENDBRANCH   1   2
BRANCH   1   5
ATOM      5  C   UNL     1       8.902  -9.682 -19.550  1.00  0.00    -0.023 C 
ATOM      6  C   UNL     1       9.639  -9.795 -18.439  1.00  0.00     0.042 C 
BRANCH   6   7
ATOM      7  C   UNL     1      10.409 -11.011 -18.123  1.00  0.00     0.152 C 
ATOM      8  O   UNL     1      11.125 -11.568 -19.000  1.00  0.00    -0.295 OA
ATOM      9  C   UNL     1      10.347 -11.590 -16.747  1.00  0.00     0.093 C 
ENDBRANCH   6   7
ENDBRANCH   1   5
TORSDOF 4
ENDMDL
MODEL 4
REMARK VINA RESULT:    -3.019     21.200     22.052
REMARK INTER + INTRA:          -3.897
REMARK INTER:                  -3.606
REMARK INTRA:                  -0.291
REMARK UNBOUND:                -0.173
REMARK SMILES CCCCC=CC(C)=O
REMARK SMILES IDX 4 1 3 2 2 3 1 4 5 5 6 6 7 7 9 8 8 9
REMARK H PARENT
REMARK Flexibility Score: inf
ROOT
ATOM      1  C   UNL     1      -7.775  -6.312  -6.252  1.00  0.00     0.027 C 
ENDROOT
BRANCH   1   2
ATOM      2  C   UNL     1      -8.826  -5.258  -6.631  1.00  0.00     0.004 C 
BRANCH   2   3
ATOM      3  C   UNL     1      -8.232  -4.105  -7.453  1.00  0.00    -0.003 C 
ATOM      4  C   UNL     1      -8.173  -2.791  -6.675  1.00  0.00     0.004 C 
ENDBRANCH   2   3
ENDBRANCH   1   2
BRANCH   1   5
ATOM      5  C   UNL     1      -7.364  -6.176  -4.814  1.00  0.00    -0.023 C 
ATOM      6  C   UNL     1      -8.058  -5.418  -3.957  1.00  0.00     0.042 C 
BRANCH   6   7
ATOM      7  C   UNL     1      -7.679  -5.281  -2.539  1.00  0.00     0.152 C 
ATOM      8  O   UNL     1      -8.380  -5.805  -1.630  1.00  0.00    -0.295 OA
ATOM      9  C   UNL     1      -6.449  -4.518  -2.171  1.00  0.00     0.093 C 
ENDBRANCH   6   7
ENDBRANCH   1   5
TORSDOF 4
ENDMDL
MODEL 5
REMARK VINA RESULT:    -3.016      1.642      2.157
REMARK INTER + INTRA:          -3.894
REMARK INTER:                  -3.699
REMARK INTRA:                  -0.195
REMARK UNBOUND:                -0.173
REMARK SMILES CCCCC=CC(C)=O
REMARK SMILES IDX 4 1 3 2 2 3 1 4 5 5 6 6 7 7 9 8 8 9
REMARK H PARENT
REMARK Flexibility Score: inf
ROOT
ATOM      1  C   UNL     1      -1.434 -21.036 -18.886  1.00  0.00     0.027 C 
ENDROOT
BRANCH   1   2
ATOM      2  C   UNL     1      -0.775 -20.074 -19.885  1.00  0.00     0.004 C 
BRANCH   2   3
ATOM      3  C   UNL     1       0.666 -19.715 -19.493  1.00  0.00    -0.003 C 
ATOM      4  C   UNL     1       1.341 -20.802 -18.656  1.00  0.00     0.004 C 
ENDBRANCH   2   3
ENDBRANCH   1   2
BRANCH   1   5
ATOM      5  C   UNL     1      -2.912 -20.787 -18.787  1.00  0.00    -0.023 C 
ATOM      6  C   UNL     1      -3.566 -20.083 -19.717  1.00  0.00     0.042 C 
BRANCH   6   7
ATOM      7  C   UNL     1      -5.018 -19.838 -19.646  1.00  0.00     0.152 C 
ATOM      8  O   UNL     1      -5.470 -18.670 -19.501  1.00  0.00    -0.295 OA
ATOM      9  C   UNL     1      -5.968 -20.987 -19.754  1.00  0.00     0.093 C 
ENDBRANCH   6   7
ENDBRANCH   1   5
TORSDOF 4
ENDMDL
MODEL 6
REMARK VINA RESULT:    -2.995     21.780     22.605
REMARK INTER + INTRA:          -3.868
REMARK INTER:                  -3.653
REMARK INTRA:                  -0.215
REMARK UNBOUND:                -0.173
REMARK SMILES CCCCC=CC(C)=O
REMARK SMILES IDX 4 1 3 2 2 3 1 4 5 5 6 6 7 7 9 8 8 9
REMARK H PARENT
REMARK Flexibility Score: inf
ROOT
ATOM      1  C   UNL     1      -7.314  -6.531  -4.802  1.00  0.00     0.027 C 
ENDROOT
BRANCH   1   2
ATOM      2  C   UNL     1      -7.586  -6.290  -6.294  1.00  0.00     0.004 C 
BRANCH   2   3
ATOM      3  C   UNL     1      -8.722  -5.283  -6.530  1.00  0.00    -0.003 C 
ATOM      4  C   UNL     1      -8.311  -4.130  -7.445  1.00  0.00     0.004 C 
ENDBRANCH   2   3
ENDBRANCH   1   2
BRANCH   1   5
ATOM      5  C   UNL     1      -7.713  -5.341  -3.978  1.00  0.00    -0.023 C 
ATOM      6  C   UNL     1      -6.891  -4.818  -3.060  1.00  0.00     0.042 C 
BRANCH   6   7
ATOM      7  C   UNL     1      -7.256  -3.642  -2.251  1.00  0.00     0.152 C 
ATOM      8  O   UNL     1      -6.950  -2.479  -2.628  1.00  0.00    -0.295 OA
ATOM      9  C   UNL     1      -8.004  -3.828  -0.970  1.00  0.00     0.093 C 
ENDBRANCH   6   7
ENDBRANCH   1   5
TORSDOF 4
ENDMDL
MODEL 7
REMARK VINA RESULT:    -2.985     20.843     21.610
REMARK INTER + INTRA:          -3.856
REMARK INTER:                  -3.683
REMARK INTRA:                  -0.173
REMARK UNBOUND:                -0.173
REMARK SMILES CCCCC=CC(C)=O
REMARK SMILES IDX 4 1 3 2 2 3 1 4 5 5 6 6 7 7 9 8 8 9
REMARK H PARENT
REMARK Flexibility Score: inf
ROOT
ATOM      1  C   UNL     1      -8.483  -5.928  -6.242  1.00  0.00     0.027 C 
ENDROOT
BRANCH   1   2
ATOM      2  C   UNL     1      -7.650  -6.422  -5.051  1.00  0.00     0.004 C 
BRANCH   2   3
ATOM      3  C   UNL     1      -8.100  -5.801  -3.720  1.00  0.00    -0.003 C 
ATOM      4  C   UNL     1      -7.034  -4.901  -3.095  1.00  0.00     0.004 C 
ENDBRANCH   2   3
ENDBRANCH   1   2
BRANCH   1   5
ATOM      5  C   UNL     1      -7.931  -4.645  -6.796  1.00  0.00    -0.023 C 
ATOM      6  C   UNL     1      -8.550  -3.985  -7.781  1.00  0.00     0.042 C 
BRANCH   6   7
ATOM      7  C   UNL     1      -8.034  -2.718  -8.330  1.00  0.00     0.152 C 
ATOM      8  O   UNL     1      -7.338  -1.943  -7.619  1.00  0.00    -0.295 OA
ATOM      9  C   UNL     1      -8.332  -2.349  -9.747  1.00  0.00     0.093 C 
ENDBRANCH   6   7
ENDBRANCH   1   5
TORSDOF 4
ENDMDL
MODEL 8
REMARK VINA RESULT:    -2.947     21.663     22.499
REMARK INTER + INTRA:          -3.808
REMARK INTER:                  -3.576
REMARK INTRA:                  -0.232
REMARK UNBOUND:                -0.173
REMARK SMILES CCCCC=CC(C)=O
REMARK SMILES IDX 4 1 3 2 2 3 1 4 5 5 6 6 7 7 9 8 8 9
REMARK H PARENT
REMARK Flexibility Score: inf
ROOT
ATOM      1  C   UNL     1      -6.732  -4.857  -2.564  1.00  0.00     0.027 C 
ENDROOT
BRANCH   1   2
ATOM      2  C   UNL     1      -7.630  -4.351  -1.426  1.00  0.00     0.004 C 
BRANCH   2   3
ATOM      3  C   UNL     1      -7.995  -5.459  -0.427  1.00  0.00    -0.003 C 
ATOM      4  C   UNL     1      -9.032  -6.437  -0.978  1.00  0.00     0.004 C 
ENDBRANCH   2   3
ENDBRANCH   1   2
BRANCH   1   5
ATOM      5  C   UNL     1      -7.470  -4.877  -3.871  1.00  0.00    -0.023 C 
ATOM      6  C   UNL     1      -7.510  -5.974  -4.636  1.00  0.00     0.042 C 
BRANCH   6   7
ATOM      7  C   UNL     1      -8.240  -6.019  -5.915  1.00  0.00     0.152 C 
ATOM      8  O   UNL     1      -8.916  -7.033  -6.238  1.00  0.00    -0.295 OA
ATOM      9  C   UNL     1      -8.185  -4.847  -6.841  1.00  0.00     0.093 C 
ENDBRANCH   6   7
ENDBRANCH   1   5
TORSDOF 4
ENDMDL
