MODEL 1
REMARK VINA RESULT:    -4.716      0.000      0.000
REMARK INTER + INTRA:          -5.180
REMARK INTER:                  -5.129
REMARK INTRA:                  -0.051
REMARK UNBOUND:                -0.051
REMARK SMILES CCc1cccc(O)c1
REMARK SMILES IDX 3 1 9 2 7 3 6 4 5 5 4 6 2 7 1 8 8 9
REMARK H PARENT 8 10
REMARK Flexibility Score: inf
ROOT
ATOM      1  C   UNL     1     -16.607  43.756  33.344  1.00  0.00    -0.045 A 
ATOM      2  C   UNL     1     -17.783  44.524  33.303  1.00  0.00     0.049 A 
ATOM      3  C   UNL     1     -19.024  43.935  33.573  1.00  0.00     0.115 A 
ATOM      4  C   UNL     1     -19.093  42.573  33.894  1.00  0.00     0.046 A 
ATOM      5  C   UNL     1     -17.925  41.806  33.950  1.00  0.00     0.004 A 
ATOM      6  C   UNL     1     -16.686  42.395  33.681  1.00  0.00     0.004 A 
ENDROOT
BRANCH   1   7
ATOM      7  C   UNL     1     -15.271  44.398  33.086  1.00  0.00     0.032 C 
ATOM      8  C   UNL     1     -14.806  45.187  34.306  1.00  0.00     0.009 C 
ENDBRANCH   1   7
BRANCH   3   9
ATOM      9  O   UNL     1     -20.179  44.712  33.522  1.00  0.00    -0.508 OA
ATOM     10  H   UNL     1     -20.504  45.231  34.330  1.00  0.00     0.293 HD
ENDBRANCH   3   9
TORSDOF 2
ENDMDL
MODEL 2
REMARK VINA RESULT:    -4.564      2.146      2.250
REMARK INTER + INTRA:          -5.016
REMARK INTER:                  -4.964
REMARK INTRA:                  -0.052
REMARK UNBOUND:                -0.051
REMARK SMILES CCc1cccc(O)c1
REMARK SMILES IDX 3 1 9 2 7 3 6 4 5 5 4 6 2 7 1 8 8 9
REMARK H PARENT 8 10
REMARK Flexibility Score: inf
ROOT
ATOM      1  C   UNL     1     -17.604  43.071  31.493  1.00  0.00    -0.045 A 
ATOM      2  C   UNL     1     -18.409  44.086  32.038  1.00  0.00     0.049 A 
ATOM      3  C   UNL     1     -19.250  43.817  33.124  1.00  0.00     0.115 A 
ATOM      4  C   UNL     1     -19.282  42.530  33.678  1.00  0.00     0.046 A 
ATOM      5  C   UNL     1     -18.473  41.519  33.149  1.00  0.00     0.004 A 
ATOM      6  C   UNL     1     -17.633  41.788  32.065  1.00  0.00     0.004 A 
ENDROOT
BRANCH   1   7
ATOM      7  C   UNL     1     -16.676  43.370  30.347  1.00  0.00     0.032 C 
ATOM      8  C   UNL     1     -16.739  44.847  29.971  1.00  0.00     0.009 C 
ENDBRANCH   1   7
BRANCH   3   9
ATOM      9  O   UNL     1     -20.044  44.834  33.646  1.00  0.00    -0.508 OA
ATOM     10  H   UNL     1     -19.637  45.636  34.115  1.00  0.00     0.293 HD
ENDBRANCH   3   9
TORSDOF 2
ENDMDL
MODEL 3
REMARK VINA RESULT:    -4.564      1.050      3.048
REMARK INTER + INTRA:          -5.015
REMARK INTER:                  -4.963
REMARK INTRA:                  -0.051
REMARK UNBOUND:                -0.051
REMARK SMILES CCc1cccc(O)c1
REMARK SMILES IDX 3 1 9 2 7 3 6 4 5 5 4 6 2 7 1 8 8 9
REMARK H PARENT 8 10
REMARK Flexibility Score: inf
ROOT
ATOM      1  C   UNL     1     -17.493  41.991  33.627  1.00  0.00    -0.045 A 
ATOM      2  C   UNL     1     -18.761  42.593  33.572  1.00  0.00     0.049 A 
ATOM      3  C   UNL     1     -18.882  43.986  33.499  1.00  0.00     0.115 A 
ATOM      4  C   UNL     1     -17.731  44.784  33.471  1.00  0.00     0.046 A 
ATOM      5  C   UNL     1     -16.465  44.191  33.512  1.00  0.00     0.004 A 
ATOM      6  C   UNL     1     -16.345  42.800  33.585  1.00  0.00     0.004 A 
ENDROOT
BRANCH   1   7
ATOM      7  C   UNL     1     -17.363  40.493  33.672  1.00  0.00     0.032 C 
ATOM      8  C   UNL     1     -17.543  39.893  32.281  1.00  0.00     0.009 C 
ENDBRANCH   1   7
BRANCH   3   9
ATOM      9  O   UNL     1     -20.148  44.564  33.451  1.00  0.00    -0.508 OA
ATOM     10  H   UNL     1     -20.614  44.746  32.569  1.00  0.00     0.293 HD
ENDBRANCH   3   9
TORSDOF 2
ENDMDL
MODEL 4
REMARK VINA RESULT:    -4.562      2.020      3.022
REMARK INTER + INTRA:          -5.013
REMARK INTER:                  -4.955
REMARK INTRA:                  -0.058
REMARK UNBOUND:                -0.051
REMARK SMILES CCc1cccc(O)c1
REMARK SMILES IDX 3 1 9 2 7 3 6 4 5 5 4 6 2 7 1 8 8 9
REMARK H PARENT 8 10
REMARK Flexibility Score: inf
ROOT
ATOM      1  C   UNL     1     -15.550  44.410  32.808  1.00  0.00    -0.045 A 
ATOM      2  C   UNL     1     -16.936  44.227  32.665  1.00  0.00     0.049 A 
ATOM      3  C   UNL     1     -17.537  44.324  31.405  1.00  0.00     0.115 A 
ATOM      4  C   UNL     1     -16.751  44.595  30.277  1.00  0.00     0.046 A 
ATOM      5  C   UNL     1     -15.369  44.765  30.411  1.00  0.00     0.004 A 
ATOM      6  C   UNL     1     -14.770  44.668  31.670  1.00  0.00     0.004 A 
ENDROOT
BRANCH   1   7
ATOM      7  C   UNL     1     -14.900  44.274  34.159  1.00  0.00     0.032 C 
ATOM      8  C   UNL     1     -14.305  45.604  34.608  1.00  0.00     0.009 C 
ENDBRANCH   1   7
BRANCH   3   9
ATOM      9  O   UNL     1     -18.913  44.145  31.285  1.00  0.00    -0.508 OA
ATOM     10  H   UNL     1     -19.538  44.929  31.135  1.00  0.00     0.293 HD
ENDBRANCH   3   9
TORSDOF 2
ENDMDL
MODEL 5
REMARK VINA RESULT:    -4.467      2.894      4.567
REMARK INTER + INTRA:          -4.910
REMARK INTER:                  -4.839
REMARK INTRA:                  -0.071
REMARK UNBOUND:                -0.051
REMARK SMILES CCc1cccc(O)c1
REMARK SMILES IDX 3 1 9 2 7 3 6 4 5 5 4 6 2 7 1 8 8 9
REMARK H PARENT 8 10
REMARK Flexibility Score: inf
ROOT
ATOM      1  C   UNL     1     -16.171  44.474  32.967  1.00  0.00    -0.045 A 
ATOM      2  C   UNL     1     -15.318  44.502  34.083  1.00  0.00     0.049 A 
ATOM      3  C   UNL     1     -13.930  44.574  33.912  1.00  0.00     0.115 A 
ATOM      4  C   UNL     1     -13.389  44.627  32.620  1.00  0.00     0.046 A 
ATOM      5  C   UNL     1     -14.234  44.613  31.506  1.00  0.00     0.004 A 
ATOM      6  C   UNL     1     -15.619  44.541  31.677  1.00  0.00     0.004 A 
ENDROOT
BRANCH   1   7
ATOM      7  C   UNL     1     -17.664  44.430  33.153  1.00  0.00     0.032 C 
ATOM      8  C   UNL     1     -18.332  43.707  31.987  1.00  0.00     0.009 C 
ENDBRANCH   1   7
BRANCH   3   9
ATOM      9  O   UNL     1     -13.100  44.595  35.031  1.00  0.00    -0.508 OA
ATOM     10  H   UNL     1     -12.893  45.459  35.519  1.00  0.00     0.293 HD
ENDBRANCH   3   9
TORSDOF 2
ENDMDL
MODEL 6
REMARK VINA RESULT:    -4.438      1.828      2.070
REMARK INTER + INTRA:          -4.878
REMARK INTER:                  -4.826
REMARK INTRA:                  -0.051
REMARK UNBOUND:                -0.051
REMARK SMILES CCc1cccc(O)c1
REMARK SMILES IDX 3 1 9 2 7 3 6 4 5 5 4 6 2 7 1 8 8 9
REMARK H PARENT 8 10
REMARK Flexibility Score: inf
ROOT
ATOM      1  C   UNL     1     -15.999  43.741  33.362  1.00  0.00    -0.045 A 
ATOM      2  C   UNL     1     -16.207  44.631  32.295  1.00  0.00     0.049 A 
ATOM      3  C   UNL     1     -17.362  44.538  31.509  1.00  0.00     0.115 A 
ATOM      4  C   UNL     1     -18.322  43.558  31.796  1.00  0.00     0.046 A 
ATOM      5  C   UNL     1     -18.128  42.678  32.865  1.00  0.00     0.004 A 
ATOM      6  C   UNL     1     -16.974  42.771  33.648  1.00  0.00     0.004 A 
ENDROOT
BRANCH   1   7
ATOM      7  C   UNL     1     -14.773  43.862  34.226  1.00  0.00     0.032 C 
ATOM      8  C   UNL     1     -14.185  45.266  34.134  1.00  0.00     0.009 C 
ENDBRANCH   1   7
BRANCH   3   9
ATOM      9  O   UNL     1     -17.547  45.426  30.452  1.00  0.00    -0.508 OA
ATOM     10  H   UNL     1     -17.906  45.115  29.556  1.00  0.00     0.293 HD
ENDBRANCH   3   9
TORSDOF 2
ENDMDL
MODEL 7
REMARK VINA RESULT:    -4.410      1.710      2.348
REMARK INTER + INTRA:          -4.848
REMARK INTER:                  -4.798
REMARK INTRA:                  -0.050
REMARK UNBOUND:                -0.051
REMARK SMILES CCc1cccc(O)c1
REMARK SMILES IDX 3 1 9 2 7 3 6 4 5 5 4 6 2 7 1 8 8 9
REMARK H PARENT 8 10
REMARK Flexibility Score: inf
ROOT
ATOM      1  C   UNL     1     -16.646  43.774  33.463  1.00  0.00    -0.045 A 
ATOM      2  C   UNL     1     -16.589  42.425  33.852  1.00  0.00     0.049 A 
ATOM      3  C   UNL     1     -17.766  41.706  34.088  1.00  0.00     0.115 A 
ATOM      4  C   UNL     1     -19.010  42.332  33.925  1.00  0.00     0.046 A 
ATOM      5  C   UNL     1     -19.073  43.670  33.526  1.00  0.00     0.004 A 
ATOM      6  C   UNL     1     -17.897  44.388  33.290  1.00  0.00     0.004 A 
ENDROOT
BRANCH   1   7
ATOM      7  C   UNL     1     -15.380  44.537  33.178  1.00  0.00     0.032 C 
ATOM      8  C   UNL     1     -14.892  45.260  34.429  1.00  0.00     0.009 C 
ENDBRANCH   1   7
BRANCH   3   9
ATOM      9  O   UNL     1     -17.689  40.371  34.478  1.00  0.00    -0.508 OA
ATOM     10  H   UNL     1     -18.522  39.832  34.689  1.00  0.00     0.293 HD
ENDBRANCH   3   9
TORSDOF 2
ENDMDL
MODEL 8
REMARK VINA RESULT:    -4.356      1.978      2.539
REMARK INTER + INTRA:          -4.789
REMARK INTER:                  -4.714
REMARK INTRA:                  -0.075
REMARK UNBOUND:                -0.051
REMARK SMILES CCc1cccc(O)c1
REMARK SMILES IDX 3 1 9 2 7 3 6 4 5 5 4 6 2 7 1 8 8 9
REMARK H PARENT 8 10
REMARK Flexibility Score: inf
ROOT
ATOM      1  C   UNL     1     -15.839  44.417  31.294  1.00  0.00    -0.045 A 
ATOM      2  C   UNL     1     -17.186  44.389  30.896  1.00  0.00     0.049 A 
ATOM      3  C   UNL     1     -18.190  44.059  31.814  1.00  0.00     0.115 A 
ATOM      4  C   UNL     1     -17.850  43.763  33.141  1.00  0.00     0.046 A 
ATOM      5  C   UNL     1     -16.512  43.802  33.547  1.00  0.00     0.004 A 
ATOM      6  C   UNL     1     -15.511  44.132  32.630  1.00  0.00     0.004 A 
ENDROOT
BRANCH   1   7
ATOM      7  C   UNL     1     -14.764  44.804  30.315  1.00  0.00     0.032 C 
ATOM      8  C   UNL     1     -13.381  44.522  30.891  1.00  0.00     0.009 C 
ENDBRANCH   1   7
BRANCH   3   9
ATOM      9  O   UNL     1     -19.519  44.031  31.399  1.00  0.00    -0.508 OA
ATOM     10  H   UNL     1     -20.252  43.658  31.992  1.00  0.00     0.293 HD
ENDBRANCH   3   9
TORSDOF 2
ENDMDL
MODEL 9
REMARK VINA RESULT:    -4.280      3.287      4.545
REMARK INTER + INTRA:          -4.706
REMARK INTER:                  -4.654
REMARK INTRA:                  -0.052
REMARK UNBOUND:                -0.051
REMARK SMILES CCc1cccc(O)c1
REMARK SMILES IDX 3 1 9 2 7 3 6 4 5 5 4 6 2 7 1 8 8 9
REMARK H PARENT 8 10
REMARK Flexibility Score: inf
ROOT
ATOM      1  C   UNL     1     -14.202  44.570  31.622  1.00  0.00    -0.045 A 
ATOM      2  C   UNL     1     -13.323  44.683  32.712  1.00  0.00     0.049 A 
ATOM      3  C   UNL     1     -13.813  44.651  34.023  1.00  0.00     0.115 A 
ATOM      4  C   UNL     1     -15.187  44.496  34.250  1.00  0.00     0.046 A 
ATOM      5  C   UNL     1     -16.066  44.370  33.169  1.00  0.00     0.004 A 
ATOM      6  C   UNL     1     -15.576  44.402  31.860  1.00  0.00     0.004 A 
ENDROOT
BRANCH   1   7
ATOM      7  C   UNL     1     -13.671  44.571  30.214  1.00  0.00     0.032 C 
ATOM      8  C   UNL     1     -12.148  44.650  30.211  1.00  0.00     0.009 C 
ENDBRANCH   1   7
BRANCH   3   9
ATOM      9  O   UNL     1     -12.926  44.770  35.091  1.00  0.00    -0.508 OA
ATOM     10  H   UNL     1     -13.247  45.020  36.020  1.00  0.00     0.293 HD
ENDBRANCH   3   9
TORSDOF 2
ENDMDL
