MODEL 1
REMARK VINA RESULT:    -2.654      0.000      0.000
REMARK INTER + INTRA:          -5.385
REMARK INTER:                  -4.826
REMARK INTRA:                  -0.559
REMARK UNBOUND:                -0.559
REMARK SMILES CCCCCCCCCCCCCCCC(=O)[O-]
REMARK SMILES IDX 9 1 10 2 11 3 12 4 13 5 14 6 15 7 16 8 17 9 18 10 8 11 7 12
REMARK SMILES IDX 6 13 5 14 4 15 3 16 2 17 1 18
REMARK H PARENT
REMARK Flexibility Score: inf
ROOT
ATOM      1  C   UNL     1     -14.427 -11.947 -11.656  1.00  0.00     0.000 C 
ENDROOT
BRANCH   1   2
ATOM      2  C   UNL     1     -14.901 -12.413 -10.267  1.00  0.00     0.000 C 
BRANCH   2   3
ATOM      3  C   UNL     1     -16.408 -12.708 -10.220  1.00  0.00     0.000 C 
BRANCH   3   4
ATOM      4  C   UNL     1     -17.202 -11.448  -9.844  1.00  0.00     0.000 C 
BRANCH   4   5
ATOM      5  C   UNL     1     -18.349 -11.739  -8.865  1.00  0.00     0.000 C 
BRANCH   5   6
ATOM      6  C   UNL     1     -19.711 -11.857  -9.566  1.00  0.00     0.006 C 
BRANCH   6   7
ATOM      7  C   UNL     1     -20.830 -12.106  -8.551  1.00  0.00     0.053 C 
BRANCH   7   8
ATOM      8  C   UNL     1     -20.654 -11.230  -7.351  1.00  0.00     0.041 C 
ATOM      9  O   UNL     1     -20.629 -11.734  -6.197  1.00  0.00    -0.550 OA
ATOM     10  O   UNL     1     -20.567  -9.852  -7.502  1.00  0.00    -0.550 OA
ENDBRANCH   7   8
ENDBRANCH   6   7
ENDBRANCH   5   6
ENDBRANCH   4   5
ENDBRANCH   3   4
ENDBRANCH   2   3
ENDBRANCH   1   2
BRANCH   1  11
ATOM     11  C   UNL     1     -13.106 -11.152 -11.658  1.00  0.00     0.000 C 
BRANCH  11  12
ATOM     12  C   UNL     1     -13.014 -10.030 -10.605  1.00  0.00    -0.000 C 
BRANCH  12  13
ATOM     13  C   UNL     1     -12.718  -8.629 -11.172  1.00  0.00    -0.000 C 
BRANCH  13  14
ATOM     14  C   UNL     1     -13.819  -8.120 -12.113  1.00  0.00    -0.000 C 
BRANCH  14  15
ATOM     15  C   UNL     1     -13.982  -6.598 -11.997  1.00  0.00    -0.000 C 
BRANCH  15  16
ATOM     16  C   UNL     1     -15.450  -6.143 -12.075  1.00  0.00    -0.000 C 
BRANCH  16  17
ATOM     17  C   UNL     1     -15.731  -4.754 -11.475  1.00  0.00    -0.003 C 
ATOM     18  C   UNL     1     -14.486  -3.871 -11.401  1.00  0.00     0.004 C 
ENDBRANCH  16  17
ENDBRANCH  15  16
ENDBRANCH  14  15
ENDBRANCH  13  14
ENDBRANCH  12  13
ENDBRANCH  11  12
ENDBRANCH   1  11
TORSDOF 14
ENDMDL
MODEL 2
REMARK VINA RESULT:    -2.412      3.032      7.325
REMARK INTER + INTRA:          -4.946
REMARK INTER:                  -3.698
REMARK INTRA:                  -1.247
REMARK UNBOUND:                -0.559
REMARK SMILES CCCCCCCCCCCCCCCC(=O)[O-]
REMARK SMILES IDX 9 1 10 2 11 3 12 4 13 5 14 6 15 7 16 8 17 9 18 10 8 11 7 12
REMARK SMILES IDX 6 13 5 14 4 15 3 16 2 17 1 18
REMARK H PARENT
REMARK Flexibility Score: inf
ROOT
ATOM      1  C   UNL     1     -15.751 -11.895 -10.053  1.00  0.00     0.000 C 
ENDROOT
BRANCH   1   2
ATOM      2  C   UNL     1     -14.735 -13.026 -10.297  1.00  0.00     0.000 C 
BRANCH   2   3
ATOM      3  C   UNL     1     -13.540 -12.579 -11.154  1.00  0.00     0.000 C 
BRANCH   3   4
ATOM      4  C   UNL     1     -13.711 -11.124 -11.615  1.00  0.00     0.000 C 
BRANCH   4   5
ATOM      5  C   UNL     1     -12.405 -10.320 -11.536  1.00  0.00     0.000 C 
BRANCH   5   6
ATOM      6  C   UNL     1     -12.614  -8.901 -10.986  1.00  0.00     0.006 C 
BRANCH   6   7
ATOM      7  C   UNL     1     -12.765  -7.888 -12.124  1.00  0.00     0.053 C 
BRANCH   7   8
ATOM      8  C   UNL     1     -14.129  -7.272 -12.099  1.00  0.00     0.041 C 
ATOM      9  O   UNL     1     -14.259  -6.020 -12.077  1.00  0.00    -0.550 OA
ATOM     10  O   UNL     1     -15.257  -8.082 -12.051  1.00  0.00    -0.550 OA
ENDBRANCH   7   8
ENDBRANCH   6   7
ENDBRANCH   5   6
ENDBRANCH   4   5
ENDBRANCH   3   4
ENDBRANCH   2   3
ENDBRANCH   1   2
BRANCH   1  11
ATOM     11  C   UNL     1     -17.229 -12.330 -10.095  1.00  0.00     0.000 C 
BRANCH  11  12
ATOM     12  C   UNL     1     -18.103 -11.586 -11.125  1.00  0.00    -0.000 C 
BRANCH  12  13
ATOM     13  C   UNL     1     -19.590 -11.982 -11.124  1.00  0.00    -0.000 C 
BRANCH  13  14
ATOM     14  C   UNL     1     -19.904 -13.124 -10.145  1.00  0.00    -0.000 C 
BRANCH  14  15
ATOM     15  C   UNL     1     -20.853 -12.651  -9.036  1.00  0.00    -0.000 C 
BRANCH  15  16
ATOM     16  C   UNL     1     -20.142 -12.438  -7.687  1.00  0.00    -0.000 C 
BRANCH  16  17
ATOM     17  C   UNL     1     -20.062 -10.974  -7.219  1.00  0.00    -0.003 C 
ATOM     18  C   UNL     1     -18.981 -10.172  -7.944  1.00  0.00     0.004 C 
ENDBRANCH  16  17
ENDBRANCH  15  16
ENDBRANCH  14  15
ENDBRANCH  13  14
ENDBRANCH  12  13
ENDBRANCH  11  12
ENDBRANCH   1  11
TORSDOF 14
ENDMDL
MODEL 3
REMARK VINA RESULT:    -2.329      1.864      3.354
REMARK INTER + INTRA:          -4.794
REMARK INTER:                  -3.322
REMARK INTRA:                  -1.472
REMARK UNBOUND:                -0.559
REMARK SMILES CCCCCCCCCCCCCCCC(=O)[O-]
REMARK SMILES IDX 9 1 10 2 11 3 12 4 13 5 14 6 15 7 16 8 17 9 18 10 8 11 7 12
REMARK SMILES IDX 6 13 5 14 4 15 3 16 2 17 1 18
REMARK H PARENT
REMARK Flexibility Score: inf
ROOT
ATOM      1  C   UNL     1     -16.704 -11.734 -10.301  1.00  0.00     0.000 C 
ENDROOT
BRANCH   1   2
ATOM      2  C   UNL     1     -17.587 -12.995 -10.294  1.00  0.00     0.000 C 
BRANCH   2   3
ATOM      3  C   UNL     1     -18.550 -13.055 -11.490  1.00  0.00     0.000 C 
BRANCH   3   4
ATOM      4  C   UNL     1     -19.795 -12.192 -11.235  1.00  0.00     0.000 C 
BRANCH   4   5
ATOM      5  C   UNL     1     -20.938 -12.980 -10.578  1.00  0.00     0.000 C 
BRANCH   5   6
ATOM      6  C   UNL     1     -21.095 -12.663  -9.083  1.00  0.00     0.006 C 
BRANCH   6   7
ATOM      7  C   UNL     1     -21.115 -11.151  -8.843  1.00  0.00     0.053 C 
BRANCH   7   8
ATOM      8  C   UNL     1     -20.384 -10.810  -7.582  1.00  0.00     0.041 C 
ATOM      9  O   UNL     1     -19.196 -11.193  -7.416  1.00  0.00    -0.550 OA
ATOM     10  O   UNL     1     -21.031 -10.113  -6.570  1.00  0.00    -0.550 OA
ENDBRANCH   7   8
ENDBRANCH   6   7
ENDBRANCH   5   6
ENDBRANCH   4   5
ENDBRANCH   3   4
ENDBRANCH   2   3
ENDBRANCH   1   2
BRANCH   1  11
ATOM     11  C   UNL     1     -15.927 -11.494 -11.611  1.00  0.00     0.000 C 
BRANCH  11  12
ATOM     12  C   UNL     1     -14.885 -12.574 -11.963  1.00  0.00    -0.000 C 
BRANCH  12  13
ATOM     13  C   UNL     1     -13.821 -12.829 -10.880  1.00  0.00    -0.000 C 
BRANCH  13  14
ATOM     14  C   UNL     1     -12.922 -11.609 -10.626  1.00  0.00    -0.000 C 
BRANCH  14  15
ATOM     15  C   UNL     1     -12.039 -11.315 -11.846  1.00  0.00    -0.000 C 
BRANCH  15  16
ATOM     16  C   UNL     1     -11.883  -9.809 -12.125  1.00  0.00    -0.000 C 
BRANCH  16  17
ATOM     17  C   UNL     1     -12.611  -8.887 -11.131  1.00  0.00    -0.003 C 
ATOM     18  C   UNL     1     -13.783  -8.134 -11.761  1.00  0.00     0.004 C 
ENDBRANCH  16  17
ENDBRANCH  15  16
ENDBRANCH  14  15
ENDBRANCH  13  14
ENDBRANCH  12  13
ENDBRANCH  11  12
ENDBRANCH   1  11
TORSDOF 14
ENDMDL
MODEL 4
REMARK VINA RESULT:    -2.260      2.685      3.340
REMARK INTER + INTRA:          -4.668
REMARK INTER:                  -3.901
REMARK INTRA:                  -0.766
REMARK UNBOUND:                -0.559
REMARK SMILES CCCCCCCCCCCCCCCC(=O)[O-]
REMARK SMILES IDX 9 1 10 2 11 3 12 4 13 5 14 6 15 7 16 8 17 9 18 10 8 11 7 12
REMARK SMILES IDX 6 13 5 14 4 15 3 16 2 17 1 18
REMARK H PARENT
REMARK Flexibility Score: inf
ROOT
ATOM      1  C   UNL     1     -15.858 -11.656 -10.153  1.00  0.00     0.000 C 
ENDROOT
BRANCH   1   2
ATOM      2  C   UNL     1     -17.348 -11.284 -10.053  1.00  0.00     0.000 C 
BRANCH   2   3
ATOM      3  C   UNL     1     -18.186 -11.870 -11.200  1.00  0.00     0.000 C 
BRANCH   3   4
ATOM      4  C   UNL     1     -19.474 -12.512 -10.663  1.00  0.00     0.000 C 
BRANCH   4   5
ATOM      5  C   UNL     1     -19.335 -12.996  -9.212  1.00  0.00     0.000 C 
BRANCH   5   6
ATOM      6  C   UNL     1     -20.587 -12.711  -8.369  1.00  0.00     0.006 C 
BRANCH   6   7
ATOM      7  C   UNL     1     -20.992 -11.238  -8.470  1.00  0.00     0.053 C 
BRANCH   7   8
ATOM      8  C   UNL     1     -20.912 -10.579  -7.128  1.00  0.00     0.041 C 
ATOM      9  O   UNL     1     -20.800  -9.328  -7.043  1.00  0.00    -0.550 OA
ATOM     10  O   UNL     1     -20.912 -11.351  -5.974  1.00  0.00    -0.550 OA
ENDBRANCH   7   8
ENDBRANCH   6   7
ENDBRANCH   5   6
ENDBRANCH   4   5
ENDBRANCH   3   4
ENDBRANCH   2   3
ENDBRANCH   1   2
BRANCH   1  11
ATOM     11  C   UNL     1     -15.257 -11.557 -11.569  1.00  0.00     0.000 C 
BRANCH  11  12
ATOM     12  C   UNL     1     -14.026 -12.450 -11.825  1.00  0.00    -0.000 C 
BRANCH  12  13
ATOM     13  C   UNL     1     -12.692 -11.695 -11.968  1.00  0.00    -0.000 C 
BRANCH  13  14
ATOM     14  C   UNL     1     -12.740 -10.280 -11.372  1.00  0.00    -0.000 C 
BRANCH  14  15
ATOM     15  C   UNL     1     -12.545 -10.318  -9.850  1.00  0.00    -0.000 C 
BRANCH  15  16
ATOM     16  C   UNL     1     -12.278  -8.929  -9.244  1.00  0.00    -0.000 C 
BRANCH  16  17
ATOM     17  C   UNL     1     -11.959  -8.929  -7.739  1.00  0.00    -0.003 C 
ATOM     18  C   UNL     1     -12.287  -7.601  -7.056  1.00  0.00     0.004 C 
ENDBRANCH  16  17
ENDBRANCH  15  16
ENDBRANCH  14  15
ENDBRANCH  13  14
ENDBRANCH  12  13
ENDBRANCH  11  12
ENDBRANCH   1  11
TORSDOF 14
ENDMDL
MODEL 5
REMARK VINA RESULT:    -2.258      3.056      7.634
REMARK INTER + INTRA:          -4.664
REMARK INTER:                  -3.767
REMARK INTRA:                  -0.898
REMARK UNBOUND:                -0.559
REMARK SMILES CCCCCCCCCCCCCCCC(=O)[O-]
REMARK SMILES IDX 9 1 10 2 11 3 12 4 13 5 14 6 15 7 16 8 17 9 18 10 8 11 7 12
REMARK SMILES IDX 6 13 5 14 4 15 3 16 2 17 1 18
REMARK H PARENT
REMARK Flexibility Score: inf
ROOT
ATOM      1  C   UNL     1     -14.963 -11.007 -10.583  1.00  0.00     0.000 C 
ENDROOT
BRANCH   1   2
ATOM      2  C   UNL     1     -13.956 -11.866 -11.370  1.00  0.00     0.000 C 
BRANCH   2   3
ATOM      3  C   UNL     1     -12.631 -11.135 -11.638  1.00  0.00     0.000 C 
BRANCH   3   4
ATOM      4  C   UNL     1     -12.479  -9.920 -10.711  1.00  0.00     0.000 C 
BRANCH   4   5
ATOM      5  C   UNL     1     -11.952  -8.678 -11.444  1.00  0.00     0.000 C 
BRANCH   5   6
ATOM      6  C   UNL     1     -13.069  -7.873 -12.125  1.00  0.00     0.006 C 
BRANCH   6   7
ATOM      7  C   UNL     1     -13.850  -7.045 -11.101  1.00  0.00     0.053 C 
BRANCH   7   8
ATOM      8  C   UNL     1     -14.729  -6.049 -11.792  1.00  0.00     0.041 C 
ATOM      9  O   UNL     1     -15.901  -6.363 -12.125  1.00  0.00    -0.550 OA
ATOM     10  O   UNL     1     -14.235  -4.791 -12.112  1.00  0.00    -0.550 OA
ENDBRANCH   7   8
ENDBRANCH   6   7
ENDBRANCH   5   6
ENDBRANCH   4   5
ENDBRANCH   3   4
ENDBRANCH   2   3
ENDBRANCH   1   2
BRANCH   1  11
ATOM     11  C   UNL     1     -16.346 -11.655 -10.375  1.00  0.00     0.000 C 
BRANCH  11  12
ATOM     12  C   UNL     1     -17.236 -11.721 -11.632  1.00  0.00    -0.000 C 
BRANCH  12  13
ATOM     13  C   UNL     1     -18.519 -12.557 -11.478  1.00  0.00    -0.000 C 
BRANCH  13  14
ATOM     14  C   UNL     1     -18.896 -12.808 -10.010  1.00  0.00    -0.000 C 
BRANCH  14  15
ATOM     15  C   UNL     1     -20.417 -12.932  -9.847  1.00  0.00    -0.000 C 
BRANCH  15  16
ATOM     16  C   UNL     1     -20.910 -12.495  -8.456  1.00  0.00    -0.000 C 
BRANCH  16  17
ATOM     17  C   UNL     1     -19.825 -12.460  -7.365  1.00  0.00    -0.003 C 
ATOM     18  C   UNL     1     -20.374 -12.738  -5.966  1.00  0.00     0.004 C 
ENDBRANCH  16  17
ENDBRANCH  15  16
ENDBRANCH  14  15
ENDBRANCH  13  14
ENDBRANCH  12  13
ENDBRANCH  11  12
ENDBRANCH   1  11
TORSDOF 14
ENDMDL
MODEL 6
REMARK VINA RESULT:    -1.923      1.504      2.042
REMARK INTER + INTRA:          -4.055
REMARK INTER:                  -3.495
REMARK INTRA:                  -0.560
REMARK UNBOUND:                -0.559
REMARK SMILES CCCCCCCCCCCCCCCC(=O)[O-]
REMARK SMILES IDX 9 1 10 2 11 3 12 4 13 5 14 6 15 7 16 8 17 9 18 10 8 11 7 12
REMARK SMILES IDX 6 13 5 14 4 15 3 16 2 17 1 18
REMARK H PARENT
REMARK Flexibility Score: inf
ROOT
ATOM      1  C   UNL     1     -16.850  -9.418 -12.050  1.00  0.00     0.000 C 
ENDROOT
BRANCH   1   2
ATOM      2  C   UNL     1     -17.944 -10.497 -12.118  1.00  0.00     0.000 C 
BRANCH   2   3
ATOM      3  C   UNL     1     -17.450 -11.877 -11.655  1.00  0.00     0.000 C 
BRANCH   3   4
ATOM      4  C   UNL     1     -18.597 -12.690 -11.036  1.00  0.00     0.000 C 
BRANCH   4   5
ATOM      5  C   UNL     1     -19.523 -11.835 -10.158  1.00  0.00     0.000 C 
BRANCH   5   6
ATOM      6  C   UNL     1     -18.772 -11.117  -9.027  1.00  0.00     0.006 C 
BRANCH   6   7
ATOM      7  C   UNL     1     -19.123 -11.721  -7.665  1.00  0.00     0.053 C 
BRANCH   7   8
ATOM      8  C   UNL     1     -20.301 -11.017  -7.067  1.00  0.00     0.041 C 
ATOM      9  O   UNL     1     -20.845 -11.466  -6.024  1.00  0.00    -0.550 OA
ATOM     10  O   UNL     1     -20.829  -9.893  -7.689  1.00  0.00    -0.550 OA
ENDBRANCH   7   8
ENDBRANCH   6   7
ENDBRANCH   5   6
ENDBRANCH   4   5
ENDBRANCH   3   4
ENDBRANCH   2   3
ENDBRANCH   1   2
BRANCH   1  11
ATOM     11  C   UNL     1     -15.406  -9.957 -12.025  1.00  0.00     0.000 C 
BRANCH  11  12
ATOM     12  C   UNL     1     -14.399  -9.100 -11.233  1.00  0.00    -0.000 C 
BRANCH  12  13
ATOM     13  C   UNL     1     -13.340  -8.381 -12.089  1.00  0.00    -0.000 C 
BRANCH  13  14
ATOM     14  C   UNL     1     -13.522  -6.856 -12.110  1.00  0.00    -0.000 C 
BRANCH  14  15
ATOM     15  C   UNL     1     -15.010  -6.481 -12.103  1.00  0.00    -0.000 C 
BRANCH  15  16
ATOM     16  C   UNL     1     -15.263  -5.037 -11.632  1.00  0.00    -0.000 C 
BRANCH  16  17
ATOM     17  C   UNL     1     -16.582  -4.416 -12.125  1.00  0.00    -0.003 C 
ATOM     18  C   UNL     1     -17.771  -4.738 -11.219  1.00  0.00     0.004 C 
ENDBRANCH  16  17
ENDBRANCH  15  16
ENDBRANCH  14  15
ENDBRANCH  13  14
ENDBRANCH  12  13
ENDBRANCH  11  12
ENDBRANCH   1  11
TORSDOF 14
ENDMDL
MODEL 7
REMARK VINA RESULT:    -1.857      3.947      7.779
REMARK INTER + INTRA:          -3.936
REMARK INTER:                  -3.288
REMARK INTRA:                  -0.648
REMARK UNBOUND:                -0.559
REMARK SMILES CCCCCCCCCCCCCCCC(=O)[O-]
REMARK SMILES IDX 9 1 10 2 11 3 12 4 13 5 14 6 15 7 16 8 17 9 18 10 8 11 7 12
REMARK SMILES IDX 6 13 5 14 4 15 3 16 2 17 1 18
REMARK H PARENT
REMARK Flexibility Score: inf
ROOT
ATOM      1  C   UNL     1     -16.505 -11.823 -10.073  1.00  0.00     0.000 C 
ENDROOT
BRANCH   1   2
ATOM      2  C   UNL     1     -15.475 -10.948 -10.809  1.00  0.00     0.000 C 
BRANCH   2   3
ATOM      3  C   UNL     1     -14.916 -11.622 -12.072  1.00  0.00     0.000 C 
BRANCH   3   4
ATOM      4  C   UNL     1     -14.107 -12.877 -11.711  1.00  0.00     0.000 C 
BRANCH   4   5
ATOM      5  C   UNL     1     -12.729 -12.544 -11.120  1.00  0.00     0.000 C 
BRANCH   5   6
ATOM      6  C   UNL     1     -12.140 -11.243 -11.685  1.00  0.00     0.006 C 
BRANCH   6   7
ATOM      7  C   UNL     1     -12.220 -10.113 -10.654  1.00  0.00     0.053 C 
BRANCH   7   8
ATOM      8  C   UNL     1     -12.066  -8.782 -11.322  1.00  0.00     0.041 C 
ATOM      9  O   UNL     1     -12.959  -7.904 -11.198  1.00  0.00    -0.550 OA
ATOM     10  O   UNL     1     -10.960  -8.530 -12.124  1.00  0.00    -0.550 OA
ENDBRANCH   7   8
ENDBRANCH   6   7
ENDBRANCH   5   6
ENDBRANCH   4   5
ENDBRANCH   3   4
ENDBRANCH   2   3
ENDBRANCH   1   2
BRANCH   1  11
ATOM     11  C   UNL     1     -17.328 -12.760 -10.979  1.00  0.00     0.000 C 
BRANCH  11  12
ATOM     12  C   UNL     1     -18.732 -13.117 -10.452  1.00  0.00    -0.000 C 
BRANCH  12  13
ATOM     13  C   UNL     1     -19.887 -12.826 -11.429  1.00  0.00    -0.000 C 
BRANCH  13  14
ATOM     14  C   UNL     1     -21.125 -12.242 -10.733  1.00  0.00    -0.000 C 
BRANCH  14  15
ATOM     15  C   UNL     1     -21.076 -12.495  -9.220  1.00  0.00    -0.000 C 
BRANCH  15  16
ATOM     16  C   UNL     1     -21.002 -11.197  -8.396  1.00  0.00    -0.000 C 
BRANCH  16  17
ATOM     17  C   UNL     1     -19.959 -11.205  -7.265  1.00  0.00    -0.003 C 
ATOM     18  C   UNL     1     -19.499 -12.612  -6.884  1.00  0.00     0.004 C 
ENDBRANCH  16  17
ENDBRANCH  15  16
ENDBRANCH  14  15
ENDBRANCH  13  14
ENDBRANCH  12  13
ENDBRANCH  11  12
ENDBRANCH   1  11
TORSDOF 14
ENDMDL
MODEL 8
REMARK VINA RESULT:    -0.331      1.758      3.915
REMARK INTER + INTRA:          -1.160
REMARK INTER:                   0.021
REMARK INTRA:                  -1.182
REMARK UNBOUND:                -0.559
REMARK SMILES CCCCCCCCCCCCCCCC(=O)[O-]
REMARK SMILES IDX 9 1 10 2 11 3 12 4 13 5 14 6 15 7 16 8 17 9 18 10 8 11 7 12
REMARK SMILES IDX 6 13 5 14 4 15 3 16 2 17 1 18
REMARK H PARENT
REMARK Flexibility Score: inf
ROOT
ATOM      1  C   UNL     1     -15.783  -9.471 -11.295  1.00  0.00     0.000 C 
ENDROOT
BRANCH   1   2
ATOM      2  C   UNL     1     -16.701 -10.403 -12.105  1.00  0.00     0.000 C 
BRANCH   2   3
ATOM      3  C   UNL     1     -17.690 -11.180 -11.223  1.00  0.00     0.000 C 
BRANCH   3   4
ATOM      4  C   UNL     1     -18.908 -11.639 -12.039  1.00  0.00     0.000 C 
BRANCH   4   5
ATOM      5  C   UNL     1     -20.217 -11.574 -11.239  1.00  0.00     0.000 C 
BRANCH   5   6
ATOM      6  C   UNL     1     -20.150 -12.369  -9.926  1.00  0.00     0.006 C 
BRANCH   6   7
ATOM      7  C   UNL     1     -21.093 -11.774  -8.877  1.00  0.00     0.053 C 
BRANCH   7   8
ATOM      8  C   UNL     1     -20.360 -11.520  -7.597  1.00  0.00     0.041 C 
ATOM      9  O   UNL     1     -20.968 -11.580  -6.496  1.00  0.00    -0.550 OA
ATOM     10  O   UNL     1     -19.017 -11.166  -7.623  1.00  0.00    -0.550 OA
ENDBRANCH   7   8
ENDBRANCH   6   7
ENDBRANCH   5   6
ENDBRANCH   4   5
ENDBRANCH   3   4
ENDBRANCH   2   3
ENDBRANCH   1   2
BRANCH   1  11
ATOM     11  C   UNL     1     -15.053  -8.396 -12.125  1.00  0.00     0.000 C 
BRANCH  11  12
ATOM     12  C   UNL     1     -13.856  -7.725 -11.422  1.00  0.00    -0.000 C 
BRANCH  12  13
ATOM     13  C   UNL     1     -12.750  -8.690 -10.957  1.00  0.00    -0.000 C 
BRANCH  13  14
ATOM     14  C   UNL     1     -12.032  -9.384 -12.125  1.00  0.00    -0.000 C 
BRANCH  14  15
ATOM     15  C   UNL     1     -11.995 -10.904 -11.921  1.00  0.00    -0.000 C 
BRANCH  15  16
ATOM     16  C   UNL     1     -13.375 -11.566 -12.085  1.00  0.00    -0.000 C 
BRANCH  16  17
ATOM     17  C   UNL     1     -13.566 -12.872 -11.294  1.00  0.00    -0.003 C 
ATOM     18  C   UNL     1     -14.448 -12.699 -10.057  1.00  0.00     0.004 C 
ENDBRANCH  16  17
ENDBRANCH  15  16
ENDBRANCH  14  15
ENDBRANCH  13  14
ENDBRANCH  12  13
ENDBRANCH  11  12
ENDBRANCH   1  11
TORSDOF 14
ENDMDL
