MODEL 1
REMARK VINA RESULT:    10.412      0.000      0.000
REMARK INTER + INTRA:          27.399
REMARK INTER:                  26.238
REMARK INTRA:                   1.161
REMARK UNBOUND:                 1.161
REMARK SMILES CCCCCCCCCCCCCCCCCCCCCCCCCCCC(=O)[O-]
REMARK SMILES IDX 15 1 16 2 17 3 18 4 19 5 20 6 21 7 22 8 23 9 24 10 25 11
REMARK SMILES IDX 26 12 27 13 28 14 29 15 30 16 14 17 13 18 12 19 11 20 10 21
REMARK SMILES IDX 9 22 8 23 7 24 6 25 5 26 4 27 3 28 2 29 1 30
REMARK H PARENT
REMARK Flexibility Score: inf
ROOT
ATOM      1  C   UNL     1      -5.617  37.950  23.634  1.00  0.00     0.000 C 
ENDROOT
BRANCH   1   2
ATOM      2  C   UNL     1      -5.858  36.597  22.942  1.00  0.00     0.000 C 
BRANCH   2   3
ATOM      3  C   UNL     1      -5.391  35.402  23.794  1.00  0.00     0.000 C 
BRANCH   3   4
ATOM      4  C   UNL     1      -5.644  35.609  25.297  1.00  0.00     0.000 C 
BRANCH   4   5
ATOM      5  C   UNL     1      -5.880  37.087  25.657  1.00  0.00     0.000 C 
BRANCH   5   6
ATOM      6  C   UNL     1      -4.688  37.707  26.404  1.00  0.00     0.000 C 
BRANCH   6   7
ATOM      7  C   UNL     1      -3.461  36.779  26.435  1.00  0.00     0.000 C 
BRANCH   7   8
ATOM      8  C   UNL     1      -2.406  37.219  27.462  1.00  0.00     0.000 C 
BRANCH   8   9
ATOM      9  C   UNL     1      -1.543  36.085  28.050  1.00  0.00     0.000 C 
BRANCH   9  10
ATOM     10  C   UNL     1      -2.288  34.744  28.215  1.00  0.00     0.000 C 
BRANCH  10  11
ATOM     11  C   UNL     1      -2.179  34.185  29.642  1.00  0.00     0.000 C 
BRANCH  11  12
ATOM     12  C   UNL     1      -0.711  34.074  30.085  1.00  0.00     0.006 C 
BRANCH  12  13
ATOM     13  C   UNL     1       0.205  33.598  28.944  1.00  0.00     0.053 C 
BRANCH  13  14
ATOM     14  C   UNL     1       1.472  32.964  29.444  1.00  0.00     0.041 C 
ATOM     15  O   UNL     1       1.526  31.727  29.673  1.00  0.00    -0.550 OA
ATOM     16  O   UNL     1       2.584  33.755  29.706  1.00  0.00    -0.550 OA
ENDBRANCH  13  14
ENDBRANCH  12  13
ENDBRANCH  11  12
ENDBRANCH  10  11
ENDBRANCH   9  10
ENDBRANCH   8   9
ENDBRANCH   7   8
ENDBRANCH   6   7
ENDBRANCH   5   6
ENDBRANCH   4   5
ENDBRANCH   3   4
ENDBRANCH   2   3
ENDBRANCH   1   2
BRANCH   1  17
ATOM     17  C   UNL     1      -4.685  38.912  22.872  1.00  0.00     0.000 C 
BRANCH  17  18
ATOM     18  C   UNL     1      -5.415  40.104  22.211  1.00  0.00     0.000 C 
BRANCH  18  19
ATOM     19  C   UNL     1      -6.095  39.757  20.874  1.00  0.00     0.000 C 
BRANCH  19  20
ATOM     20  C   UNL     1      -5.169  38.984  19.920  1.00  0.00     0.000 C 
BRANCH  20  21
ATOM     21  C   UNL     1      -5.788  37.632  19.539  1.00  0.00     0.000 C 
BRANCH  21  22
ATOM     22  C   UNL     1      -4.951  36.427  20.007  1.00  0.00    -0.000 C 
BRANCH  22  23
ATOM     23  C   UNL     1      -5.717  35.095  20.095  1.00  0.00    -0.000 C 
BRANCH  23  24
ATOM     24  C   UNL     1      -5.091  33.987  19.232  1.00  0.00    -0.000 C 
BRANCH  24  25
ATOM     25  C   UNL     1      -5.257  34.241  17.722  1.00  0.00    -0.000 C 
BRANCH  25  26
ATOM     26  C   UNL     1      -3.992  34.743  16.996  1.00  0.00    -0.000 C 
BRANCH  26  27
ATOM     27  C   UNL     1      -4.218  35.921  16.029  1.00  0.00    -0.000 C 
BRANCH  27  28
ATOM     28  C   UNL     1      -3.465  35.817  14.686  1.00  0.00    -0.000 C 
BRANCH  28  29
ATOM     29  C   UNL     1      -3.395  37.127  13.882  1.00  0.00    -0.003 C 
ATOM     30  C   UNL     1      -4.347  38.201  14.408  1.00  0.00     0.004 C 
ENDBRANCH  28  29
ENDBRANCH  27  28
ENDBRANCH  26  27
ENDBRANCH  25  26
ENDBRANCH  24  25
ENDBRANCH  23  24
ENDBRANCH  22  23
ENDBRANCH  21  22
ENDBRANCH  20  21
ENDBRANCH  19  20
ENDBRANCH  18  19
ENDBRANCH  17  18
ENDBRANCH   1  17
TORSDOF 26
ENDMDL
MODEL 2
REMARK VINA RESULT:    12.245      2.407      2.991
REMARK INTER + INTRA:          32.018
REMARK INTER:                  30.755
REMARK INTRA:                   1.263
REMARK UNBOUND:                 1.161
REMARK SMILES CCCCCCCCCCCCCCCCCCCCCCCCCCCC(=O)[O-]
REMARK SMILES IDX 15 1 16 2 17 3 18 4 19 5 20 6 21 7 22 8 23 9 24 10 25 11
REMARK SMILES IDX 26 12 27 13 28 14 29 15 30 16 14 17 13 18 12 19 11 20 10 21
REMARK SMILES IDX 9 22 8 23 7 24 6 25 5 26 4 27 3 28 2 29 1 30
REMARK H PARENT
REMARK Flexibility Score: inf
ROOT
ATOM      1  C   UNL     1      -5.936  37.304  23.397  1.00  0.00     0.000 C 
ENDROOT
BRANCH   1   2
ATOM      2  C   UNL     1      -5.560  35.862  23.016  1.00  0.00     0.000 C 
BRANCH   2   3
ATOM      3  C   UNL     1      -5.793  34.863  24.164  1.00  0.00     0.000 C 
BRANCH   3   4
ATOM      4  C   UNL     1      -5.506  35.470  25.548  1.00  0.00     0.000 C 
BRANCH   4   5
ATOM      5  C   UNL     1      -5.545  37.010  25.535  1.00  0.00     0.000 C 
BRANCH   5   6
ATOM      6  C   UNL     1      -4.235  37.634  26.043  1.00  0.00     0.000 C 
BRANCH   6   7
ATOM      7  C   UNL     1      -3.248  36.584  26.580  1.00  0.00     0.000 C 
BRANCH   7   8
ATOM      8  C   UNL     1      -2.182  37.186  27.509  1.00  0.00     0.000 C 
BRANCH   8   9
ATOM      9  C   UNL     1      -1.496  38.464  26.987  1.00  0.00     0.000 C 
BRANCH   9  10
ATOM     10  C   UNL     1       0.017  38.308  26.726  1.00  0.00     0.000 C 
BRANCH  10  11
ATOM     11  C   UNL     1       0.861  39.277  27.568  1.00  0.00     0.000 C 
BRANCH  11  12
ATOM     12  C   UNL     1       2.226  38.664  27.919  1.00  0.00     0.006 C 
BRANCH  12  13
ATOM     13  C   UNL     1       3.086  38.409  26.669  1.00  0.00     0.053 C 
BRANCH  13  14
ATOM     14  C   UNL     1       4.338  37.635  26.975  1.00  0.00     0.041 C 
ATOM     15  O   UNL     1       4.356  36.379  26.883  1.00  0.00    -0.550 OA
ATOM     16  O   UNL     1       5.474  38.303  27.412  1.00  0.00    -0.550 OA
ENDBRANCH  13  14
ENDBRANCH  12  13
ENDBRANCH  11  12
ENDBRANCH  10  11
ENDBRANCH   9  10
ENDBRANCH   8   9
ENDBRANCH   7   8
ENDBRANCH   6   7
ENDBRANCH   5   6
ENDBRANCH   4   5
ENDBRANCH   3   4
ENDBRANCH   2   3
ENDBRANCH   1   2
BRANCH   1  17
ATOM     17  C   UNL     1      -4.889  38.370  23.019  1.00  0.00     0.000 C 
BRANCH  17  18
ATOM     18  C   UNL     1      -5.492  39.751  22.675  1.00  0.00     0.000 C 
BRANCH  18  19
ATOM     19  C   UNL     1      -6.119  39.827  21.271  1.00  0.00     0.000 C 
BRANCH  19  20
ATOM     20  C   UNL     1      -5.242  39.169  20.193  1.00  0.00     0.000 C 
BRANCH  20  21
ATOM     21  C   UNL     1      -5.891  37.876  19.679  1.00  0.00     0.000 C 
BRANCH  21  22
ATOM     22  C   UNL     1      -4.896  36.709  19.539  1.00  0.00    -0.000 C 
BRANCH  22  23
ATOM     23  C   UNL     1      -5.497  35.400  18.996  1.00  0.00    -0.000 C 
BRANCH  23  24
ATOM     24  C   UNL     1      -4.587  34.705  17.970  1.00  0.00    -0.000 C 
BRANCH  24  25
ATOM     25  C   UNL     1      -4.500  35.471  16.636  1.00  0.00    -0.000 C 
BRANCH  25  26
ATOM     26  C   UNL     1      -3.220  35.217  15.814  1.00  0.00    -0.000 C 
BRANCH  26  27
ATOM     27  C   UNL     1      -3.266  35.722  14.359  1.00  0.00    -0.000 C 
BRANCH  27  28
ATOM     28  C   UNL     1      -3.340  37.255  14.202  1.00  0.00    -0.000 C 
BRANCH  28  29
ATOM     29  C   UNL     1      -4.748  37.809  13.920  1.00  0.00    -0.003 C 
ATOM     30  C   UNL     1      -4.834  39.327  14.077  1.00  0.00     0.004 C 
ENDBRANCH  28  29
ENDBRANCH  27  28
ENDBRANCH  26  27
ENDBRANCH  25  26
ENDBRANCH  24  25
ENDBRANCH  23  24
ENDBRANCH  22  23
ENDBRANCH  21  22
ENDBRANCH  20  21
ENDBRANCH  19  20
ENDBRANCH  18  19
ENDBRANCH  17  18
ENDBRANCH   1  17
TORSDOF 26
ENDMDL
MODEL 3
REMARK VINA RESULT:    12.361      1.244      1.912
REMARK INTER + INTRA:          32.310
REMARK INTER:                  32.418
REMARK INTRA:                  -0.107
REMARK UNBOUND:                 1.161
REMARK SMILES CCCCCCCCCCCCCCCCCCCCCCCCCCCC(=O)[O-]
REMARK SMILES IDX 15 1 16 2 17 3 18 4 19 5 20 6 21 7 22 8 23 9 24 10 25 11
REMARK SMILES IDX 26 12 27 13 28 14 29 15 30 16 14 17 13 18 12 19 11 20 10 21
REMARK SMILES IDX 9 22 8 23 7 24 6 25 5 26 4 27 3 28 2 29 1 30
REMARK H PARENT
REMARK Flexibility Score: inf
ROOT
ATOM      1  C   UNL     1      -5.692  37.954  23.529  1.00  0.00     0.000 C 
ENDROOT
BRANCH   1   2
ATOM      2  C   UNL     1      -5.734  36.665  22.691  1.00  0.00     0.000 C 
BRANCH   2   3
ATOM      3  C   UNL     1      -4.684  35.630  23.138  1.00  0.00     0.000 C 
BRANCH   3   4
ATOM      4  C   UNL     1      -4.994  35.027  24.519  1.00  0.00     0.000 C 
BRANCH   4   5
ATOM      5  C   UNL     1      -6.120  35.781  25.251  1.00  0.00     0.000 C 
BRANCH   5   6
ATOM      6  C   UNL     1      -5.606  36.569  26.466  1.00  0.00     0.000 C 
BRANCH   6   7
ATOM      7  C   UNL     1      -4.257  37.257  26.197  1.00  0.00     0.000 C 
BRANCH   7   8
ATOM      8  C   UNL     1      -3.758  38.081  27.395  1.00  0.00     0.000 C 
BRANCH   8   9
ATOM      9  C   UNL     1      -2.231  38.280  27.470  1.00  0.00     0.000 C 
BRANCH   9  10
ATOM     10  C   UNL     1      -1.434  37.451  26.441  1.00  0.00     0.000 C 
BRANCH  10  11
ATOM     11  C   UNL     1      -1.426  35.952  26.775  1.00  0.00     0.000 C 
BRANCH  11  12
ATOM     12  C   UNL     1      -1.918  35.699  28.209  1.00  0.00     0.006 C 
BRANCH  12  13
ATOM     13  C   UNL     1      -2.047  34.198  28.522  1.00  0.00     0.053 C 
BRANCH  13  14
ATOM     14  C   UNL     1      -1.475  33.834  29.863  1.00  0.00     0.041 C 
ATOM     15  O   UNL     1      -0.348  33.277  29.951  1.00  0.00    -0.550 OA
ATOM     16  O   UNL     1      -2.213  34.066  31.016  1.00  0.00    -0.550 OA
ENDBRANCH  13  14
ENDBRANCH  12  13
ENDBRANCH  11  12
ENDBRANCH  10  11
ENDBRANCH   9  10
ENDBRANCH   8   9
ENDBRANCH   7   8
ENDBRANCH   6   7
ENDBRANCH   5   6
ENDBRANCH   4   5
ENDBRANCH   3   4
ENDBRANCH   2   3
ENDBRANCH   1   2
BRANCH   1  17
ATOM     17  C   UNL     1      -4.986  39.145  22.851  1.00  0.00     0.000 C 
BRANCH  17  18
ATOM     18  C   UNL     1      -5.922  40.026  21.992  1.00  0.00     0.000 C 
BRANCH  18  19
ATOM     19  C   UNL     1      -6.125  39.507  20.557  1.00  0.00     0.000 C 
BRANCH  19  20
ATOM     20  C   UNL     1      -4.897  38.754  20.019  1.00  0.00     0.000 C 
BRANCH  20  21
ATOM     21  C   UNL     1      -5.326  37.579  19.129  1.00  0.00     0.000 C 
BRANCH  21  22
ATOM     22  C   UNL     1      -4.820  36.216  19.635  1.00  0.00    -0.000 C 
BRANCH  22  23
ATOM     23  C   UNL     1      -5.542  34.992  19.043  1.00  0.00    -0.000 C 
BRANCH  23  24
ATOM     24  C   UNL     1      -4.765  34.339  17.888  1.00  0.00    -0.000 C 
BRANCH  24  25
ATOM     25  C   UNL     1      -4.688  35.238  16.640  1.00  0.00    -0.000 C 
BRANCH  25  26
ATOM     26  C   UNL     1      -3.263  35.621  16.191  1.00  0.00    -0.000 C 
BRANCH  26  27
ATOM     27  C   UNL     1      -2.997  35.493  14.678  1.00  0.00    -0.000 C 
BRANCH  27  28
ATOM     28  C   UNL     1      -2.966  36.828  13.906  1.00  0.00    -0.000 C 
BRANCH  28  29
ATOM     29  C   UNL     1      -3.997  37.870  14.374  1.00  0.00    -0.003 C 
ATOM     30  C   UNL     1      -5.413  37.570  13.883  1.00  0.00     0.004 C 
ENDBRANCH  28  29
ENDBRANCH  27  28
ENDBRANCH  26  27
ENDBRANCH  25  26
ENDBRANCH  24  25
ENDBRANCH  23  24
ENDBRANCH  22  23
ENDBRANCH  21  22
ENDBRANCH  20  21
ENDBRANCH  19  20
ENDBRANCH  18  19
ENDBRANCH  17  18
ENDBRANCH   1  17
TORSDOF 26
ENDMDL
MODEL 4
REMARK VINA RESULT:    12.728      4.389     10.610
REMARK INTER + INTRA:          33.235
REMARK INTER:                  31.759
REMARK INTRA:                   1.476
REMARK UNBOUND:                 1.161
REMARK SMILES CCCCCCCCCCCCCCCCCCCCCCCCCCCC(=O)[O-]
REMARK SMILES IDX 15 1 16 2 17 3 18 4 19 5 20 6 21 7 22 8 23 9 24 10 25 11
REMARK SMILES IDX 26 12 27 13 28 14 29 15 30 16 14 17 13 18 12 19 11 20 10 21
REMARK SMILES IDX 9 22 8 23 7 24 6 25 5 26 4 27 3 28 2 29 1 30
REMARK H PARENT
REMARK Flexibility Score: inf
ROOT
ATOM      1  C   UNL     1      -5.291  37.074  23.223  1.00  0.00     0.000 C 
ENDROOT
BRANCH   1   2
ATOM      2  C   UNL     1      -6.103  38.352  23.490  1.00  0.00     0.000 C 
BRANCH   2   3
ATOM      3  C   UNL     1      -5.309  39.637  23.189  1.00  0.00     0.000 C 
BRANCH   3   4
ATOM      4  C   UNL     1      -4.954  39.780  21.699  1.00  0.00     0.000 C 
BRANCH   4   5
ATOM      5  C   UNL     1      -6.083  39.288  20.775  1.00  0.00     0.000 C 
BRANCH   5   6
ATOM      6  C   UNL     1      -5.748  37.948  20.099  1.00  0.00     0.000 C 
BRANCH   6   7
ATOM      7  C   UNL     1      -4.357  37.420  20.491  1.00  0.00     0.000 C 
BRANCH   7   8
ATOM      8  C   UNL     1      -3.989  36.115  19.766  1.00  0.00     0.000 C 
BRANCH   8   9
ATOM      9  C   UNL     1      -5.135  35.095  19.619  1.00  0.00     0.000 C 
BRANCH   9  10
ATOM     10  C   UNL     1      -5.305  34.538  18.190  1.00  0.00     0.000 C 
BRANCH  10  11
ATOM     11  C   UNL     1      -4.963  35.576  17.111  1.00  0.00     0.000 C 
BRANCH  11  12
ATOM     12  C   UNL     1      -4.030  34.981  16.043  1.00  0.00     0.006 C 
BRANCH  12  13
ATOM     13  C   UNL     1      -4.150  35.713  14.695  1.00  0.00     0.053 C 
BRANCH  13  14
ATOM     14  C   UNL     1      -2.905  36.474  14.336  1.00  0.00     0.041 C 
ATOM     15  O   UNL     1      -2.975  37.659  13.913  1.00  0.00    -0.550 OA
ATOM     16  O   UNL     1      -1.666  35.853  14.421  1.00  0.00    -0.550 OA
ENDBRANCH  13  14
ENDBRANCH  12  13
ENDBRANCH  11  12
ENDBRANCH  10  11
ENDBRANCH   9  10
ENDBRANCH   8   9
ENDBRANCH   7   8
ENDBRANCH   6   7
ENDBRANCH   5   6
ENDBRANCH   4   5
ENDBRANCH   3   4
ENDBRANCH   2   3
ENDBRANCH   1   2
BRANCH   1  17
ATOM     17  C   UNL     1      -6.109  35.887  22.675  1.00  0.00     0.000 C 
BRANCH  17  18
ATOM     18  C   UNL     1      -5.712  34.519  23.276  1.00  0.00     0.000 C 
BRANCH  18  19
ATOM     19  C   UNL     1      -5.265  34.588  24.747  1.00  0.00     0.000 C 
BRANCH  19  20
ATOM     20  C   UNL     1      -6.124  35.551  25.584  1.00  0.00     0.000 C 
BRANCH  20  21
ATOM     21  C   UNL     1      -5.241  36.418  26.493  1.00  0.00     0.000 C 
BRANCH  21  22
ATOM     22  C   UNL     1      -4.744  37.706  25.810  1.00  0.00    -0.000 C 
BRANCH  22  23
ATOM     23  C   UNL     1      -4.022  38.700  26.737  1.00  0.00    -0.000 C 
BRANCH  23  24
ATOM     24  C   UNL     1      -3.000  38.019  27.663  1.00  0.00    -0.000 C 
BRANCH  24  25
ATOM     25  C   UNL     1      -1.640  37.784  26.978  1.00  0.00    -0.000 C 
BRANCH  25  26
ATOM     26  C   UNL     1      -0.862  36.546  27.466  1.00  0.00    -0.000 C 
BRANCH  26  27
ATOM     27  C   UNL     1      -1.735  35.331  27.840  1.00  0.00    -0.000 C 
BRANCH  27  28
ATOM     28  C   UNL     1      -1.223  34.504  29.037  1.00  0.00    -0.000 C 
BRANCH  28  29
ATOM     29  C   UNL     1      -2.317  33.757  29.820  1.00  0.00    -0.003 C 
ATOM     30  C   UNL     1      -2.087  33.776  31.331  1.00  0.00     0.004 C 
ENDBRANCH  28  29
ENDBRANCH  27  28
ENDBRANCH  26  27
ENDBRANCH  25  26
ENDBRANCH  24  25
ENDBRANCH  23  24
ENDBRANCH  22  23
ENDBRANCH  21  22
ENDBRANCH  20  21
ENDBRANCH  19  20
ENDBRANCH  18  19
ENDBRANCH  17  18
ENDBRANCH   1  17
TORSDOF 26
ENDMDL
MODEL 5
REMARK VINA RESULT:    12.805      4.436     10.545
REMARK INTER + INTRA:          33.429
REMARK INTER:                  28.694
REMARK INTRA:                   4.735
REMARK UNBOUND:                 1.161
REMARK SMILES CCCCCCCCCCCCCCCCCCCCCCCCCCCC(=O)[O-]
REMARK SMILES IDX 15 1 16 2 17 3 18 4 19 5 20 6 21 7 22 8 23 9 24 10 25 11
REMARK SMILES IDX 26 12 27 13 28 14 29 15 30 16 14 17 13 18 12 19 11 20 10 21
REMARK SMILES IDX 9 22 8 23 7 24 6 25 5 26 4 27 3 28 2 29 1 30
REMARK H PARENT
REMARK Flexibility Score: inf
ROOT
ATOM      1  C   UNL     1      -4.888  37.362  22.887  1.00  0.00     0.000 C 
ENDROOT
BRANCH   1   2
ATOM      2  C   UNL     1      -5.211  38.683  23.605  1.00  0.00     0.000 C 
BRANCH   2   3
ATOM      3  C   UNL     1      -5.426  39.854  22.628  1.00  0.00     0.000 C 
BRANCH   3   4
ATOM      4  C   UNL     1      -4.816  39.589  21.241  1.00  0.00     0.000 C 
BRANCH   4   5
ATOM      5  C   UNL     1      -5.883  39.514  20.133  1.00  0.00     0.000 C 
BRANCH   5   6
ATOM      6  C   UNL     1      -5.975  38.115  19.500  1.00  0.00     0.000 C 
BRANCH   6   7
ATOM      7  C   UNL     1      -4.598  37.553  19.106  1.00  0.00     0.000 C 
BRANCH   7   8
ATOM      8  C   UNL     1      -4.564  36.016  19.089  1.00  0.00     0.000 C 
BRANCH   8   9
ATOM      9  C   UNL     1      -5.167  35.356  17.833  1.00  0.00     0.000 C 
BRANCH   9  10
ATOM     10  C   UNL     1      -4.137  34.624  16.948  1.00  0.00     0.000 C 
BRANCH  10  11
ATOM     11  C   UNL     1      -3.299  35.592  16.098  1.00  0.00     0.000 C 
BRANCH  11  12
ATOM     12  C   UNL     1      -3.633  35.451  14.604  1.00  0.00     0.006 C 
BRANCH  12  13
ATOM     13  C   UNL     1      -3.623  36.808  13.878  1.00  0.00     0.053 C 
BRANCH  13  14
ATOM     14  C   UNL     1      -3.989  37.952  14.781  1.00  0.00     0.041 C 
ATOM     15  O   UNL     1      -3.595  37.978  15.977  1.00  0.00    -0.550 OA
ATOM     16  O   UNL     1      -4.812  38.967  14.312  1.00  0.00    -0.550 OA
ENDBRANCH  13  14
ENDBRANCH  12  13
ENDBRANCH  11  12
ENDBRANCH  10  11
ENDBRANCH   9  10
ENDBRANCH   8   9
ENDBRANCH   7   8
ENDBRANCH   6   7
ENDBRANCH   5   6
ENDBRANCH   4   5
ENDBRANCH   3   4
ENDBRANCH   2   3
ENDBRANCH   1   2
BRANCH   1  17
ATOM     17  C   UNL     1      -6.113  36.490  22.547  1.00  0.00     0.000 C 
BRANCH  17  18
ATOM     18  C   UNL     1      -5.830  35.384  21.505  1.00  0.00     0.000 C 
BRANCH  18  19
ATOM     19  C   UNL     1      -5.620  33.987  22.117  1.00  0.00     0.000 C 
BRANCH  19  20
ATOM     20  C   UNL     1      -5.947  33.942  23.618  1.00  0.00     0.000 C 
BRANCH  20  21
ATOM     21  C   UNL     1      -5.567  35.265  24.298  1.00  0.00     0.000 C 
BRANCH  21  22
ATOM     22  C   UNL     1      -5.315  35.123  25.810  1.00  0.00    -0.000 C 
BRANCH  22  23
ATOM     23  C   UNL     1      -5.618  36.381  26.644  1.00  0.00    -0.000 C 
BRANCH  23  24
ATOM     24  C   UNL     1      -4.910  37.637  26.109  1.00  0.00    -0.000 C 
BRANCH  24  25
ATOM     25  C   UNL     1      -3.482  37.348  25.609  1.00  0.00    -0.000 C 
BRANCH  25  26
ATOM     26  C   UNL     1      -2.376  37.451  26.680  1.00  0.00    -0.000 C 
BRANCH  26  27
ATOM     27  C   UNL     1      -2.551  36.515  27.891  1.00  0.00    -0.000 C 
BRANCH  27  28
ATOM     28  C   UNL     1      -1.404  35.507  28.109  1.00  0.00    -0.000 C 
BRANCH  28  29
ATOM     29  C   UNL     1      -1.509  34.677  29.401  1.00  0.00    -0.003 C 
ATOM     30  C   UNL     1      -2.558  33.569  29.314  1.00  0.00     0.004 C 
ENDBRANCH  28  29
ENDBRANCH  27  28
ENDBRANCH  26  27
ENDBRANCH  25  26
ENDBRANCH  24  25
ENDBRANCH  23  24
ENDBRANCH  22  23
ENDBRANCH  21  22
ENDBRANCH  20  21
ENDBRANCH  19  20
ENDBRANCH  18  19
ENDBRANCH  17  18
ENDBRANCH   1  17
TORSDOF 26
ENDMDL
MODEL 6
REMARK VINA RESULT:    12.919      4.552     11.106
REMARK INTER + INTRA:          33.715
REMARK INTER:                  33.182
REMARK INTRA:                   0.533
REMARK UNBOUND:                 1.161
REMARK SMILES CCCCCCCCCCCCCCCCCCCCCCCCCCCC(=O)[O-]
REMARK SMILES IDX 15 1 16 2 17 3 18 4 19 5 20 6 21 7 22 8 23 9 24 10 25 11
REMARK SMILES IDX 26 12 27 13 28 14 29 15 30 16 14 17 13 18 12 19 11 20 10 21
REMARK SMILES IDX 9 22 8 23 7 24 6 25 5 26 4 27 3 28 2 29 1 30
REMARK H PARENT
REMARK Flexibility Score: inf
ROOT
ATOM      1  C   UNL     1      -5.292  37.777  23.697  1.00  0.00     0.000 C 
ENDROOT
BRANCH   1   2
ATOM      2  C   UNL     1      -5.771  38.962  22.841  1.00  0.00     0.000 C 
BRANCH   2   3
ATOM      3  C   UNL     1      -4.865  39.220  21.622  1.00  0.00     0.000 C 
BRANCH   3   4
ATOM      4  C   UNL     1      -4.181  37.941  21.109  1.00  0.00     0.000 C 
BRANCH   4   5
ATOM      5  C   UNL     1      -4.632  37.562  19.687  1.00  0.00     0.000 C 
BRANCH   5   6
ATOM      6  C   UNL     1      -5.978  36.819  19.676  1.00  0.00     0.000 C 
BRANCH   6   7
ATOM      7  C   UNL     1      -6.028  35.670  20.698  1.00  0.00     0.000 C 
BRANCH   7   8
ATOM      8  C   UNL     1      -6.102  34.285  20.036  1.00  0.00     0.000 C 
BRANCH   8   9
ATOM      9  C   UNL     1      -5.835  34.264  18.518  1.00  0.00     0.000 C 
BRANCH   9  10
ATOM     10  C   UNL     1      -4.350  34.080  18.140  1.00  0.00     0.000 C 
BRANCH  10  11
ATOM     11  C   UNL     1      -4.088  34.342  16.649  1.00  0.00     0.000 C 
BRANCH  11  12
ATOM     12  C   UNL     1      -4.346  35.814  16.290  1.00  0.00     0.006 C 
BRANCH  12  13
ATOM     13  C   UNL     1      -4.490  36.024  14.772  1.00  0.00     0.053 C 
BRANCH  13  14
ATOM     14  C   UNL     1      -3.590  37.108  14.249  1.00  0.00     0.041 C 
ATOM     15  O   UNL     1      -4.019  38.284  14.100  1.00  0.00    -0.550 OA
ATOM     16  O   UNL     1      -2.287  36.806  13.877  1.00  0.00    -0.550 OA
ENDBRANCH  13  14
ENDBRANCH  12  13
ENDBRANCH  11  12
ENDBRANCH  10  11
ENDBRANCH   9  10
ENDBRANCH   8   9
ENDBRANCH   7   8
ENDBRANCH   6   7
ENDBRANCH   5   6
ENDBRANCH   4   5
ENDBRANCH   3   4
ENDBRANCH   2   3
ENDBRANCH   1   2
BRANCH   1  17
ATOM     17  C   UNL     1      -6.030  36.448  23.438  1.00  0.00     0.000 C 
BRANCH  17  18
ATOM     18  C   UNL     1      -5.816  35.384  24.538  1.00  0.00     0.000 C 
BRANCH  18  19
ATOM     19  C   UNL     1      -5.244  35.949  25.851  1.00  0.00     0.000 C 
BRANCH  19  20
ATOM     20  C   UNL     1      -5.848  37.313  26.222  1.00  0.00     0.000 C 
BRANCH  20  21
ATOM     21  C   UNL     1      -4.806  38.196  26.924  1.00  0.00     0.000 C 
BRANCH  21  22
ATOM     22  C   UNL     1      -3.375  37.987  26.394  1.00  0.00    -0.000 C 
BRANCH  22  23
ATOM     23  C   UNL     1      -2.757  36.613  26.711  1.00  0.00    -0.000 C 
BRANCH  23  24
ATOM     24  C   UNL     1      -2.372  36.458  28.192  1.00  0.00    -0.000 C 
BRANCH  24  25
ATOM     25  C   UNL     1      -2.353  34.988  28.652  1.00  0.00    -0.000 C 
BRANCH  25  26
ATOM     26  C   UNL     1      -0.951  34.365  28.807  1.00  0.00    -0.000 C 
BRANCH  26  27
ATOM     27  C   UNL     1      -0.798  33.383  29.985  1.00  0.00    -0.000 C 
BRANCH  27  28
ATOM     28  C   UNL     1      -0.098  32.053  29.640  1.00  0.00    -0.000 C 
BRANCH  28  29
ATOM     29  C   UNL     1       1.438  32.129  29.577  1.00  0.00    -0.003 C 
ATOM     30  C   UNL     1       2.120  30.884  30.145  1.00  0.00     0.004 C 
ENDBRANCH  28  29
ENDBRANCH  27  28
ENDBRANCH  26  27
ENDBRANCH  25  26
ENDBRANCH  24  25
ENDBRANCH  23  24
ENDBRANCH  22  23
ENDBRANCH  21  22
ENDBRANCH  20  21
ENDBRANCH  19  20
ENDBRANCH  18  19
ENDBRANCH  17  18
ENDBRANCH   1  17
TORSDOF 26
ENDMDL
MODEL 7
REMARK VINA RESULT:    13.042      4.581     11.138
REMARK INTER + INTRA:          34.027
REMARK INTER:                  34.960
REMARK INTRA:                  -0.933
REMARK UNBOUND:                 1.161
REMARK SMILES CCCCCCCCCCCCCCCCCCCCCCCCCCCC(=O)[O-]
REMARK SMILES IDX 15 1 16 2 17 3 18 4 19 5 20 6 21 7 22 8 23 9 24 10 25 11
REMARK SMILES IDX 26 12 27 13 28 14 29 15 30 16 14 17 13 18 12 19 11 20 10 21
REMARK SMILES IDX 9 22 8 23 7 24 6 25 5 26 4 27 3 28 2 29 1 30
REMARK H PARENT
REMARK Flexibility Score: inf
ROOT
ATOM      1  C   UNL     1      -5.878  34.926  25.073  1.00  0.00     0.000 C 
ENDROOT
BRANCH   1   2
ATOM      2  C   UNL     1      -6.106  34.171  23.752  1.00  0.00     0.000 C 
BRANCH   2   3
ATOM      3  C   UNL     1      -4.807  33.970  22.950  1.00  0.00     0.000 C 
BRANCH   3   4
ATOM      4  C   UNL     1      -4.610  35.038  21.861  1.00  0.00     0.000 C 
BRANCH   4   5
ATOM      5  C   UNL     1      -5.563  36.235  22.030  1.00  0.00     0.000 C 
BRANCH   5   6
ATOM      6  C   UNL     1      -4.820  37.527  22.409  1.00  0.00     0.000 C 
BRANCH   6   7
ATOM      7  C   UNL     1      -4.910  38.604  21.314  1.00  0.00     0.000 C 
BRANCH   7   8
ATOM      8  C   UNL     1      -5.611  38.102  20.041  1.00  0.00     0.000 C 
BRANCH   8   9
ATOM      9  C   UNL     1      -4.719  37.311  19.064  1.00  0.00     0.000 C 
BRANCH   9  10
ATOM     10  C   UNL     1      -5.381  36.041  18.490  1.00  0.00     0.000 C 
BRANCH  10  11
ATOM     11  C   UNL     1      -4.359  35.072  17.877  1.00  0.00     0.000 C 
BRANCH  11  12
ATOM     12  C   UNL     1      -4.515  34.992  16.350  1.00  0.00     0.006 C 
BRANCH  12  13
ATOM     13  C   UNL     1      -3.176  35.191  15.618  1.00  0.00     0.053 C 
BRANCH  13  14
ATOM     14  C   UNL     1      -3.252  36.242  14.547  1.00  0.00     0.041 C 
ATOM     15  O   UNL     1      -2.232  36.550  13.875  1.00  0.00    -0.550 OA
ATOM     16  O   UNL     1      -4.444  36.919  14.326  1.00  0.00    -0.550 OA
ENDBRANCH  13  14
ENDBRANCH  12  13
ENDBRANCH  11  12
ENDBRANCH  10  11
ENDBRANCH   9  10
ENDBRANCH   8   9
ENDBRANCH   7   8
ENDBRANCH   6   7
ENDBRANCH   5   6
ENDBRANCH   4   5
ENDBRANCH   3   4
ENDBRANCH   2   3
ENDBRANCH   1   2
BRANCH   1  17
ATOM     17  C   UNL     1      -6.088  36.451  24.993  1.00  0.00     0.000 C 
BRANCH  17  18
ATOM     18  C   UNL     1      -6.055  37.163  26.365  1.00  0.00     0.000 C 
BRANCH  18  19
ATOM     19  C   UNL     1      -4.913  38.185  26.512  1.00  0.00     0.000 C 
BRANCH  19  20
ATOM     20  C   UNL     1      -3.607  37.714  25.851  1.00  0.00     0.000 C 
BRANCH  20  21
ATOM     21  C   UNL     1      -2.573  37.313  26.913  1.00  0.00     0.000 C 
BRANCH  21  22
ATOM     22  C   UNL     1      -2.696  35.843  27.356  1.00  0.00    -0.000 C 
BRANCH  22  23
ATOM     23  C   UNL     1      -1.623  35.371  28.354  1.00  0.00    -0.000 C 
BRANCH  23  24
ATOM     24  C   UNL     1      -1.880  33.949  28.880  1.00  0.00    -0.000 C 
BRANCH  24  25
ATOM     25  C   UNL     1      -1.181  33.676  30.225  1.00  0.00    -0.000 C 
BRANCH  25  26
ATOM     26  C   UNL     1       0.345  33.893  30.230  1.00  0.00    -0.000 C 
BRANCH  26  27
ATOM     27  C   UNL     1       1.136  32.995  29.259  1.00  0.00    -0.000 C 
BRANCH  27  28
ATOM     28  C   UNL     1       1.217  31.508  29.663  1.00  0.00    -0.000 C 
BRANCH  28  29
ATOM     29  C   UNL     1       2.476  31.123  30.461  1.00  0.00    -0.003 C 
ATOM     30  C   UNL     1       3.139  29.845  29.949  1.00  0.00     0.004 C 
ENDBRANCH  28  29
ENDBRANCH  27  28
ENDBRANCH  26  27
ENDBRANCH  25  26
ENDBRANCH  24  25
ENDBRANCH  23  24
ENDBRANCH  22  23
ENDBRANCH  21  22
ENDBRANCH  20  21
ENDBRANCH  19  20
ENDBRANCH  18  19
ENDBRANCH  17  18
ENDBRANCH   1  17
TORSDOF 26
ENDMDL
MODEL 8
REMARK VINA RESULT:    13.294      4.574     10.487
REMARK INTER + INTRA:          34.660
REMARK INTER:                  30.032
REMARK INTRA:                   4.628
REMARK UNBOUND:                 1.161
REMARK SMILES CCCCCCCCCCCCCCCCCCCCCCCCCCCC(=O)[O-]
REMARK SMILES IDX 15 1 16 2 17 3 18 4 19 5 20 6 21 7 22 8 23 9 24 10 25 11
REMARK SMILES IDX 26 12 27 13 28 14 29 15 30 16 14 17 13 18 12 19 11 20 10 21
REMARK SMILES IDX 9 22 8 23 7 24 6 25 5 26 4 27 3 28 2 29 1 30
REMARK H PARENT
REMARK Flexibility Score: inf
ROOT
ATOM      1  C   UNL     1      -3.924  33.901  22.979  1.00  0.00     0.000 C 
ENDROOT
BRANCH   1   2
ATOM      2  C   UNL     1      -3.167  34.521  21.793  1.00  0.00     0.000 C 
BRANCH   2   3
ATOM      3  C   UNL     1      -4.051  35.457  20.947  1.00  0.00     0.000 C 
BRANCH   3   4
ATOM      4  C   UNL     1      -4.960  36.352  21.806  1.00  0.00     0.000 C 
BRANCH   4   5
ATOM      5  C   UNL     1      -4.456  37.805  21.881  1.00  0.00     0.000 C 
BRANCH   5   6
ATOM      6  C   UNL     1      -5.446  38.803  21.258  1.00  0.00     0.000 C 
BRANCH   6   7
ATOM      7  C   UNL     1      -5.559  38.650  19.732  1.00  0.00     0.000 C 
BRANCH   7   8
ATOM      8  C   UNL     1      -4.717  37.485  19.185  1.00  0.00     0.000 C 
BRANCH   8   9
ATOM      9  C   UNL     1      -5.503  36.203  18.848  1.00  0.00     0.000 C 
BRANCH   9  10
ATOM     10  C   UNL     1      -4.624  34.946  18.689  1.00  0.00     0.000 C 
BRANCH  10  11
ATOM     11  C   UNL     1      -4.803  34.274  17.319  1.00  0.00     0.000 C 
BRANCH  11  12
ATOM     12  C   UNL     1      -4.743  35.307  16.182  1.00  0.00     0.006 C 
BRANCH  12  13
ATOM     13  C   UNL     1      -3.328  35.438  15.591  1.00  0.00     0.053 C 
BRANCH  13  14
ATOM     14  C   UNL     1      -3.246  36.473  14.505  1.00  0.00     0.041 C 
ATOM     15  O   UNL     1      -2.172  36.662  13.875  1.00  0.00    -0.550 OA
ATOM     16  O   UNL     1      -4.350  37.268  14.224  1.00  0.00    -0.550 OA
ENDBRANCH  13  14
ENDBRANCH  12  13
ENDBRANCH  11  12
ENDBRANCH  10  11
ENDBRANCH   9  10
ENDBRANCH   8   9
ENDBRANCH   7   8
ENDBRANCH   6   7
ENDBRANCH   5   6
ENDBRANCH   4   5
ENDBRANCH   3   4
ENDBRANCH   2   3
ENDBRANCH   1   2
BRANCH   1  17
ATOM     17  C   UNL     1      -5.406  34.313  23.092  1.00  0.00     0.000 C 
BRANCH  17  18
ATOM     18  C   UNL     1      -6.079  33.886  24.416  1.00  0.00     0.000 C 
BRANCH  18  19
ATOM     19  C   UNL     1      -5.489  34.565  25.665  1.00  0.00     0.000 C 
BRANCH  19  20
ATOM     20  C   UNL     1      -6.123  35.936  25.950  1.00  0.00     0.000 C 
BRANCH  20  21
ATOM     21  C   UNL     1      -5.953  36.874  24.747  1.00  0.00     0.000 C 
BRANCH  21  22
ATOM     22  C   UNL     1      -4.789  37.869  24.911  1.00  0.00    -0.000 C 
BRANCH  22  23
ATOM     23  C   UNL     1      -4.699  38.548  26.289  1.00  0.00    -0.000 C 
BRANCH  23  24
ATOM     24  C   UNL     1      -3.783  37.796  27.268  1.00  0.00    -0.000 C 
BRANCH  24  25
ATOM     25  C   UNL     1      -2.512  37.247  26.592  1.00  0.00    -0.000 C 
BRANCH  25  26
ATOM     26  C   UNL     1      -1.749  36.176  27.397  1.00  0.00    -0.000 C 
BRANCH  26  27
ATOM     27  C   UNL     1      -2.545  35.533  28.549  1.00  0.00    -0.000 C 
BRANCH  27  28
ATOM     28  C   UNL     1      -2.138  34.086  28.897  1.00  0.00    -0.000 C 
BRANCH  28  29
ATOM     29  C   UNL     1      -1.023  33.963  29.949  1.00  0.00    -0.003 C 
ATOM     30  C   UNL     1       0.319  33.542  29.350  1.00  0.00     0.004 C 
ENDBRANCH  28  29
ENDBRANCH  27  28
ENDBRANCH  26  27
ENDBRANCH  25  26
ENDBRANCH  24  25
ENDBRANCH  23  24
ENDBRANCH  22  23
ENDBRANCH  21  22
ENDBRANCH  20  21
ENDBRANCH  19  20
ENDBRANCH  18  19
ENDBRANCH  17  18
ENDBRANCH   1  17
TORSDOF 26
ENDMDL
