MODEL 1
REMARK VINA RESULT:    -8.554      0.000      0.000
REMARK INTER + INTRA:         -10.635
REMARK INTER:                 -10.305
REMARK INTRA:                  -0.330
REMARK UNBOUND:                -0.330
REMARK SMILES Oc1cc(O)c2cc(O)c(-c3ccc(O)c(O)c3)[o+]c2c1
REMARK SMILES IDX 10 1 19 2 20 3 21 4 2 5 3 6 4 7 6 8 7 9 8 10 11 11 12 12
REMARK SMILES IDX 13 13 14 14 18 15 16 16 15 17 17 19 9 21 1 23 5 25
REMARK H PARENT 15 18 17 20 9 22 1 24 5 26
REMARK Flexibility Score: inf
ROOT
ATOM      1  C   UNL     1      -2.747   0.058  10.234  1.00  0.00     0.402 A 
ATOM      2  O   UNL     1      -4.014  -0.257   9.979  1.00  0.00    -0.202 OA
ATOM      3  C   UNL     1      -4.733  -1.070  10.746  1.00  0.00     0.368 A 
ATOM      4  C   UNL     1      -6.057  -1.344  10.392  1.00  0.00     0.162 A 
ATOM      5  C   UNL     1      -6.835  -2.199  11.179  1.00  0.00     0.128 A 
ATOM      6  C   UNL     1      -6.286  -2.782  12.323  1.00  0.00     0.093 A 
ATOM      7  C   UNL     1      -4.962  -2.525  12.698  1.00  0.00     0.136 A 
ATOM      8  C   UNL     1      -4.169  -1.656  11.905  1.00  0.00     0.125 A 
ATOM      9  C   UNL     1      -2.837  -1.331  12.210  1.00  0.00     0.078 A 
ATOM     10  C   UNL     1      -2.120  -0.462  11.383  1.00  0.00     0.223 A 
ENDROOT
BRANCH   1  11
ATOM     11  C   UNL     1      -2.048   0.968   9.299  1.00  0.00     0.087 A 
ATOM     12  C   UNL     1      -1.482   0.496   8.102  1.00  0.00     0.022 A 
ATOM     13  C   UNL     1      -0.848   1.378   7.224  1.00  0.00     0.051 A 
ATOM     14  C   UNL     1      -0.783   2.746   7.521  1.00  0.00     0.157 A 
ATOM     15  C   UNL     1      -1.998   2.343   9.581  1.00  0.00     0.068 A 
ATOM     16  C   UNL     1      -1.364   3.230   8.704  1.00  0.00     0.158 A 
BRANCH  14  17
ATOM     17  O   UNL     1      -0.148   3.623   6.642  1.00  0.00    -0.504 OA
ATOM     18  H   UNL     1      -0.482   4.569   6.502  1.00  0.00     0.293 HD
ENDBRANCH  14  17
BRANCH  16  19
ATOM     19  O   UNL     1      -1.322   4.587   9.024  1.00  0.00    -0.504 OA
ATOM     20  H   UNL     1      -2.075   5.220   8.786  1.00  0.00     0.293 HD
ENDBRANCH  16  19
ENDBRANCH   1  11
BRANCH  10  21
ATOM     21  O   UNL     1      -0.814  -0.099  11.714  1.00  0.00    -0.500 OA
ATOM     22  H   UNL     1      -0.554   0.151  12.660  1.00  0.00     0.294 HD
ENDBRANCH  10  21
BRANCH   5  23
ATOM     23  O   UNL     1      -8.156  -2.474  10.833  1.00  0.00    -0.507 OA
ATOM     24  H   UNL     1      -8.778  -2.966  11.463  1.00  0.00     0.293 HD
ENDBRANCH   5  23
BRANCH   7  25
ATOM     25  O   UNL     1      -4.487  -3.151  13.854  1.00  0.00    -0.507 OA
ATOM     26  H   UNL     1      -3.605  -3.637  13.918  1.00  0.00     0.293 HD
ENDBRANCH   7  25
TORSDOF 6
ENDMDL
MODEL 2
REMARK VINA RESULT:    -8.477      1.888      2.783
REMARK INTER + INTRA:         -10.542
REMARK INTER:                 -10.189
REMARK INTRA:                  -0.353
REMARK UNBOUND:                -0.330
REMARK SMILES Oc1cc(O)c2cc(O)c(-c3ccc(O)c(O)c3)[o+]c2c1
REMARK SMILES IDX 10 1 19 2 20 3 21 4 2 5 3 6 4 7 6 8 7 9 8 10 11 11 12 12
REMARK SMILES IDX 13 13 14 14 18 15 16 16 15 17 17 19 9 21 1 23 5 25
REMARK H PARENT 15 18 17 20 9 22 1 24 5 26
REMARK Flexibility Score: inf
ROOT
ATOM      1  C   UNL     1      -2.902  -0.070   9.527  1.00  0.00     0.402 A 
ATOM      2  O   UNL     1      -3.018   0.363  10.779  1.00  0.00    -0.202 OA
ATOM      3  C   UNL     1      -3.478  -0.391  11.773  1.00  0.00     0.368 A 
ATOM      4  C   UNL     1      -3.567   0.156  13.056  1.00  0.00     0.162 A 
ATOM      5  C   UNL     1      -4.051  -0.615  14.118  1.00  0.00     0.128 A 
ATOM      6  C   UNL     1      -4.448  -1.935  13.896  1.00  0.00     0.093 A 
ATOM      7  C   UNL     1      -4.369  -2.505  12.620  1.00  0.00     0.136 A 
ATOM      8  C   UNL     1      -3.876  -1.729  11.538  1.00  0.00     0.125 A 
ATOM      9  C   UNL     1      -3.751  -2.222  10.229  1.00  0.00     0.078 A 
ATOM     10  C   UNL     1      -3.251  -1.398   9.215  1.00  0.00     0.223 A 
ENDROOT
BRANCH   1  11
ATOM     11  C   UNL     1      -2.385   0.868   8.506  1.00  0.00     0.087 A 
ATOM     12  C   UNL     1      -3.252   1.621   7.695  1.00  0.00     0.022 A 
ATOM     13  C   UNL     1      -2.740   2.518   6.755  1.00  0.00     0.051 A 
ATOM     14  C   UNL     1      -1.356   2.687   6.619  1.00  0.00     0.157 A 
ATOM     15  C   UNL     1      -0.998   1.057   8.380  1.00  0.00     0.068 A 
ATOM     16  C   UNL     1      -0.482   1.955   7.439  1.00  0.00     0.158 A 
BRANCH  14  17
ATOM     17  O   UNL     1      -0.848   3.582   5.678  1.00  0.00    -0.504 OA
ATOM     18  H   UNL     1      -1.328   3.763   4.804  1.00  0.00     0.293 HD
ENDBRANCH  14  17
BRANCH  16  19
ATOM     19  O   UNL     1       0.901   2.105   7.333  1.00  0.00    -0.504 OA
ATOM     20  H   UNL     1       1.430   1.702   6.570  1.00  0.00     0.293 HD
ENDBRANCH  16  19
ENDBRANCH   1  11
BRANCH  10  21
ATOM     21  O   UNL     1      -3.080  -1.902   7.926  1.00  0.00    -0.500 OA
ATOM     22  H   UNL     1      -3.812  -1.843   7.229  1.00  0.00     0.294 HD
ENDBRANCH  10  21
BRANCH   5  23
ATOM     23  O   UNL     1      -4.141  -0.076  15.400  1.00  0.00    -0.507 OA
ATOM     24  H   UNL     1      -4.936   0.481  15.686  1.00  0.00     0.293 HD
ENDBRANCH   5  23
BRANCH   7  25
ATOM     25  O   UNL     1      -4.790  -3.831  12.480  1.00  0.00    -0.507 OA
ATOM     26  H   UNL     1      -5.729  -4.109  12.236  1.00  0.00     0.293 HD
ENDBRANCH   7  25
TORSDOF 6
ENDMDL
MODEL 3
REMARK VINA RESULT:    -8.436      1.741      2.949
REMARK INTER + INTRA:         -10.492
REMARK INTER:                 -10.141
REMARK INTRA:                  -0.351
REMARK UNBOUND:                -0.330
REMARK SMILES Oc1cc(O)c2cc(O)c(-c3ccc(O)c(O)c3)[o+]c2c1
REMARK SMILES IDX 10 1 19 2 20 3 21 4 2 5 3 6 4 7 6 8 7 9 8 10 11 11 12 12
REMARK SMILES IDX 13 13 14 14 18 15 16 16 15 17 17 19 9 21 1 23 5 25
REMARK H PARENT 15 18 17 20 9 22 1 24 5 26
REMARK Flexibility Score: inf
ROOT
ATOM      1  C   UNL     1      -3.269   0.412   9.741  1.00  0.00     0.402 A 
ATOM      2  O   UNL     1      -2.652  -0.743   9.975  1.00  0.00    -0.202 OA
ATOM      3  C   UNL     1      -3.127  -1.672  10.798  1.00  0.00     0.368 A 
ATOM      4  C   UNL     1      -2.404  -2.853  10.981  1.00  0.00     0.162 A 
ATOM      5  C   UNL     1      -2.880  -3.845  11.845  1.00  0.00     0.128 A 
ATOM      6  C   UNL     1      -4.083  -3.654  12.528  1.00  0.00     0.093 A 
ATOM      7  C   UNL     1      -4.826  -2.479  12.362  1.00  0.00     0.136 A 
ATOM      8  C   UNL     1      -4.349  -1.470  11.485  1.00  0.00     0.125 A 
ATOM      9  C   UNL     1      -5.033  -0.266  11.248  1.00  0.00     0.078 A 
ATOM     10  C   UNL     1      -4.502   0.679  10.365  1.00  0.00     0.223 A 
ENDROOT
BRANCH   1  11
ATOM     11  C   UNL     1      -2.633   1.370   8.810  1.00  0.00     0.087 A 
ATOM     12  C   UNL     1      -1.710   2.329   9.261  1.00  0.00     0.022 A 
ATOM     13  C   UNL     1      -1.106   3.208   8.359  1.00  0.00     0.051 A 
ATOM     14  C   UNL     1      -1.403   3.133   6.992  1.00  0.00     0.157 A 
ATOM     15  C   UNL     1      -2.912   1.286   7.435  1.00  0.00     0.068 A 
ATOM     16  C   UNL     1      -2.308   2.164   6.529  1.00  0.00     0.158 A 
BRANCH  14  17
ATOM     17  O   UNL     1      -0.799   4.013   6.094  1.00  0.00    -0.504 OA
ATOM     18  H   UNL     1      -1.175   4.167   5.166  1.00  0.00     0.293 HD
ENDBRANCH  14  17
BRANCH  16  19
ATOM     19  O   UNL     1      -2.620   2.059   5.173  1.00  0.00    -0.504 OA
ATOM     20  H   UNL     1      -1.928   1.803   4.480  1.00  0.00     0.293 HD
ENDBRANCH  16  19
ENDBRANCH   1  11
BRANCH  10  21
ATOM     21  O   UNL     1      -5.206   1.852  10.091  1.00  0.00    -0.500 OA
ATOM     22  H   UNL     1      -4.749   2.756  10.077  1.00  0.00     0.294 HD
ENDBRANCH  10  21
BRANCH   5  23
ATOM     23  O   UNL     1      -2.164  -5.026  12.030  1.00  0.00    -0.507 OA
ATOM     24  H   UNL     1      -1.186  -5.099  11.777  1.00  0.00     0.293 HD
ENDBRANCH   5  23
BRANCH   7  25
ATOM     25  O   UNL     1      -6.016  -2.363  13.085  1.00  0.00    -0.507 OA
ATOM     26  H   UNL     1      -6.929  -2.595  12.722  1.00  0.00     0.293 HD
ENDBRANCH   7  25
TORSDOF 6
ENDMDL
MODEL 4
REMARK VINA RESULT:    -8.373      1.979      2.526
REMARK INTER + INTRA:         -10.417
REMARK INTER:                 -10.192
REMARK INTRA:                  -0.225
REMARK UNBOUND:                -0.330
REMARK SMILES Oc1cc(O)c2cc(O)c(-c3ccc(O)c(O)c3)[o+]c2c1
REMARK SMILES IDX 10 1 19 2 20 3 21 4 2 5 3 6 4 7 6 8 7 9 8 10 11 11 12 12
REMARK SMILES IDX 13 13 14 14 18 15 16 16 15 17 17 19 9 21 1 23 5 25
REMARK H PARENT 15 18 17 20 9 22 1 24 5 26
REMARK Flexibility Score: inf
ROOT
ATOM      1  C   UNL     1      -2.884   1.195  10.562  1.00  0.00     0.402 A 
ATOM      2  O   UNL     1      -3.293  -0.071  10.603  1.00  0.00    -0.202 OA
ATOM      3  C   UNL     1      -3.729  -0.662  11.711  1.00  0.00     0.368 A 
ATOM      4  C   UNL     1      -4.134  -1.998  11.655  1.00  0.00     0.162 A 
ATOM      5  C   UNL     1      -4.593  -2.644  12.806  1.00  0.00     0.128 A 
ATOM      6  C   UNL     1      -4.646  -1.953  14.018  1.00  0.00     0.093 A 
ATOM      7  C   UNL     1      -4.244  -0.614  14.101  1.00  0.00     0.136 A 
ATOM      8  C   UNL     1      -3.780   0.048  12.935  1.00  0.00     0.125 A 
ATOM      9  C   UNL     1      -3.369   1.391  12.922  1.00  0.00     0.078 A 
ATOM     10  C   UNL     1      -2.929   1.978  11.731  1.00  0.00     0.223 A 
ENDROOT
BRANCH   1  11
ATOM     11  C   UNL     1      -2.412   1.737   9.268  1.00  0.00     0.087 A 
ATOM     12  C   UNL     1      -1.083   2.159   9.091  1.00  0.00     0.022 A 
ATOM     13  C   UNL     1      -0.655   2.645   7.853  1.00  0.00     0.051 A 
ATOM     14  C   UNL     1      -1.543   2.704   6.771  1.00  0.00     0.157 A 
ATOM     15  C   UNL     1      -3.293   1.778   8.174  1.00  0.00     0.068 A 
ATOM     16  C   UNL     1      -2.867   2.265   6.933  1.00  0.00     0.158 A 
BRANCH  14  17
ATOM     17  O   UNL     1      -1.112   3.192   5.537  1.00  0.00    -0.504 OA
ATOM     18  H   UNL     1      -0.327   3.828   5.462  1.00  0.00     0.293 HD
ENDBRANCH  14  17
BRANCH  16  19
ATOM     19  O   UNL     1      -3.773   2.304   5.873  1.00  0.00    -0.504 OA
ATOM     20  H   UNL     1      -3.810   1.578   5.169  1.00  0.00     0.293 HD
ENDBRANCH  16  19
ENDBRANCH   1  11
BRANCH  10  21
ATOM     21  O   UNL     1      -2.569   3.325  11.706  1.00  0.00    -0.500 OA
ATOM     22  H   UNL     1      -2.156   3.781  12.511  1.00  0.00     0.294 HD
ENDBRANCH  10  21
BRANCH   5  23
ATOM     23  O   UNL     1      -5.001  -3.976  12.757  1.00  0.00    -0.507 OA
ATOM     24  H   UNL     1      -5.960  -4.244  12.941  1.00  0.00     0.293 HD
ENDBRANCH   5  23
BRANCH   7  25
ATOM     25  O   UNL     1      -4.323   0.006  15.352  1.00  0.00    -0.507 OA
ATOM     26  H   UNL     1      -4.305  -0.484  16.234  1.00  0.00     0.293 HD
ENDBRANCH   7  25
TORSDOF 6
ENDMDL
MODEL 5
REMARK VINA RESULT:    -8.358      1.364      3.088
REMARK INTER + INTRA:         -10.399
REMARK INTER:                 -10.155
REMARK INTRA:                  -0.244
REMARK UNBOUND:                -0.330
REMARK SMILES Oc1cc(O)c2cc(O)c(-c3ccc(O)c(O)c3)[o+]c2c1
REMARK SMILES IDX 10 1 19 2 20 3 21 4 2 5 3 6 4 7 6 8 7 9 8 10 11 11 12 12
REMARK SMILES IDX 13 13 14 14 18 15 16 16 15 17 17 19 9 21 1 23 5 25
REMARK H PARENT 15 18 17 20 9 22 1 24 5 26
REMARK Flexibility Score: inf
ROOT
ATOM      1  C   UNL     1      -3.880   0.336   9.067  1.00  0.00     0.402 A 
ATOM      2  O   UNL     1      -3.573  -0.148  10.268  1.00  0.00    -0.202 OA
ATOM      3  C   UNL     1      -4.397  -0.908  10.982  1.00  0.00     0.368 A 
ATOM      4  C   UNL     1      -3.985  -1.366  12.236  1.00  0.00     0.162 A 
ATOM      5  C   UNL     1      -4.834  -2.163  13.009  1.00  0.00     0.128 A 
ATOM      6  C   UNL     1      -6.100  -2.501  12.528  1.00  0.00     0.093 A 
ATOM      7  C   UNL     1      -6.538  -2.054  11.275  1.00  0.00     0.136 A 
ATOM      8  C   UNL     1      -5.678  -1.247  10.484  1.00  0.00     0.125 A 
ATOM      9  C   UNL     1      -6.027  -0.763   9.213  1.00  0.00     0.078 A 
ATOM     10  C   UNL     1      -5.125   0.023   8.490  1.00  0.00     0.223 A 
ENDROOT
BRANCH   1  11
ATOM     11  C   UNL     1      -2.879   1.178   8.374  1.00  0.00     0.087 A 
ATOM     12  C   UNL     1      -3.116   2.540   8.121  1.00  0.00     0.022 A 
ATOM     13  C   UNL     1      -2.146   3.320   7.486  1.00  0.00     0.051 A 
ATOM     14  C   UNL     1      -0.922   2.755   7.107  1.00  0.00     0.157 A 
ATOM     15  C   UNL     1      -1.641   0.622   8.011  1.00  0.00     0.068 A 
ATOM     16  C   UNL     1      -0.668   1.400   7.374  1.00  0.00     0.158 A 
BRANCH  14  17
ATOM     17  O   UNL     1       0.043   3.537   6.471  1.00  0.00    -0.504 OA
ATOM     18  H   UNL     1      -0.134   3.975   5.575  1.00  0.00     0.293 HD
ENDBRANCH  14  17
BRANCH  16  19
ATOM     19  O   UNL     1       0.544   0.810   7.015  1.00  0.00    -0.504 OA
ATOM     20  H   UNL     1       0.977   0.086   7.576  1.00  0.00     0.293 HD
ENDBRANCH  16  19
ENDBRANCH   1  11
BRANCH  10  21
ATOM     21  O   UNL     1      -5.451   0.461   7.206  1.00  0.00    -0.500 OA
ATOM     22  H   UNL     1      -6.321   0.942   7.013  1.00  0.00     0.294 HD
ENDBRANCH  10  21
BRANCH   5  23
ATOM     23  O   UNL     1      -4.428  -2.625  14.260  1.00  0.00    -0.507 OA
ATOM     24  H   UNL     1      -5.014  -2.520  15.079  1.00  0.00     0.293 HD
ENDBRANCH   5  23
BRANCH   7  25
ATOM     25  O   UNL     1      -7.820  -2.432  10.867  1.00  0.00    -0.507 OA
ATOM     26  H   UNL     1      -8.674  -2.083  11.275  1.00  0.00     0.293 HD
ENDBRANCH   7  25
TORSDOF 6
ENDMDL
MODEL 6
REMARK VINA RESULT:    -8.278      1.753      2.377
REMARK INTER + INTRA:         -10.302
REMARK INTER:                 -10.017
REMARK INTRA:                  -0.285
REMARK UNBOUND:                -0.330
REMARK SMILES Oc1cc(O)c2cc(O)c(-c3ccc(O)c(O)c3)[o+]c2c1
REMARK SMILES IDX 10 1 19 2 20 3 21 4 2 5 3 6 4 7 6 8 7 9 8 10 11 11 12 12
REMARK SMILES IDX 13 13 14 14 18 15 16 16 15 17 17 19 9 21 1 23 5 25
REMARK H PARENT 15 18 17 20 9 22 1 24 5 26
REMARK Flexibility Score: inf
ROOT
ATOM      1  C   UNL     1      -2.258  -0.385   9.731  1.00  0.00     0.402 A 
ATOM      2  O   UNL     1      -3.340  -0.507  10.497  1.00  0.00    -0.202 OA
ATOM      3  C   UNL     1      -3.608  -1.594  11.214  1.00  0.00     0.368 A 
ATOM      4  C   UNL     1      -4.773  -1.628  11.985  1.00  0.00     0.162 A 
ATOM      5  C   UNL     1      -5.081  -2.761  12.746  1.00  0.00     0.128 A 
ATOM      6  C   UNL     1      -4.222  -3.862  12.733  1.00  0.00     0.093 A 
ATOM      7  C   UNL     1      -3.050  -3.852  11.967  1.00  0.00     0.136 A 
ATOM      8  C   UNL     1      -2.731  -2.704  11.196  1.00  0.00     0.125 A 
ATOM      9  C   UNL     1      -1.572  -2.601  10.409  1.00  0.00     0.078 A 
ATOM     10  C   UNL     1      -1.322  -1.435   9.680  1.00  0.00     0.223 A 
ENDROOT
BRANCH   1  11
ATOM     11  C   UNL     1      -2.075   0.873   8.973  1.00  0.00     0.087 A 
ATOM     12  C   UNL     1      -1.656   2.056   9.605  1.00  0.00     0.022 A 
ATOM     13  C   UNL     1      -1.468   3.225   8.864  1.00  0.00     0.051 A 
ATOM     14  C   UNL     1      -1.682   3.226   7.479  1.00  0.00     0.157 A 
ATOM     15  C   UNL     1      -2.268   0.874   7.581  1.00  0.00     0.068 A 
ATOM     16  C   UNL     1      -2.080   2.044   6.835  1.00  0.00     0.158 A 
BRANCH  14  17
ATOM     17  O   UNL     1      -1.494   4.396   6.742  1.00  0.00    -0.504 OA
ATOM     18  H   UNL     1      -1.994   5.249   6.963  1.00  0.00     0.293 HD
ENDBRANCH  14  17
BRANCH  16  19
ATOM     19  O   UNL     1      -2.295   2.010   5.458  1.00  0.00    -0.504 OA
ATOM     20  H   UNL     1      -2.569   1.163   4.976  1.00  0.00     0.293 HD
ENDBRANCH  16  19
ENDBRANCH   1  11
BRANCH  10  21
ATOM     21  O   UNL     1      -0.147  -1.312   8.938  1.00  0.00    -0.500 OA
ATOM     22  H   UNL     1       0.039  -0.498   8.366  1.00  0.00     0.294 HD
ENDBRANCH  10  21
BRANCH   5  23
ATOM     23  O   UNL     1      -6.240  -2.801  13.518  1.00  0.00    -0.507 OA
ATOM     24  H   UNL     1      -6.918  -2.049  13.497  1.00  0.00     0.293 HD
ENDBRANCH   5  23
BRANCH   7  25
ATOM     25  O   UNL     1      -2.247  -4.995  12.006  1.00  0.00    -0.507 OA
ATOM     26  H   UNL     1      -2.582  -5.934  11.849  1.00  0.00     0.293 HD
ENDBRANCH   7  25
TORSDOF 6
ENDMDL
MODEL 7
REMARK VINA RESULT:    -8.232      1.934      7.045
REMARK INTER + INTRA:         -10.246
REMARK INTER:                 -10.059
REMARK INTRA:                  -0.188
REMARK UNBOUND:                -0.330
REMARK SMILES Oc1cc(O)c2cc(O)c(-c3ccc(O)c(O)c3)[o+]c2c1
REMARK SMILES IDX 10 1 19 2 20 3 21 4 2 5 3 6 4 7 6 8 7 9 8 10 11 11 12 12
REMARK SMILES IDX 13 13 14 14 18 15 16 16 15 17 17 19 9 21 1 23 5 25
REMARK H PARENT 15 18 17 20 9 22 1 24 5 26
REMARK Flexibility Score: inf
ROOT
ATOM      1  C   UNL     1      -4.127   0.054  10.223  1.00  0.00     0.402 A 
ATOM      2  O   UNL     1      -2.860   0.393  10.001  1.00  0.00    -0.202 OA
ATOM      3  C   UNL     1      -2.457   1.037   8.911  1.00  0.00     0.368 A 
ATOM      4  C   UNL     1      -1.102   1.347   8.766  1.00  0.00     0.162 A 
ATOM      5  C   UNL     1      -0.650   2.020   7.627  1.00  0.00     0.128 A 
ATOM      6  C   UNL     1      -1.557   2.384   6.629  1.00  0.00     0.093 A 
ATOM      7  C   UNL     1      -2.919   2.084   6.749  1.00  0.00     0.136 A 
ATOM      8  C   UNL     1      -3.383   1.403   7.905  1.00  0.00     0.125 A 
ATOM      9  C   UNL     1      -4.732   1.072   8.116  1.00  0.00     0.078 A 
ATOM     10  C   UNL     1      -5.115   0.404   9.284  1.00  0.00     0.223 A 
ENDROOT
BRANCH   1  11
ATOM     11  C   UNL     1      -4.450  -0.671  11.473  1.00  0.00     0.087 A 
ATOM     12  C   UNL     1      -5.028  -1.952  11.450  1.00  0.00     0.022 A 
ATOM     13  C   UNL     1      -5.302  -2.625  12.643  1.00  0.00     0.051 A 
ATOM     14  C   UNL     1      -4.991  -2.035  13.875  1.00  0.00     0.157 A 
ATOM     15  C   UNL     1      -4.121  -0.093  12.711  1.00  0.00     0.068 A 
ATOM     16  C   UNL     1      -4.395  -0.764  13.908  1.00  0.00     0.158 A 
BRANCH  14  17
ATOM     17  O   UNL     1      -5.268  -2.710  15.064  1.00  0.00    -0.504 OA
ATOM     18  H   UNL     1      -4.661  -2.634  15.872  1.00  0.00     0.293 HD
ENDBRANCH  14  17
BRANCH  16  19
ATOM     19  O   UNL     1      -4.067  -0.153  15.118  1.00  0.00    -0.504 OA
ATOM     20  H   UNL     1      -4.588   0.635  15.482  1.00  0.00     0.293 HD
ENDBRANCH  16  19
ENDBRANCH   1  11
BRANCH  10  21
ATOM     21  O   UNL     1      -6.461   0.121   9.518  1.00  0.00    -0.500 OA
ATOM     22  H   UNL     1      -7.167   0.264   8.806  1.00  0.00     0.294 HD
ENDBRANCH  10  21
BRANCH   5  23
ATOM     23  O   UNL     1       0.699   2.334   7.478  1.00  0.00    -0.507 OA
ATOM     24  H   UNL     1       0.997   3.221   7.090  1.00  0.00     0.293 HD
ENDBRANCH   5  23
BRANCH   7  25
ATOM     25  O   UNL     1      -3.760   2.477   5.705  1.00  0.00    -0.507 OA
ATOM     26  H   UNL     1      -4.615   2.999   5.827  1.00  0.00     0.293 HD
ENDBRANCH   7  25
TORSDOF 6
ENDMDL
MODEL 8
REMARK VINA RESULT:    -8.220      1.906      6.823
REMARK INTER + INTRA:         -10.233
REMARK INTER:                 -10.021
REMARK INTRA:                  -0.212
REMARK UNBOUND:                -0.330
REMARK SMILES Oc1cc(O)c2cc(O)c(-c3ccc(O)c(O)c3)[o+]c2c1
REMARK SMILES IDX 10 1 19 2 20 3 21 4 2 5 3 6 4 7 6 8 7 9 8 10 11 11 12 12
REMARK SMILES IDX 13 13 14 14 18 15 16 16 15 17 17 19 9 21 1 23 5 25
REMARK H PARENT 15 18 17 20 9 22 1 24 5 26
REMARK Flexibility Score: inf
ROOT
ATOM      1  C   UNL     1      -2.818   0.063  10.974  1.00  0.00     0.402 A 
ATOM      2  O   UNL     1      -2.867   0.079   9.645  1.00  0.00    -0.202 OA
ATOM      3  C   UNL     1      -2.509   1.130   8.913  1.00  0.00     0.368 A 
ATOM      4  C   UNL     1      -2.600   1.051   7.521  1.00  0.00     0.162 A 
ATOM      5  C   UNL     1      -2.234   2.143   6.728  1.00  0.00     0.128 A 
ATOM      6  C   UNL     1      -1.777   3.317   7.330  1.00  0.00     0.093 A 
ATOM      7  C   UNL     1      -1.677   3.422   8.723  1.00  0.00     0.136 A 
ATOM      8  C   UNL     1      -2.045   2.315   9.532  1.00  0.00     0.125 A 
ATOM      9  C   UNL     1      -1.967   2.325  10.934  1.00  0.00     0.078 A 
ATOM     10  C   UNL     1      -2.342   1.193  11.665  1.00  0.00     0.223 A 
ENDROOT
BRANCH   1  11
ATOM     11  C   UNL     1      -3.252  -1.165  11.677  1.00  0.00     0.087 A 
ATOM     12  C   UNL     1      -4.350  -1.159  12.555  1.00  0.00     0.022 A 
ATOM     13  C   UNL     1      -4.755  -2.335  13.188  1.00  0.00     0.051 A 
ATOM     14  C   UNL     1      -4.080  -3.538  12.945  1.00  0.00     0.157 A 
ATOM     15  C   UNL     1      -2.592  -2.378  11.420  1.00  0.00     0.068 A 
ATOM     16  C   UNL     1      -2.995  -3.559  12.053  1.00  0.00     0.158 A 
BRANCH  14  17
ATOM     17  O   UNL     1      -4.487  -4.711  13.580  1.00  0.00    -0.504 OA
ATOM     18  H   UNL     1      -4.068  -5.607  13.361  1.00  0.00     0.293 HD
ENDBRANCH  14  17
BRANCH  16  19
ATOM     19  O   UNL     1      -2.306  -4.742  11.784  1.00  0.00    -0.504 OA
ATOM     20  H   UNL     1      -1.397  -4.938  12.182  1.00  0.00     0.293 HD
ENDBRANCH  16  19
ENDBRANCH   1  11
BRANCH  10  21
ATOM     21  O   UNL     1      -2.217   1.185  13.055  1.00  0.00    -0.500 OA
ATOM     22  H   UNL     1      -2.978   1.465  13.660  1.00  0.00     0.294 HD
ENDBRANCH  10  21
BRANCH   5  23
ATOM     23  O   UNL     1      -2.321   2.071   5.339  1.00  0.00    -0.507 OA
ATOM     24  H   UNL     1      -2.477   2.897   4.774  1.00  0.00     0.293 HD
ENDBRANCH   5  23
BRANCH   7  25
ATOM     25  O   UNL     1      -1.215   4.632   9.247  1.00  0.00    -0.507 OA
ATOM     26  H   UNL     1      -0.654   4.715  10.081  1.00  0.00     0.293 HD
ENDBRANCH   7  25
TORSDOF 6
ENDMDL
MODEL 9
REMARK VINA RESULT:    -8.057      1.382      6.955
REMARK INTER + INTRA:         -10.036
REMARK INTER:                  -9.795
REMARK INTRA:                  -0.241
REMARK UNBOUND:                -0.330
REMARK SMILES Oc1cc(O)c2cc(O)c(-c3ccc(O)c(O)c3)[o+]c2c1
REMARK SMILES IDX 10 1 19 2 20 3 21 4 2 5 3 6 4 7 6 8 7 9 8 10 11 11 12 12
REMARK SMILES IDX 13 13 14 14 18 15 16 16 15 17 17 19 9 21 1 23 5 25
REMARK H PARENT 15 18 17 20 9 22 1 24 5 26
REMARK Flexibility Score: inf
ROOT
ATOM      1  C   UNL     1      -3.080  -0.868   9.919  1.00  0.00     0.402 A 
ATOM      2  O   UNL     1      -3.221   0.447   9.777  1.00  0.00    -0.202 OA
ATOM      3  C   UNL     1      -2.415   1.191   9.026  1.00  0.00     0.368 A 
ATOM      4  C   UNL     1      -2.642   2.567   8.942  1.00  0.00     0.162 A 
ATOM      5  C   UNL     1      -1.808   3.374   8.162  1.00  0.00     0.128 A 
ATOM      6  C   UNL     1      -0.742   2.801   7.464  1.00  0.00     0.093 A 
ATOM      7  C   UNL     1      -0.493   1.425   7.532  1.00  0.00     0.136 A 
ATOM      8  C   UNL     1      -1.339   0.602   8.320  1.00  0.00     0.125 A 
ATOM      9  C   UNL     1      -1.172  -0.788   8.437  1.00  0.00     0.078 A 
ATOM     10  C   UNL     1      -2.050  -1.535   9.229  1.00  0.00     0.223 A 
ENDROOT
BRANCH   1  11
ATOM     11  C   UNL     1      -4.037  -1.585  10.791  1.00  0.00     0.087 A 
ATOM     12  C   UNL     1      -3.621  -2.205  11.982  1.00  0.00     0.022 A 
ATOM     13  C   UNL     1      -4.546  -2.856  12.801  1.00  0.00     0.051 A 
ATOM     14  C   UNL     1      -5.902  -2.886  12.450  1.00  0.00     0.157 A 
ATOM     15  C   UNL     1      -5.401  -1.600  10.455  1.00  0.00     0.068 A 
ATOM     16  C   UNL     1      -6.331  -2.252  11.273  1.00  0.00     0.158 A 
BRANCH  14  17
ATOM     17  O   UNL     1      -6.823  -3.538  13.270  1.00  0.00    -0.504 OA
ATOM     18  H   UNL     1      -7.089  -3.164  14.173  1.00  0.00     0.293 HD
ENDBRANCH  14  17
BRANCH  16  19
ATOM     19  O   UNL     1      -7.675  -2.257  10.900  1.00  0.00    -0.504 OA
ATOM     20  H   UNL     1      -8.114  -1.460  10.457  1.00  0.00     0.293 HD
ENDBRANCH  16  19
ENDBRANCH   1  11
BRANCH  10  21
ATOM     21  O   UNL     1      -1.916  -2.921   9.305  1.00  0.00    -0.500 OA
ATOM     22  H   UNL     1      -1.267  -3.426   8.714  1.00  0.00     0.294 HD
ENDBRANCH  10  21
BRANCH   5  23
ATOM     23  O   UNL     1      -2.030   4.746   8.074  1.00  0.00    -0.507 OA
ATOM     24  H   UNL     1      -1.821   5.264   7.228  1.00  0.00     0.293 HD
ENDBRANCH   5  23
BRANCH   7  25
ATOM     25  O   UNL     1       0.595   0.932   6.808  1.00  0.00    -0.507 OA
ATOM     26  H   UNL     1       1.261   0.262   7.163  1.00  0.00     0.293 HD
ENDBRANCH   7  25
TORSDOF 6
ENDMDL
