MODEL 1
REMARK VINA RESULT:    -4.144      0.000      0.000
REMARK INTER + INTRA:          -5.745
REMARK INTER:                  -5.598
REMARK INTRA:                  -0.147
REMARK UNBOUND:                -0.147
REMARK SMILES CCCCCCC=CC(=O)[O-]
REMARK SMILES IDX 5 1 6 2 7 3 8 4 9 5 10 6 11 7 4 8 3 9 2 10 1 11
REMARK H PARENT
REMARK Flexibility Score: inf
ROOT
ATOM      1  C   UNL     1      36.759  73.215  74.064  1.00  0.00     0.004 C 
ENDROOT
BRANCH   1   2
ATOM      2  C   UNL     1      36.681  71.719  74.422  1.00  0.00     0.027 C 
BRANCH   2   3
ATOM      3  C   UNL     1      37.079  71.443  75.849  1.00  0.00    -0.025 C 
ATOM      4  C   UNL     1      37.094  70.240  76.446  1.00  0.00     0.020 C 
BRANCH   4   5
ATOM      5  C   UNL     1      36.783  68.938  75.819  1.00  0.00     0.064 C 
ATOM      6  O   UNL     1      35.784  68.778  75.073  1.00  0.00    -0.545 OA
ATOM      7  O   UNL     1      37.640  67.867  76.036  1.00  0.00    -0.545 OA
ENDBRANCH   4   5
ENDBRANCH   2   3
ENDBRANCH   1   2
BRANCH   1   8
ATOM      8  C   UNL     1      37.172  73.493  72.606  1.00  0.00     0.000 C 
BRANCH   8   9
ATOM      9  C   UNL     1      38.541  74.179  72.494  1.00  0.00    -0.000 C 
BRANCH   9  10
ATOM     10  C   UNL     1      39.098  74.520  73.881  1.00  0.00    -0.003 C 
ATOM     11  C   UNL     1      40.396  75.315  73.775  1.00  0.00     0.004 C 
ENDBRANCH   9  10
ENDBRANCH   8   9
ENDBRANCH   1   8
TORSDOF 6
ENDMDL
MODEL 2
REMARK VINA RESULT:    -3.706      1.021      2.237
REMARK INTER + INTRA:          -5.153
REMARK INTER:                  -5.101
REMARK INTRA:                  -0.052
REMARK UNBOUND:                -0.147
REMARK SMILES CCCCCCC=CC(=O)[O-]
REMARK SMILES IDX 5 1 6 2 7 3 8 4 9 5 10 6 11 7 4 8 3 9 2 10 1 11
REMARK H PARENT
REMARK Flexibility Score: inf
ROOT
ATOM      1  C   UNL     1      36.729  73.270  74.002  1.00  0.00     0.004 C 
ENDROOT
BRANCH   1   2
ATOM      2  C   UNL     1      36.670  71.776  74.369  1.00  0.00     0.027 C 
BRANCH   2   3
ATOM      3  C   UNL     1      37.056  71.515  75.802  1.00  0.00    -0.025 C 
ATOM      4  C   UNL     1      37.054  70.320  76.416  1.00  0.00     0.020 C 
BRANCH   4   5
ATOM      5  C   UNL     1      36.731  69.014  75.806  1.00  0.00     0.064 C 
ATOM      6  O   UNL     1      37.405  67.979  76.042  1.00  0.00    -0.545 OA
ATOM      7  O   UNL     1      35.626  68.919  74.969  1.00  0.00    -0.545 OA
ENDBRANCH   4   5
ENDBRANCH   2   3
ENDBRANCH   1   2
BRANCH   1   8
ATOM      8  C   UNL     1      38.121  73.756  73.558  1.00  0.00     0.000 C 
BRANCH   8   9
ATOM      9  C   UNL     1      38.232  73.943  72.038  1.00  0.00    -0.000 C 
BRANCH   9  10
ATOM     10  C   UNL     1      37.010  73.354  71.323  1.00  0.00    -0.003 C 
ATOM     11  C   UNL     1      37.420  72.281  70.320  1.00  0.00     0.004 C 
ENDBRANCH   9  10
ENDBRANCH   8   9
ENDBRANCH   1   8
TORSDOF 6
ENDMDL
MODEL 3
REMARK VINA RESULT:    -3.626      3.406      5.996
REMARK INTER + INTRA:          -5.046
REMARK INTER:                  -5.286
REMARK INTRA:                   0.240
REMARK UNBOUND:                -0.147
REMARK SMILES CCCCCCC=CC(=O)[O-]
REMARK SMILES IDX 5 1 6 2 7 3 8 4 9 5 10 6 11 7 4 8 3 9 2 10 1 11
REMARK H PARENT
REMARK Flexibility Score: inf
ROOT
ATOM      1  C   UNL     1      37.311  72.201  74.753  1.00  0.00     0.004 C 
ENDROOT
BRANCH   1   2
ATOM      2  C   UNL     1      36.719  73.396  73.983  1.00  0.00     0.027 C 
BRANCH   2   3
ATOM      3  C   UNL     1      37.157  73.432  72.542  1.00  0.00    -0.025 C 
ATOM      4  C   UNL     1      38.247  74.055  72.063  1.00  0.00     0.020 C 
BRANCH   4   5
ATOM      5  C   UNL     1      39.268  74.780  72.848  1.00  0.00     0.064 C 
ATOM      6  O   UNL     1      39.399  74.615  74.088  1.00  0.00    -0.545 OA
ATOM      7  O   UNL     1      40.130  75.646  72.189  1.00  0.00    -0.545 OA
ENDBRANCH   4   5
ENDBRANCH   2   3
ENDBRANCH   1   2
BRANCH   1   8
ATOM      8  C   UNL     1      36.267  71.359  75.510  1.00  0.00     0.000 C 
BRANCH   8   9
ATOM      9  C   UNL     1      36.878  70.136  76.209  1.00  0.00    -0.000 C 
BRANCH   9  10
ATOM     10  C   UNL     1      36.390  68.835  75.562  1.00  0.00    -0.003 C 
ATOM     11  C   UNL     1      37.300  67.664  75.921  1.00  0.00     0.004 C 
ENDBRANCH   9  10
ENDBRANCH   8   9
ENDBRANCH   1   8
TORSDOF 6
ENDMDL
MODEL 4
REMARK VINA RESULT:    -3.557     12.747     14.195
REMARK INTER + INTRA:          -4.952
REMARK INTER:                  -4.351
REMARK INTRA:                  -0.600
REMARK UNBOUND:                -0.147
REMARK SMILES CCCCCCC=CC(=O)[O-]
REMARK SMILES IDX 5 1 6 2 7 3 8 4 9 5 10 6 11 7 4 8 3 9 2 10 1 11
REMARK H PARENT
REMARK Flexibility Score: inf
ROOT
ATOM      1  C   UNL     1      25.850  65.751  74.575  1.00  0.00     0.004 C 
ENDROOT
BRANCH   1   2
ATOM      2  C   UNL     1      25.835  64.256  74.946  1.00  0.00     0.027 C 
BRANCH   2   3
ATOM      3  C   UNL     1      25.086  63.983  76.224  1.00  0.00    -0.025 C 
ATOM      4  C   UNL     1      25.281  62.938  77.046  1.00  0.00     0.020 C 
BRANCH   4   5
ATOM      5  C   UNL     1      26.300  61.878  76.902  1.00  0.00     0.064 C 
ATOM      6  O   UNL     1      27.298  61.802  77.662  1.00  0.00    -0.545 OA
ATOM      7  O   UNL     1      26.131  60.916  75.914  1.00  0.00    -0.545 OA
ENDBRANCH   4   5
ENDBRANCH   2   3
ENDBRANCH   1   2
BRANCH   1   8
ATOM      8  C   UNL     1      26.579  66.646  75.595  1.00  0.00     0.000 C 
BRANCH   8   9
ATOM      9  C   UNL     1      25.778  67.902  75.967  1.00  0.00    -0.000 C 
BRANCH   9  10
ATOM     10  C   UNL     1      24.281  67.586  76.071  1.00  0.00    -0.003 C 
ATOM     11  C   UNL     1      23.875  67.300  77.513  1.00  0.00     0.004 C 
ENDBRANCH   9  10
ENDBRANCH   8   9
ENDBRANCH   1   8
TORSDOF 6
ENDMDL
MODEL 5
REMARK VINA RESULT:    -3.504     12.788     14.123
REMARK INTER + INTRA:          -4.880
REMARK INTER:                  -4.586
REMARK INTRA:                  -0.295
REMARK UNBOUND:                -0.147
REMARK SMILES CCCCCCC=CC(=O)[O-]
REMARK SMILES IDX 5 1 6 2 7 3 8 4 9 5 10 6 11 7 4 8 3 9 2 10 1 11
REMARK H PARENT
REMARK Flexibility Score: inf
ROOT
ATOM      1  C   UNL     1      25.481  64.783  75.851  1.00  0.00     0.004 C 
ENDROOT
BRANCH   1   2
ATOM      2  C   UNL     1      26.122  63.402  76.083  1.00  0.00     0.027 C 
BRANCH   2   3
ATOM      3  C   UNL     1      25.375  62.578  77.099  1.00  0.00    -0.025 C 
ATOM      4  C   UNL     1      25.914  61.679  77.940  1.00  0.00     0.020 C 
BRANCH   4   5
ATOM      5  C   UNL     1      27.349  61.354  78.083  1.00  0.00     0.064 C 
ATOM      6  O   UNL     1      28.019  61.713  79.085  1.00  0.00    -0.545 OA
ATOM      7  O   UNL     1      27.967  60.600  77.095  1.00  0.00    -0.545 OA
ENDBRANCH   4   5
ENDBRANCH   2   3
ENDBRANCH   1   2
BRANCH   1   8
ATOM      8  C   UNL     1      26.430  65.821  75.222  1.00  0.00     0.000 C 
BRANCH   8   9
ATOM      9  C   UNL     1      26.214  67.237  75.773  1.00  0.00    -0.000 C 
BRANCH   9  10
ATOM     10  C   UNL     1      24.902  67.325  76.562  1.00  0.00    -0.003 C 
ATOM     11  C   UNL     1      24.191  68.650  76.308  1.00  0.00     0.004 C 
ENDBRANCH   9  10
ENDBRANCH   8   9
ENDBRANCH   1   8
TORSDOF 6
ENDMDL
MODEL 6
REMARK VINA RESULT:    -3.445     12.913     14.773
REMARK INTER + INTRA:          -4.801
REMARK INTER:                  -4.524
REMARK INTRA:                  -0.277
REMARK UNBOUND:                -0.147
REMARK SMILES CCCCCCC=CC(=O)[O-]
REMARK SMILES IDX 5 1 6 2 7 3 8 4 9 5 10 6 11 7 4 8 3 9 2 10 1 11
REMARK H PARENT
REMARK Flexibility Score: inf
ROOT
ATOM      1  C   UNL     1      25.218  64.065  76.426  1.00  0.00     0.004 C 
ENDROOT
BRANCH   1   2
ATOM      2  C   UNL     1      25.297  65.042  75.238  1.00  0.00     0.027 C 
BRANCH   2   3
ATOM      3  C   UNL     1      26.380  66.076  75.408  1.00  0.00    -0.025 C 
ATOM      4  C   UNL     1      26.208  67.336  75.841  1.00  0.00     0.020 C 
BRANCH   4   5
ATOM      5  C   UNL     1      24.943  67.951  76.291  1.00  0.00     0.064 C 
ATOM      6  O   UNL     1      24.422  67.673  77.402  1.00  0.00    -0.545 OA
ATOM      7  O   UNL     1      24.326  68.891  75.476  1.00  0.00    -0.545 OA
ENDBRANCH   4   5
ENDBRANCH   2   3
ENDBRANCH   1   2
BRANCH   1   8
ATOM      8  C   UNL     1      26.139  62.838  76.295  1.00  0.00     0.000 C 
BRANCH   8   9
ATOM      9  C   UNL     1      26.254  62.036  77.599  1.00  0.00    -0.000 C 
BRANCH   9  10
ATOM     10  C   UNL     1      27.247  60.878  77.445  1.00  0.00    -0.003 C 
ATOM     11  C   UNL     1      28.492  61.099  78.299  1.00  0.00     0.004 C 
ENDBRANCH   9  10
ENDBRANCH   8   9
ENDBRANCH   1   8
TORSDOF 6
ENDMDL
MODEL 7
REMARK VINA RESULT:    -3.414     17.601     19.376
REMARK INTER + INTRA:          -4.758
REMARK INTER:                  -4.431
REMARK INTRA:                  -0.327
REMARK UNBOUND:                -0.147
REMARK SMILES CCCCCCC=CC(=O)[O-]
REMARK SMILES IDX 5 1 6 2 7 3 8 4 9 5 10 6 11 7 4 8 3 9 2 10 1 11
REMARK H PARENT
REMARK Flexibility Score: inf
ROOT
ATOM      1  C   UNL     1      30.170  57.404  85.987  1.00  0.00     0.004 C 
ENDROOT
BRANCH   1   2
ATOM      2  C   UNL     1      29.570  58.792  86.283  1.00  0.00     0.027 C 
BRANCH   2   3
ATOM      3  C   UNL     1      28.396  58.727  87.224  1.00  0.00    -0.025 C 
ATOM      4  C   UNL     1      27.616  59.759  87.586  1.00  0.00     0.020 C 
BRANCH   4   5
ATOM      5  C   UNL     1      27.708  61.150  87.097  1.00  0.00     0.064 C 
ATOM      6  O   UNL     1      28.273  62.057  87.760  1.00  0.00    -0.545 OA
ATOM      7  O   UNL     1      27.182  61.459  85.849  1.00  0.00    -0.545 OA
ENDBRANCH   4   5
ENDBRANCH   2   3
ENDBRANCH   1   2
BRANCH   1   8
ATOM      8  C   UNL     1      31.709  57.361  86.030  1.00  0.00     0.000 C 
BRANCH   8   9
ATOM      9  C   UNL     1      32.333  56.955  84.687  1.00  0.00    -0.000 C 
BRANCH   9  10
ATOM     10  C   UNL     1      31.316  57.090  83.547  1.00  0.00    -0.003 C 
ATOM     11  C   UNL     1      31.953  57.715  82.310  1.00  0.00     0.004 C 
ENDBRANCH   9  10
ENDBRANCH   8   9
ENDBRANCH   1   8
TORSDOF 6
ENDMDL
MODEL 8
REMARK VINA RESULT:    -3.402     17.158     19.007
REMARK INTER + INTRA:          -4.743
REMARK INTER:                  -4.457
REMARK INTRA:                  -0.286
REMARK UNBOUND:                -0.147
REMARK SMILES CCCCCCC=CC(=O)[O-]
REMARK SMILES IDX 5 1 6 2 7 3 8 4 9 5 10 6 11 7 4 8 3 9 2 10 1 11
REMARK H PARENT
REMARK Flexibility Score: inf
ROOT
ATOM      1  C   UNL     1      29.987  57.050  85.900  1.00  0.00     0.004 C 
ENDROOT
BRANCH   1   2
ATOM      2  C   UNL     1      31.073  57.939  85.265  1.00  0.00     0.027 C 
BRANCH   2   3
ATOM      3  C   UNL     1      32.228  57.142  84.718  1.00  0.00    -0.025 C 
ATOM      4  C   UNL     1      32.552  57.007  83.420  1.00  0.00     0.020 C 
BRANCH   4   5
ATOM      5  C   UNL     1      31.883  57.653  82.272  1.00  0.00     0.064 C 
ATOM      6  O   UNL     1      32.404  58.613  81.649  1.00  0.00    -0.545 OA
ATOM      7  O   UNL     1      30.655  57.162  81.847  1.00  0.00    -0.545 OA
ENDBRANCH   4   5
ENDBRANCH   2   3
ENDBRANCH   1   2
BRANCH   1   8
ATOM      8  C   UNL     1      29.073  57.787  86.896  1.00  0.00     0.000 C 
BRANCH   8   9
ATOM      9  C   UNL     1      28.738  59.218  86.453  1.00  0.00    -0.000 C 
BRANCH   9  10
ATOM     10  C   UNL     1      27.855  59.921  87.491  1.00  0.00    -0.003 C 
ATOM     11  C   UNL     1      28.082  61.430  87.480  1.00  0.00     0.004 C 
ENDBRANCH   9  10
ENDBRANCH   8   9
ENDBRANCH   1   8
TORSDOF 6
ENDMDL
MODEL 9
REMARK VINA RESULT:    -3.304     13.140     14.400
REMARK INTER + INTRA:          -4.611
REMARK INTER:                  -4.249
REMARK INTRA:                  -0.362
REMARK UNBOUND:                -0.147
REMARK SMILES CCCCCCC=CC(=O)[O-]
REMARK SMILES IDX 5 1 6 2 7 3 8 4 9 5 10 6 11 7 4 8 3 9 2 10 1 11
REMARK H PARENT
REMARK Flexibility Score: inf
ROOT
ATOM      1  C   UNL     1      26.075  65.731  75.463  1.00  0.00     0.004 C 
ENDROOT
BRANCH   1   2
ATOM      2  C   UNL     1      26.093  65.472  73.945  1.00  0.00     0.027 C 
BRANCH   2   3
ATOM      3  C   UNL     1      24.828  64.818  73.453  1.00  0.00    -0.025 C 
ATOM      4  C   UNL     1      24.235  65.035  72.266  1.00  0.00     0.020 C 
BRANCH   4   5
ATOM      5  C   UNL     1      24.726  65.910  71.181  1.00  0.00     0.064 C 
ATOM      6  O   UNL     1      24.183  67.013  70.914  1.00  0.00    -0.545 OA
ATOM      7  O   UNL     1      25.843  65.516  70.455  1.00  0.00    -0.545 OA
ENDBRANCH   4   5
ENDBRANCH   2   3
ENDBRANCH   1   2
BRANCH   1   8
ATOM      8  C   UNL     1      25.946  67.217  75.847  1.00  0.00     0.000 C 
BRANCH   8   9
ATOM      9  C   UNL     1      24.536  67.775  75.610  1.00  0.00    -0.000 C 
BRANCH   9  10
ATOM     10  C   UNL     1      24.066  68.607  76.810  1.00  0.00    -0.003 C 
ATOM     11  C   UNL     1      23.875  67.733  78.046  1.00  0.00     0.004 C 
ENDBRANCH   9  10
ENDBRANCH   8   9
ENDBRANCH   1   8
TORSDOF 6
ENDMDL
