MODEL 1
REMARK VINA RESULT:    -5.004      0.000      0.000
REMARK INTER + INTRA:         -10.497
REMARK INTER:                  -9.392
REMARK INTRA:                  -1.104
REMARK UNBOUND:                -1.104
REMARK SMILES O=C([O-])CCCCCCCCCCCCCCC(=O)[O-]
REMARK SMILES IDX 10 1 9 2 8 3 7 4 6 5 5 6 4 7 2 8 1 9 3 10 11 11 12 12 13 13
REMARK SMILES IDX 14 14 15 15 16 16 17 17 18 18 19 19 20 20
REMARK H PARENT
REMARK Flexibility Score: inf
ROOT
ATOM      1  C   UNL     1      49.420  62.981  93.570  1.00  0.00     0.000 C 
ENDROOT
BRANCH   1   2
ATOM      2  C   UNL     1      48.583  64.041  92.838  1.00  0.00     0.000 C 
BRANCH   2   3
ATOM      3  C   UNL     1      48.929  65.475  93.272  1.00  0.00     0.000 C 
BRANCH   3   4
ATOM      4  C   UNL     1      49.453  66.333  92.107  1.00  0.00     0.000 C 
BRANCH   4   5
ATOM      5  C   UNL     1      48.407  66.517  90.995  1.00  0.00     0.000 C 
BRANCH   5   6
ATOM      6  C   UNL     1      47.101  67.150  91.506  1.00  0.00     0.006 C 
BRANCH   6   7
ATOM      7  C   UNL     1      45.866  66.331  91.107  1.00  0.00     0.053 C 
BRANCH   7   8
ATOM      8  C   UNL     1      45.304  65.574  92.271  1.00  0.00     0.041 C 
ATOM      9  O   UNL     1      45.122  64.330  92.189  1.00  0.00    -0.550 OA
ATOM     10  O   UNL     1      44.949  66.246  93.433  1.00  0.00    -0.550 OA
ENDBRANCH   7   8
ENDBRANCH   6   7
ENDBRANCH   5   6
ENDBRANCH   4   5
ENDBRANCH   3   4
ENDBRANCH   2   3
ENDBRANCH   1   2
BRANCH   1  11
ATOM     11  C   UNL     1      49.032  61.568  93.119  1.00  0.00     0.000 C 
BRANCH  11  12
ATOM     12  C   UNL     1      50.143  60.560  93.448  1.00  0.00     0.000 C 
BRANCH  12  13
ATOM     13  C   UNL     1      49.874  59.780  94.744  1.00  0.00     0.000 C 
BRANCH  13  14
ATOM     14  C   UNL     1      50.088  58.266  94.584  1.00  0.00     0.000 C 
BRANCH  14  15
ATOM     15  C   UNL     1      50.017  57.819  93.108  1.00  0.00     0.000 C 
BRANCH  15  16
ATOM     16  C   UNL     1      51.127  56.826  92.714  1.00  0.00     0.006 C 
BRANCH  16  17
ATOM     17  C   UNL     1      52.046  57.329  91.592  1.00  0.00     0.053 C 
BRANCH  17  18
ATOM     18  C   UNL     1      52.971  58.408  92.069  1.00  0.00     0.041 C 
ATOM     19  O   UNL     1      53.294  59.350  91.299  1.00  0.00    -0.550 OA
ATOM     20  O   UNL     1      53.463  58.384  93.368  1.00  0.00    -0.550 OA
ENDBRANCH  17  18
ENDBRANCH  16  17
ENDBRANCH  15  16
ENDBRANCH  14  15
ENDBRANCH  13  14
ENDBRANCH  12  13
ENDBRANCH  11  12
ENDBRANCH   1  11
TORSDOF 15
ENDMDL
MODEL 2
REMARK VINA RESULT:    -4.877      2.981      8.661
REMARK INTER + INTRA:         -10.258
REMARK INTER:                  -9.439
REMARK INTRA:                  -0.819
REMARK UNBOUND:                -1.104
REMARK SMILES O=C([O-])CCCCCCCCCCCCCCC(=O)[O-]
REMARK SMILES IDX 10 1 9 2 8 3 7 4 6 5 5 6 4 7 2 8 1 9 3 10 11 11 12 12 13 13
REMARK SMILES IDX 14 14 15 15 16 16 17 17 18 18 19 19 20 20
REMARK H PARENT
REMARK Flexibility Score: inf
ROOT
ATOM      1  C   UNL     1      48.179  63.726  92.754  1.00  0.00     0.000 C 
ENDROOT
BRANCH   1   2
ATOM      2  C   UNL     1      49.176  62.782  93.443  1.00  0.00     0.000 C 
BRANCH   2   3
ATOM      3  C   UNL     1      48.993  61.314  93.022  1.00  0.00     0.000 C 
BRANCH   3   4
ATOM      4  C   UNL     1      50.158  60.420  93.482  1.00  0.00     0.000 C 
BRANCH   4   5
ATOM      5  C   UNL     1      49.792  59.556  94.700  1.00  0.00     0.000 C 
BRANCH   5   6
ATOM      6  C   UNL     1      50.136  58.070  94.500  1.00  0.00     0.006 C 
BRANCH   6   7
ATOM      7  C   UNL     1      50.168  57.678  93.017  1.00  0.00     0.053 C 
BRANCH   7   8
ATOM      8  C   UNL     1      51.511  57.150  92.612  1.00  0.00     0.041 C 
ATOM      9  O   UNL     1      51.928  56.056  93.075  1.00  0.00    -0.550 OA
ATOM     10  O   UNL     1      52.317  57.884  91.751  1.00  0.00    -0.550 OA
ENDBRANCH   7   8
ENDBRANCH   6   7
ENDBRANCH   5   6
ENDBRANCH   4   5
ENDBRANCH   3   4
ENDBRANCH   2   3
ENDBRANCH   1   2
BRANCH   1  11
ATOM     11  C   UNL     1      48.681  65.174  92.787  1.00  0.00     0.000 C 
BRANCH  11  12
ATOM     12  C   UNL     1      47.646  66.130  92.175  1.00  0.00     0.000 C 
BRANCH  12  13
ATOM     13  C   UNL     1      48.049  66.626  90.778  1.00  0.00     0.000 C 
BRANCH  13  14
ATOM     14  C   UNL     1      49.005  67.830  90.826  1.00  0.00     0.000 C 
BRANCH  14  15
ATOM     15  C   UNL     1      50.482  67.410  90.661  1.00  0.00     0.000 C 
BRANCH  15  16
ATOM     16  C   UNL     1      51.435  68.122  91.641  1.00  0.00     0.006 C 
BRANCH  16  17
ATOM     17  C   UNL     1      51.087  67.904  93.120  1.00  0.00     0.053 C 
BRANCH  17  18
ATOM     18  C   UNL     1      52.315  67.760  93.967  1.00  0.00     0.041 C 
ATOM     19  O   UNL     1      53.403  67.399  93.447  1.00  0.00    -0.550 OA
ATOM     20  O   UNL     1      52.263  68.038  95.327  1.00  0.00    -0.550 OA
ENDBRANCH  17  18
ENDBRANCH  16  17
ENDBRANCH  15  16
ENDBRANCH  14  15
ENDBRANCH  13  14
ENDBRANCH  12  13
ENDBRANCH  11  12
ENDBRANCH   1  11
TORSDOF 15
ENDMDL
MODEL 3
REMARK VINA RESULT:    -4.862      3.036      4.186
REMARK INTER + INTRA:         -10.229
REMARK INTER:                  -9.323
REMARK INTRA:                  -0.906
REMARK UNBOUND:                -1.104
REMARK SMILES O=C([O-])CCCCCCCCCCCCCCC(=O)[O-]
REMARK SMILES IDX 10 1 9 2 8 3 7 4 6 5 5 6 4 7 2 8 1 9 3 10 11 11 12 12 13 13
REMARK SMILES IDX 14 14 15 15 16 16 17 17 18 18 19 19 20 20
REMARK H PARENT
REMARK Flexibility Score: inf
ROOT
ATOM      1  C   UNL     1      48.551  63.878  92.854  1.00  0.00     0.000 C 
ENDROOT
BRANCH   1   2
ATOM      2  C   UNL     1      47.813  65.108  92.304  1.00  0.00     0.000 C 
BRANCH   2   3
ATOM      3  C   UNL     1      48.619  66.408  92.469  1.00  0.00     0.000 C 
BRANCH   3   4
ATOM      4  C   UNL     1      48.998  67.042  91.119  1.00  0.00     0.000 C 
BRANCH   4   5
ATOM      5  C   UNL     1      50.510  67.281  90.985  1.00  0.00     0.000 C 
BRANCH   5   6
ATOM      6  C   UNL     1      51.292  66.860  92.242  1.00  0.00     0.006 C 
BRANCH   6   7
ATOM      7  C   UNL     1      52.376  67.880  92.618  1.00  0.00     0.053 C 
BRANCH   7   8
ATOM      8  C   UNL     1      53.004  67.558  93.939  1.00  0.00     0.041 C 
ATOM      9  O   UNL     1      52.356  67.724  95.007  1.00  0.00    -0.550 OA
ATOM     10  O   UNL     1      54.317  67.109  93.994  1.00  0.00    -0.550 OA
ENDBRANCH   7   8
ENDBRANCH   6   7
ENDBRANCH   5   6
ENDBRANCH   4   5
ENDBRANCH   3   4
ENDBRANCH   2   3
ENDBRANCH   1   2
BRANCH   1  11
ATOM     11  C   UNL     1      47.743  62.598  92.609  1.00  0.00     0.000 C 
BRANCH  11  12
ATOM     12  C   UNL     1      48.649  61.358  92.649  1.00  0.00     0.000 C 
BRANCH  12  13
ATOM     13  C   UNL     1      49.774  61.477  93.689  1.00  0.00     0.000 C 
BRANCH  13  14
ATOM     14  C   UNL     1      50.752  60.292  93.647  1.00  0.00     0.000 C 
BRANCH  14  15
ATOM     15  C   UNL     1      50.157  59.020  94.290  1.00  0.00     0.000 C 
BRANCH  15  16
ATOM     16  C   UNL     1      50.206  57.787  93.368  1.00  0.00     0.006 C 
BRANCH  16  17
ATOM     17  C   UNL     1      51.541  57.610  92.631  1.00  0.00     0.053 C 
BRANCH  17  18
ATOM     18  C   UNL     1      52.607  57.060  93.531  1.00  0.00     0.041 C 
ATOM     19  O   UNL     1      52.654  55.826  93.774  1.00  0.00    -0.550 OA
ATOM     20  O   UNL     1      53.557  57.907  94.087  1.00  0.00    -0.550 OA
ENDBRANCH  17  18
ENDBRANCH  16  17
ENDBRANCH  15  16
ENDBRANCH  14  15
ENDBRANCH  13  14
ENDBRANCH  12  13
ENDBRANCH  11  12
ENDBRANCH   1  11
TORSDOF 15
ENDMDL
MODEL 4
REMARK VINA RESULT:    -4.816      1.109      8.960
REMARK INTER + INTRA:         -10.143
REMARK INTER:                  -9.017
REMARK INTRA:                  -1.125
REMARK UNBOUND:                -1.104
REMARK SMILES O=C([O-])CCCCCCCCCCCCCCC(=O)[O-]
REMARK SMILES IDX 10 1 9 2 8 3 7 4 6 5 5 6 4 7 2 8 1 9 3 10 11 11 12 12 13 13
REMARK SMILES IDX 14 14 15 15 16 16 17 17 18 18 19 19 20 20
REMARK H PARENT
REMARK Flexibility Score: inf
ROOT
ATOM      1  C   UNL     1      49.629  61.585  93.890  1.00  0.00     0.000 C 
ENDROOT
BRANCH   1   2
ATOM      2  C   UNL     1      50.345  60.231  93.768  1.00  0.00     0.000 C 
BRANCH   2   3
ATOM      3  C   UNL     1      49.861  59.206  94.808  1.00  0.00     0.000 C 
BRANCH   3   4
ATOM      4  C   UNL     1      50.294  57.770  94.466  1.00  0.00     0.000 C 
BRANCH   4   5
ATOM      5  C   UNL     1      51.645  57.396  95.098  1.00  0.00     0.000 C 
BRANCH   5   6
ATOM      6  C   UNL     1      52.696  56.982  94.053  1.00  0.00     0.006 C 
BRANCH   6   7
ATOM      7  C   UNL     1      53.386  58.194  93.414  1.00  0.00     0.053 C 
BRANCH   7   8
ATOM      8  C   UNL     1      52.994  58.360  91.977  1.00  0.00     0.041 C 
ATOM      9  O   UNL     1      52.230  57.523  91.427  1.00  0.00    -0.550 OA
ATOM     10  O   UNL     1      53.501  59.420  91.235  1.00  0.00    -0.550 OA
ENDBRANCH   7   8
ENDBRANCH   6   7
ENDBRANCH   5   6
ENDBRANCH   4   5
ENDBRANCH   3   4
ENDBRANCH   2   3
ENDBRANCH   1   2
BRANCH   1  11
ATOM     11  C   UNL     1      48.522  61.717  92.837  1.00  0.00     0.000 C 
BRANCH  11  12
ATOM     12  C   UNL     1      48.141  63.189  92.620  1.00  0.00     0.000 C 
BRANCH  12  13
ATOM     13  C   UNL     1      49.038  64.157  93.407  1.00  0.00     0.000 C 
BRANCH  13  14
ATOM     14  C   UNL     1      49.167  65.532  92.731  1.00  0.00     0.000 C 
BRANCH  14  15
ATOM     15  C   UNL     1      48.304  66.608  93.426  1.00  0.00     0.000 C 
BRANCH  15  16
ATOM     16  C   UNL     1      47.305  67.299  92.478  1.00  0.00     0.006 C 
BRANCH  16  17
ATOM     17  C   UNL     1      46.528  66.330  91.576  1.00  0.00     0.053 C 
BRANCH  17  18
ATOM     18  C   UNL     1      45.401  65.665  92.308  1.00  0.00     0.041 C 
ATOM     19  O   UNL     1      44.931  64.576  91.889  1.00  0.00    -0.550 OA
ATOM     20  O   UNL     1      44.882  66.240  93.461  1.00  0.00    -0.550 OA
ENDBRANCH  17  18
ENDBRANCH  16  17
ENDBRANCH  15  16
ENDBRANCH  14  15
ENDBRANCH  13  14
ENDBRANCH  12  13
ENDBRANCH  11  12
ENDBRANCH   1  11
TORSDOF 15
ENDMDL
MODEL 5
REMARK VINA RESULT:    -4.809      2.774      8.612
REMARK INTER + INTRA:         -10.130
REMARK INTER:                  -9.431
REMARK INTRA:                  -0.699
REMARK UNBOUND:                -1.104
REMARK SMILES O=C([O-])CCCCCCCCCCCCCCC(=O)[O-]
REMARK SMILES IDX 10 1 9 2 8 3 7 4 6 5 5 6 4 7 2 8 1 9 3 10 11 11 12 12 13 13
REMARK SMILES IDX 14 14 15 15 16 16 17 17 18 18 19 19 20 20
REMARK H PARENT
REMARK Flexibility Score: inf
ROOT
ATOM      1  C   UNL     1      48.655  61.870  92.985  1.00  0.00     0.000 C 
ENDROOT
BRANCH   1   2
ATOM      2  C   UNL     1      49.759  60.877  93.378  1.00  0.00     0.000 C 
BRANCH   2   3
ATOM      3  C   UNL     1      49.708  60.488  94.865  1.00  0.00     0.000 C 
BRANCH   3   4
ATOM      4  C   UNL     1      49.609  58.967  95.073  1.00  0.00     0.000 C 
BRANCH   4   5
ATOM      5  C   UNL     1      50.505  58.181  94.102  1.00  0.00     0.000 C 
BRANCH   5   6
ATOM      6  C   UNL     1      51.756  57.601  94.784  1.00  0.00     0.006 C 
BRANCH   6   7
ATOM      7  C   UNL     1      52.977  57.606  93.853  1.00  0.00     0.053 C 
BRANCH   7   8
ATOM      8  C   UNL     1      52.627  58.102  92.484  1.00  0.00     0.041 C 
ATOM      9  O   UNL     1      52.152  57.312  91.625  1.00  0.00    -0.550 OA
ATOM     10  O   UNL     1      52.859  59.429  92.144  1.00  0.00    -0.550 OA
ENDBRANCH   7   8
ENDBRANCH   6   7
ENDBRANCH   5   6
ENDBRANCH   4   5
ENDBRANCH   3   4
ENDBRANCH   2   3
ENDBRANCH   1   2
BRANCH   1  11
ATOM     11  C   UNL     1      49.062  63.308  93.328  1.00  0.00     0.000 C 
BRANCH  11  12
ATOM     12  C   UNL     1      48.207  64.322  92.553  1.00  0.00     0.000 C 
BRANCH  12  13
ATOM     13  C   UNL     1      48.628  65.776  92.815  1.00  0.00     0.000 C 
BRANCH  13  14
ATOM     14  C   UNL     1      48.750  66.603  91.523  1.00  0.00     0.000 C 
BRANCH  14  15
ATOM     15  C   UNL     1      50.209  67.012  91.227  1.00  0.00     0.000 C 
BRANCH  15  16
ATOM     16  C   UNL     1      51.209  66.539  92.300  1.00  0.00     0.006 C 
BRANCH  16  17
ATOM     17  C   UNL     1      52.106  67.655  92.853  1.00  0.00     0.053 C 
BRANCH  17  18
ATOM     18  C   UNL     1      51.897  67.863  94.323  1.00  0.00     0.041 C 
ATOM     19  O   UNL     1      50.731  67.955  94.788  1.00  0.00    -0.550 OA
ATOM     20  O   UNL     1      52.987  67.941  95.180  1.00  0.00    -0.550 OA
ENDBRANCH  17  18
ENDBRANCH  16  17
ENDBRANCH  15  16
ENDBRANCH  14  15
ENDBRANCH  13  14
ENDBRANCH  12  13
ENDBRANCH  11  12
ENDBRANCH   1  11
TORSDOF 15
ENDMDL
MODEL 6
REMARK VINA RESULT:    -4.807      2.263      2.823
REMARK INTER + INTRA:         -10.127
REMARK INTER:                  -9.028
REMARK INTRA:                  -1.099
REMARK UNBOUND:                -1.104
REMARK SMILES O=C([O-])CCCCCCCCCCCCCCC(=O)[O-]
REMARK SMILES IDX 10 1 9 2 8 3 7 4 6 5 5 6 4 7 2 8 1 9 3 10 11 11 12 12 13 13
REMARK SMILES IDX 14 14 15 15 16 16 17 17 18 18 19 19 20 20
REMARK H PARENT
REMARK Flexibility Score: inf
ROOT
ATOM      1  C   UNL     1      48.407  61.731  92.621  1.00  0.00     0.000 C 
ENDROOT
BRANCH   1   2
ATOM      2  C   UNL     1      47.656  63.071  92.583  1.00  0.00     0.000 C 
BRANCH   2   3
ATOM      3  C   UNL     1      48.598  64.283  92.681  1.00  0.00     0.000 C 
BRANCH   3   4
ATOM      4  C   UNL     1      47.837  65.605  92.884  1.00  0.00     0.000 C 
BRANCH   4   5
ATOM      5  C   UNL     1      47.152  66.093  91.598  1.00  0.00     0.000 C 
BRANCH   5   6
ATOM      6  C   UNL     1      48.080  66.948  90.717  1.00  0.00     0.006 C 
BRANCH   6   7
ATOM      7  C   UNL     1      49.085  67.756  91.549  1.00  0.00     0.053 C 
BRANCH   7   8
ATOM      8  C   UNL     1      50.497  67.349  91.260  1.00  0.00     0.041 C 
ATOM      9  O   UNL     1      50.912  67.297  90.072  1.00  0.00    -0.550 OA
ATOM     10  O   UNL     1      51.346  66.994  92.301  1.00  0.00    -0.550 OA
ENDBRANCH   7   8
ENDBRANCH   6   7
ENDBRANCH   5   6
ENDBRANCH   4   5
ENDBRANCH   3   4
ENDBRANCH   2   3
ENDBRANCH   1   2
BRANCH   1  11
ATOM     11  C   UNL     1      49.664  61.830  93.492  1.00  0.00     0.000 C 
BRANCH  11  12
ATOM     12  C   UNL     1      50.337  60.458  93.647  1.00  0.00     0.000 C 
BRANCH  12  13
ATOM     13  C   UNL     1      49.784  59.656  94.835  1.00  0.00     0.000 C 
BRANCH  13  14
ATOM     14  C   UNL     1      49.950  58.138  94.657  1.00  0.00     0.000 C 
BRANCH  14  15
ATOM     15  C   UNL     1      49.976  57.723  93.170  1.00  0.00     0.000 C 
BRANCH  15  16
ATOM     16  C   UNL     1      51.204  56.871  92.793  1.00  0.00     0.006 C 
BRANCH  16  17
ATOM     17  C   UNL     1      52.008  57.424  91.608  1.00  0.00     0.053 C 
BRANCH  17  18
ATOM     18  C   UNL     1      53.024  58.436  92.046  1.00  0.00     0.041 C 
ATOM     19  O   UNL     1      53.457  58.426  93.228  1.00  0.00    -0.550 OA
ATOM     20  O   UNL     1      53.502  59.379  91.146  1.00  0.00    -0.550 OA
ENDBRANCH  17  18
ENDBRANCH  16  17
ENDBRANCH  15  16
ENDBRANCH  14  15
ENDBRANCH  13  14
ENDBRANCH  12  13
ENDBRANCH  11  12
ENDBRANCH   1  11
TORSDOF 15
ENDMDL
MODEL 7
REMARK VINA RESULT:    -4.771      3.033      4.228
REMARK INTER + INTRA:         -10.059
REMARK INTER:                  -9.053
REMARK INTRA:                  -1.007
REMARK UNBOUND:                -1.104
REMARK SMILES O=C([O-])CCCCCCCCCCCCCCC(=O)[O-]
REMARK SMILES IDX 10 1 9 2 8 3 7 4 6 5 5 6 4 7 2 8 1 9 3 10 11 11 12 12 13 13
REMARK SMILES IDX 14 14 15 15 16 16 17 17 18 18 19 19 20 20
REMARK H PARENT
REMARK Flexibility Score: inf
ROOT
ATOM      1  C   UNL     1      48.006  65.312  92.367  1.00  0.00     0.000 C 
ENDROOT
BRANCH   1   2
ATOM      2  C   UNL     1      47.794  66.706  92.977  1.00  0.00     0.000 C 
BRANCH   2   3
ATOM      3  C   UNL     1      48.368  67.832  92.101  1.00  0.00     0.000 C 
BRANCH   3   4
ATOM      4  C   UNL     1      48.963  67.308  90.782  1.00  0.00     0.000 C 
BRANCH   4   5
ATOM      5  C   UNL     1      50.501  67.304  90.792  1.00  0.00     0.000 C 
BRANCH   5   6
ATOM      6  C   UNL     1      51.088  67.908  92.079  1.00  0.00     0.006 C 
BRANCH   6   7
ATOM      7  C   UNL     1      51.802  66.857  92.940  1.00  0.00     0.053 C 
BRANCH   7   8
ATOM      8  C   UNL     1      52.856  67.473  93.807  1.00  0.00     0.041 C 
ATOM      9  O   UNL     1      54.040  67.578  93.389  1.00  0.00    -0.550 OA
ATOM     10  O   UNL     1      52.540  67.900  95.090  1.00  0.00    -0.550 OA
ENDBRANCH   7   8
ENDBRANCH   6   7
ENDBRANCH   5   6
ENDBRANCH   4   5
ENDBRANCH   3   4
ENDBRANCH   2   3
ENDBRANCH   1   2
BRANCH   1  11
ATOM     11  C   UNL     1      48.951  64.472  93.234  1.00  0.00     0.000 C 
BRANCH  11  12
ATOM     12  C   UNL     1      48.785  62.974  92.937  1.00  0.00     0.000 C 
BRANCH  12  13
ATOM     13  C   UNL     1      49.440  62.081  94.002  1.00  0.00     0.000 C 
BRANCH  13  14
ATOM     14  C   UNL     1      49.502  60.603  93.584  1.00  0.00     0.000 C 
BRANCH  14  15
ATOM     15  C   UNL     1      49.726  59.663  94.789  1.00  0.00     0.000 C 
BRANCH  15  16
ATOM     16  C   UNL     1      50.100  58.225  94.383  1.00  0.00     0.006 C 
BRANCH  16  17
ATOM     17  C   UNL     1      50.443  58.064  92.896  1.00  0.00     0.053 C 
BRANCH  17  18
ATOM     18  C   UNL     1      51.914  57.871  92.679  1.00  0.00     0.041 C 
ATOM     19  O   UNL     1      52.361  57.671  91.519  1.00  0.00    -0.550 OA
ATOM     20  O   UNL     1      52.792  57.926  93.754  1.00  0.00    -0.550 OA
ENDBRANCH  17  18
ENDBRANCH  16  17
ENDBRANCH  15  16
ENDBRANCH  14  15
ENDBRANCH  13  14
ENDBRANCH  12  13
ENDBRANCH  11  12
ENDBRANCH   1  11
TORSDOF 15
ENDMDL
MODEL 8
REMARK VINA RESULT:    -4.646      1.759      2.189
REMARK INTER + INTRA:          -9.825
REMARK INTER:                  -8.682
REMARK INTRA:                  -1.143
REMARK UNBOUND:                -1.104
REMARK SMILES O=C([O-])CCCCCCCCCCCCCCC(=O)[O-]
REMARK SMILES IDX 10 1 9 2 8 3 7 4 6 5 5 6 4 7 2 8 1 9 3 10 11 11 12 12 13 13
REMARK SMILES IDX 14 14 15 15 16 16 17 17 18 18 19 19 20 20
REMARK H PARENT
REMARK Flexibility Score: inf
ROOT
ATOM      1  C   UNL     1      48.589  61.597  92.959  1.00  0.00     0.000 C 
ENDROOT
BRANCH   1   2
ATOM      2  C   UNL     1      48.363  63.079  92.621  1.00  0.00     0.000 C 
BRANCH   2   3
ATOM      3  C   UNL     1      49.269  64.019  93.434  1.00  0.00     0.000 C 
BRANCH   3   4
ATOM      4  C   UNL     1      48.782  65.478  93.404  1.00  0.00     0.000 C 
BRANCH   4   5
ATOM      5  C   UNL     1      48.864  66.097  91.999  1.00  0.00     0.000 C 
BRANCH   5   6
ATOM      6  C   UNL     1      47.480  66.444  91.422  1.00  0.00     0.006 C 
BRANCH   6   7
ATOM      7  C   UNL     1      46.367  66.317  92.470  1.00  0.00     0.053 C 
BRANCH   7   8
ATOM      8  C   UNL     1      45.188  65.563  91.937  1.00  0.00     0.041 C 
ATOM      9  O   UNL     1      45.078  64.326  92.146  1.00  0.00    -0.550 OA
ATOM     10  O   UNL     1      44.226  66.220  91.179  1.00  0.00    -0.550 OA
ENDBRANCH   7   8
ENDBRANCH   6   7
ENDBRANCH   5   6
ENDBRANCH   4   5
ENDBRANCH   3   4
ENDBRANCH   2   3
ENDBRANCH   1   2
BRANCH   1  11
ATOM     11  C   UNL     1      49.690  61.436  94.014  1.00  0.00     0.000 C 
BRANCH  11  12
ATOM     12  C   UNL     1      50.901  60.688  93.437  1.00  0.00     0.000 C 
BRANCH  12  13
ATOM     13  C   UNL     1      50.608  59.205  93.161  1.00  0.00     0.000 C 
BRANCH  13  14
ATOM     14  C   UNL     1      50.143  58.447  94.416  1.00  0.00     0.000 C 
BRANCH  14  15
ATOM     15  C   UNL     1      51.291  57.658  95.082  1.00  0.00     0.000 C 
BRANCH  15  16
ATOM     16  C   UNL     1      52.412  57.264  94.101  1.00  0.00     0.006 C 
BRANCH  16  17
ATOM     17  C   UNL     1      52.586  55.748  93.928  1.00  0.00     0.053 C 
BRANCH  17  18
ATOM     18  C   UNL     1      52.009  55.264  92.632  1.00  0.00     0.041 C 
ATOM     19  O   UNL     1      51.802  54.036  92.452  1.00  0.00    -0.550 OA
ATOM     20  O   UNL     1      51.687  56.170  91.629  1.00  0.00    -0.550 OA
ENDBRANCH  17  18
ENDBRANCH  16  17
ENDBRANCH  15  16
ENDBRANCH  14  15
ENDBRANCH  13  14
ENDBRANCH  12  13
ENDBRANCH  11  12
ENDBRANCH   1  11
TORSDOF 15
ENDMDL
MODEL 9
REMARK VINA RESULT:    -4.622      1.286      8.856
REMARK INTER + INTRA:          -9.779
REMARK INTER:                  -8.647
REMARK INTRA:                  -1.131
REMARK UNBOUND:                -1.104
REMARK SMILES O=C([O-])CCCCCCCCCCCCCCC(=O)[O-]
REMARK SMILES IDX 10 1 9 2 8 3 7 4 6 5 5 6 4 7 2 8 1 9 3 10 11 11 12 12 13 13
REMARK SMILES IDX 14 14 15 15 16 16 17 17 18 18 19 19 20 20
REMARK H PARENT
REMARK Flexibility Score: inf
ROOT
ATOM      1  C   UNL     1      48.706  64.185  92.902  1.00  0.00     0.000 C 
ENDROOT
BRANCH   1   2
ATOM      2  C   UNL     1      49.281  62.990  93.678  1.00  0.00     0.000 C 
BRANCH   2   3
ATOM      3  C   UNL     1      48.938  61.639  93.029  1.00  0.00     0.000 C 
BRANCH   3   4
ATOM      4  C   UNL     1      49.925  60.527  93.425  1.00  0.00     0.000 C 
BRANCH   4   5
ATOM      5  C   UNL     1      49.678  60.000  94.848  1.00  0.00     0.000 C 
BRANCH   5   6
ATOM      6  C   UNL     1      49.775  58.467  94.938  1.00  0.00     0.006 C 
BRANCH   6   7
ATOM      7  C   UNL     1      50.273  57.840  93.629  1.00  0.00     0.053 C 
BRANCH   7   8
ATOM      8  C   UNL     1      51.612  57.190  93.801  1.00  0.00     0.041 C 
ATOM      9  O   UNL     1      52.464  57.691  94.582  1.00  0.00    -0.550 OA
ATOM     10  O   UNL     1      51.932  56.052  93.072  1.00  0.00    -0.550 OA
ENDBRANCH   7   8
ENDBRANCH   6   7
ENDBRANCH   5   6
ENDBRANCH   4   5
ENDBRANCH   3   4
ENDBRANCH   2   3
ENDBRANCH   1   2
BRANCH   1  11
ATOM     11  C   UNL     1      49.006  65.504  93.625  1.00  0.00     0.000 C 
BRANCH  11  12
ATOM     12  C   UNL     1      50.082  66.308  92.880  1.00  0.00     0.000 C 
BRANCH  12  13
ATOM     13  C   UNL     1      49.527  67.587  92.235  1.00  0.00     0.000 C 
BRANCH  13  14
ATOM     14  C   UNL     1      49.400  67.477  90.706  1.00  0.00     0.000 C 
BRANCH  14  15
ATOM     15  C   UNL     1      48.052  66.859  90.275  1.00  0.00     0.000 C 
BRANCH  15  16
ATOM     16  C   UNL     1      46.906  67.135  91.267  1.00  0.00     0.006 C 
BRANCH  16  17
ATOM     17  C   UNL     1      45.677  66.237  91.067  1.00  0.00     0.053 C 
BRANCH  17  18
ATOM     18  C   UNL     1      45.267  65.560  92.341  1.00  0.00     0.041 C 
ATOM     19  O   UNL     1      45.086  64.315  92.364  1.00  0.00    -0.550 OA
ATOM     20  O   UNL     1      45.098  66.301  93.503  1.00  0.00    -0.550 OA
ENDBRANCH  17  18
ENDBRANCH  16  17
ENDBRANCH  15  16
ENDBRANCH  14  15
ENDBRANCH  13  14
ENDBRANCH  12  13
ENDBRANCH  11  12
ENDBRANCH   1  11
TORSDOF 15
ENDMDL
