MODEL 1
REMARK VINA RESULT:    -4.992      0.000      0.000
REMARK INTER + INTRA:          -8.923
REMARK INTER:                  -7.619
REMARK INTRA:                  -1.304
REMARK UNBOUND:                -1.304
REMARK SMILES CC(=O)CCC=C(C)CCC=C(C)CCC=C(C)C
REMARK SMILES IDX 10 1 11 2 12 3 13 4 14 5 15 6 16 7 18 8 17 9 19 10 9 11 7 12
REMARK SMILES IDX 6 13 8 14 5 15 4 16 2 17 3 18 1 19
REMARK H PARENT
REMARK Flexibility Score: inf
ROOT
ATOM      1  C   UNL     1      -5.977  -4.272   5.855  1.00  0.00     0.032 C 
ENDROOT
BRANCH   1   2
ATOM      2  C   UNL     1      -4.583  -4.115   5.303  1.00  0.00    -0.028 C 
ATOM      3  C   UNL     1      -3.934  -5.056   4.578  1.00  0.00    -0.077 C 
ATOM      4  C   UNL     1      -4.572  -6.377   4.224  1.00  0.00     0.039 C 
BRANCH   3   5
ATOM      5  C   UNL     1      -2.541  -4.759   4.060  1.00  0.00     0.034 C 
BRANCH   5   6
ATOM      6  C   UNL     1      -2.495  -4.752   2.525  1.00  0.00     0.032 C 
BRANCH   6   7
ATOM      7  C   UNL     1      -2.782  -3.383   1.957  1.00  0.00    -0.028 C 
ATOM      8  C   UNL     1      -5.184  -3.898   1.481  1.00  0.00     0.039 C 
ATOM      9  C   UNL     1      -3.974  -2.995   1.456  1.00  0.00    -0.080 C 
ATOM     10  C   UNL     1      -4.092  -1.612   0.870  1.00  0.00     0.039 C 
ENDBRANCH   6   7
ENDBRANCH   5   6
ENDBRANCH   3   5
ENDBRANCH   1   2
BRANCH   1  11
ATOM     11  C   UNL     1      -6.230  -3.292   7.008  1.00  0.00     0.034 C 
BRANCH  11  12
ATOM     12  C   UNL     1      -7.659  -3.394   7.508  1.00  0.00    -0.077 C 
ATOM     13  C   UNL     1      -8.033  -3.055   8.765  1.00  0.00    -0.028 C 
ATOM     14  C   UNL     1      -8.727  -3.886   6.563  1.00  0.00     0.039 C 
BRANCH  13  15
ATOM     15  C   UNL     1      -7.117  -2.546   9.854  1.00  0.00     0.035 C 
BRANCH  15  16
ATOM     16  C   UNL     1      -7.534  -1.148  10.328  1.00  0.00     0.079 C 
BRANCH  16  17
ATOM     17  C   UNL     1      -7.077  -0.073   9.377  1.00  0.00     0.130 C 
ATOM     18  O   UNL     1      -5.971  -0.149   8.865  1.00  0.00    -0.300 OA
ATOM     19  C   UNL     1      -7.948   1.110   9.073  1.00  0.00     0.087 C 
ENDBRANCH  16  17
ENDBRANCH  15  16
ENDBRANCH  13  15
ENDBRANCH  11  12
ENDBRANCH   1  11
TORSDOF 9
ENDMDL
MODEL 2
REMARK VINA RESULT:    -4.952     15.765     17.933
REMARK INTER + INTRA:          -8.862
REMARK INTER:                  -7.429
REMARK INTRA:                  -1.434
REMARK UNBOUND:                -1.304
REMARK SMILES CC(=O)CCC=C(C)CCC=C(C)CCC=C(C)C
REMARK SMILES IDX 10 1 11 2 12 3 13 4 14 5 15 6 16 7 18 8 17 9 19 10 9 11 7 12
REMARK SMILES IDX 6 13 8 14 5 15 4 16 2 17 3 18 1 19
REMARK H PARENT
REMARK Flexibility Score: inf
ROOT
ATOM      1  C   UNL     1       9.788   6.863   8.403  1.00  0.00     0.032 C 
ENDROOT
BRANCH   1   2
ATOM      2  C   UNL     1       8.902   8.038   8.733  1.00  0.00    -0.028 C 
ATOM      3  C   UNL     1       9.193   8.984   9.656  1.00  0.00    -0.077 C 
ATOM      4  C   UNL     1      10.480   8.966  10.445  1.00  0.00     0.039 C 
BRANCH   3   5
ATOM      5  C   UNL     1       8.225  10.130   9.871  1.00  0.00     0.034 C 
BRANCH   5   6
ATOM      6  C   UNL     1       7.363   9.918  11.124  1.00  0.00     0.032 C 
BRANCH   6   7
ATOM      7  C   UNL     1       5.999   9.366  10.785  1.00  0.00    -0.028 C 
ATOM      8  C   UNL     1       6.577   7.038  11.500  1.00  0.00     0.039 C 
ATOM      9  C   UNL     1       5.642   8.070  10.918  1.00  0.00    -0.080 C 
ATOM     10  C   UNL     1       4.259   7.658  10.482  1.00  0.00     0.039 C 
ENDBRANCH   6   7
ENDBRANCH   5   6
ENDBRANCH   3   5
ENDBRANCH   1   2
BRANCH   1  11
ATOM     11  C   UNL     1       9.865   6.635   6.889  1.00  0.00     0.034 C 
BRANCH  11  12
ATOM     12  C   UNL     1       9.691   5.167   6.547  1.00  0.00    -0.077 C 
ATOM     13  C   UNL     1       8.483   4.584   6.363  1.00  0.00    -0.028 C 
ATOM     14  C   UNL     1      10.920   4.306   6.392  1.00  0.00     0.039 C 
BRANCH  13  15
ATOM     15  C   UNL     1       7.142   5.273   6.477  1.00  0.00     0.035 C 
BRANCH  15  16
ATOM     16  C   UNL     1       6.009   4.381   5.952  1.00  0.00     0.079 C 
BRANCH  16  17
ATOM     17  C   UNL     1       4.652   4.932   6.303  1.00  0.00     0.130 C 
ATOM     18  O   UNL     1       3.939   5.389   5.423  1.00  0.00    -0.300 OA
ATOM     19  C   UNL     1       4.174   4.960   7.725  1.00  0.00     0.087 C 
ENDBRANCH  16  17
ENDBRANCH  15  16
ENDBRANCH  13  15
ENDBRANCH  11  12
ENDBRANCH   1  11
TORSDOF 9
ENDMDL
MODEL 3
REMARK VINA RESULT:    -4.815     15.024     16.562
REMARK INTER + INTRA:          -8.653
REMARK INTER:                  -6.854
REMARK INTRA:                  -1.799
REMARK UNBOUND:                -1.304
REMARK SMILES CC(=O)CCC=C(C)CCC=C(C)CCC=C(C)C
REMARK SMILES IDX 10 1 11 2 12 3 13 4 14 5 15 6 16 7 18 8 17 9 19 10 9 11 7 12
REMARK SMILES IDX 6 13 8 14 5 15 4 16 2 17 3 18 1 19
REMARK H PARENT
REMARK Flexibility Score: inf
ROOT
ATOM      1  C   UNL     1       7.077   7.594  11.775  1.00  0.00     0.032 C 
ENDROOT
BRANCH   1   2
ATOM      2  C   UNL     1       8.126   7.317  10.728  1.00  0.00    -0.028 C 
ATOM      3  C   UNL     1       8.404   8.133   9.685  1.00  0.00    -0.077 C 
ATOM      4  C   UNL     1       7.688   9.445   9.480  1.00  0.00     0.039 C 
BRANCH   3   5
ATOM      5  C   UNL     1       9.504   7.747   8.717  1.00  0.00     0.034 C 
BRANCH   5   6
ATOM      6  C   UNL     1       8.951   7.001   7.495  1.00  0.00     0.032 C 
BRANCH   6   7
ATOM      7  C   UNL     1       9.255   5.523   7.549  1.00  0.00    -0.028 C 
ATOM      8  C   UNL     1       9.465   5.302   5.065  1.00  0.00     0.039 C 
ATOM      9  C   UNL     1       9.457   4.741   6.467  1.00  0.00    -0.080 C 
ATOM     10  C   UNL     1       9.693   3.268   6.679  1.00  0.00     0.039 C 
ENDBRANCH   6   7
ENDBRANCH   5   6
ENDBRANCH   3   5
ENDBRANCH   1   2
BRANCH   1  11
ATOM     11  C   UNL     1       5.825   6.740  11.543  1.00  0.00     0.034 C 
BRANCH  11  12
ATOM     12  C   UNL     1       4.889   7.400  10.547  1.00  0.00    -0.077 C 
ATOM     13  C   UNL     1       4.537   6.834   9.369  1.00  0.00    -0.028 C 
ATOM     14  C   UNL     1       4.308   8.751  10.882  1.00  0.00     0.039 C 
BRANCH  13  15
ATOM     15  C   UNL     1       5.013   5.494   8.853  1.00  0.00     0.035 C 
BRANCH  15  16
ATOM     16  C   UNL     1       4.030   4.907   7.832  1.00  0.00     0.079 C 
BRANCH  16  17
ATOM     17  C   UNL     1       4.567   4.987   6.427  1.00  0.00     0.130 C 
ATOM     18  O   UNL     1       3.853   5.410   5.531  1.00  0.00    -0.300 OA
ATOM     19  C   UNL     1       5.956   4.522   6.103  1.00  0.00     0.087 C 
ENDBRANCH  16  17
ENDBRANCH  15  16
ENDBRANCH  13  15
ENDBRANCH  11  12
ENDBRANCH   1  11
TORSDOF 9
ENDMDL
MODEL 4
REMARK VINA RESULT:    -4.717      2.604      7.366
REMARK INTER + INTRA:          -8.504
REMARK INTER:                  -6.964
REMARK INTRA:                  -1.539
REMARK UNBOUND:                -1.304
REMARK SMILES CC(=O)CCC=C(C)CCC=C(C)CCC=C(C)C
REMARK SMILES IDX 10 1 11 2 12 3 13 4 14 5 15 6 16 7 18 8 17 9 19 10 9 11 7 12
REMARK SMILES IDX 6 13 8 14 5 15 4 16 2 17 3 18 1 19
REMARK H PARENT
REMARK Flexibility Score: inf
ROOT
ATOM      1  C   UNL     1      -3.453  -3.166   4.972  1.00  0.00     0.032 C 
ENDROOT
BRANCH   1   2
ATOM      2  C   UNL     1      -4.798  -3.457   5.589  1.00  0.00    -0.028 C 
ATOM      3  C   UNL     1      -5.126  -3.192   6.875  1.00  0.00    -0.077 C 
ATOM      4  C   UNL     1      -4.158  -2.539   7.832  1.00  0.00     0.039 C 
BRANCH   3   5
ATOM      5  C   UNL     1      -6.524  -3.512   7.362  1.00  0.00     0.034 C 
BRANCH   5   6
ATOM      6  C   UNL     1      -7.371  -2.243   7.533  1.00  0.00     0.032 C 
BRANCH   6   7
ATOM      7  C   UNL     1      -7.597  -1.907   8.988  1.00  0.00    -0.028 C 
ATOM      8  C   UNL     1      -6.397   0.285   8.842  1.00  0.00     0.039 C 
ATOM      9  C   UNL     1      -7.140  -0.792   9.597  1.00  0.00    -0.080 C 
ATOM     10  C   UNL     1      -7.396  -0.622  11.072  1.00  0.00     0.039 C 
ENDBRANCH   6   7
ENDBRANCH   5   6
ENDBRANCH   3   5
ENDBRANCH   1   2
BRANCH   1  11
ATOM     11  C   UNL     1      -2.907  -4.392   4.230  1.00  0.00     0.034 C 
BRANCH  11  12
ATOM     12  C   UNL     1      -3.448  -4.460   2.813  1.00  0.00    -0.077 C 
ATOM     13  C   UNL     1      -4.406  -5.334   2.424  1.00  0.00    -0.028 C 
ATOM     14  C   UNL     1      -2.906  -3.502   1.782  1.00  0.00     0.039 C 
BRANCH  13  15
ATOM     15  C   UNL     1      -5.069  -6.370   3.303  1.00  0.00     0.035 C 
BRANCH  15  16
ATOM     16  C   UNL     1      -6.406  -6.833   2.710  1.00  0.00     0.079 C 
BRANCH  16  17
ATOM     17  C   UNL     1      -7.408  -5.711   2.640  1.00  0.00     0.130 C 
ATOM     18  O   UNL     1      -7.890  -5.398   1.562  1.00  0.00    -0.300 OA
ATOM     19  C   UNL     1      -7.800  -4.947   3.870  1.00  0.00     0.087 C 
ENDBRANCH  16  17
ENDBRANCH  15  16
ENDBRANCH  13  15
ENDBRANCH  11  12
ENDBRANCH   1  11
TORSDOF 9
ENDMDL
MODEL 5
REMARK VINA RESULT:    -4.705      2.533      7.495
REMARK INTER + INTRA:          -8.485
REMARK INTER:                  -7.342
REMARK INTRA:                  -1.144
REMARK UNBOUND:                -1.304
REMARK SMILES CC(=O)CCC=C(C)CCC=C(C)CCC=C(C)C
REMARK SMILES IDX 10 1 11 2 12 3 13 4 14 5 15 6 16 7 18 8 17 9 19 10 9 11 7 12
REMARK SMILES IDX 6 13 8 14 5 15 4 16 2 17 3 18 1 19
REMARK H PARENT
REMARK Flexibility Score: inf
ROOT
ATOM      1  C   UNL     1      -4.841  -3.658   5.919  1.00  0.00     0.032 C 
ENDROOT
BRANCH   1   2
ATOM      2  C   UNL     1      -5.486  -3.703   7.281  1.00  0.00    -0.028 C 
ATOM      3  C   UNL     1      -5.032  -3.036   8.368  1.00  0.00    -0.077 C 
ATOM      4  C   UNL     1      -3.819  -2.140   8.311  1.00  0.00     0.039 C 
BRANCH   3   5
ATOM      5  C   UNL     1      -5.792  -3.148   9.674  1.00  0.00     0.034 C 
BRANCH   5   6
ATOM      6  C   UNL     1      -7.182  -2.503   9.581  1.00  0.00     0.032 C 
BRANCH   6   7
ATOM      7  C   UNL     1      -7.327  -1.333  10.524  1.00  0.00    -0.028 C 
ATOM      8  C   UNL     1      -6.585   0.347   8.824  1.00  0.00     0.039 C 
ATOM      9  C   UNL     1      -7.034  -0.054  10.210  1.00  0.00    -0.080 C 
ATOM     10  C   UNL     1      -7.174   0.999  11.278  1.00  0.00     0.039 C 
ENDBRANCH   6   7
ENDBRANCH   5   6
ENDBRANCH   3   5
ENDBRANCH   1   2
BRANCH   1  11
ATOM     11  C   UNL     1      -4.936  -5.017   5.216  1.00  0.00     0.034 C 
BRANCH  11  12
ATOM     12  C   UNL     1      -5.806  -4.932   3.975  1.00  0.00    -0.077 C 
ATOM     13  C   UNL     1      -5.307  -4.803   2.723  1.00  0.00    -0.028 C 
ATOM     14  C   UNL     1      -7.305  -5.003   4.133  1.00  0.00     0.039 C 
BRANCH  13  15
ATOM     15  C   UNL     1      -3.842  -4.711   2.360  1.00  0.00     0.035 C 
BRANCH  15  16
ATOM     16  C   UNL     1      -3.275  -3.320   2.671  1.00  0.00     0.079 C 
BRANCH  16  17
ATOM     17  C   UNL     1      -3.133  -2.481   1.428  1.00  0.00     0.130 C 
ATOM     18  O   UNL     1      -2.038  -2.366   0.898  1.00  0.00    -0.300 OA
ATOM     19  C   UNL     1      -4.310  -1.755   0.847  1.00  0.00     0.087 C 
ENDBRANCH  16  17
ENDBRANCH  15  16
ENDBRANCH  13  15
ENDBRANCH  11  12
ENDBRANCH   1  11
TORSDOF 9
ENDMDL
MODEL 6
REMARK VINA RESULT:    -4.627     15.755     18.105
REMARK INTER + INTRA:          -8.365
REMARK INTER:                  -7.126
REMARK INTRA:                  -1.239
REMARK UNBOUND:                -1.304
REMARK SMILES CC(=O)CCC=C(C)CCC=C(C)CCC=C(C)C
REMARK SMILES IDX 10 1 11 2 12 3 13 4 14 5 15 6 16 7 18 8 17 9 19 10 9 11 7 12
REMARK SMILES IDX 6 13 8 14 5 15 4 16 2 17 3 18 1 19
REMARK H PARENT
REMARK Flexibility Score: inf
ROOT
ATOM      1  C   UNL     1       9.604   6.822   6.508  1.00  0.00     0.032 C 
ENDROOT
BRANCH   1   2
ATOM      2  C   UNL     1       8.832   7.033   7.785  1.00  0.00    -0.028 C 
ATOM      3  C   UNL     1       9.333   6.836   9.027  1.00  0.00    -0.077 C 
ATOM      4  C   UNL     1      10.760   6.401   9.256  1.00  0.00     0.039 C 
BRANCH   3   5
ATOM      5  C   UNL     1       8.455   7.111  10.231  1.00  0.00     0.034 C 
BRANCH   5   6
ATOM      6  C   UNL     1       7.007   7.417   9.820  1.00  0.00     0.032 C 
BRANCH   6   7
ATOM      7  C   UNL     1       6.528   8.735  10.380  1.00  0.00    -0.028 C 
ATOM      8  C   UNL     1       4.197   7.912  10.776  1.00  0.00     0.039 C 
ATOM      9  C   UNL     1       5.263   8.981  10.784  1.00  0.00    -0.080 C 
ATOM     10  C   UNL     1       4.921  10.367  11.267  1.00  0.00     0.039 C 
ENDBRANCH   6   7
ENDBRANCH   5   6
ENDBRANCH   3   5
ENDBRANCH   1   2
BRANCH   1  11
ATOM     11  C   UNL     1       8.724   6.182   5.427  1.00  0.00     0.034 C 
BRANCH  11  12
ATOM     12  C   UNL     1       8.025   4.942   5.954  1.00  0.00    -0.077 C 
ATOM     13  C   UNL     1       8.683   3.823   6.339  1.00  0.00    -0.028 C 
ATOM     14  C   UNL     1       6.521   4.950   6.070  1.00  0.00     0.039 C 
BRANCH  13  15
ATOM     15  C   UNL     1      10.181   3.620   6.296  1.00  0.00     0.035 C 
BRANCH  15  16
ATOM     16  C   UNL     1      10.705   3.042   7.617  1.00  0.00     0.079 C 
BRANCH  16  17
ATOM     17  C   UNL     1      10.665   1.537   7.627  1.00  0.00     0.130 C 
ATOM     18  O   UNL     1      10.683   0.925   6.570  1.00  0.00    -0.300 OA
ATOM     19  C   UNL     1      10.570   0.775   8.916  1.00  0.00     0.087 C 
ENDBRANCH  16  17
ENDBRANCH  15  16
ENDBRANCH  13  15
ENDBRANCH  11  12
ENDBRANCH   1  11
TORSDOF 9
ENDMDL
MODEL 7
REMARK VINA RESULT:    -4.561      2.560      6.742
REMARK INTER + INTRA:          -8.265
REMARK INTER:                  -6.630
REMARK INTRA:                  -1.635
REMARK UNBOUND:                -1.304
REMARK SMILES CC(=O)CCC=C(C)CCC=C(C)CCC=C(C)C
REMARK SMILES IDX 10 1 11 2 12 3 13 4 14 5 15 6 16 7 18 8 17 9 19 10 9 11 7 12
REMARK SMILES IDX 6 13 8 14 5 15 4 16 2 17 3 18 1 19
REMARK H PARENT
REMARK Flexibility Score: inf
ROOT
ATOM      1  C   UNL     1      -6.224  -5.013   5.431  1.00  0.00     0.032 C 
ENDROOT
BRANCH   1   2
ATOM      2  C   UNL     1      -6.452  -3.715   6.164  1.00  0.00    -0.028 C 
ATOM      3  C   UNL     1      -7.598  -3.387   6.805  1.00  0.00    -0.077 C 
ATOM      4  C   UNL     1      -8.779  -4.325   6.869  1.00  0.00     0.039 C 
BRANCH   3   5
ATOM      5  C   UNL     1      -7.686  -2.057   7.526  1.00  0.00     0.034 C 
BRANCH   5   6
ATOM      6  C   UNL     1      -6.764  -2.013   8.753  1.00  0.00     0.032 C 
BRANCH   6   7
ATOM      7  C   UNL     1      -5.396  -1.473   8.413  1.00  0.00    -0.028 C 
ATOM      8  C   UNL     1      -4.210  -3.558   9.129  1.00  0.00     0.039 C 
ATOM      9  C   UNL     1      -4.239  -2.142   8.605  1.00  0.00    -0.080 C 
ATOM     10  C   UNL     1      -2.944  -1.448   8.270  1.00  0.00     0.039 C 
ENDBRANCH   6   7
ENDBRANCH   5   6
ENDBRANCH   3   5
ENDBRANCH   1   2
BRANCH   1  11
ATOM     11  C   UNL     1      -6.576  -4.879   3.945  1.00  0.00     0.034 C 
BRANCH  11  12
ATOM     12  C   UNL     1      -5.733  -5.814   3.097  1.00  0.00    -0.077 C 
ATOM     13  C   UNL     1      -4.773  -5.383   2.244  1.00  0.00    -0.028 C 
ATOM     14  C   UNL     1      -5.962  -7.301   3.208  1.00  0.00     0.039 C 
BRANCH  13  15
ATOM     15  C   UNL     1      -4.397  -3.941   1.990  1.00  0.00     0.035 C 
BRANCH  15  16
ATOM     16  C   UNL     1      -2.931  -3.673   2.353  1.00  0.00     0.079 C 
BRANCH  16  17
ATOM     17  C   UNL     1      -2.646  -3.978   3.800  1.00  0.00     0.130 C 
ATOM     18  O   UNL     1      -2.003  -4.974   4.092  1.00  0.00    -0.300 OA
ATOM     19  C   UNL     1      -3.170  -3.094   4.893  1.00  0.00     0.087 C 
ENDBRANCH  16  17
ENDBRANCH  15  16
ENDBRANCH  13  15
ENDBRANCH  11  12
ENDBRANCH   1  11
TORSDOF 9
ENDMDL
MODEL 8
REMARK VINA RESULT:    -4.554      1.708      2.647
REMARK INTER + INTRA:          -8.254
REMARK INTER:                  -6.964
REMARK INTRA:                  -1.290
REMARK UNBOUND:                -1.304
REMARK SMILES CC(=O)CCC=C(C)CCC=C(C)CCC=C(C)C
REMARK SMILES IDX 10 1 11 2 12 3 13 4 14 5 15 6 16 7 18 8 17 9 19 10 9 11 7 12
REMARK SMILES IDX 6 13 8 14 5 15 4 16 2 17 3 18 1 19
REMARK H PARENT
REMARK Flexibility Score: inf
ROOT
ATOM      1  C   UNL     1      -5.160  -3.627   7.115  1.00  0.00     0.032 C 
ENDROOT
BRANCH   1   2
ATOM      2  C   UNL     1      -4.988  -4.545   5.931  1.00  0.00    -0.028 C 
ATOM      3  C   UNL     1      -4.190  -4.286   4.869  1.00  0.00    -0.077 C 
ATOM      4  C   UNL     1      -3.356  -3.032   4.779  1.00  0.00     0.039 C 
BRANCH   3   5
ATOM      5  C   UNL     1      -4.087  -5.309   3.755  1.00  0.00     0.034 C 
BRANCH   5   6
ATOM      6  C   UNL     1      -4.873  -4.874   2.510  1.00  0.00     0.032 C 
BRANCH   6   7
ATOM      7  C   UNL     1      -6.365  -4.984   2.716  1.00  0.00    -0.028 C 
ATOM      8  C   UNL     1      -6.376  -7.480   2.533  1.00  0.00     0.039 C 
ATOM      9  C   UNL     1      -7.058  -6.143   2.698  1.00  0.00    -0.080 C 
ATOM     10  C   UNL     1      -8.555  -6.087   2.861  1.00  0.00     0.039 C 
ENDBRANCH   6   7
ENDBRANCH   5   6
ENDBRANCH   3   5
ENDBRANCH   1   2
BRANCH   1  11
ATOM     11  C   UNL     1      -6.314  -2.643   6.889  1.00  0.00     0.034 C 
BRANCH  11  12
ATOM     12  C   UNL     1      -7.648  -3.274   7.245  1.00  0.00    -0.077 C 
ATOM     13  C   UNL     1      -8.169  -3.257   8.494  1.00  0.00    -0.028 C 
ATOM     14  C   UNL     1      -8.447  -3.946   6.156  1.00  0.00     0.039 C 
BRANCH  13  15
ATOM     15  C   UNL     1      -7.524  -2.639   9.714  1.00  0.00     0.035 C 
BRANCH  15  16
ATOM     16  C   UNL     1      -8.183  -1.302  10.078  1.00  0.00     0.079 C 
BRANCH  16  17
ATOM     17  C   UNL     1      -7.184  -0.175  10.112  1.00  0.00     0.130 C 
ATOM     18  O   UNL     1      -6.916   0.363  11.175  1.00  0.00    -0.300 OA
ATOM     19  C   UNL     1      -6.536   0.321   8.853  1.00  0.00     0.087 C 
ENDBRANCH  16  17
ENDBRANCH  15  16
ENDBRANCH  13  15
ENDBRANCH  11  12
ENDBRANCH   1  11
TORSDOF 9
ENDMDL
MODEL 9
REMARK VINA RESULT:    -4.506      2.014      7.462
REMARK INTER + INTRA:          -8.181
REMARK INTER:                  -7.139
REMARK INTRA:                  -1.042
REMARK UNBOUND:                -1.304
REMARK SMILES CC(=O)CCC=C(C)CCC=C(C)CCC=C(C)C
REMARK SMILES IDX 10 1 11 2 12 3 13 4 14 5 15 6 16 7 18 8 17 9 19 10 9 11 7 12
REMARK SMILES IDX 6 13 8 14 5 15 4 16 2 17 3 18 1 19
REMARK H PARENT
REMARK Flexibility Score: inf
ROOT
ATOM      1  C   UNL     1      -5.693  -4.810   5.456  1.00  0.00     0.032 C 
ENDROOT
BRANCH   1   2
ATOM      2  C   UNL     1      -6.514  -3.825   6.248  1.00  0.00    -0.028 C 
ATOM      3  C   UNL     1      -6.030  -3.049   7.246  1.00  0.00    -0.077 C 
ATOM      4  C   UNL     1      -4.577  -3.081   7.654  1.00  0.00     0.039 C 
BRANCH   3   5
ATOM      5  C   UNL     1      -6.960  -2.079   7.946  1.00  0.00     0.034 C 
BRANCH   5   6
ATOM      6  C   UNL     1      -6.186  -1.062   8.798  1.00  0.00     0.032 C 
BRANCH   6   7
ATOM      7  C   UNL     1      -6.845   0.296   8.794  1.00  0.00    -0.028 C 
ATOM      8  C   UNL     1      -7.144   0.344  11.279  1.00  0.00     0.039 C 
ATOM      9  C   UNL     1      -7.308   0.926   9.895  1.00  0.00    -0.080 C 
ATOM     10  C   UNL     1      -7.997   2.255   9.726  1.00  0.00     0.039 C 
ENDBRANCH   6   7
ENDBRANCH   5   6
ENDBRANCH   3   5
ENDBRANCH   1   2
BRANCH   1  11
ATOM     11  C   UNL     1      -6.353  -5.123   4.108  1.00  0.00     0.034 C 
BRANCH  11  12
ATOM     12  C   UNL     1      -5.488  -6.056   3.279  1.00  0.00    -0.077 C 
ATOM     13  C   UNL     1      -4.588  -5.622   2.366  1.00  0.00    -0.028 C 
ATOM     14  C   UNL     1      -5.624  -7.545   3.483  1.00  0.00     0.039 C 
BRANCH  13  15
ATOM     15  C   UNL     1      -4.309  -4.178   2.017  1.00  0.00     0.035 C 
BRANCH  15  16
ATOM     16  C   UNL     1      -2.851  -3.803   2.311  1.00  0.00     0.079 C 
BRANCH  16  17
ATOM     17  C   UNL     1      -2.508  -3.983   3.766  1.00  0.00     0.130 C 
ATOM     18  O   UNL     1      -2.869  -3.146   4.580  1.00  0.00    -0.300 OA
ATOM     19  C   UNL     1      -1.698  -5.158   4.230  1.00  0.00     0.087 C 
ENDBRANCH  16  17
ENDBRANCH  15  16
ENDBRANCH  13  15
ENDBRANCH  11  12
ENDBRANCH   1  11
TORSDOF 9
ENDMDL
