MODEL 1
REMARK VINA RESULT:    -4.691      0.000      0.000
REMARK INTER + INTRA:          -5.727
REMARK INTER:                  -5.650
REMARK INTRA:                  -0.077
REMARK UNBOUND:                -0.077
REMARK SMILES OCCc1ccc(O)c(O)c1
REMARK SMILES IDX 3 1 4 2 5 3 6 4 7 5 11 6 9 7 8 8 10 10 2 12 1 13
REMARK H PARENT 8 9 10 11 1 14
REMARK Flexibility Score: inf
ROOT
ATOM      1  C   UNL     1      -4.484  20.602  -8.339  1.00  0.00     0.064 C 
ENDROOT
BRANCH   1   2
ATOM      2  C   UNL     1      -5.725  21.135  -9.005  1.00  0.00    -0.042 A 
ATOM      3  C   UNL     1      -5.625  21.995 -10.109  1.00  0.00     0.008 A 
ATOM      4  C   UNL     1      -6.777  22.465 -10.743  1.00  0.00     0.050 A 
ATOM      5  C   UNL     1      -8.043  22.077 -10.290  1.00  0.00     0.157 A 
ATOM      6  C   UNL     1      -6.995  20.737  -8.556  1.00  0.00     0.054 A 
ATOM      7  C   UNL     1      -8.153  21.207  -9.191  1.00  0.00     0.157 A 
BRANCH   5   8
ATOM      8  O   UNL     1      -9.175  22.563 -10.942  1.00  0.00    -0.504 OA
ATOM      9  H   UNL     1     -10.111  22.383 -10.600  1.00  0.00     0.293 HD
ENDBRANCH   5   8
BRANCH   7  10
ATOM     10  O   UNL     1      -9.410  20.812  -8.736  1.00  0.00    -0.504 OA
ATOM     11  H   UNL     1     -10.099  20.410  -9.360  1.00  0.00     0.293 HD
ENDBRANCH   7  10
ENDBRANCH   1   2
BRANCH   1  12
ATOM     12  C   UNL     1      -4.178  19.169  -8.784  1.00  0.00     0.161 C 
BRANCH  12  13
ATOM     13  O   UNL     1      -4.236  18.288  -7.695  1.00  0.00    -0.396 OA
ATOM     14  H   UNL     1      -4.719  18.761  -6.968  1.00  0.00     0.210 HD
ENDBRANCH  12  13
ENDBRANCH   1  12
TORSDOF 5
ENDMDL
MODEL 2
REMARK VINA RESULT:    -4.548      1.445      4.833
REMARK INTER + INTRA:          -5.555
REMARK INTER:                  -5.468
REMARK INTRA:                  -0.087
REMARK UNBOUND:                -0.077
REMARK SMILES OCCc1ccc(O)c(O)c1
REMARK SMILES IDX 3 1 4 2 5 3 6 4 7 5 11 6 9 7 8 8 10 10 2 12 1 13
REMARK H PARENT 8 9 10 11 1 14
REMARK Flexibility Score: inf
ROOT
ATOM      1  C   UNL     1      -6.925  22.882 -10.629  1.00  0.00     0.064 C 
ENDROOT
BRANCH   1   2
ATOM      2  C   UNL     1      -6.218  21.750  -9.931  1.00  0.00    -0.042 A 
ATOM      3  C   UNL     1      -6.758  20.454  -9.952  1.00  0.00     0.008 A 
ATOM      4  C   UNL     1      -6.086  19.401  -9.328  1.00  0.00     0.050 A 
ATOM      5  C   UNL     1      -4.865  19.623  -8.683  1.00  0.00     0.157 A 
ATOM      6  C   UNL     1      -4.987  21.971  -9.292  1.00  0.00     0.054 A 
ATOM      7  C   UNL     1      -4.312  20.915  -8.665  1.00  0.00     0.157 A 
BRANCH   5   8
ATOM      8  O   UNL     1      -4.218  18.553  -8.068  1.00  0.00    -0.504 OA
ATOM      9  H   UNL     1      -3.292  18.252  -8.346  1.00  0.00     0.293 HD
ENDBRANCH   5   8
BRANCH   7  10
ATOM     10  O   UNL     1      -3.093  21.144  -8.028  1.00  0.00    -0.504 OA
ATOM     11  H   UNL     1      -2.992  21.855  -7.314  1.00  0.00     0.293 HD
ENDBRANCH   7  10
ENDBRANCH   1   2
BRANCH   1  12
ATOM     12  C   UNL     1      -8.446  22.756 -10.504  1.00  0.00     0.161 C 
BRANCH  12  13
ATOM     13  O   UNL     1      -9.053  22.797 -11.768  1.00  0.00    -0.396 OA
ATOM     14  H   UNL     1      -8.321  22.800 -12.438  1.00  0.00     0.210 HD
ENDBRANCH  12  13
ENDBRANCH   1  12
TORSDOF 5
ENDMDL
MODEL 3
REMARK VINA RESULT:    -4.440      1.247      4.634
REMARK INTER + INTRA:          -5.425
REMARK INTER:                  -5.336
REMARK INTRA:                  -0.089
REMARK UNBOUND:                -0.077
REMARK SMILES OCCc1ccc(O)c(O)c1
REMARK SMILES IDX 3 1 4 2 5 3 6 4 7 5 11 6 9 7 8 8 10 10 2 12 1 13
REMARK H PARENT 8 9 10 11 1 14
REMARK Flexibility Score: inf
ROOT
ATOM      1  C   UNL     1      -6.647  21.673 -10.443  1.00  0.00     0.064 C 
ENDROOT
BRANCH   1   2
ATOM      2  C   UNL     1      -5.625  21.269  -9.413  1.00  0.00    -0.042 A 
ATOM      3  C   UNL     1      -4.938  22.244  -8.674  1.00  0.00     0.008 A 
ATOM      4  C   UNL     1      -4.012  21.867  -7.699  1.00  0.00     0.050 A 
ATOM      5  C   UNL     1      -3.765  20.514  -7.443  1.00  0.00     0.157 A 
ATOM      6  C   UNL     1      -5.385  19.911  -9.150  1.00  0.00     0.054 A 
ATOM      7  C   UNL     1      -4.456  19.530  -8.171  1.00  0.00     0.157 A 
BRANCH   5   8
ATOM      8  O   UNL     1      -2.834  20.167  -6.465  1.00  0.00    -0.504 OA
ATOM      9  H   UNL     1      -1.945  19.741  -6.696  1.00  0.00     0.293 HD
ENDBRANCH   5   8
BRANCH   7  10
ATOM     10  O   UNL     1      -4.219  18.179  -7.919  1.00  0.00    -0.504 OA
ATOM     11  H   UNL     1      -3.297  17.774  -8.021  1.00  0.00     0.293 HD
ENDBRANCH   7  10
ENDBRANCH   1   2
BRANCH   1  12
ATOM     12  C   UNL     1      -7.967  22.092  -9.791  1.00  0.00     0.161 C 
BRANCH  12  13
ATOM     13  O   UNL     1      -8.788  20.975  -9.572  1.00  0.00    -0.396 OA
ATOM     14  H   UNL     1      -9.395  20.907 -10.354  1.00  0.00     0.210 HD
ENDBRANCH  12  13
ENDBRANCH   1  12
TORSDOF 5
ENDMDL
MODEL 4
REMARK VINA RESULT:    -4.379      1.262      2.345
REMARK INTER + INTRA:          -5.351
REMARK INTER:                  -5.275
REMARK INTRA:                  -0.076
REMARK UNBOUND:                -0.077
REMARK SMILES OCCc1ccc(O)c(O)c1
REMARK SMILES IDX 3 1 4 2 5 3 6 4 7 5 11 6 9 7 8 8 10 10 2 12 1 13
REMARK H PARENT 8 9 10 11 1 14
REMARK Flexibility Score: inf
ROOT
ATOM      1  C   UNL     1      -5.090  21.599  -9.479  1.00  0.00     0.064 C 
ENDROOT
BRANCH   1   2
ATOM      2  C   UNL     1      -6.585  21.684  -9.641  1.00  0.00    -0.042 A 
ATOM      3  C   UNL     1      -7.426  20.799  -8.948  1.00  0.00     0.008 A 
ATOM      4  C   UNL     1      -8.813  20.899  -9.078  1.00  0.00     0.050 A 
ATOM      5  C   UNL     1      -9.379  21.885  -9.893  1.00  0.00     0.157 A 
ATOM      6  C   UNL     1      -7.153  22.681 -10.451  1.00  0.00     0.054 A 
ATOM      7  C   UNL     1      -8.545  22.782 -10.582  1.00  0.00     0.157 A 
BRANCH   5   8
ATOM      8  O   UNL     1     -10.766  21.959 -10.004  1.00  0.00    -0.504 OA
ATOM      9  H   UNL     1     -11.276  22.814  -9.816  1.00  0.00     0.293 HD
ENDBRANCH   5   8
BRANCH   7  10
ATOM     10  O   UNL     1      -9.101  23.770 -11.393  1.00  0.00    -0.504 OA
ATOM     11  H   UNL     1      -8.559  24.565 -11.710  1.00  0.00     0.293 HD
ENDBRANCH   7  10
ENDBRANCH   1   2
BRANCH   1  12
ATOM     12  C   UNL     1      -4.703  20.701  -8.301  1.00  0.00     0.161 C 
BRANCH  12  13
ATOM     13  O   UNL     1      -3.467  20.081  -8.534  1.00  0.00    -0.396 OA
ATOM     14  H   UNL     1      -3.096  19.835  -7.647  1.00  0.00     0.210 HD
ENDBRANCH  12  13
ENDBRANCH   1  12
TORSDOF 5
ENDMDL
MODEL 5
REMARK VINA RESULT:    -4.340      2.655      4.425
REMARK INTER + INTRA:          -5.305
REMARK INTER:                  -5.246
REMARK INTRA:                  -0.059
REMARK UNBOUND:                -0.077
REMARK SMILES OCCc1ccc(O)c(O)c1
REMARK SMILES IDX 3 1 4 2 5 3 6 4 7 5 11 6 9 7 8 8 10 10 2 12 1 13
REMARK H PARENT 8 9 10 11 1 14
REMARK Flexibility Score: inf
ROOT
ATOM      1  C   UNL     1     -10.383  21.635  -7.022  1.00  0.00     0.064 C 
ENDROOT
BRANCH   1   2
ATOM      2  C   UNL     1      -9.395  21.752  -8.153  1.00  0.00    -0.042 A 
ATOM      3  C   UNL     1      -8.066  21.337  -7.981  1.00  0.00     0.008 A 
ATOM      4  C   UNL     1      -7.159  21.420  -9.040  1.00  0.00     0.050 A 
ATOM      5  C   UNL     1      -7.567  21.911 -10.285  1.00  0.00     0.157 A 
ATOM      6  C   UNL     1      -9.808  22.234  -9.406  1.00  0.00     0.054 A 
ATOM      7  C   UNL     1      -8.900  22.319 -10.470  1.00  0.00     0.157 A 
BRANCH   5   8
ATOM      8  O   UNL     1      -6.640  21.983 -11.323  1.00  0.00    -0.504 OA
ATOM      9  H   UNL     1      -6.407  22.858 -11.777  1.00  0.00     0.293 HD
ENDBRANCH   5   8
BRANCH   7  10
ATOM     10  O   UNL     1      -9.316  22.804 -11.709  1.00  0.00    -0.504 OA
ATOM     11  H   UNL     1     -10.222  23.239 -11.832  1.00  0.00     0.293 HD
ENDBRANCH   7  10
ENDBRANCH   1   2
BRANCH   1  12
ATOM     12  C   UNL     1      -9.818  22.213  -5.722  1.00  0.00     0.161 C 
BRANCH  12  13
ATOM     13  O   UNL     1     -10.645  21.891  -4.636  1.00  0.00    -0.396 OA
ATOM     14  H   UNL     1     -10.356  21.000  -4.309  1.00  0.00     0.210 HD
ENDBRANCH  12  13
ENDBRANCH   1  12
TORSDOF 5
ENDMDL
MODEL 6
REMARK VINA RESULT:    -4.237      3.165      5.084
REMARK INTER + INTRA:          -5.181
REMARK INTER:                  -5.124
REMARK INTRA:                  -0.057
REMARK UNBOUND:                -0.077
REMARK SMILES OCCc1ccc(O)c(O)c1
REMARK SMILES IDX 3 1 4 2 5 3 6 4 7 5 11 6 9 7 8 8 10 10 2 12 1 13
REMARK H PARENT 8 9 10 11 1 14
REMARK Flexibility Score: inf
ROOT
ATOM      1  C   UNL     1      -9.754  21.651  -9.846  1.00  0.00     0.064 C 
ENDROOT
BRANCH   1   2
ATOM      2  C   UNL     1      -9.317  21.632  -8.405  1.00  0.00    -0.042 A 
ATOM      3  C   UNL     1      -7.962  21.468  -8.076  1.00  0.00     0.008 A 
ATOM      4  C   UNL     1      -7.556  21.480  -6.740  1.00  0.00     0.050 A 
ATOM      5  C   UNL     1      -8.491  21.661  -5.717  1.00  0.00     0.157 A 
ATOM      6  C   UNL     1     -10.255  21.825  -7.379  1.00  0.00     0.054 A 
ATOM      7  C   UNL     1      -9.849  21.836  -6.037  1.00  0.00     0.157 A 
BRANCH   5   8
ATOM      8  O   UNL     1      -8.056  21.667  -4.392  1.00  0.00    -0.504 OA
ATOM      9  H   UNL     1      -7.186  22.105  -4.114  1.00  0.00     0.293 HD
ENDBRANCH   5   8
BRANCH   7  10
ATOM     10  O   UNL     1     -10.788  22.023  -5.023  1.00  0.00    -0.504 OA
ATOM     11  H   UNL     1     -11.315  21.248  -4.639  1.00  0.00     0.293 HD
ENDBRANCH   7  10
ENDBRANCH   1   2
BRANCH   1  12
ATOM     12  C   UNL     1      -8.981  22.697 -10.654  1.00  0.00     0.161 C 
BRANCH  12  13
ATOM     13  O   UNL     1      -9.326  22.630 -12.012  1.00  0.00    -0.396 OA
ATOM     14  H   UNL     1     -10.116  23.217 -12.137  1.00  0.00     0.210 HD
ENDBRANCH  12  13
ENDBRANCH   1  12
TORSDOF 5
ENDMDL
MODEL 7
REMARK VINA RESULT:    -4.154      2.766      3.540
REMARK INTER + INTRA:          -5.081
REMARK INTER:                  -4.971
REMARK INTRA:                  -0.111
REMARK UNBOUND:                -0.077
REMARK SMILES OCCc1ccc(O)c(O)c1
REMARK SMILES IDX 3 1 4 2 5 3 6 4 7 5 11 6 9 7 8 8 10 10 2 12 1 13
REMARK H PARENT 8 9 10 11 1 14
REMARK Flexibility Score: inf
ROOT
ATOM      1  C   UNL     1      -7.340  21.341  -7.700  1.00  0.00     0.064 C 
ENDROOT
BRANCH   1   2
ATOM      2  C   UNL     1      -7.787  22.418  -8.654  1.00  0.00    -0.042 A 
ATOM      3  C   UNL     1      -7.613  23.772  -8.329  1.00  0.00     0.008 A 
ATOM      4  C   UNL     1      -8.001  24.768  -9.227  1.00  0.00     0.050 A 
ATOM      5  C   UNL     1      -8.561  24.427 -10.463  1.00  0.00     0.157 A 
ATOM      6  C   UNL     1      -8.339  22.075  -9.899  1.00  0.00     0.054 A 
ATOM      7  C   UNL     1      -8.730  23.073 -10.802  1.00  0.00     0.157 A 
BRANCH   5   8
ATOM      8  O   UNL     1      -8.941  25.443 -11.339  1.00  0.00    -0.504 OA
ATOM      9  H   UNL     1      -8.456  26.332 -11.375  1.00  0.00     0.293 HD
ENDBRANCH   5   8
BRANCH   7  10
ATOM     10  O   UNL     1      -9.283  22.725 -12.034  1.00  0.00    -0.504 OA
ATOM     11  H   UNL     1      -9.682  23.421 -12.653  1.00  0.00     0.293 HD
ENDBRANCH   7  10
ENDBRANCH   1   2
BRANCH   1  12
ATOM     12  C   UNL     1      -8.174  21.348  -6.416  1.00  0.00     0.161 C 
BRANCH  12  13
ATOM     13  O   UNL     1      -9.510  21.020  -6.690  1.00  0.00    -0.396 OA
ATOM     14  H   UNL     1      -9.885  20.628  -5.859  1.00  0.00     0.210 HD
ENDBRANCH  12  13
ENDBRANCH   1  12
TORSDOF 5
ENDMDL
MODEL 8
REMARK VINA RESULT:    -4.108      1.994      4.590
REMARK INTER + INTRA:          -5.025
REMARK INTER:                  -4.958
REMARK INTRA:                  -0.068
REMARK UNBOUND:                -0.077
REMARK SMILES OCCc1ccc(O)c(O)c1
REMARK SMILES IDX 3 1 4 2 5 3 6 4 7 5 11 6 9 7 8 8 10 10 2 12 1 13
REMARK H PARENT 8 9 10 11 1 14
REMARK Flexibility Score: inf
ROOT
ATOM      1  C   UNL     1      -7.188  24.918 -10.233  1.00  0.00     0.064 C 
ENDROOT
BRANCH   1   2
ATOM      2  C   UNL     1      -6.961  23.446 -10.012  1.00  0.00    -0.042 A 
ATOM      3  C   UNL     1      -5.680  22.894 -10.165  1.00  0.00     0.008 A 
ATOM      4  C   UNL     1      -5.467  21.534  -9.932  1.00  0.00     0.050 A 
ATOM      5  C   UNL     1      -6.525  20.708  -9.537  1.00  0.00     0.157 A 
ATOM      6  C   UNL     1      -8.022  22.620  -9.605  1.00  0.00     0.054 A 
ATOM      7  C   UNL     1      -7.810  21.254  -9.371  1.00  0.00     0.157 A 
BRANCH   5   8
ATOM      8  O   UNL     1      -6.282  19.354  -9.312  1.00  0.00    -0.504 OA
ATOM      9  H   UNL     1      -6.759  18.628  -9.834  1.00  0.00     0.293 HD
ENDBRANCH   5   8
BRANCH   7  10
ATOM     10  O   UNL     1      -8.869  20.440  -8.973  1.00  0.00    -0.504 OA
ATOM     11  H   UNL     1      -9.545  20.746  -8.284  1.00  0.00     0.293 HD
ENDBRANCH   7  10
ENDBRANCH   1   2
BRANCH   1  12
ATOM     12  C   UNL     1      -8.655  25.219 -10.553  1.00  0.00     0.161 C 
BRANCH  12  13
ATOM     13  O   UNL     1      -8.755  26.223 -11.527  1.00  0.00    -0.396 OA
ATOM     14  H   UNL     1      -9.723  26.380 -11.680  1.00  0.00     0.210 HD
ENDBRANCH  12  13
ENDBRANCH   1  12
TORSDOF 5
ENDMDL
MODEL 9
REMARK VINA RESULT:    -4.093      1.589      4.337
REMARK INTER + INTRA:          -5.007
REMARK INTER:                  -4.928
REMARK INTRA:                  -0.079
REMARK UNBOUND:                -0.077
REMARK SMILES OCCc1ccc(O)c(O)c1
REMARK SMILES IDX 3 1 4 2 5 3 6 4 7 5 11 6 9 7 8 8 10 10 2 12 1 13
REMARK H PARENT 8 9 10 11 1 14
REMARK Flexibility Score: inf
ROOT
ATOM      1  C   UNL     1      -7.187  22.419 -11.067  1.00  0.00     0.064 C 
ENDROOT
BRANCH   1   2
ATOM      2  C   UNL     1      -6.683  21.893  -9.748  1.00  0.00    -0.042 A 
ATOM      3  C   UNL     1      -5.307  21.736  -9.525  1.00  0.00     0.008 A 
ATOM      4  C   UNL     1      -4.841  21.276  -8.292  1.00  0.00     0.050 A 
ATOM      5  C   UNL     1      -5.740  20.973  -7.263  1.00  0.00     0.157 A 
ATOM      6  C   UNL     1      -7.586  21.599  -8.713  1.00  0.00     0.054 A 
ATOM      7  C   UNL     1      -7.120  21.137  -7.474  1.00  0.00     0.157 A 
BRANCH   5   8
ATOM      8  O   UNL     1      -5.246  20.515  -6.043  1.00  0.00    -0.504 OA
ATOM      9  H   UNL     1      -5.797  19.931  -5.425  1.00  0.00     0.293 HD
ENDBRANCH   5   8
BRANCH   7  10
ATOM     10  O   UNL     1      -8.023  20.842  -6.453  1.00  0.00    -0.504 OA
ATOM     11  H   UNL     1      -8.824  20.242  -6.609  1.00  0.00     0.293 HD
ENDBRANCH   7  10
ENDBRANCH   1   2
BRANCH   1  12
ATOM     12  C   UNL     1      -8.609  22.974 -10.944  1.00  0.00     0.161 C 
BRANCH  12  13
ATOM     13  O   UNL     1      -9.362  22.666 -12.086  1.00  0.00    -0.396 OA
ATOM     14  H   UNL     1     -10.138  22.127 -11.781  1.00  0.00     0.210 HD
ENDBRANCH  12  13
ENDBRANCH   1  12
TORSDOF 5
ENDMDL
