MODEL 1
REMARK VINA RESULT:    -3.713      0.000      0.000
REMARK INTER + INTRA:          -3.666
REMARK INTER:                  -4.582
REMARK INTRA:                   0.916
REMARK UNBOUND:                 0.916
REMARK SMILES C=C1CC[C@@H]2[C@H]1[C@@H]1[C@@H](CC[C@@H]2C)C1(C)C
REMARK SMILES IDX 6 1 5 2 4 3 3 4 2 5 1 6 11 7 12 8 10 9 7 11 8 12 13 13 14 14
REMARK SMILES IDX 15 15 9 16
REMARK H PARENT
REMARK Flexibility Score: 80.00
ROOT
ATOM      1  C   UNL     1       9.270  19.278  24.643  1.00  0.00     0.022 C 
ATOM      2  C   UNL     1       9.490  19.290  23.095  1.00  0.00    -0.000 C 
ATOM      3  C   UNL     1       8.071  19.166  22.500  1.00  0.00     0.009 C 
ATOM      4  C   UNL     1       7.106  19.762  23.521  1.00  0.00     0.031 C 
ATOM      5  C   UNL     1       7.847  19.701  24.809  1.00  0.00    -0.074 C 
ATOM      6  C   UNL     1       7.265  19.924  25.995  1.00  0.00     0.008 C 
ENDROOT
BRANCH   2   7
ATOM      7  C   UNL     1      10.289  20.487  22.435  1.00  0.00    -0.011 C 
ATOM      8  C   UNL     1       9.627  21.874  22.559  1.00  0.00     0.008 C 
BRANCH   7   9
ATOM      9  C   UNL     1      11.825  20.517  22.721  1.00  0.00     0.004 CG0
ATOM     10  G   UNL     1      12.258  20.805  24.172  1.00  0.00     0.000 G0
ENDBRANCH   7   9
ENDBRANCH   2   7
BRANCH   1  11
ATOM     11  C   UNL     1      10.234  20.197  25.406  1.00  0.00     0.006 C 
ATOM     12  C   UNL     1      11.663  19.725  25.081  1.00  0.00    -0.001 C 
ATOM     13  C   UNL     1      11.203  19.833  26.529  1.00  0.00    -0.029 C 
ATOM     14  C   UNL     1      10.937  18.519  27.275  1.00  0.00     0.012 C 
ATOM     15  C   UNL     1      11.778  20.996  27.346  1.00  0.00     0.012 C 
BRANCH  12  16
ATOM     16  C   UNL     1      12.262  20.799  24.179  1.00  0.00     0.005 CG0
ATOM     17  G   UNL     1      11.819  20.515  22.731  1.00  0.00     0.000 G0
ENDBRANCH  12  16
ENDBRANCH   1  11
TORSDOF 0
ENDMDL
MODEL 2
REMARK VINA RESULT:    -3.700      1.346      3.945
REMARK INTER + INTRA:          -3.649
REMARK INTER:                  -4.591
REMARK INTRA:                   0.942
REMARK UNBOUND:                 0.916
REMARK SMILES C=C1CC[C@@H]2[C@H]1[C@@H]1[C@@H](CC[C@@H]2C)C1(C)C
REMARK SMILES IDX 6 1 5 2 4 3 3 4 2 5 1 6 11 7 12 8 10 9 7 11 8 12 13 13 14 14
REMARK SMILES IDX 15 15 9 16
REMARK H PARENT
REMARK Flexibility Score: 80.00
ROOT
ATOM      1  C   UNL     1       8.712  20.256  25.629  1.00  0.00     0.022 C 
ATOM      2  C   UNL     1      10.172  20.802  25.497  1.00  0.00    -0.000 C 
ATOM      3  C   UNL     1      10.815  20.525  26.872  1.00  0.00     0.009 C 
ATOM      4  C   UNL     1      10.098  19.316  27.465  1.00  0.00     0.031 C 
ATOM      5  C   UNL     1       8.794  19.273  26.752  1.00  0.00    -0.074 C 
ATOM      6  C   UNL     1       7.778  18.490  27.138  1.00  0.00     0.008 C 
ENDROOT
BRANCH   2   7
ATOM      7  C   UNL     1      11.088  20.282  24.315  1.00  0.00    -0.011 C 
ATOM      8  C   UNL     1      11.438  18.781  24.358  1.00  0.00     0.008 C 
BRANCH   7   9
ATOM      9  C   UNL     1      10.698  20.777  22.885  1.00  0.00     0.004 CG0
ATOM     10  G   UNL     1       9.373  20.248  22.303  1.00  0.00     0.000 G0
ENDBRANCH   7   9
ENDBRANCH   2   7
BRANCH   1  11
ATOM     11  C   UNL     1       8.179  19.612  24.343  1.00  0.00     0.006 C 
ATOM     12  C   UNL     1       8.241  20.685  23.239  1.00  0.00    -0.001 C 
ATOM     13  C   UNL     1       6.928  19.977  23.546  1.00  0.00    -0.029 C 
ATOM     14  C   UNL     1       5.852  20.789  24.280  1.00  0.00     0.012 C 
ATOM     15  C   UNL     1       6.445  18.951  22.514  1.00  0.00     0.012 C 
BRANCH  12  16
ATOM     16  C   UNL     1       9.369  20.259  22.306  1.00  0.00     0.005 CG0
ATOM     17  G   UNL     1      10.698  20.781  22.885  1.00  0.00     0.000 G0
ENDBRANCH  12  16
ENDBRANCH   1  11
TORSDOF 0
ENDMDL
MODEL 3
REMARK VINA RESULT:    -3.619      1.101      3.857
REMARK INTER + INTRA:          -3.549
REMARK INTER:                  -4.464
REMARK INTRA:                   0.915
REMARK UNBOUND:                 0.916
REMARK SMILES C=C1CC[C@@H]2[C@H]1[C@@H]1[C@@H](CC[C@@H]2C)C1(C)C
REMARK SMILES IDX 6 1 5 2 4 3 3 4 2 5 1 6 11 7 12 8 10 9 7 11 8 12 13 13 14 14
REMARK SMILES IDX 15 15 9 16
REMARK H PARENT
REMARK Flexibility Score: 80.00
ROOT
ATOM      1  C   UNL     1      10.610  20.426  25.512  1.00  0.00     0.022 C 
ATOM      2  C   UNL     1      11.771  21.314  24.953  1.00  0.00    -0.000 C 
ATOM      3  C   UNL     1      12.866  21.248  26.039  1.00  0.00     0.009 C 
ATOM      4  C   UNL     1      12.695  19.917  26.765  1.00  0.00     0.031 C 
ATOM      5  C   UNL     1      11.284  19.529  26.498  1.00  0.00    -0.074 C 
ATOM      6  C   UNL     1      10.669  18.530  27.144  1.00  0.00     0.008 C 
ENDROOT
BRANCH   2   7
ATOM      7  C   UNL     1      12.362  21.004  23.518  1.00  0.00    -0.011 C 
ATOM      8  C   UNL     1      13.068  19.641  23.372  1.00  0.00     0.008 C 
BRANCH   7   9
ATOM      9  C   UNL     1      11.426  21.337  22.312  1.00  0.00     0.004 CG0
ATOM     10  G   UNL     1      10.143  20.495  22.172  1.00  0.00     0.000 G0
ENDBRANCH   7   9
ENDBRANCH   2   7
BRANCH   1  11
ATOM     11  C   UNL     1       9.871  19.631  24.427  1.00  0.00     0.006 C 
ATOM     12  C   UNL     1       9.303  20.653  23.424  1.00  0.00    -0.001 C 
ATOM     13  C   UNL     1       8.380  19.642  24.093  1.00  0.00    -0.029 C 
ATOM     14  C   UNL     1       7.431  20.172  25.175  1.00  0.00     0.012 C 
ATOM     15  C   UNL     1       7.864  18.498  23.212  1.00  0.00     0.012 C 
BRANCH  12  16
ATOM     16  C   UNL     1      10.138  20.503  22.158  1.00  0.00     0.005 CG0
ATOM     17  G   UNL     1      11.422  21.339  22.325  1.00  0.00     0.000 G0
ENDBRANCH  12  16
ENDBRANCH   1  11
TORSDOF 0
ENDMDL
MODEL 4
REMARK VINA RESULT:    -3.474      3.454      5.206
REMARK INTER + INTRA:          -3.371
REMARK INTER:                  -4.287
REMARK INTRA:                   0.915
REMARK UNBOUND:                 0.916
REMARK SMILES C=C1CC[C@@H]2[C@H]1[C@@H]1[C@@H](CC[C@@H]2C)C1(C)C
REMARK SMILES IDX 6 1 5 2 4 3 3 4 2 5 1 6 11 7 12 8 10 9 7 11 8 12 13 13 14 14
REMARK SMILES IDX 15 15 9 16
REMARK H PARENT
REMARK Flexibility Score: 80.00
ROOT
ATOM      1  C   UNL     1       6.273  20.846  22.973  1.00  0.00     0.022 C 
ATOM      2  C   UNL     1       5.585  22.245  22.843  1.00  0.00    -0.000 C 
ATOM      3  C   UNL     1       4.722  22.136  21.569  1.00  0.00     0.009 C 
ATOM      4  C   UNL     1       4.356  20.664  21.402  1.00  0.00     0.031 C 
ATOM      5  C   UNL     1       5.391  19.935  22.182  1.00  0.00    -0.074 C 
ATOM      6  C   UNL     1       5.557  18.608  22.109  1.00  0.00     0.008 C 
ENDROOT
BRANCH   2   7
ATOM      7  C   UNL     1       4.748  22.812  24.061  1.00  0.00    -0.011 C 
ATOM      8  C   UNL     1       3.492  22.000  24.437  1.00  0.00     0.008 C 
BRANCH   7   9
ATOM      9  C   UNL     1       5.579  23.261  25.306  1.00  0.00     0.004 CG0
ATOM     10  G   UNL     1       6.294  22.152  26.102  1.00  0.00     0.000 G0
ENDBRANCH   7   9
ENDBRANCH   2   7
BRANCH   1  11
ATOM     11  C   UNL     1       6.431  20.373  24.424  1.00  0.00     0.006 C 
ATOM     12  C   UNL     1       7.274  21.433  25.157  1.00  0.00    -0.001 C 
ATOM     13  C   UNL     1       7.710  19.974  25.158  1.00  0.00    -0.029 C 
ATOM     14  C   UNL     1       8.921  19.607  24.291  1.00  0.00     0.012 C 
ATOM     15  C   UNL     1       7.536  19.207  26.475  1.00  0.00     0.012 C 
BRANCH  12  16
ATOM     16  C   UNL     1       6.313  22.151  26.099  1.00  0.00     0.005 CG0
ATOM     17  G   UNL     1       5.588  23.252  25.301  1.00  0.00     0.000 G0
ENDBRANCH  12  16
ENDBRANCH   1  11
TORSDOF 0
ENDMDL
MODEL 5
REMARK VINA RESULT:    -3.473      1.930      3.735
REMARK INTER + INTRA:          -3.370
REMARK INTER:                  -4.268
REMARK INTRA:                   0.898
REMARK UNBOUND:                 0.916
REMARK SMILES C=C1CC[C@@H]2[C@H]1[C@@H]1[C@@H](CC[C@@H]2C)C1(C)C
REMARK SMILES IDX 6 1 5 2 4 3 3 4 2 5 1 6 11 7 12 8 10 9 7 11 8 12 13 13 14 14
REMARK SMILES IDX 15 15 9 16
REMARK H PARENT
REMARK Flexibility Score: 80.00
ROOT
ATOM      1  C   UNL     1       9.339  20.019  25.327  1.00  0.00     0.022 C 
ATOM      2  C   UNL     1       7.999  19.212  25.360  1.00  0.00    -0.000 C 
ATOM      3  C   UNL     1       7.325  19.634  26.683  1.00  0.00     0.009 C 
ATOM      4  C   UNL     1       7.818  21.040  27.007  1.00  0.00     0.031 C 
ATOM      5  C   UNL     1       9.089  21.171  26.246  1.00  0.00    -0.074 C 
ATOM      6  C   UNL     1       9.951  22.179  26.435  1.00  0.00     0.008 C 
ENDROOT
BRANCH   2   7
ATOM      7  C   UNL     1       6.997  19.325  24.140  1.00  0.00    -0.011 C 
ATOM      8  C   UNL     1       6.394  20.725  23.905  1.00  0.00     0.008 C 
BRANCH   7   9
ATOM      9  C   UNL     1       7.455  18.629  22.818  1.00  0.00     0.004 CG0
ATOM     10  G   UNL     1       8.683  19.228  22.105  1.00  0.00     0.000 G0
ENDBRANCH   7   9
ENDBRANCH   2   7
BRANCH   1  11
ATOM     11  C   UNL     1       9.740  20.484  23.921  1.00  0.00     0.006 C 
ATOM     12  C   UNL     1       9.881  19.222  23.049  1.00  0.00    -0.001 C 
ATOM     13  C   UNL     1      11.037  20.207  23.164  1.00  0.00    -0.029 C 
ATOM     14  C   UNL     1      12.247  19.768  23.999  1.00  0.00     0.012 C 
ATOM     15  C   UNL     1      11.317  21.081  21.936  1.00  0.00     0.012 C 
BRANCH  12  16
ATOM     16  C   UNL     1       8.693  19.241  22.094  1.00  0.00     0.005 CG0
ATOM     17  G   UNL     1       7.479  18.629  22.821  1.00  0.00     0.000 G0
ENDBRANCH  12  16
ENDBRANCH   1  11
TORSDOF 0
ENDMDL
MODEL 6
REMARK VINA RESULT:    -3.438      1.694      3.472
REMARK INTER + INTRA:          -3.327
REMARK INTER:                  -4.261
REMARK INTRA:                   0.934
REMARK UNBOUND:                 0.916
REMARK SMILES C=C1CC[C@@H]2[C@H]1[C@@H]1[C@@H](CC[C@@H]2C)C1(C)C
REMARK SMILES IDX 6 1 5 2 4 3 3 4 2 5 1 6 11 7 12 8 10 9 7 11 8 12 13 13 14 14
REMARK SMILES IDX 15 15 9 16
REMARK H PARENT
REMARK Flexibility Score: 80.00
ROOT
ATOM      1  C   UNL     1       8.579  20.295  23.291  1.00  0.00     0.022 C 
ATOM      2  C   UNL     1       7.674  21.000  24.354  1.00  0.00    -0.000 C 
ATOM      3  C   UNL     1       6.241  20.543  24.007  1.00  0.00     0.009 C 
ATOM      4  C   UNL     1       6.357  19.181  23.331  1.00  0.00     0.031 C 
ATOM      5  C   UNL     1       7.756  19.138  22.826  1.00  0.00    -0.074 C 
ATOM      6  C   UNL     1       8.195  18.199  21.977  1.00  0.00     0.008 C 
ENDROOT
BRANCH   2   7
ATOM      7  C   UNL     1       7.986  20.799  25.893  1.00  0.00    -0.011 C 
ATOM      8  C   UNL     1       7.822  19.359  26.420  1.00  0.00     0.008 C 
BRANCH   7   9
ATOM      9  C   UNL     1       9.281  21.497  26.420  1.00  0.00     0.004 CG0
ATOM     10  G   UNL     1      10.626  20.953  25.900  1.00  0.00     0.000 G0
ENDBRANCH   7   9
ENDBRANCH   2   7
BRANCH   1  11
ATOM     11  C   UNL     1       9.938  19.846  23.844  1.00  0.00     0.006 C 
ATOM     12  C   UNL     1      10.644  21.103  24.387  1.00  0.00    -0.001 C 
ATOM     13  C   UNL     1      11.334  20.223  23.352  1.00  0.00    -0.029 C 
ATOM     14  C   UNL     1      11.440  20.776  21.925  1.00  0.00     0.012 C 
ATOM     15  C   UNL     1      12.497  19.358  23.854  1.00  0.00     0.012 C 
BRANCH  12  16
ATOM     16  C   UNL     1      10.626  20.968  25.905  1.00  0.00     0.005 CG0
ATOM     17  G   UNL     1       9.271  21.493  26.420  1.00  0.00     0.000 G0
ENDBRANCH  12  16
ENDBRANCH   1  11
TORSDOF 0
ENDMDL
MODEL 7
REMARK VINA RESULT:    -3.331      2.110      4.804
REMARK INTER + INTRA:          -3.194
REMARK INTER:                  -4.108
REMARK INTRA:                   0.914
REMARK UNBOUND:                 0.916
REMARK SMILES C=C1CC[C@@H]2[C@H]1[C@@H]1[C@@H](CC[C@@H]2C)C1(C)C
REMARK SMILES IDX 6 1 5 2 4 3 3 4 2 5 1 6 11 7 12 8 10 9 7 11 8 12 13 13 14 14
REMARK SMILES IDX 15 15 9 16
REMARK H PARENT
REMARK Flexibility Score: 80.00
ROOT
ATOM      1  C   UNL     1      10.157  19.544  24.147  1.00  0.00     0.022 C 
ATOM      2  C   UNL     1      10.558  19.393  25.651  1.00  0.00    -0.000 C 
ATOM      3  C   UNL     1      12.067  19.716  25.684  1.00  0.00     0.009 C 
ATOM      4  C   UNL     1      12.348  20.657  24.517  1.00  0.00     0.031 C 
ATOM      5  C   UNL     1      11.218  20.426  23.577  1.00  0.00    -0.074 C 
ATOM      6  C   UNL     1      11.207  20.898  22.323  1.00  0.00     0.008 C 
ENDROOT
BRANCH   2   7
ATOM      7  C   UNL     1       9.769  20.215  26.750  1.00  0.00    -0.011 C 
ATOM      8  C   UNL     1       9.914  21.748  26.663  1.00  0.00     0.008 C 
BRANCH   7   9
ATOM      9  C   UNL     1       8.299  19.756  27.015  1.00  0.00     0.004 CG0
ATOM     10  G   UNL     1       7.289  19.958  25.869  1.00  0.00     0.000 G0
ENDBRANCH   7   9
ENDBRANCH   2   7
BRANCH   1  11
ATOM     11  C   UNL     1       8.754  20.131  23.943  1.00  0.00     0.006 C 
ATOM     12  C   UNL     1       7.762  19.193  24.658  1.00  0.00    -0.001 C 
ATOM     13  C   UNL     1       7.574  19.528  23.184  1.00  0.00    -0.029 C 
ATOM     14  C   UNL     1       7.895  18.421  22.171  1.00  0.00     0.012 C 
ATOM     15  C   UNL     1       6.420  20.477  22.838  1.00  0.00     0.012 C 
BRANCH  12  16
ATOM     16  C   UNL     1       7.278  19.956  25.886  1.00  0.00     0.005 CG0
ATOM     17  G   UNL     1       8.308  19.754  27.015  1.00  0.00     0.000 G0
ENDBRANCH  12  16
ENDBRANCH   1  11
TORSDOF 0
ENDMDL
MODEL 8
REMARK VINA RESULT:    -3.272      1.674      3.288
REMARK INTER + INTRA:          -3.121
REMARK INTER:                  -4.038
REMARK INTRA:                   0.917
REMARK UNBOUND:                 0.916
REMARK SMILES C=C1CC[C@@H]2[C@H]1[C@@H]1[C@@H](CC[C@@H]2C)C1(C)C
REMARK SMILES IDX 6 1 5 2 4 3 3 4 2 5 1 6 11 7 12 8 10 9 7 11 8 12 13 13 14 14
REMARK SMILES IDX 15 15 9 16
REMARK H PARENT
REMARK Flexibility Score: 80.00
ROOT
ATOM      1  C   UNL     1       9.818  19.467  25.078  1.00  0.00     0.022 C 
ATOM      2  C   UNL     1       8.328  19.912  24.912  1.00  0.00    -0.000 C 
ATOM      3  C   UNL     1       7.616  19.358  26.164  1.00  0.00     0.009 C 
ATOM      4  C   UNL     1       8.663  19.266  27.270  1.00  0.00     0.031 C 
ATOM      5  C   UNL     1       9.962  19.226  26.546  1.00  0.00    -0.074 C 
ATOM      6  C   UNL     1      11.120  18.923  27.146  1.00  0.00     0.008 C 
ENDROOT
BRANCH   2   7
ATOM      7  C   UNL     1       7.997  21.444  24.691  1.00  0.00    -0.011 C 
ATOM      8  C   UNL     1       8.356  22.376  25.866  1.00  0.00     0.008 C 
BRANCH   7   9
ATOM      9  C   UNL     1       8.401  22.032  23.301  1.00  0.00     0.004 CG0
ATOM     10  G   UNL     1       9.908  22.123  22.995  1.00  0.00     0.000 G0
ENDBRANCH   7   9
ENDBRANCH   2   7
BRANCH   1  11
ATOM     11  C   UNL     1      10.828  20.503  24.566  1.00  0.00     0.006 C 
ATOM     12  C   UNL     1      10.519  20.737  23.075  1.00  0.00    -0.001 C 
ATOM     13  C   UNL     1      11.919  20.324  23.512  1.00  0.00    -0.029 C 
ATOM     14  C   UNL     1      12.351  18.885  23.200  1.00  0.00     0.012 C 
ATOM     15  C   UNL     1      13.003  21.406  23.454  1.00  0.00     0.012 C 
BRANCH  12  16
ATOM     16  C   UNL     1       9.911  22.133  22.990  1.00  0.00     0.005 CG0
ATOM     17  G   UNL     1       8.407  22.024  23.307  1.00  0.00     0.000 G0
ENDBRANCH  12  16
ENDBRANCH   1  11
TORSDOF 0
ENDMDL
MODEL 9
REMARK VINA RESULT:    -3.235      1.628      2.089
REMARK INTER + INTRA:          -3.075
REMARK INTER:                  -4.001
REMARK INTRA:                   0.926
REMARK UNBOUND:                 0.916
REMARK SMILES C=C1CC[C@@H]2[C@H]1[C@@H]1[C@@H](CC[C@@H]2C)C1(C)C
REMARK SMILES IDX 6 1 5 2 4 3 3 4 2 5 1 6 11 7 12 8 10 9 7 11 8 12 13 13 14 14
REMARK SMILES IDX 15 15 9 16
REMARK H PARENT
REMARK Flexibility Score: 80.00
ROOT
ATOM      1  C   UNL     1      11.111  19.570  25.108  1.00  0.00     0.022 C 
ATOM      2  C   UNL     1      11.551  19.096  23.684  1.00  0.00    -0.000 C 
ATOM      3  C   UNL     1      10.227  18.879  22.921  1.00  0.00     0.009 C 
ATOM      4  C   UNL     1       9.194  19.813  23.545  1.00  0.00     0.031 C 
ATOM      5  C   UNL     1       9.732  20.105  24.901  1.00  0.00    -0.074 C 
ATOM      6  C   UNL     1       9.013  20.712  25.854  1.00  0.00     0.008 C 
ENDROOT
BRANCH   2   7
ATOM      7  C   UNL     1      12.558  19.986  22.848  1.00  0.00    -0.011 C 
ATOM      8  C   UNL     1      12.035  21.380  22.446  1.00  0.00     0.008 C 
BRANCH   7   9
ATOM      9  C   UNL     1      14.031  20.016  23.369  1.00  0.00     0.004 CG0
ATOM     10  G   UNL     1      14.276  20.701  24.728  1.00  0.00     0.000 G0
ENDBRANCH   7   9
ENDBRANCH   2   7
BRANCH   1  11
ATOM     11  C   UNL     1      12.047  20.620  25.721  1.00  0.00     0.006 C 
ATOM     12  C   UNL     1      13.451  19.991  25.789  1.00  0.00    -0.001 C 
ATOM     13  C   UNL     1      12.804  20.559  27.046  1.00  0.00    -0.029 C 
ATOM     14  C   UNL     1      12.299  19.551  28.086  1.00  0.00     0.012 C 
ATOM     15  C   UNL     1      13.376  21.880  27.574  1.00  0.00     0.012 C 
BRANCH  12  16
ATOM     16  C   UNL     1      14.280  20.705  24.727  1.00  0.00     0.005 CG0
ATOM     17  G   UNL     1      14.038  20.006  23.376  1.00  0.00     0.000 G0
ENDBRANCH  12  16
ENDBRANCH   1  11
TORSDOF 0
ENDMDL
