MODEL 1
REMARK VINA RESULT:    -2.044      0.000      0.000
REMARK INTER + INTRA:          -2.244
REMARK INTER:                  -2.223
REMARK INTRA:                  -0.021
REMARK UNBOUND:                -0.021
REMARK SMILES OCc1ccco1
REMARK SMILES IDX 2 1 3 2 5 3 6 4 4 5 7 6 1 7
REMARK H PARENT 1 8
REMARK Flexibility Score: inf
ROOT
ATOM      1  C   UNL     1      25.072  28.937  12.420  1.00  0.00     0.231 C 
ENDROOT
BRANCH   1   2
ATOM      2  C   UNL     1      24.849  28.894  13.898  1.00  0.00     0.129 A 
ATOM      3  C   UNL     1      24.895  28.300  16.012  1.00  0.00     0.042 A 
ATOM      4  C   UNL     1      24.074  29.393  15.820  1.00  0.00     0.195 A 
ATOM      5  C   UNL     1      25.394  27.973  14.769  1.00  0.00     0.048 A 
ATOM      6  O   UNL     1      24.066  29.722  14.549  1.00  0.00    -0.467 OA
ENDBRANCH   1   2
BRANCH   1   7
ATOM      7  O   UNL     1      24.548  30.124  11.891  1.00  0.00    -0.388 OA
ATOM      8  H   UNL     1      24.281  29.925  10.955  1.00  0.00     0.211 HD
ENDBRANCH   1   7
TORSDOF 2
ENDMDL
MODEL 2
REMARK VINA RESULT:    -2.018      0.943      1.404
REMARK INTER + INTRA:          -2.216
REMARK INTER:                  -2.200
REMARK INTRA:                  -0.016
REMARK UNBOUND:                -0.021
REMARK SMILES OCc1ccco1
REMARK SMILES IDX 2 1 3 2 5 3 6 4 4 5 7 6 1 7
REMARK H PARENT 1 8
REMARK Flexibility Score: inf
ROOT
ATOM      1  C   UNL     1      25.064  28.938  12.525  1.00  0.00     0.231 C 
ENDROOT
BRANCH   1   2
ATOM      2  C   UNL     1      24.703  28.922  13.977  1.00  0.00     0.129 A 
ATOM      3  C   UNL     1      23.806  29.404  15.923  1.00  0.00     0.042 A 
ATOM      4  C   UNL     1      24.724  28.379  16.037  1.00  0.00     0.195 A 
ATOM      5  C   UNL     1      23.794  29.760  14.591  1.00  0.00     0.048 A 
ATOM      6  O   UNL     1      25.243  28.117  14.860  1.00  0.00    -0.467 OA
ENDBRANCH   1   2
BRANCH   1   7
ATOM      7  O   UNL     1      24.586  30.110  11.925  1.00  0.00    -0.388 OA
ATOM      8  H   UNL     1      23.613  29.975  11.771  1.00  0.00     0.211 HD
ENDBRANCH   1   7
TORSDOF 2
ENDMDL
MODEL 3
REMARK VINA RESULT:    -1.868      1.772      3.170
REMARK INTER + INTRA:          -2.053
REMARK INTER:                  -2.039
REMARK INTRA:                  -0.014
REMARK UNBOUND:                -0.021
REMARK SMILES OCc1ccco1
REMARK SMILES IDX 2 1 3 2 5 3 6 4 4 5 7 6 1 7
REMARK H PARENT 1 8
REMARK Flexibility Score: inf
ROOT
ATOM      1  C   UNL     1      25.857  27.311  15.386  1.00  0.00     0.231 C 
ENDROOT
BRANCH   1   2
ATOM      2  C   UNL     1      25.199  28.293  14.469  1.00  0.00     0.129 A 
ATOM      3  C   UNL     1      23.804  29.757  13.612  1.00  0.00     0.042 A 
ATOM      4  C   UNL     1      24.811  29.447  12.720  1.00  0.00     0.195 A 
ATOM      5  C   UNL     1      24.051  29.007  14.743  1.00  0.00     0.048 A 
ATOM      6  O   UNL     1      25.626  28.569  13.260  1.00  0.00    -0.467 OA
ENDBRANCH   1   2
BRANCH   1   7
ATOM      7  O   UNL     1      26.009  27.873  16.660  1.00  0.00    -0.388 OA
ATOM      8  H   UNL     1      25.124  28.246  16.914  1.00  0.00     0.211 HD
ENDBRANCH   1   7
TORSDOF 2
ENDMDL
MODEL 4
REMARK VINA RESULT:    -1.845     27.183     28.071
REMARK INTER + INTRA:          -2.028
REMARK INTER:                  -2.012
REMARK INTRA:                  -0.016
REMARK UNBOUND:                -0.021
REMARK SMILES OCc1ccco1
REMARK SMILES IDX 2 1 3 2 5 3 6 4 4 5 7 6 1 7
REMARK H PARENT 1 8
REMARK Flexibility Score: inf
ROOT
ATOM      1  C   UNL     1       6.527  13.489  27.101  1.00  0.00     0.231 C 
ENDROOT
BRANCH   1   2
ATOM      2  C   UNL     1       6.452  12.073  26.625  1.00  0.00     0.129 A 
ATOM      3  C   UNL     1       6.709   9.898  26.454  1.00  0.00     0.042 A 
ATOM      4  C   UNL     1       6.010  10.404  25.376  1.00  0.00     0.195 A 
ATOM      5  C   UNL     1       6.999  10.978  27.261  1.00  0.00     0.048 A 
ATOM      6  O   UNL     1       5.875  11.703  25.506  1.00  0.00    -0.467 OA
ENDBRANCH   1   2
BRANCH   1   7
ATOM      7  O   UNL     1       7.591  13.636  28.000  1.00  0.00    -0.388 OA
ATOM      8  H   UNL     1       8.422  13.662  27.455  1.00  0.00     0.211 HD
ENDBRANCH   1   7
TORSDOF 2
ENDMDL
MODEL 5
REMARK VINA RESULT:    -1.839      1.583      3.302
REMARK INTER + INTRA:          -2.022
REMARK INTER:                  -2.009
REMARK INTRA:                  -0.013
REMARK UNBOUND:                -0.021
REMARK SMILES OCc1ccco1
REMARK SMILES IDX 2 1 3 2 5 3 6 4 4 5 7 6 1 7
REMARK H PARENT 1 8
REMARK Flexibility Score: inf
ROOT
ATOM      1  C   UNL     1      23.876  28.962  16.072  1.00  0.00     0.231 C 
ENDROOT
BRANCH   1   2
ATOM      2  C   UNL     1      24.343  29.098  14.658  1.00  0.00     0.129 A 
ATOM      3  C   UNL     1      24.519  29.701  12.553  1.00  0.00     0.042 A 
ATOM      4  C   UNL     1      25.465  28.749  12.879  1.00  0.00     0.195 A 
ATOM      5  C   UNL     1      23.790  29.925  13.702  1.00  0.00     0.048 A 
ATOM      6  O   UNL     1      25.333  28.408  14.140  1.00  0.00    -0.467 OA
ENDBRANCH   1   2
BRANCH   1   7
ATOM      7  O   UNL     1      24.384  30.011  16.848  1.00  0.00    -0.388 OA
ATOM      8  H   UNL     1      23.601  30.502  17.213  1.00  0.00     0.211 HD
ENDBRANCH   1   7
TORSDOF 2
ENDMDL
MODEL 6
REMARK VINA RESULT:    -1.761     26.879     27.800
REMARK INTER + INTRA:          -1.936
REMARK INTER:                  -1.923
REMARK INTRA:                  -0.013
REMARK UNBOUND:                -0.021
REMARK SMILES OCc1ccco1
REMARK SMILES IDX 2 1 3 2 5 3 6 4 4 5 7 6 1 7
REMARK H PARENT 1 8
REMARK Flexibility Score: inf
ROOT
ATOM      1  C   UNL     1       9.015  10.791  27.902  1.00  0.00     0.231 C 
ENDROOT
BRANCH   1   2
ATOM      2  C   UNL     1       7.950  11.794  27.589  1.00  0.00     0.129 A 
ATOM      3  C   UNL     1       6.065  12.728  26.957  1.00  0.00     0.042 A 
ATOM      4  C   UNL     1       6.998  13.681  27.315  1.00  0.00     0.195 A 
ATOM      5  C   UNL     1       6.681  11.507  27.130  1.00  0.00     0.048 A 
ATOM      6  O   UNL     1       8.112  13.093  27.685  1.00  0.00    -0.467 OA
ENDBRANCH   1   2
BRANCH   1   7
ATOM      7  O   UNL     1       8.582   9.935  28.922  1.00  0.00    -0.388 OA
ATOM      8  H   UNL     1       8.138  10.505  29.603  1.00  0.00     0.211 HD
ENDBRANCH   1   7
TORSDOF 2
ENDMDL
MODEL 7
REMARK VINA RESULT:    -1.747     27.587     28.423
REMARK INTER + INTRA:          -1.921
REMARK INTER:                  -1.906
REMARK INTRA:                  -0.015
REMARK UNBOUND:                -0.021
REMARK SMILES OCc1ccco1
REMARK SMILES IDX 2 1 3 2 5 3 6 4 4 5 7 6 1 7
REMARK H PARENT 1 8
REMARK Flexibility Score: inf
ROOT
ATOM      1  C   UNL     1       7.134  11.362  27.778  1.00  0.00     0.231 C 
ENDROOT
BRANCH   1   2
ATOM      2  C   UNL     1       6.617  11.110  26.397  1.00  0.00     0.129 A 
ATOM      3  C   UNL     1       5.875  10.124  24.580  1.00  0.00     0.042 A 
ATOM      4  C   UNL     1       6.022  11.483  24.385  1.00  0.00     0.195 A 
ATOM      5  C   UNL     1       6.263   9.881  25.881  1.00  0.00     0.048 A 
ATOM      6  O   UNL     1       6.469  12.043  25.486  1.00  0.00    -0.467 OA
ENDBRANCH   1   2
BRANCH   1   7
ATOM      7  O   UNL     1       7.873  10.259  28.222  1.00  0.00    -0.388 OA
ATOM      8  H   UNL     1       7.373   9.869  28.987  1.00  0.00     0.211 HD
ENDBRANCH   1   7
TORSDOF 2
ENDMDL
MODEL 8
REMARK VINA RESULT:    -1.732      2.623      3.299
REMARK INTER + INTRA:          -1.905
REMARK INTER:                  -1.892
REMARK INTRA:                  -0.013
REMARK UNBOUND:                -0.021
REMARK SMILES OCc1ccco1
REMARK SMILES IDX 2 1 3 2 5 3 6 4 4 5 7 6 1 7
REMARK H PARENT 1 8
REMARK Flexibility Score: inf
ROOT
ATOM      1  C   UNL     1      22.831  26.476  11.875  1.00  0.00     0.231 C 
ENDROOT
BRANCH   1   2
ATOM      2  C   UNL     1      23.512  27.685  12.436  1.00  0.00     0.129 A 
ATOM      3  C   UNL     1      24.006  29.433  13.669  1.00  0.00     0.042 A 
ATOM      4  C   UNL     1      24.901  29.290  12.627  1.00  0.00     0.195 A 
ATOM      5  C   UNL     1      23.104  28.398  13.545  1.00  0.00     0.048 A 
ATOM      6  O   UNL     1      24.577  28.240  11.908  1.00  0.00    -0.467 OA
ENDBRANCH   1   2
BRANCH   1   7
ATOM      7  O   UNL     1      23.431  25.314  12.375  1.00  0.00    -0.388 OA
ATOM      8  H   UNL     1      24.024  25.597  13.121  1.00  0.00     0.211 HD
ENDBRANCH   1   7
TORSDOF 2
ENDMDL
MODEL 9
REMARK VINA RESULT:    -1.662     26.473     27.421
REMARK INTER + INTRA:          -1.829
REMARK INTER:                  -1.813
REMARK INTRA:                  -0.016
REMARK UNBOUND:                -0.021
REMARK SMILES OCc1ccco1
REMARK SMILES IDX 2 1 3 2 5 3 6 4 4 5 7 6 1 7
REMARK H PARENT 1 8
REMARK Flexibility Score: inf
ROOT
ATOM      1  C   UNL     1       8.639  13.710  27.905  1.00  0.00     0.231 C 
ENDROOT
BRANCH   1   2
ATOM      2  C   UNL     1       8.194  12.331  27.533  1.00  0.00     0.129 A 
ATOM      3  C   UNL     1       6.955  10.576  27.074  1.00  0.00     0.042 A 
ATOM      4  C   UNL     1       8.298  10.259  27.044  1.00  0.00     0.195 A 
ATOM      5  C   UNL     1       6.885  11.916  27.395  1.00  0.00     0.048 A 
ATOM      6  O   UNL     1       9.011  11.326  27.324  1.00  0.00    -0.467 OA
ENDBRANCH   1   2
BRANCH   1   7
ATOM      7  O   UNL     1       7.525  14.529  28.126  1.00  0.00    -0.388 OA
ATOM      8  H   UNL     1       7.444  14.641  29.110  1.00  0.00     0.211 HD
ENDBRANCH   1   7
TORSDOF 2
ENDMDL
