MODEL 1
REMARK VINA RESULT:    15.193      0.000      0.000
REMARK INTER + INTRA:          16.911
REMARK INTER:                  16.969
REMARK INTRA:                  -0.059
REMARK UNBOUND:                -0.059
REMARK SMILES COc1cc2ccc(=O)oc2c(O)c1O
REMARK SMILES IDX 3 1 14 2 12 3 11 4 5 5 4 6 6 7 7 8 8 9 9 10 10 11 2 12 1 13
REMARK SMILES IDX 15 14 13 16
REMARK H PARENT 15 15 13 17
REMARK Flexibility Score: inf
ROOT
ATOM      1  C   UNL     1      17.455  51.528  60.519  1.00  0.00     0.165 A 
ATOM      2  C   UNL     1      16.137  51.041  60.520  1.00  0.00     0.204 A 
ATOM      3  C   UNL     1      15.134  51.708  61.267  1.00  0.00     0.205 A 
ATOM      4  C   UNL     1      15.467  52.853  62.003  1.00  0.00     0.184 A 
ATOM      5  C   UNL     1      16.790  53.339  62.000  1.00  0.00     0.025 A 
ATOM      6  C   UNL     1      17.777  52.679  61.261  1.00  0.00     0.062 A 
ATOM      7  C   UNL     1      17.084  54.485  62.747  1.00  0.00     0.020 A 
ATOM      8  C   UNL     1      16.070  55.112  63.468  1.00  0.00     0.094 A 
ATOM      9  C   UNL     1      14.779  54.575  63.426  1.00  0.00     0.336 A 
ATOM     10  O   UNL     1      13.848  55.125  64.070  1.00  0.00    -0.246 OA
ATOM     11  O   UNL     1      14.527  53.484  62.707  1.00  0.00    -0.419 OA
ENDROOT
BRANCH   1  12
ATOM     12  O   UNL     1      18.418  50.838  59.765  1.00  0.00    -0.493 OA
ATOM     13  C   UNL     1      19.425  51.461  58.974  1.00  0.00     0.278 C 
ENDBRANCH   1  12
BRANCH   2  14
ATOM     14  O   UNL     1      15.868  49.895  59.766  1.00  0.00    -0.502 OA
ATOM     15  H   UNL     1      14.946  49.620  59.460  1.00  0.00     0.293 HD
ENDBRANCH   2  14
BRANCH   3  16
ATOM     16  O   UNL     1      13.808  51.268  61.305  1.00  0.00    -0.502 OA
ATOM     17  H   UNL     1      13.352  50.910  62.131  1.00  0.00     0.293 HD
ENDBRANCH   3  16
TORSDOF 3
ENDMDL
MODEL 2
REMARK VINA RESULT:    16.427      1.837      2.860
REMARK INTER + INTRA:          18.289
REMARK INTER:                  18.350
REMARK INTRA:                  -0.061
REMARK UNBOUND:                -0.059
REMARK SMILES COc1cc2ccc(=O)oc2c(O)c1O
REMARK SMILES IDX 3 1 14 2 12 3 11 4 5 5 4 6 6 7 7 8 8 9 9 10 10 11 2 12 1 13
REMARK SMILES IDX 15 14 13 16
REMARK H PARENT 15 15 13 17
REMARK Flexibility Score: inf
ROOT
ATOM      1  C   UNL     1      15.721  52.554  59.905  1.00  0.00     0.165 A 
ATOM      2  C   UNL     1      16.954  52.199  60.478  1.00  0.00     0.204 A 
ATOM      3  C   UNL     1      17.300  52.674  61.768  1.00  0.00     0.205 A 
ATOM      4  C   UNL     1      16.405  53.498  62.464  1.00  0.00     0.184 A 
ATOM      5  C   UNL     1      15.169  53.852  61.885  1.00  0.00     0.025 A 
ATOM      6  C   UNL     1      14.831  53.381  60.613  1.00  0.00     0.062 A 
ATOM      7  C   UNL     1      14.303  54.677  62.611  1.00  0.00     0.020 A 
ATOM      8  C   UNL     1      14.679  55.123  63.876  1.00  0.00     0.094 A 
ATOM      9  C   UNL     1      15.920  54.733  64.389  1.00  0.00     0.336 A 
ATOM     10  O   UNL     1      16.281  55.125  65.529  1.00  0.00    -0.246 OA
ATOM     11  O   UNL     1      16.725  53.948  63.677  1.00  0.00    -0.419 OA
ENDROOT
BRANCH   1  12
ATOM     12  O   UNL     1      15.417  52.061  58.625  1.00  0.00    -0.493 OA
ATOM     13  C   UNL     1      14.181  51.453  58.265  1.00  0.00     0.278 C 
ENDBRANCH   1  12
BRANCH   2  14
ATOM     14  O   UNL     1      17.803  51.375  59.735  1.00  0.00    -0.502 OA
ATOM     15  H   UNL     1      17.948  51.459  58.740  1.00  0.00     0.293 HD
ENDBRANCH   2  14
BRANCH   3  16
ATOM     16  O   UNL     1      18.512  52.355  62.387  1.00  0.00    -0.502 OA
ATOM     17  H   UNL     1      19.313  52.968  62.415  1.00  0.00     0.293 HD
ENDBRANCH   3  16
TORSDOF 3
ENDMDL
MODEL 3
REMARK VINA RESULT:    17.536      1.510      1.856
REMARK INTER + INTRA:          19.528
REMARK INTER:                  19.580
REMARK INTRA:                  -0.053
REMARK UNBOUND:                -0.059
REMARK SMILES COc1cc2ccc(=O)oc2c(O)c1O
REMARK SMILES IDX 3 1 14 2 12 3 11 4 5 5 4 6 6 7 7 8 8 9 9 10 10 11 2 12 1 13
REMARK SMILES IDX 15 14 13 16
REMARK H PARENT 15 15 13 17
REMARK Flexibility Score: inf
ROOT
ATOM      1  C   UNL     1      18.501  52.310  61.686  1.00  0.00     0.165 A 
ATOM      2  C   UNL     1      17.600  51.821  60.725  1.00  0.00     0.204 A 
ATOM      3  C   UNL     1      16.264  52.293  60.700  1.00  0.00     0.205 A 
ATOM      4  C   UNL     1      15.850  53.247  61.640  1.00  0.00     0.184 A 
ATOM      5  C   UNL     1      16.757  53.735  62.603  1.00  0.00     0.025 A 
ATOM      6  C   UNL     1      18.075  53.268  62.624  1.00  0.00     0.062 A 
ATOM      7  C   UNL     1      16.307  54.686  63.524  1.00  0.00     0.020 A 
ATOM      8  C   UNL     1      14.986  55.125  63.467  1.00  0.00     0.094 A 
ATOM      9  C   UNL     1      14.140  54.598  62.485  1.00  0.00     0.336 A 
ATOM     10  O   UNL     1      12.943  54.979  62.416  1.00  0.00    -0.246 OA
ATOM     11  O   UNL     1      14.594  53.694  61.622  1.00  0.00    -0.419 OA
ENDROOT
BRANCH   1  12
ATOM     12  O   UNL     1      19.817  51.816  61.675  1.00  0.00    -0.493 OA
ATOM     13  C   UNL     1      20.902  52.392  62.394  1.00  0.00     0.278 C 
ENDBRANCH   1  12
BRANCH   2  14
ATOM     14  O   UNL     1      18.072  50.871  59.815  1.00  0.00    -0.502 OA
ATOM     15  H   UNL     1      18.999  50.472  59.840  1.00  0.00     0.293 HD
ENDBRANCH   2  14
BRANCH   3  16
ATOM     16  O   UNL     1      15.325  51.842  59.768  1.00  0.00    -0.502 OA
ATOM     17  H   UNL     1      15.185  52.256  58.858  1.00  0.00     0.293 HD
ENDBRANCH   3  16
TORSDOF 3
ENDMDL
MODEL 4
REMARK VINA RESULT:    18.024      1.650      5.382
REMARK INTER + INTRA:          20.073
REMARK INTER:                  19.748
REMARK INTRA:                   0.324
REMARK UNBOUND:                -0.059
REMARK SMILES COc1cc2ccc(=O)oc2c(O)c1O
REMARK SMILES IDX 3 1 14 2 12 3 11 4 5 5 4 6 6 7 7 8 8 9 9 10 10 11 2 12 1 13
REMARK SMILES IDX 15 14 13 16
REMARK H PARENT 15 15 13 17
REMARK Flexibility Score: inf
ROOT
ATOM      1  C   UNL     1      15.121  54.239  62.583  1.00  0.00     0.165 A 
ATOM      2  C   UNL     1      16.468  54.241  62.985  1.00  0.00     0.204 A 
ATOM      3  C   UNL     1      17.394  53.367  62.365  1.00  0.00     0.205 A 
ATOM      4  C   UNL     1      16.959  52.503  61.351  1.00  0.00     0.184 A 
ATOM      5  C   UNL     1      15.607  52.505  60.950  1.00  0.00     0.025 A 
ATOM      6  C   UNL     1      14.695  53.368  61.564  1.00  0.00     0.062 A 
ATOM      7  C   UNL     1      15.210  51.628  59.934  1.00  0.00     0.020 A 
ATOM      8  C   UNL     1      16.152  50.784  59.349  1.00  0.00     0.094 A 
ATOM      9  C   UNL     1      17.476  50.836  59.796  1.00  0.00     0.336 A 
ATOM     10  O   UNL     1      18.343  50.083  59.282  1.00  0.00    -0.246 OA
ATOM     11  O   UNL     1      17.826  51.679  60.764  1.00  0.00    -0.419 OA
ENDROOT
BRANCH   1  12
ATOM     12  O   UNL     1      14.235  55.122  63.223  1.00  0.00    -0.493 OA
ATOM     13  C   UNL     1      13.966  55.124  64.621  1.00  0.00     0.278 C 
ENDBRANCH   1  12
BRANCH   2  14
ATOM     14  O   UNL     1      16.841  55.125  64.002  1.00  0.00    -0.502 OA
ATOM     15  H   UNL     1      16.580  55.019  64.971  1.00  0.00     0.293 HD
ENDBRANCH   2  14
BRANCH   3  16
ATOM     16  O   UNL     1      18.745  53.325  62.724  1.00  0.00    -0.502 OA
ATOM     17  H   UNL     1      19.305  54.141  62.921  1.00  0.00     0.293 HD
ENDBRANCH   3  16
TORSDOF 3
ENDMDL
MODEL 5
REMARK VINA RESULT:    18.034      1.707      5.179
REMARK INTER + INTRA:          20.084
REMARK INTER:                  20.152
REMARK INTRA:                  -0.068
REMARK UNBOUND:                -0.059
REMARK SMILES COc1cc2ccc(=O)oc2c(O)c1O
REMARK SMILES IDX 3 1 14 2 12 3 11 4 5 5 4 6 6 7 7 8 8 9 9 10 10 11 2 12 1 13
REMARK SMILES IDX 15 14 13 16
REMARK H PARENT 15 15 13 17
REMARK Flexibility Score: inf
ROOT
ATOM      1  C   UNL     1      16.078  54.020  62.288  1.00  0.00     0.165 A 
ATOM      2  C   UNL     1      17.367  53.460  62.290  1.00  0.00     0.204 A 
ATOM      3  C   UNL     1      17.658  52.346  61.465  1.00  0.00     0.205 A 
ATOM      4  C   UNL     1      16.653  51.808  60.649  1.00  0.00     0.184 A 
ATOM      5  C   UNL     1      15.361  52.372  60.650  1.00  0.00     0.025 A 
ATOM      6  C   UNL     1      15.078  53.472  61.465  1.00  0.00     0.062 A 
ATOM      7  C   UNL     1      14.384  51.807  59.823  1.00  0.00     0.020 A 
ATOM      8  C   UNL     1      14.710  50.712  59.025  1.00  0.00     0.094 A 
ATOM      9  C   UNL     1      16.012  50.203  59.075  1.00  0.00     0.336 A 
ATOM     10  O   UNL     1      16.328  49.214  58.364  1.00  0.00    -0.246 OA
ATOM     11  O   UNL     1      16.921  50.759  59.871  1.00  0.00    -0.419 OA
ENDROOT
BRANCH   1  12
ATOM     12  O   UNL     1      15.832  55.124  63.120  1.00  0.00    -0.493 OA
ATOM     13  C   UNL     1      14.922  55.125  64.215  1.00  0.00     0.278 C 
ENDBRANCH   1  12
BRANCH   2  14
ATOM     14  O   UNL     1      18.326  54.041  63.125  1.00  0.00    -0.502 OA
ATOM     15  H   UNL     1      19.120  53.548  63.507  1.00  0.00     0.293 HD
ENDBRANCH   2  14
BRANCH   3  16
ATOM     16  O   UNL     1      18.921  51.748  61.427  1.00  0.00    -0.502 OA
ATOM     17  H   UNL     1      19.089  50.766  61.588  1.00  0.00     0.293 HD
ENDBRANCH   3  16
TORSDOF 3
ENDMDL
