MODEL 1
REMARK VINA RESULT:    -3.764      0.000      0.000
REMARK INTER + INTRA:          -4.314
REMARK INTER:                  -4.974
REMARK INTRA:                   0.660
REMARK UNBOUND:                 0.660
REMARK SMILES CC[C@H](C=C[C@@H](C)[C@H]1CC[C@@H]2[C@H]3CC=C4C[C@H](O)CC[C@]4(C)[C@H]3CC[C@@]21C)C(C)C
REMARK SMILES IDX 6 1 7 2 5 3 4 4 3 5 2 6 1 7 28 8 29 9 30 10 8 11 9 12 26 13
REMARK SMILES IDX 10 14 11 15 25 16 27 17 12 18 24 19 23 20 13 21 21 22 14 23
REMARK SMILES IDX 15 24 20 25 22 26 16 27 19 28 17 29 18 30
REMARK H PARENT 18 31
REMARK Flexibility Score: inf
ROOT
ATOM      1  C   UNL     1      15.762  -2.807  18.846  1.00  0.00     0.012 C 
ATOM      2  C   UNL     1      16.605  -3.893  19.554  1.00  0.00     0.012 C 
ENDROOT
BRANCH   1   3
ATOM      3  C   UNL     1      16.659  -1.589  18.644  1.00  0.00    -0.028 C 
ATOM      4  C   UNL     1      18.008  -1.598  18.687  1.00  0.00    -0.027 C 
BRANCH   4   5
ATOM      5  C   UNL     1      18.879  -2.847  18.797  1.00  0.00     0.014 C 
BRANCH   5   6
ATOM      6  C   UNL     1      19.162  -3.434  17.392  1.00  0.00     0.004 C 
ATOM      7  C   UNL     1      19.812  -4.820  17.393  1.00  0.00     0.004 C 
ENDBRANCH   5   6
BRANCH   5   8
ATOM      8  C   UNL     1      20.177  -2.649  19.657  1.00  0.00    -0.011 C 
ATOM      9  C   UNL     1      20.928  -3.953  20.005  1.00  0.00     0.008 C 
ATOM     10  C   UNL     1      21.154  -1.676  18.971  1.00  0.00     0.008 C 
ENDBRANCH   5   8
ENDBRANCH   4   5
ENDBRANCH   1   3
BRANCH   1  11
ATOM     11  C   UNL     1      14.461  -2.429  19.644  1.00  0.00     0.002 C 
ATOM     12  C   UNL     1      14.532  -0.960  20.125  1.00  0.00     0.005 C 
ATOM     13  C   UNL     1      13.055  -2.567  18.911  1.00  0.00    -0.026 C 
ATOM     14  C   UNL     1      13.173  -0.341  19.892  1.00  0.00     0.005 C 
ATOM     15  C   UNL     1      12.588  -1.094  18.704  1.00  0.00    -0.001 C 
ATOM     16  C   UNL     1      12.069  -3.314  19.856  1.00  0.00     0.007 C 
ATOM     17  C   UNL     1      13.123  -3.342  17.568  1.00  0.00     0.012 C 
ATOM     18  C   UNL     1      11.052  -0.824  18.557  1.00  0.00     0.000 C 
ATOM     19  C   UNL     1      10.593  -3.141  19.474  1.00  0.00     0.005 C 
ATOM     20  C   UNL     1      10.180  -1.650  19.540  1.00  0.00     0.003 C 
ATOM     21  C   UNL     1      10.593  -0.944  17.086  1.00  0.00     0.031 C 
ATOM     22  C   UNL     1       8.633  -1.376  19.351  1.00  0.00    -0.008 C 
ATOM     23  C   UNL     1       9.116  -1.111  16.891  1.00  0.00    -0.027 C 
ATOM     24  C   UNL     1       8.230  -1.347  17.880  1.00  0.00    -0.065 C 
ATOM     25  C   UNL     1       8.247   0.023  19.933  1.00  0.00     0.014 C 
ATOM     26  C   UNL     1       7.817  -2.464  20.113  1.00  0.00     0.016 C 
ATOM     27  C   UNL     1       6.769  -1.090  17.587  1.00  0.00     0.063 C 
ATOM     28  C   UNL     1       6.783   0.441  19.638  1.00  0.00     0.033 C 
ATOM     29  C   UNL     1       6.388   0.290  18.149  1.00  0.00     0.118 C 
BRANCH  29  30
ATOM     30  O   UNL     1       7.010   1.290  17.381  1.00  0.00    -0.393 OA
ATOM     31  H   UNL     1       6.688   1.187  16.447  1.00  0.00     0.210 HD
ENDBRANCH  29  30
ENDBRANCH   1  11
TORSDOF 6
ENDMDL
