MODEL 1
REMARK VINA RESULT:    -4.232      0.000      0.000
REMARK INTER + INTRA:          -6.557
REMARK INTER:                  -6.211
REMARK INTRA:                  -0.346
REMARK UNBOUND:                -0.346
REMARK SMILES O=C([O-])CCCCCCCC(=O)[O-]
REMARK SMILES IDX 7 1 6 2 5 3 4 4 2 5 1 6 3 7 8 8 9 9 10 10 11 11 12 12 13 13
REMARK H PARENT
REMARK Flexibility Score: inf
ROOT
ATOM      1  C   UNL     1     -23.760  28.937   8.231  1.00  0.00     0.000 C 
ENDROOT
BRANCH   1   2
ATOM      2  C   UNL     1     -24.091  30.247   7.499  1.00  0.00     0.000 C 
BRANCH   2   3
ATOM      3  C   UNL     1     -23.563  31.490   8.237  1.00  0.00     0.006 C 
BRANCH   3   4
ATOM      4  C   UNL     1     -22.208  31.232   8.908  1.00  0.00     0.053 C 
BRANCH   4   5
ATOM      5  C   UNL     1     -21.066  31.600   8.010  1.00  0.00     0.041 C 
ATOM      6  O   UNL     1     -21.282  31.940   6.817  1.00  0.00    -0.550 OA
ATOM      7  O   UNL     1     -19.768  31.601   8.503  1.00  0.00    -0.550 OA
ENDBRANCH   4   5
ENDBRANCH   3   4
ENDBRANCH   2   3
ENDBRANCH   1   2
BRANCH   1   8
ATOM      8  C   UNL     1     -24.125  27.691   7.404  1.00  0.00     0.000 C 
BRANCH   8   9
ATOM      9  C   UNL     1     -23.854  26.381   8.162  1.00  0.00     0.006 C 
BRANCH   9  10
ATOM     10  C   UNL     1     -23.327  26.616   9.583  1.00  0.00     0.053 C 
BRANCH  10  11
ATOM     11  C   UNL     1     -22.368  25.535   9.968  1.00  0.00     0.041 C 
ATOM     12  O   UNL     1     -22.341  25.103  11.151  1.00  0.00    -0.550 OA
ATOM     13  O   UNL     1     -21.535  24.970   9.010  1.00  0.00    -0.550 OA
ENDBRANCH  10  11
ENDBRANCH   9  10
ENDBRANCH   8   9
ENDBRANCH   1   8
TORSDOF 8
ENDMDL
MODEL 2
REMARK VINA RESULT:    -4.220      0.275      5.760
REMARK INTER + INTRA:          -6.540
REMARK INTER:                  -6.207
REMARK INTRA:                  -0.333
REMARK UNBOUND:                -0.346
REMARK SMILES O=C([O-])CCCCCCCC(=O)[O-]
REMARK SMILES IDX 7 1 6 2 5 3 4 4 2 5 1 6 3 7 8 8 9 9 10 10 11 11 12 12 13 13
REMARK H PARENT
REMARK Flexibility Score: inf
ROOT
ATOM      1  C   UNL     1     -23.760  28.947   8.371  1.00  0.00     0.000 C 
ENDROOT
BRANCH   1   2
ATOM      2  C   UNL     1     -23.996  27.642   7.592  1.00  0.00     0.000 C 
BRANCH   2   3
ATOM      3  C   UNL     1     -24.104  26.413   8.512  1.00  0.00     0.006 C 
BRANCH   3   4
ATOM      4  C   UNL     1     -23.148  26.501   9.709  1.00  0.00     0.053 C 
BRANCH   4   5
ATOM      5  C   UNL     1     -22.238  25.312   9.780  1.00  0.00     0.041 C 
ATOM      6  O   UNL     1     -21.961  24.792  10.893  1.00  0.00    -0.550 OA
ATOM      7  O   UNL     1     -21.727  24.758   8.614  1.00  0.00    -0.550 OA
ENDBRANCH   4   5
ENDBRANCH   3   4
ENDBRANCH   2   3
ENDBRANCH   1   2
BRANCH   1   8
ATOM      8  C   UNL     1     -24.091  30.197   7.537  1.00  0.00     0.000 C 
BRANCH   8   9
ATOM      9  C   UNL     1     -23.568  31.491   8.183  1.00  0.00     0.006 C 
BRANCH   9  10
ATOM     10  C   UNL     1     -22.233  31.292   8.913  1.00  0.00     0.053 C 
BRANCH  10  11
ATOM     11  C   UNL     1     -21.090  31.595   7.998  1.00  0.00     0.041 C 
ATOM     12  O   UNL     1     -21.304  31.904   6.796  1.00  0.00    -0.550 OA
ATOM     13  O   UNL     1     -19.788  31.583   8.484  1.00  0.00    -0.550 OA
ENDBRANCH  10  11
ENDBRANCH   9  10
ENDBRANCH   8   9
ENDBRANCH   1   8
TORSDOF 8
ENDMDL
MODEL 3
REMARK VINA RESULT:    -4.032      1.387      2.214
REMARK INTER + INTRA:          -6.264
REMARK INTER:                  -5.891
REMARK INTRA:                  -0.373
REMARK UNBOUND:                -0.346
REMARK SMILES O=C([O-])CCCCCCCC(=O)[O-]
REMARK SMILES IDX 7 1 6 2 5 3 4 4 2 5 1 6 3 7 8 8 9 9 10 10 11 11 12 12 13 13
REMARK H PARENT
REMARK Flexibility Score: inf
ROOT
ATOM      1  C   UNL     1     -23.223  26.632   7.616  1.00  0.00     0.000 C 
ENDROOT
BRANCH   1   2
ATOM      2  C   UNL     1     -24.096  27.882   7.425  1.00  0.00     0.000 C 
BRANCH   2   3
ATOM      3  C   UNL     1     -23.717  29.024   8.384  1.00  0.00     0.006 C 
BRANCH   3   4
ATOM      4  C   UNL     1     -23.753  30.394   7.695  1.00  0.00     0.053 C 
BRANCH   4   5
ATOM      5  C   UNL     1     -22.631  31.275   8.154  1.00  0.00     0.041 C 
ATOM      6  O   UNL     1     -22.617  31.723   9.331  1.00  0.00    -0.550 OA
ATOM      7  O   UNL     1     -21.583  31.572   7.291  1.00  0.00    -0.550 OA
ENDBRANCH   4   5
ENDBRANCH   3   4
ENDBRANCH   2   3
ENDBRANCH   1   2
BRANCH   1   8
ATOM      8  C   UNL     1     -24.055  25.341   7.712  1.00  0.00     0.000 C 
BRANCH   8   9
ATOM      9  C   UNL     1     -23.909  24.647   9.076  1.00  0.00     0.006 C 
BRANCH   9  10
ATOM     10  C   UNL     1     -22.450  24.553   9.541  1.00  0.00     0.053 C 
BRANCH  10  11
ATOM     11  C   UNL     1     -22.315  25.069  10.939  1.00  0.00     0.041 C 
ATOM     12  O   UNL     1     -22.798  26.189  11.251  1.00  0.00    -0.550 OA
ATOM     13  O   UNL     1     -21.697  24.291  11.911  1.00  0.00    -0.550 OA
ENDBRANCH  10  11
ENDBRANCH   9  10
ENDBRANCH   8   9
ENDBRANCH   1   8
TORSDOF 8
ENDMDL
MODEL 4
REMARK VINA RESULT:    -3.940      1.415      6.155
REMARK INTER + INTRA:          -6.129
REMARK INTER:                  -5.996
REMARK INTRA:                  -0.133
REMARK UNBOUND:                -0.346
REMARK SMILES O=C([O-])CCCCCCCC(=O)[O-]
REMARK SMILES IDX 7 1 6 2 5 3 4 4 2 5 1 6 3 7 8 8 9 9 10 10 11 11 12 12 13 13
REMARK H PARENT
REMARK Flexibility Score: inf
ROOT
ATOM      1  C   UNL     1     -23.352  26.613   7.583  1.00  0.00     0.000 C 
ENDROOT
BRANCH   1   2
ATOM      2  C   UNL     1     -24.110  25.726   8.584  1.00  0.00     0.000 C 
BRANCH   2   3
ATOM      3  C   UNL     1     -23.399  24.386   8.847  1.00  0.00     0.006 C 
BRANCH   3   4
ATOM      4  C   UNL     1     -23.539  23.933  10.305  1.00  0.00     0.053 C 
BRANCH   4   5
ATOM      5  C   UNL     1     -22.589  24.662  11.206  1.00  0.00     0.041 C 
ATOM      6  O   UNL     1     -22.819  25.855  11.538  1.00  0.00    -0.550 OA
ATOM      7  O   UNL     1     -21.469  24.011  11.708  1.00  0.00    -0.550 OA
ENDBRANCH   4   5
ENDBRANCH   3   4
ENDBRANCH   2   3
ENDBRANCH   1   2
BRANCH   1   8
ATOM      8  C   UNL     1     -24.125  27.897   7.231  1.00  0.00     0.000 C 
BRANCH   8   9
ATOM      9  C   UNL     1     -23.884  29.026   8.247  1.00  0.00     0.006 C 
BRANCH   9  10
ATOM     10  C   UNL     1     -23.886  30.417   7.599  1.00  0.00     0.053 C 
BRANCH  10  11
ATOM     11  C   UNL     1     -22.696  31.202   8.048  1.00  0.00     0.041 C 
ATOM     12  O   UNL     1     -21.858  31.622   7.207  1.00  0.00    -0.550 OA
ATOM     13  O   UNL     1     -22.533  31.512   9.393  1.00  0.00    -0.550 OA
ENDBRANCH  10  11
ENDBRANCH   9  10
ENDBRANCH   8   9
ENDBRANCH   1   8
TORSDOF 8
ENDMDL
MODEL 5
REMARK VINA RESULT:    -3.316      4.604      7.362
REMARK INTER + INTRA:          -5.213
REMARK INTER:                  -4.883
REMARK INTRA:                  -0.330
REMARK UNBOUND:                -0.346
REMARK SMILES O=C([O-])CCCCCCCC(=O)[O-]
REMARK SMILES IDX 7 1 6 2 5 3 4 4 2 5 1 6 3 7 8 8 9 9 10 10 11 11 12 12 13 13
REMARK H PARENT
REMARK Flexibility Score: inf
ROOT
ATOM      1  C   UNL     1     -21.751  23.594  13.247  1.00  0.00     0.000 C 
ENDROOT
BRANCH   1   2
ATOM      2  C   UNL     1     -22.366  23.545  11.839  1.00  0.00     0.000 C 
BRANCH   2   3
ATOM      3  C   UNL     1     -23.444  24.623  11.623  1.00  0.00     0.006 C 
BRANCH   3   4
ATOM      4  C   UNL     1     -22.858  25.919  11.049  1.00  0.00     0.053 C 
BRANCH   4   5
ATOM      5  C   UNL     1     -22.841  25.904   9.551  1.00  0.00     0.041 C 
ATOM      6  O   UNL     1     -23.707  26.547   8.901  1.00  0.00    -0.550 OA
ATOM      7  O   UNL     1     -21.846  25.209   8.875  1.00  0.00    -0.550 OA
ENDBRANCH   4   5
ENDBRANCH   3   4
ENDBRANCH   2   3
ENDBRANCH   1   2
BRANCH   1   8
ATOM      8  C   UNL     1     -20.217  23.717  13.215  1.00  0.00     0.000 C 
BRANCH   8   9
ATOM      9  C   UNL     1     -19.636  24.184  14.560  1.00  0.00     0.006 C 
BRANCH   9  10
ATOM     10  C   UNL     1     -19.651  23.081  15.628  1.00  0.00     0.053 C 
BRANCH  10  11
ATOM     11  C   UNL     1     -20.421  23.531  16.828  1.00  0.00     0.041 C 
ATOM     12  O   UNL     1     -21.679  23.591  16.789  1.00  0.00    -0.550 OA
ATOM     13  O   UNL     1     -19.754  23.838  18.008  1.00  0.00    -0.550 OA
ENDBRANCH  10  11
ENDBRANCH   9  10
ENDBRANCH   8   9
ENDBRANCH   1   8
TORSDOF 8
ENDMDL
MODEL 6
REMARK VINA RESULT:    -3.285     12.229     14.130
REMARK INTER + INTRA:          -5.168
REMARK INTER:                  -4.740
REMARK INTRA:                  -0.428
REMARK UNBOUND:                -0.346
REMARK SMILES O=C([O-])CCCCCCCC(=O)[O-]
REMARK SMILES IDX 7 1 6 2 5 3 4 4 2 5 1 6 3 7 8 8 9 9 10 10 11 11 12 12 13 13
REMARK H PARENT
REMARK Flexibility Score: inf
ROOT
ATOM      1  C   UNL     1     -20.517  31.102  22.299  1.00  0.00     0.000 C 
ENDROOT
BRANCH   1   2
ATOM      2  C   UNL     1     -19.508  29.981  22.600  1.00  0.00     0.000 C 
BRANCH   2   3
ATOM      3  C   UNL     1     -19.014  29.269  21.328  1.00  0.00     0.006 C 
BRANCH   3   4
ATOM      4  C   UNL     1     -19.833  29.660  20.091  1.00  0.00     0.053 C 
BRANCH   4   5
ATOM      5  C   UNL     1     -20.664  28.516  19.594  1.00  0.00     0.041 C 
ATOM      6  O   UNL     1     -20.255  27.332  19.723  1.00  0.00    -0.550 OA
ATOM      7  O   UNL     1     -21.906  28.757  19.020  1.00  0.00    -0.550 OA
ENDBRANCH   4   5
ENDBRANCH   3   4
ENDBRANCH   2   3
ENDBRANCH   1   2
BRANCH   1   8
ATOM      8  C   UNL     1     -20.178  32.411  23.033  1.00  0.00     0.000 C 
BRANCH   8   9
ATOM      9  C   UNL     1     -21.081  33.579  22.602  1.00  0.00     0.006 C 
BRANCH   9  10
ATOM     10  C   UNL     1     -22.003  33.213  21.431  1.00  0.00     0.053 C 
BRANCH  10  11
ATOM     11  C   UNL     1     -22.410  34.445  20.686  1.00  0.00     0.041 C 
ATOM     12  O   UNL     1     -21.540  35.165  20.129  1.00  0.00    -0.550 OA
ATOM     13  O   UNL     1     -23.755  34.773  20.564  1.00  0.00    -0.550 OA
ENDBRANCH  10  11
ENDBRANCH   9  10
ENDBRANCH   8   9
ENDBRANCH   1   8
TORSDOF 8
ENDMDL
MODEL 7
REMARK VINA RESULT:    -3.264     11.421     13.346
REMARK INTER + INTRA:          -5.137
REMARK INTER:                  -4.614
REMARK INTRA:                  -0.523
REMARK UNBOUND:                -0.346
REMARK SMILES O=C([O-])CCCCCCCC(=O)[O-]
REMARK SMILES IDX 7 1 6 2 5 3 4 4 2 5 1 6 3 7 8 8 9 9 10 10 11 11 12 12 13 13
REMARK H PARENT
REMARK Flexibility Score: inf
ROOT
ATOM      1  C   UNL     1     -20.199  29.649  21.670  1.00  0.00     0.000 C 
ENDROOT
BRANCH   1   2
ATOM      2  C   UNL     1     -19.601  29.712  20.255  1.00  0.00     0.000 C 
BRANCH   2   3
ATOM      3  C   UNL     1     -20.393  28.872  19.237  1.00  0.00     0.006 C 
BRANCH   3   4
ATOM      4  C   UNL     1     -21.154  27.720  19.907  1.00  0.00     0.053 C 
BRANCH   4   5
ATOM      5  C   UNL     1     -22.607  27.729  19.541  1.00  0.00     0.041 C 
ATOM      6  O   UNL     1     -23.179  26.664  19.189  1.00  0.00    -0.550 OA
ATOM      7  O   UNL     1     -23.337  28.908  19.625  1.00  0.00    -0.550 OA
ENDBRANCH   4   5
ENDBRANCH   3   4
ENDBRANCH   2   3
ENDBRANCH   1   2
BRANCH   1   8
ATOM      8  C   UNL     1     -20.637  31.031  22.186  1.00  0.00     0.000 C 
BRANCH   8   9
ATOM      9  C   UNL     1     -21.874  31.570  21.447  1.00  0.00     0.006 C 
BRANCH   9  10
ATOM     10  C   UNL     1     -21.960  33.102  21.475  1.00  0.00     0.053 C 
BRANCH  10  11
ATOM     11  C   UNL     1     -23.104  33.574  20.636  1.00  0.00     0.041 C 
ATOM     12  O   UNL     1     -23.956  32.752  20.206  1.00  0.00    -0.550 OA
ATOM     13  O   UNL     1     -23.259  34.929  20.367  1.00  0.00    -0.550 OA
ENDBRANCH  10  11
ENDBRANCH   9  10
ENDBRANCH   8   9
ENDBRANCH   1   8
TORSDOF 8
ENDMDL
MODEL 8
REMARK VINA RESULT:    -3.258     12.134     13.092
REMARK INTER + INTRA:          -5.127
REMARK INTER:                  -4.774
REMARK INTRA:                  -0.353
REMARK UNBOUND:                -0.346
REMARK SMILES O=C([O-])CCCCCCCC(=O)[O-]
REMARK SMILES IDX 7 1 6 2 5 3 4 4 2 5 1 6 3 7 8 8 9 9 10 10 11 11 12 12 13 13
REMARK H PARENT
REMARK Flexibility Score: inf
ROOT
ATOM      1  C   UNL     1     -20.178  30.926  22.606  1.00  0.00     0.000 C 
ENDROOT
BRANCH   1   2
ATOM      2  C   UNL     1     -20.426  32.404  22.947  1.00  0.00     0.000 C 
BRANCH   2   3
ATOM      3  C   UNL     1     -21.491  33.052  22.043  1.00  0.00     0.006 C 
BRANCH   3   4
ATOM      4  C   UNL     1     -21.389  34.582  22.035  1.00  0.00     0.053 C 
BRANCH   4   5
ATOM      5  C   UNL     1     -22.264  35.190  20.981  1.00  0.00     0.041 C 
ATOM      6  O   UNL     1     -22.458  36.434  20.958  1.00  0.00    -0.550 OA
ATOM      7  O   UNL     1     -22.835  34.385  20.003  1.00  0.00    -0.550 OA
ENDBRANCH   4   5
ENDBRANCH   3   4
ENDBRANCH   2   3
ENDBRANCH   1   2
BRANCH   1   8
ATOM      8  C   UNL     1     -20.690  30.551  21.204  1.00  0.00     0.000 C 
BRANCH   8   9
ATOM      9  C   UNL     1     -19.697  29.666  20.432  1.00  0.00     0.006 C 
BRANCH   9  10
ATOM     10  C   UNL     1     -20.352  28.925  19.259  1.00  0.00     0.053 C 
BRANCH  10  11
ATOM     11  C   UNL     1     -21.401  27.983  19.760  1.00  0.00     0.041 C 
ATOM     12  O   UNL     1     -21.083  27.015  20.500  1.00  0.00    -0.550 OA
ATOM     13  O   UNL     1     -22.738  28.201  19.449  1.00  0.00    -0.550 OA
ENDBRANCH  10  11
ENDBRANCH   9  10
ENDBRANCH   8   9
ENDBRANCH   1   8
TORSDOF 8
ENDMDL
MODEL 9
REMARK VINA RESULT:    -3.197     11.780     12.664
REMARK INTER + INTRA:          -5.038
REMARK INTER:                  -4.520
REMARK INTRA:                  -0.517
REMARK UNBOUND:                -0.346
REMARK SMILES O=C([O-])CCCCCCCC(=O)[O-]
REMARK SMILES IDX 7 1 6 2 5 3 4 4 2 5 1 6 3 7 8 8 9 9 10 10 11 11 12 12 13 13
REMARK H PARENT
REMARK Flexibility Score: inf
ROOT
ATOM      1  C   UNL     1     -22.499  29.712  20.454  1.00  0.00     0.000 C 
ENDROOT
BRANCH   1   2
ATOM      2  C   UNL     1     -23.822  30.407  20.096  1.00  0.00     0.000 C 
BRANCH   2   3
ATOM      3  C   UNL     1     -23.845  31.890  20.508  1.00  0.00     0.006 C 
BRANCH   3   4
ATOM      4  C   UNL     1     -22.579  32.296  21.274  1.00  0.00     0.053 C 
BRANCH   4   5
ATOM      5  C   UNL     1     -22.284  33.757  21.121  1.00  0.00     0.041 C 
ATOM      6  O   UNL     1     -21.587  34.357  21.982  1.00  0.00    -0.550 OA
ATOM      7  O   UNL     1     -22.749  34.448  20.009  1.00  0.00    -0.550 OA
ENDBRANCH   4   5
ENDBRANCH   3   4
ENDBRANCH   2   3
ENDBRANCH   1   2
BRANCH   1   8
ATOM      8  C   UNL     1     -21.938  28.878  19.288  1.00  0.00     0.000 C 
BRANCH   8   9
ATOM      9  C   UNL     1     -20.402  28.813  19.296  1.00  0.00     0.006 C 
BRANCH   9  10
ATOM     10  C   UNL     1     -19.780  29.621  20.443  1.00  0.00     0.053 C 
BRANCH  10  11
ATOM     11  C   UNL     1     -19.123  28.706  21.427  1.00  0.00     0.041 C 
ATOM     12  O   UNL     1     -17.929  28.902  21.775  1.00  0.00    -0.550 OA
ATOM     13  O   UNL     1     -19.844  27.664  21.998  1.00  0.00    -0.550 OA
ENDBRANCH  10  11
ENDBRANCH   9  10
ENDBRANCH   8   9
ENDBRANCH   1   8
TORSDOF 8
ENDMDL
