MODEL 1
REMARK VINA RESULT:    -4.692      0.000      0.000
REMARK INTER + INTRA:          -7.137
REMARK INTER:                  -6.338
REMARK INTRA:                  -0.799
REMARK UNBOUND:                -0.799
REMARK SMILES C=C[C@](C)(CCC=C(C)C)OC(C)=O
REMARK SMILES IDX 3 1 4 2 5 3 6 4 7 5 9 6 8 7 10 8 2 9 1 10 11 11 12 12 14 13
REMARK SMILES IDX 13 14
REMARK H PARENT
REMARK Flexibility Score: inf
ROOT
ATOM      1  C   UNL     1     -20.230  31.131  -2.767  1.00  0.00     0.127 C 
ATOM      2  C   UNL     1     -20.821  30.330  -1.583  1.00  0.00     0.061 C 
ENDROOT
BRANCH   1   3
ATOM      3  C   UNL     1     -20.305  32.655  -2.489  1.00  0.00     0.057 C 
BRANCH   3   4
ATOM      4  C   UNL     1     -21.650  33.287  -2.884  1.00  0.00     0.032 C 
BRANCH   4   5
ATOM      5  C   UNL     1     -22.381  33.790  -1.663  1.00  0.00    -0.028 C 
ATOM      6  C   UNL     1     -24.184  32.059  -1.831  1.00  0.00     0.039 C 
ATOM      7  C   UNL     1     -23.539  33.267  -1.199  1.00  0.00    -0.080 C 
ATOM      8  C   UNL     1     -24.198  33.867   0.016  1.00  0.00     0.039 C 
ENDBRANCH   4   5
ENDBRANCH   3   4
ENDBRANCH   1   3
BRANCH   1   9
ATOM      9  C   UNL     1     -20.994  30.832  -4.049  1.00  0.00     0.013 C 
ATOM     10  C   UNL     1     -21.913  29.862  -4.141  1.00  0.00     0.008 C 
ENDBRANCH   1   9
BRANCH   1  11
ATOM     11  O   UNL     1     -18.847  30.785  -2.945  1.00  0.00    -0.455 OA
BRANCH  11  12
ATOM     12  C   UNL     1     -17.760  31.656  -2.780  1.00  0.00     0.303 C 
ATOM     13  O   UNL     1     -17.270  32.281  -3.758  1.00  0.00    -0.253 OA
ATOM     14  C   UNL     1     -17.152  31.816  -1.429  1.00  0.00     0.139 C 
ENDBRANCH  11  12
ENDBRANCH   1  11
TORSDOF 6
ENDMDL
MODEL 2
REMARK VINA RESULT:    -4.541      2.405      5.358
REMARK INTER + INTRA:          -6.933
REMARK INTER:                  -6.056
REMARK INTRA:                  -0.877
REMARK UNBOUND:                -0.799
REMARK SMILES C=C[C@](C)(CCC=C(C)C)OC(C)=O
REMARK SMILES IDX 3 1 4 2 5 3 6 4 7 5 9 6 8 7 10 8 2 9 1 10 11 11 12 12 14 13
REMARK SMILES IDX 13 14
REMARK H PARENT
REMARK Flexibility Score: inf
ROOT
ATOM      1  C   UNL     1     -21.791  32.285  -2.468  1.00  0.00     0.127 C 
ATOM      2  C   UNL     1     -22.081  31.717  -3.877  1.00  0.00     0.061 C 
ENDROOT
BRANCH   1   3
ATOM      3  C   UNL     1     -20.382  32.931  -2.417  1.00  0.00     0.057 C 
BRANCH   3   4
ATOM      4  C   UNL     1     -19.520  32.630  -3.655  1.00  0.00     0.032 C 
BRANCH   4   5
ATOM      5  C   UNL     1     -18.230  31.958  -3.254  1.00  0.00    -0.028 C 
ATOM      6  C   UNL     1     -18.825  29.791  -4.364  1.00  0.00     0.039 C 
ATOM      7  C   UNL     1     -17.920  30.672  -3.538  1.00  0.00    -0.080 C 
ATOM      8  C   UNL     1     -16.612  30.094  -3.063  1.00  0.00     0.039 C 
ENDBRANCH   4   5
ENDBRANCH   3   4
ENDBRANCH   1   3
BRANCH   1   9
ATOM      9  C   UNL     1     -21.857  31.179  -1.423  1.00  0.00     0.013 C 
ATOM     10  C   UNL     1     -21.033  30.124  -1.424  1.00  0.00     0.008 C 
ENDBRANCH   1   9
BRANCH   1  11
ATOM     11  O   UNL     1     -22.753  33.302  -2.146  1.00  0.00    -0.455 OA
BRANCH  11  12
ATOM     12  C   UNL     1     -23.909  33.116  -1.374  1.00  0.00     0.303 C 
ATOM     13  O   UNL     1     -24.820  32.326  -1.740  1.00  0.00    -0.253 OA
ATOM     14  C   UNL     1     -24.078  33.897  -0.115  1.00  0.00     0.139 C 
ENDBRANCH  11  12
ENDBRANCH   1  11
TORSDOF 6
ENDMDL
MODEL 3
REMARK VINA RESULT:    -4.527      1.292      2.075
REMARK INTER + INTRA:          -6.914
REMARK INTER:                  -6.071
REMARK INTRA:                  -0.843
REMARK UNBOUND:                -0.799
REMARK SMILES C=C[C@](C)(CCC=C(C)C)OC(C)=O
REMARK SMILES IDX 3 1 4 2 5 3 6 4 7 5 9 6 8 7 10 8 2 9 1 10 11 11 12 12 14 13
REMARK SMILES IDX 13 14
REMARK H PARENT
REMARK Flexibility Score: inf
ROOT
ATOM      1  C   UNL     1     -19.880  31.228  -2.528  1.00  0.00     0.127 C 
ATOM      2  C   UNL     1     -18.386  30.916  -2.281  1.00  0.00     0.061 C 
ENDROOT
BRANCH   1   3
ATOM      3  C   UNL     1     -20.163  32.741  -2.332  1.00  0.00     0.057 C 
BRANCH   3   4
ATOM      4  C   UNL     1     -21.589  33.158  -2.730  1.00  0.00     0.032 C 
BRANCH   4   5
ATOM      5  C   UNL     1     -22.322  33.740  -1.547  1.00  0.00    -0.028 C 
ATOM      6  C   UNL     1     -24.255  32.160  -1.763  1.00  0.00     0.039 C 
ATOM      7  C   UNL     1     -23.537  33.322  -1.122  1.00  0.00    -0.080 C 
ATOM      8  C   UNL     1     -24.191  33.995   0.057  1.00  0.00     0.039 C 
ENDBRANCH   4   5
ENDBRANCH   3   4
ENDBRANCH   1   3
BRANCH   1   9
ATOM      9  C   UNL     1     -20.757  30.441  -1.564  1.00  0.00     0.013 C 
ATOM     10  C   UNL     1     -21.655  29.534  -1.969  1.00  0.00     0.008 C 
ENDBRANCH   1   9
BRANCH   1  11
ATOM     11  O   UNL     1     -20.231  30.887  -3.878  1.00  0.00    -0.455 OA
BRANCH  11  12
ATOM     12  C   UNL     1     -19.352  30.872  -4.971  1.00  0.00     0.303 C 
ATOM     13  O   UNL     1     -18.937  31.942  -5.490  1.00  0.00    -0.253 OA
ATOM     14  C   UNL     1     -18.932  29.564  -5.550  1.00  0.00     0.139 C 
ENDBRANCH  11  12
ENDBRANCH   1  11
TORSDOF 6
ENDMDL
MODEL 4
REMARK VINA RESULT:    -4.504      1.543      3.205
REMARK INTER + INTRA:          -6.883
REMARK INTER:                  -5.791
REMARK INTRA:                  -1.091
REMARK UNBOUND:                -0.799
REMARK SMILES C=C[C@](C)(CCC=C(C)C)OC(C)=O
REMARK SMILES IDX 3 1 4 2 5 3 6 4 7 5 9 6 8 7 10 8 2 9 1 10 11 11 12 12 14 13
REMARK SMILES IDX 13 14
REMARK H PARENT
REMARK Flexibility Score: inf
ROOT
ATOM      1  C   UNL     1     -18.872  32.044  -3.478  1.00  0.00     0.127 C 
ATOM      2  C   UNL     1     -17.656  32.605  -4.251  1.00  0.00     0.061 C 
ENDROOT
BRANCH   1   3
ATOM      3  C   UNL     1     -20.094  32.991  -3.616  1.00  0.00     0.057 C 
BRANCH   3   4
ATOM      4  C   UNL     1     -20.778  33.313  -2.277  1.00  0.00     0.032 C 
BRANCH   4   5
ATOM      5  C   UNL     1     -22.251  32.991  -2.343  1.00  0.00    -0.028 C 
ATOM      6  C   UNL     1     -21.979  30.762  -1.232  1.00  0.00     0.039 C 
ATOM      7  C   UNL     1     -22.799  31.833  -1.907  1.00  0.00    -0.080 C 
ATOM      8  C   UNL     1     -24.282  31.606  -2.048  1.00  0.00     0.039 C 
ENDBRANCH   4   5
ENDBRANCH   3   4
ENDBRANCH   1   3
BRANCH   1   9
ATOM      9  C   UNL     1     -18.541  31.890  -2.000  1.00  0.00     0.013 C 
ATOM     10  C   UNL     1     -18.130  30.736  -1.460  1.00  0.00     0.008 C 
ENDBRANCH   1   9
BRANCH   1  11
ATOM     11  O   UNL     1     -19.244  30.766  -4.018  1.00  0.00    -0.455 OA
BRANCH  11  12
ATOM     12  C   UNL     1     -20.102  30.559  -5.108  1.00  0.00     0.303 C 
ATOM     13  O   UNL     1     -19.744  30.838  -6.284  1.00  0.00    -0.253 OA
ATOM     14  C   UNL     1     -21.475  30.032  -4.865  1.00  0.00     0.139 C 
ENDBRANCH  11  12
ENDBRANCH   1  11
TORSDOF 6
ENDMDL
MODEL 5
REMARK VINA RESULT:    -4.436      1.820      5.204
REMARK INTER + INTRA:          -6.791
REMARK INTER:                  -6.036
REMARK INTRA:                  -0.755
REMARK UNBOUND:                -0.799
REMARK SMILES C=C[C@](C)(CCC=C(C)C)OC(C)=O
REMARK SMILES IDX 3 1 4 2 5 3 6 4 7 5 9 6 8 7 10 8 2 9 1 10 11 11 12 12 14 13
REMARK SMILES IDX 13 14
REMARK H PARENT
REMARK Flexibility Score: inf
ROOT
ATOM      1  C   UNL     1     -20.190  30.788  -2.096  1.00  0.00     0.127 C 
ATOM      2  C   UNL     1     -20.135  30.011  -3.433  1.00  0.00     0.061 C 
ENDROOT
BRANCH   1   3
ATOM      3  C   UNL     1     -18.922  30.506  -1.247  1.00  0.00     0.057 C 
BRANCH   3   4
ATOM      4  C   UNL     1     -17.759  31.469  -1.538  1.00  0.00     0.032 C 
BRANCH   4   5
ATOM      5  C   UNL     1     -16.734  30.810  -2.429  1.00  0.00    -0.028 C 
ATOM      6  C   UNL     1     -17.292  32.248  -4.404  1.00  0.00     0.039 C 
ATOM      7  C   UNL     1     -16.538  31.129  -3.729  1.00  0.00    -0.080 C 
ATOM      8  C   UNL     1     -15.504  30.385  -4.535  1.00  0.00     0.039 C 
ENDBRANCH   4   5
ENDBRANCH   3   4
ENDBRANCH   1   3
BRANCH   1   9
ATOM      9  C   UNL     1     -21.416  30.379  -1.291  1.00  0.00     0.013 C 
ATOM     10  C   UNL     1     -22.323  29.502  -1.738  1.00  0.00     0.008 C 
ENDBRANCH   1   9
BRANCH   1  11
ATOM     11  O   UNL     1     -20.240  32.200  -2.356  1.00  0.00    -0.455 OA
BRANCH  11  12
ATOM     12  C   UNL     1     -21.386  32.923  -2.719  1.00  0.00     0.303 C 
ATOM     13  O   UNL     1     -21.835  32.887  -3.896  1.00  0.00    -0.253 OA
ATOM     14  C   UNL     1     -22.062  33.776  -1.701  1.00  0.00     0.139 C 
ENDBRANCH  11  12
ENDBRANCH   1  11
TORSDOF 6
ENDMDL
MODEL 6
REMARK VINA RESULT:    -4.386      2.243      5.043
REMARK INTER + INTRA:          -6.723
REMARK INTER:                  -5.929
REMARK INTRA:                  -0.794
REMARK UNBOUND:                -0.799
REMARK SMILES C=C[C@](C)(CCC=C(C)C)OC(C)=O
REMARK SMILES IDX 3 1 4 2 5 3 6 4 7 5 9 6 8 7 10 8 2 9 1 10 11 11 12 12 14 13
REMARK SMILES IDX 13 14
REMARK H PARENT
REMARK Flexibility Score: inf
ROOT
ATOM      1  C   UNL     1     -22.494  32.032  -2.177  1.00  0.00     0.127 C 
ATOM      2  C   UNL     1     -22.205  30.697  -1.451  1.00  0.00     0.061 C 
ENDROOT
BRANCH   1   3
ATOM      3  C   UNL     1     -21.309  33.018  -1.999  1.00  0.00     0.057 C 
BRANCH   3   4
ATOM      4  C   UNL     1     -20.185  32.822  -3.030  1.00  0.00     0.032 C 
BRANCH   4   5
ATOM      5  C   UNL     1     -18.968  32.212  -2.379  1.00  0.00    -0.028 C 
ATOM      6  C   UNL     1     -19.170  30.060  -3.648  1.00  0.00     0.039 C 
ATOM      7  C   UNL     1     -18.521  30.958  -2.624  1.00  0.00    -0.080 C 
ATOM      8  C   UNL     1     -17.309  30.439  -1.895  1.00  0.00     0.039 C 
ENDBRANCH   4   5
ENDBRANCH   3   4
ENDBRANCH   1   3
BRANCH   1   9
ATOM      9  C   UNL     1     -23.754  32.681  -1.620  1.00  0.00     0.013 C 
ATOM     10  C   UNL     1     -23.733  33.788  -0.867  1.00  0.00     0.008 C 
ENDBRANCH   1   9
BRANCH   1  11
ATOM     11  O   UNL     1     -22.662  31.795  -3.583  1.00  0.00    -0.455 OA
BRANCH  11  12
ATOM     12  C   UNL     1     -23.403  30.749  -4.152  1.00  0.00     0.303 C 
ATOM     13  O   UNL     1     -24.653  30.678  -4.004  1.00  0.00    -0.253 OA
ATOM     14  C   UNL     1     -22.693  29.683  -4.915  1.00  0.00     0.139 C 
ENDBRANCH  11  12
ENDBRANCH   1  11
TORSDOF 6
ENDMDL
MODEL 7
REMARK VINA RESULT:    -4.340      1.648      2.431
REMARK INTER + INTRA:          -6.661
REMARK INTER:                  -5.554
REMARK INTRA:                  -1.107
REMARK UNBOUND:                -0.799
REMARK SMILES C=C[C@](C)(CCC=C(C)C)OC(C)=O
REMARK SMILES IDX 3 1 4 2 5 3 6 4 7 5 9 6 8 7 10 8 2 9 1 10 11 11 12 12 14 13
REMARK SMILES IDX 13 14
REMARK H PARENT
REMARK Flexibility Score: inf
ROOT
ATOM      1  C   UNL     1     -18.904  32.061  -3.511  1.00  0.00     0.127 C 
ATOM      2  C   UNL     1     -18.474  31.868  -2.038  1.00  0.00     0.061 C 
ENDROOT
BRANCH   1   3
ATOM      3  C   UNL     1     -20.097  33.049  -3.608  1.00  0.00     0.057 C 
BRANCH   3   4
ATOM      4  C   UNL     1     -20.808  33.290  -2.266  1.00  0.00     0.032 C 
BRANCH   4   5
ATOM      5  C   UNL     1     -22.270  32.929  -2.367  1.00  0.00    -0.028 C 
ATOM      6  C   UNL     1     -21.951  30.674  -1.322  1.00  0.00     0.039 C 
ATOM      7  C   UNL     1     -22.791  31.743  -1.976  1.00  0.00    -0.080 C 
ATOM      8  C   UNL     1     -24.264  31.478  -2.149  1.00  0.00     0.039 C 
ENDBRANCH   4   5
ENDBRANCH   3   4
ENDBRANCH   1   3
BRANCH   1   9
ATOM      9  C   UNL     1     -19.322  30.732  -4.125  1.00  0.00     0.013 C 
ATOM     10  C   UNL     1     -20.413  30.592  -4.888  1.00  0.00     0.008 C 
ENDBRANCH   1   9
BRANCH   1  11
ATOM     11  O   UNL     1     -17.815  32.613  -4.267  1.00  0.00    -0.455 OA
BRANCH  11  12
ATOM     12  C   UNL     1     -16.855  31.873  -4.974  1.00  0.00     0.303 C 
ATOM     13  O   UNL     1     -15.993  31.178  -4.373  1.00  0.00    -0.253 OA
ATOM     14  C   UNL     1     -16.834  31.941  -6.463  1.00  0.00     0.139 C 
ENDBRANCH  11  12
ENDBRANCH   1  11
TORSDOF 6
ENDMDL
MODEL 8
REMARK VINA RESULT:    -4.295      1.818      3.251
REMARK INTER + INTRA:          -6.601
REMARK INTER:                  -5.734
REMARK INTRA:                  -0.867
REMARK UNBOUND:                -0.799
REMARK SMILES C=C[C@](C)(CCC=C(C)C)OC(C)=O
REMARK SMILES IDX 3 1 4 2 5 3 6 4 7 5 9 6 8 7 10 8 2 9 1 10 11 11 12 12 14 13
REMARK SMILES IDX 13 14
REMARK H PARENT
REMARK Flexibility Score: inf
ROOT
ATOM      1  C   UNL     1     -21.467  32.424  -2.429  1.00  0.00     0.127 C 
ATOM      2  C   UNL     1     -21.928  32.277  -3.899  1.00  0.00     0.061 C 
ENDROOT
BRANCH   1   3
ATOM      3  C   UNL     1     -21.782  31.135  -1.625  1.00  0.00     0.057 C 
BRANCH   3   4
ATOM      4  C   UNL     1     -22.401  30.014  -2.476  1.00  0.00     0.032 C 
BRANCH   4   5
ATOM      5  C   UNL     1     -23.616  29.436  -1.791  1.00  0.00    -0.028 C 
ATOM      6  C   UNL     1     -25.227  30.772  -3.170  1.00  0.00     0.039 C 
ATOM      7  C   UNL     1     -24.890  29.794  -2.071  1.00  0.00    -0.080 C 
ATOM      8  C   UNL     1     -26.028  29.172  -1.304  1.00  0.00     0.039 C 
ENDBRANCH   4   5
ENDBRANCH   3   4
ENDBRANCH   1   3
BRANCH   1   9
ATOM      9  C   UNL     1     -22.174  33.597  -1.764  1.00  0.00     0.013 C 
ATOM     10  C   UNL     1     -23.397  33.503  -1.228  1.00  0.00     0.008 C 
ENDBRANCH   1   9
BRANCH   1  11
ATOM     11  O   UNL     1     -20.048  32.635  -2.383  1.00  0.00    -0.455 OA
BRANCH  11  12
ATOM     12  C   UNL     1     -19.069  31.666  -2.650  1.00  0.00     0.303 C 
ATOM     13  O   UNL     1     -18.987  31.114  -3.779  1.00  0.00    -0.253 OA
ATOM     14  C   UNL     1     -18.133  31.258  -1.564  1.00  0.00     0.139 C 
ENDBRANCH  11  12
ENDBRANCH   1  11
TORSDOF 6
ENDMDL
MODEL 9
REMARK VINA RESULT:    -4.175      2.336      5.489
REMARK INTER + INTRA:          -6.439
REMARK INTER:                  -5.373
REMARK INTRA:                  -1.065
REMARK UNBOUND:                -0.799
REMARK SMILES C=C[C@](C)(CCC=C(C)C)OC(C)=O
REMARK SMILES IDX 3 1 4 2 5 3 6 4 7 5 9 6 8 7 10 8 2 9 1 10 11 11 12 12 14 13
REMARK SMILES IDX 13 14
REMARK H PARENT
REMARK Flexibility Score: inf
ROOT
ATOM      1  C   UNL     1     -20.629  31.335  -2.337  1.00  0.00     0.127 C 
ATOM      2  C   UNL     1     -20.393  32.851  -2.531  1.00  0.00     0.061 C 
ENDROOT
BRANCH   1   3
ATOM      3  C   UNL     1     -19.383  30.663  -1.701  1.00  0.00     0.057 C 
BRANCH   3   4
ATOM      4  C   UNL     1     -18.127  31.549  -1.723  1.00  0.00     0.032 C 
BRANCH   4   5
ATOM      5  C   UNL     1     -17.009  30.867  -2.473  1.00  0.00    -0.028 C 
ATOM      6  C   UNL     1     -17.373  32.209  -4.558  1.00  0.00     0.039 C 
ATOM      7  C   UNL     1     -16.682  31.132  -3.759  1.00  0.00    -0.080 C 
ATOM      8  C   UNL     1     -15.564  30.369  -4.420  1.00  0.00     0.039 C 
ENDBRANCH   4   5
ENDBRANCH   3   4
ENDBRANCH   1   3
BRANCH   1   9
ATOM      9  C   UNL     1     -20.914  30.664  -3.674  1.00  0.00     0.013 C 
ATOM     10  C   UNL     1     -20.197  29.634  -4.140  1.00  0.00     0.008 C 
ENDBRANCH   1   9
BRANCH   1  11
ATOM     11  O   UNL     1     -21.741  31.125  -1.453  1.00  0.00    -0.455 OA
BRANCH  11  12
ATOM     12  C   UNL     1     -23.026  30.717  -1.840  1.00  0.00     0.303 C 
ATOM     13  O   UNL     1     -23.862  31.539  -2.302  1.00  0.00    -0.253 OA
ATOM     14  C   UNL     1     -23.420  29.290  -1.668  1.00  0.00     0.139 C 
ENDBRANCH  11  12
ENDBRANCH   1  11
TORSDOF 6
ENDMDL
