MODEL 1
REMARK VINA RESULT:    -7.957      0.000      0.000
REMARK INTER + INTRA:          -9.913
REMARK INTER:                  -9.585
REMARK INTRA:                  -0.327
REMARK UNBOUND:                -0.327
REMARK SMILES O=c1c(O)c(-c2ccc(O)c(O)c2)oc2cc(O)cc(O)c12
REMARK SMILES IDX 5 1 3 2 2 3 1 4 22 5 20 6 19 7 17 8 16 9 15 10 14 11 6 12
REMARK SMILES IDX 7 13 8 14 9 15 13 16 11 17 10 18 12 20 4 22 21 24 18 26
REMARK H PARENT 10 19 12 21 4 23 21 25 18 27
REMARK Flexibility Score: inf
ROOT
ATOM      1  C   UNL     1       7.334 -56.238 -28.680  1.00  0.00     0.180 A 
ATOM      2  C   UNL     1       5.946 -56.024 -28.631  1.00  0.00     0.208 A 
ATOM      3  C   UNL     1       5.221 -56.506 -27.530  1.00  0.00     0.238 A 
ATOM      4  O   UNL     1       3.992 -56.245 -27.457  1.00  0.00    -0.285 OA
ATOM      5  C   UNL     1       5.881 -57.243 -26.517  1.00  0.00     0.111 A 
ATOM      6  C   UNL     1       5.238 -57.817 -25.379  1.00  0.00     0.134 A 
ATOM      7  C   UNL     1       6.011 -58.436 -24.389  1.00  0.00     0.093 A 
ATOM      8  C   UNL     1       7.397 -58.558 -24.526  1.00  0.00     0.123 A 
ATOM      9  C   UNL     1       8.026 -58.050 -25.659  1.00  0.00     0.094 A 
ATOM     10  C   UNL     1       7.288 -57.393 -26.647  1.00  0.00     0.146 A 
ATOM     11  O   UNL     1       7.932 -56.906 -27.699  1.00  0.00    -0.452 OA
ENDROOT
BRANCH   1  12
ATOM     12  C   UNL     1       8.169 -55.749 -29.800  1.00  0.00     0.025 A 
ATOM     13  C   UNL     1       8.678 -54.438 -29.816  1.00  0.00     0.016 A 
ATOM     14  C   UNL     1       9.483 -54.007 -30.873  1.00  0.00     0.051 A 
ATOM     15  C   UNL     1       9.804 -54.880 -31.921  1.00  0.00     0.157 A 
ATOM     16  C   UNL     1       8.511 -56.627 -30.841  1.00  0.00     0.062 A 
ATOM     17  C   UNL     1       9.318 -56.197 -31.902  1.00  0.00     0.158 A 
BRANCH  15  18
ATOM     18  O   UNL     1      10.607 -54.445 -32.974  1.00  0.00    -0.504 OA
ATOM     19  H   UNL     1      10.764 -53.460 -33.151  1.00  0.00     0.293 HD
ENDBRANCH  15  18
BRANCH  17  20
ATOM     20  O   UNL     1       9.625 -57.094 -32.925  1.00  0.00    -0.504 OA
ATOM     21  H   UNL     1       9.422 -58.083 -32.853  1.00  0.00     0.293 HD
ENDBRANCH  17  20
ENDBRANCH   1  12
BRANCH   2  22
ATOM     22  O   UNL     1       5.301 -55.360 -29.677  1.00  0.00    -0.502 OA
ATOM     23  H   UNL     1       4.634 -55.821 -30.285  1.00  0.00     0.293 HD
ENDBRANCH   2  22
BRANCH   6  24
ATOM     24  O   UNL     1       3.854 -57.831 -25.186  1.00  0.00    -0.507 OA
ATOM     25  H   UNL     1       3.168 -57.829 -25.924  1.00  0.00     0.293 HD
ENDBRANCH   6  24
BRANCH   8  26
ATOM     26  O   UNL     1       8.155 -59.190 -23.543  1.00  0.00    -0.508 OA
ATOM     27  H   UNL     1       8.562 -60.106 -23.694  1.00  0.00     0.293 HD
ENDBRANCH   8  26
TORSDOF 6
ENDMDL
MODEL 2
REMARK VINA RESULT:    -7.851      2.004      6.736
REMARK INTER + INTRA:          -9.785
REMARK INTER:                  -9.776
REMARK INTRA:                  -0.009
REMARK UNBOUND:                -0.327
REMARK SMILES O=c1c(O)c(-c2ccc(O)c(O)c2)oc2cc(O)cc(O)c12
REMARK SMILES IDX 5 1 3 2 2 3 1 4 22 5 20 6 19 7 17 8 16 9 15 10 14 11 6 12
REMARK SMILES IDX 7 13 8 14 9 15 13 16 11 17 10 18 12 20 4 22 21 24 18 26
REMARK H PARENT 10 19 12 21 4 23 21 25 18 27
REMARK Flexibility Score: inf
ROOT
ATOM      1  C   UNL     1       5.622 -55.869 -28.519  1.00  0.00     0.180 A 
ATOM      2  C   UNL     1       5.128 -55.740 -29.829  1.00  0.00     0.208 A 
ATOM      3  C   UNL     1       6.032 -55.494 -30.875  1.00  0.00     0.238 A 
ATOM      4  O   UNL     1       5.592 -55.455 -32.054  1.00  0.00    -0.285 OA
ATOM      5  C   UNL     1       7.410 -55.326 -30.594  1.00  0.00     0.111 A 
ATOM      6  C   UNL     1       8.408 -55.029 -31.570  1.00  0.00     0.134 A 
ATOM      7  C   UNL     1       9.755 -54.989 -31.190  1.00  0.00     0.093 A 
ATOM      8  C   UNL     1      10.134 -55.173 -29.857  1.00  0.00     0.123 A 
ATOM      9  C   UNL     1       9.162 -55.408 -28.889  1.00  0.00     0.094 A 
ATOM     10  C   UNL     1       7.813 -55.491 -29.243  1.00  0.00     0.146 A 
ATOM     11  O   UNL     1       6.923 -55.739 -28.289  1.00  0.00    -0.452 OA
ENDROOT
BRANCH   1  12
ATOM     12  C   UNL     1       4.735 -56.143 -27.366  1.00  0.00     0.025 A 
ATOM     13  C   UNL     1       3.588 -55.366 -27.122  1.00  0.00     0.016 A 
ATOM     14  C   UNL     1       2.754 -55.659 -26.041  1.00  0.00     0.051 A 
ATOM     15  C   UNL     1       3.043 -56.738 -25.196  1.00  0.00     0.157 A 
ATOM     16  C   UNL     1       5.008 -57.237 -26.529  1.00  0.00     0.062 A 
ATOM     17  C   UNL     1       4.174 -57.533 -25.445  1.00  0.00     0.158 A 
BRANCH  15  18
ATOM     18  O   UNL     1       2.209 -57.027 -24.117  1.00  0.00    -0.504 OA
ATOM     19  H   UNL     1       2.503 -57.641 -23.368  1.00  0.00     0.293 HD
ENDBRANCH  15  18
BRANCH  17  20
ATOM     20  O   UNL     1       4.485 -58.619 -24.628  1.00  0.00    -0.504 OA
ATOM     21  H   UNL     1       4.432 -59.575 -24.959  1.00  0.00     0.293 HD
ENDBRANCH  17  20
ENDBRANCH   1  12
BRANCH   2  22
ATOM     22  O   UNL     1       3.757 -55.834 -30.076  1.00  0.00    -0.502 OA
ATOM     23  H   UNL     1       3.135 -55.037 -30.001  1.00  0.00     0.293 HD
ENDBRANCH   2  22
BRANCH   6  24
ATOM     24  O   UNL     1       8.132 -54.742 -32.911  1.00  0.00    -0.507 OA
ATOM     25  H   UNL     1       8.074 -55.428 -33.648  1.00  0.00     0.293 HD
ENDBRANCH   6  24
BRANCH   8  26
ATOM     26  O   UNL     1      11.475 -55.114 -29.486  1.00  0.00    -0.508 OA
ATOM     27  H   UNL     1      11.755 -55.047 -28.514  1.00  0.00     0.293 HD
ENDBRANCH   8  26
TORSDOF 6
ENDMDL
MODEL 3
REMARK VINA RESULT:    -7.648      1.715      1.990
REMARK INTER + INTRA:          -9.541
REMARK INTER:                  -9.949
REMARK INTRA:                   0.408
REMARK UNBOUND:                -0.327
REMARK SMILES O=c1c(O)c(-c2ccc(O)c(O)c2)oc2cc(O)cc(O)c12
REMARK SMILES IDX 5 1 3 2 2 3 1 4 22 5 20 6 19 7 17 8 16 9 15 10 14 11 6 12
REMARK SMILES IDX 7 13 8 14 9 15 13 16 11 17 10 18 12 20 4 22 21 24 18 26
REMARK H PARENT 10 19 12 21 4 23 21 25 18 27
REMARK Flexibility Score: inf
ROOT
ATOM      1  C   UNL     1       5.636 -55.935 -28.930  1.00  0.00     0.180 A 
ATOM      2  C   UNL     1       4.356 -55.387 -28.740  1.00  0.00     0.208 A 
ATOM      3  C   UNL     1       3.673 -55.650 -27.542  1.00  0.00     0.238 A 
ATOM      4  O   UNL     1       2.560 -55.095 -27.348  1.00  0.00    -0.285 OA
ATOM      5  C   UNL     1       4.254 -56.502 -26.570  1.00  0.00     0.111 A 
ATOM      6  C   UNL     1       3.632 -56.873 -25.340  1.00  0.00     0.134 A 
ATOM      7  C   UNL     1       4.347 -57.637 -24.409  1.00  0.00     0.093 A 
ATOM      8  C   UNL     1       5.636 -58.097 -24.691  1.00  0.00     0.123 A 
ATOM      9  C   UNL     1       6.229 -57.786 -25.912  1.00  0.00     0.094 A 
ATOM     10  C   UNL     1       5.557 -56.994 -26.846  1.00  0.00     0.146 A 
ATOM     11  O   UNL     1       6.169 -56.704 -27.987  1.00  0.00    -0.452 OA
ENDROOT
BRANCH   1  12
ATOM     12  C   UNL     1       6.424 -55.692 -30.159  1.00  0.00     0.025 A 
ATOM     13  C   UNL     1       5.823 -55.194 -31.329  1.00  0.00     0.016 A 
ATOM     14  C   UNL     1       6.592 -54.950 -32.468  1.00  0.00     0.051 A 
ATOM     15  C   UNL     1       7.973 -55.185 -32.455  1.00  0.00     0.157 A 
ATOM     16  C   UNL     1       7.812 -55.905 -30.142  1.00  0.00     0.062 A 
ATOM     17  C   UNL     1       8.585 -55.662 -31.284  1.00  0.00     0.158 A 
BRANCH  15  18
ATOM     18  O   UNL     1       8.737 -54.942 -33.595  1.00  0.00    -0.504 OA
ATOM     19  H   UNL     1       8.451 -55.277 -34.507  1.00  0.00     0.293 HD
ENDBRANCH  15  18
BRANCH  17  20
ATOM     20  O   UNL     1       9.959 -55.899 -31.234  1.00  0.00    -0.504 OA
ATOM     21  H   UNL     1      10.339 -56.814 -31.025  1.00  0.00     0.293 HD
ENDBRANCH  17  20
ENDBRANCH   1  12
BRANCH   2  22
ATOM     22  O   UNL     1       3.768 -54.611 -29.742  1.00  0.00    -0.502 OA
ATOM     23  H   UNL     1       2.766 -54.580 -29.888  1.00  0.00     0.293 HD
ENDBRANCH   2  22
BRANCH   6  24
ATOM     24  O   UNL     1       2.318 -56.543 -24.995  1.00  0.00    -0.507 OA
ATOM     25  H   UNL     1       1.957 -55.604 -24.929  1.00  0.00     0.293 HD
ENDBRANCH   6  24
BRANCH   8  26
ATOM     26  O   UNL     1       6.332 -58.872 -23.766  1.00  0.00    -0.508 OA
ATOM     27  H   UNL     1       6.647 -59.809 -23.988  1.00  0.00     0.293 HD
ENDBRANCH   8  26
TORSDOF 6
ENDMDL
MODEL 4
REMARK VINA RESULT:    -7.592      2.586      4.397
REMARK INTER + INTRA:          -9.473
REMARK INTER:                  -9.425
REMARK INTRA:                  -0.048
REMARK UNBOUND:                -0.327
REMARK SMILES O=c1c(O)c(-c2ccc(O)c(O)c2)oc2cc(O)cc(O)c12
REMARK SMILES IDX 5 1 3 2 2 3 1 4 22 5 20 6 19 7 17 8 16 9 15 10 14 11 6 12
REMARK SMILES IDX 7 13 8 14 9 15 13 16 11 17 10 18 12 20 4 22 21 24 18 26
REMARK H PARENT 10 19 12 21 4 23 21 25 18 27
REMARK Flexibility Score: inf
ROOT
ATOM      1  C   UNL     1       5.238 -56.098 -27.696  1.00  0.00     0.180 A 
ATOM      2  C   UNL     1       5.248 -57.087 -26.698  1.00  0.00     0.208 A 
ATOM      3  C   UNL     1       4.232 -57.087 -25.729  1.00  0.00     0.238 A 
ATOM      4  O   UNL     1       4.206 -58.020 -24.884  1.00  0.00    -0.285 OA
ATOM      5  C   UNL     1       3.250 -56.068 -25.735  1.00  0.00     0.111 A 
ATOM      6  C   UNL     1       2.201 -55.944 -24.775  1.00  0.00     0.134 A 
ATOM      7  C   UNL     1       1.224 -54.955 -24.943  1.00  0.00     0.093 A 
ATOM      8  C   UNL     1       1.294 -54.044 -26.002  1.00  0.00     0.123 A 
ATOM      9  C   UNL     1       2.345 -54.123 -26.912  1.00  0.00     0.094 A 
ATOM     10  C   UNL     1       3.314 -55.122 -26.793  1.00  0.00     0.146 A 
ATOM     11  O   UNL     1       4.285 -55.172 -27.696  1.00  0.00    -0.452 OA
ENDROOT
BRANCH   1  12
ATOM     12  C   UNL     1       6.265 -56.040 -28.759  1.00  0.00     0.025 A 
ATOM     13  C   UNL     1       5.912 -56.019 -30.120  1.00  0.00     0.016 A 
ATOM     14  C   UNL     1       6.899 -55.940 -31.105  1.00  0.00     0.051 A 
ATOM     15  C   UNL     1       8.252 -55.867 -30.748  1.00  0.00     0.157 A 
ATOM     16  C   UNL     1       7.621 -55.945 -28.405  1.00  0.00     0.062 A 
ATOM     17  C   UNL     1       8.613 -55.866 -29.390  1.00  0.00     0.158 A 
BRANCH  15  18
ATOM     18  O   UNL     1       9.234 -55.790 -31.733  1.00  0.00    -0.504 OA
ATOM     19  H   UNL     1       9.412 -56.561 -32.367  1.00  0.00     0.293 HD
ENDBRANCH  15  18
BRANCH  17  20
ATOM     20  O   UNL     1       9.950 -55.787 -29.001  1.00  0.00    -0.504 OA
ATOM     21  H   UNL     1      10.316 -56.323 -28.223  1.00  0.00     0.293 HD
ENDBRANCH  17  20
ENDBRANCH   1  12
BRANCH   2  22
ATOM     22  O   UNL     1       6.269 -58.040 -26.663  1.00  0.00    -0.502 OA
ATOM     23  H   UNL     1       6.881 -58.153 -25.864  1.00  0.00     0.293 HD
ENDBRANCH   2  22
BRANCH   6  24
ATOM     24  O   UNL     1       2.085 -56.742 -23.633  1.00  0.00    -0.507 OA
ATOM     25  H   UNL     1       2.067 -57.750 -23.632  1.00  0.00     0.293 HD
ENDBRANCH   6  24
BRANCH   8  26
ATOM     26  O   UNL     1       0.327 -53.053 -26.151  1.00  0.00    -0.508 OA
ATOM     27  H   UNL     1       0.388 -52.358 -26.887  1.00  0.00     0.293 HD
ENDBRANCH   8  26
TORSDOF 6
ENDMDL
MODEL 5
REMARK VINA RESULT:    -7.565      2.828      4.623
REMARK INTER + INTRA:          -9.441
REMARK INTER:                  -9.645
REMARK INTRA:                   0.204
REMARK UNBOUND:                -0.327
REMARK SMILES O=c1c(O)c(-c2ccc(O)c(O)c2)oc2cc(O)cc(O)c12
REMARK SMILES IDX 5 1 3 2 2 3 1 4 22 5 20 6 19 7 17 8 16 9 15 10 14 11 6 12
REMARK SMILES IDX 7 13 8 14 9 15 13 16 11 17 10 18 12 20 4 22 21 24 18 26
REMARK H PARENT 10 19 12 21 4 23 21 25 18 27
REMARK Flexibility Score: inf
ROOT
ATOM      1  C   UNL     1       4.814 -55.955 -27.580  1.00  0.00     0.180 A 
ATOM      2  C   UNL     1       4.920 -56.948 -26.590  1.00  0.00     0.208 A 
ATOM      3  C   UNL     1       3.953 -57.000 -25.573  1.00  0.00     0.238 A 
ATOM      4  O   UNL     1       4.012 -57.937 -24.734  1.00  0.00    -0.285 OA
ATOM      5  C   UNL     1       2.925 -56.028 -25.525  1.00  0.00     0.111 A 
ATOM      6  C   UNL     1       1.919 -55.958 -24.514  1.00  0.00     0.134 A 
ATOM      7  C   UNL     1       0.890 -55.016 -24.628  1.00  0.00     0.093 A 
ATOM      8  C   UNL     1       0.865 -54.099 -25.683  1.00  0.00     0.123 A 
ATOM      9  C   UNL     1       1.873 -54.123 -26.643  1.00  0.00     0.094 A 
ATOM     10  C   UNL     1       2.892 -55.076 -26.578  1.00  0.00     0.146 A 
ATOM     11  O   UNL     1       3.820 -55.076 -27.528  1.00  0.00    -0.452 OA
ENDROOT
BRANCH   1  12
ATOM     12  C   UNL     1       5.784 -55.844 -28.692  1.00  0.00     0.025 A 
ATOM     13  C   UNL     1       7.148 -56.133 -28.507  1.00  0.00     0.016 A 
ATOM     14  C   UNL     1       8.040 -56.044 -29.578  1.00  0.00     0.051 A 
ATOM     15  C   UNL     1       7.584 -55.679 -30.851  1.00  0.00     0.157 A 
ATOM     16  C   UNL     1       5.327 -55.500 -29.975  1.00  0.00     0.062 A 
ATOM     17  C   UNL     1       6.220 -55.410 -31.050  1.00  0.00     0.158 A 
BRANCH  15  18
ATOM     18  O   UNL     1       8.478 -55.590 -31.917  1.00  0.00    -0.504 OA
ATOM     19  H   UNL     1       8.535 -54.759 -32.494  1.00  0.00     0.293 HD
ENDBRANCH  15  18
BRANCH  17  20
ATOM     20  O   UNL     1       5.732 -55.052 -32.306  1.00  0.00    -0.504 OA
ATOM     21  H   UNL     1       5.104 -54.268 -32.436  1.00  0.00     0.293 HD
ENDBRANCH  17  20
ENDBRANCH   1  12
BRANCH   2  22
ATOM     22  O   UNL     1       5.985 -57.851 -26.612  1.00  0.00    -0.502 OA
ATOM     23  H   UNL     1       6.900 -57.604 -26.970  1.00  0.00     0.293 HD
ENDBRANCH   2  22
BRANCH   6  24
ATOM     24  O   UNL     1       1.897 -56.766 -23.373  1.00  0.00    -0.507 OA
ATOM     25  H   UNL     1       1.067 -57.019 -22.861  1.00  0.00     0.293 HD
ENDBRANCH   6  24
BRANCH   8  26
ATOM     26  O   UNL     1      -0.153 -53.153 -25.778  1.00  0.00    -0.508 OA
ATOM     27  H   UNL     1      -0.907 -53.251 -26.449  1.00  0.00     0.293 HD
ENDBRANCH   8  26
TORSDOF 6
ENDMDL
MODEL 6
REMARK VINA RESULT:    -7.373      1.859      3.445
REMARK INTER + INTRA:          -9.209
REMARK INTER:                  -9.254
REMARK INTRA:                   0.046
REMARK UNBOUND:                -0.327
REMARK SMILES O=c1c(O)c(-c2ccc(O)c(O)c2)oc2cc(O)cc(O)c12
REMARK SMILES IDX 5 1 3 2 2 3 1 4 22 5 20 6 19 7 17 8 16 9 15 10 14 11 6 12
REMARK SMILES IDX 7 13 8 14 9 15 13 16 11 17 10 18 12 20 4 22 21 24 18 26
REMARK H PARENT 10 19 12 21 4 23 21 25 18 27
REMARK Flexibility Score: inf
ROOT
ATOM      1  C   UNL     1       6.513 -55.898 -28.487  1.00  0.00     0.180 A 
ATOM      2  C   UNL     1       6.895 -56.860 -27.536  1.00  0.00     0.208 A 
ATOM      3  C   UNL     1       5.976 -57.239 -26.544  1.00  0.00     0.238 A 
ATOM      4  O   UNL     1       6.298 -58.155 -25.743  1.00  0.00    -0.285 OA
ATOM      5  C   UNL     1       4.707 -56.614 -26.481  1.00  0.00     0.111 A 
ATOM      6  C   UNL     1       3.714 -56.888 -25.492  1.00  0.00     0.134 A 
ATOM      7  C   UNL     1       2.455 -56.284 -25.592  1.00  0.00     0.093 A 
ATOM      8  C   UNL     1       2.174 -55.367 -26.609  1.00  0.00     0.123 A 
ATOM      9  C   UNL     1       3.154 -55.052 -27.546  1.00  0.00     0.094 A 
ATOM     10  C   UNL     1       4.407 -55.667 -27.496  1.00  0.00     0.146 A 
ATOM     11  O   UNL     1       5.304 -55.352 -28.422  1.00  0.00    -0.452 OA
ENDROOT
BRANCH   1  12
ATOM     12  C   UNL     1       7.420 -55.458 -29.570  1.00  0.00     0.025 A 
ATOM     13  C   UNL     1       8.757 -55.106 -29.311  1.00  0.00     0.016 A 
ATOM     14  C   UNL     1       9.599 -54.717 -30.354  1.00  0.00     0.051 A 
ATOM     15  C   UNL     1       9.126 -54.684 -31.673  1.00  0.00     0.157 A 
ATOM     16  C   UNL     1       6.956 -55.445 -30.896  1.00  0.00     0.062 A 
ATOM     17  C   UNL     1       7.799 -55.055 -31.944  1.00  0.00     0.158 A 
BRANCH  15  18
ATOM     18  O   UNL     1       9.970 -54.293 -32.711  1.00  0.00    -0.504 OA
ATOM     19  H   UNL     1      10.654 -54.928 -33.107  1.00  0.00     0.293 HD
ENDBRANCH  15  18
BRANCH  17  20
ATOM     20  O   UNL     1       7.299 -55.041 -33.246  1.00  0.00    -0.504 OA
ATOM     21  H   UNL     1       6.531 -55.636 -33.533  1.00  0.00     0.293 HD
ENDBRANCH  17  20
ENDBRANCH   1  12
BRANCH   2  22
ATOM     22  O   UNL     1       8.179 -57.410 -27.569  1.00  0.00    -0.502 OA
ATOM     23  H   UNL     1       8.423 -58.250 -27.058  1.00  0.00     0.293 HD
ENDBRANCH   2  22
BRANCH   6  24
ATOM     24  O   UNL     1       3.919 -57.718 -24.385  1.00  0.00    -0.507 OA
ATOM     25  H   UNL     1       4.536 -57.511 -23.616  1.00  0.00     0.293 HD
ENDBRANCH   6  24
BRANCH   8  26
ATOM     26  O   UNL     1       0.923 -54.758 -26.691  1.00  0.00    -0.508 OA
ATOM     27  H   UNL     1       0.092 -55.201 -26.317  1.00  0.00     0.293 HD
ENDBRANCH   8  26
TORSDOF 6
ENDMDL
MODEL 7
REMARK VINA RESULT:    -7.050      5.433      7.482
REMARK INTER + INTRA:          -8.820
REMARK INTER:                  -8.511
REMARK INTRA:                  -0.309
REMARK UNBOUND:                -0.327
REMARK SMILES O=c1c(O)c(-c2ccc(O)c(O)c2)oc2cc(O)cc(O)c12
REMARK SMILES IDX 5 1 3 2 2 3 1 4 22 5 20 6 19 7 17 8 16 9 15 10 14 11 6 12
REMARK SMILES IDX 7 13 8 14 9 15 13 16 11 17 10 18 12 20 4 22 21 24 18 26
REMARK H PARENT 10 19 12 21 4 23 21 25 18 27
REMARK Flexibility Score: inf
ROOT
ATOM      1  C   UNL     1       2.632 -54.206 -25.394  1.00  0.00     0.180 A 
ATOM      2  C   UNL     1       1.542 -54.578 -24.588  1.00  0.00     0.208 A 
ATOM      3  C   UNL     1       1.055 -53.666 -23.638  1.00  0.00     0.238 A 
ATOM      4  O   UNL     1       0.033 -53.977 -22.973  1.00  0.00    -0.285 OA
ATOM      5  C   UNL     1       1.696 -52.415 -23.467  1.00  0.00     0.111 A 
ATOM      6  C   UNL     1       1.315 -51.432 -22.504  1.00  0.00     0.134 A 
ATOM      7  C   UNL     1       1.957 -50.187 -22.498  1.00  0.00     0.093 A 
ATOM      8  C   UNL     1       3.008 -49.913 -23.377  1.00  0.00     0.123 A 
ATOM      9  C   UNL     1       3.423 -50.885 -24.282  1.00  0.00     0.094 A 
ATOM     10  C   UNL     1       2.778 -52.123 -24.339  1.00  0.00     0.146 A 
ATOM     11  O   UNL     1       3.193 -53.013 -25.233  1.00  0.00    -0.452 OA
ENDROOT
BRANCH   1  12
ATOM     12  C   UNL     1       3.193 -55.106 -26.426  1.00  0.00     0.025 A 
ATOM     13  C   UNL     1       2.854 -54.966 -27.784  1.00  0.00     0.016 A 
ATOM     14  C   UNL     1       3.415 -55.813 -28.742  1.00  0.00     0.051 A 
ATOM     15  C   UNL     1       4.332 -56.802 -28.364  1.00  0.00     0.157 A 
ATOM     16  C   UNL     1       4.129 -56.084 -26.054  1.00  0.00     0.062 A 
ATOM     17  C   UNL     1       4.693 -56.935 -27.013  1.00  0.00     0.158 A 
BRANCH  15  18
ATOM     18  O   UNL     1       4.888 -57.646 -29.323  1.00  0.00    -0.504 OA
ATOM     19  H   UNL     1       5.523 -58.393 -29.069  1.00  0.00     0.293 HD
ENDBRANCH  15  18
BRANCH  17  20
ATOM     20  O   UNL     1       5.609 -57.903 -26.604  1.00  0.00    -0.504 OA
ATOM     21  H   UNL     1       5.483 -58.437 -25.752  1.00  0.00     0.293 HD
ENDBRANCH  17  20
ENDBRANCH   1  12
BRANCH   2  22
ATOM     22  O   UNL     1       0.972 -55.846 -24.719  1.00  0.00    -0.502 OA
ATOM     23  H   UNL     1       1.527 -56.678 -24.886  1.00  0.00     0.293 HD
ENDBRANCH   2  22
BRANCH   6  24
ATOM     24  O   UNL     1       0.340 -51.633 -21.522  1.00  0.00    -0.507 OA
ATOM     25  H   UNL     1      -0.407 -50.990 -21.311  1.00  0.00     0.293 HD
ENDBRANCH   6  24
BRANCH   8  26
ATOM     26  O   UNL     1       3.651 -48.678 -23.351  1.00  0.00    -0.508 OA
ATOM     27  H   UNL     1       4.500 -48.510 -23.880  1.00  0.00     0.293 HD
ENDBRANCH   8  26
TORSDOF 6
ENDMDL
MODEL 8
REMARK VINA RESULT:    -6.692      5.045      7.136
REMARK INTER + INTRA:          -8.389
REMARK INTER:                  -8.068
REMARK INTRA:                  -0.321
REMARK UNBOUND:                -0.327
REMARK SMILES O=c1c(O)c(-c2ccc(O)c(O)c2)oc2cc(O)cc(O)c12
REMARK SMILES IDX 5 1 3 2 2 3 1 4 22 5 20 6 19 7 17 8 16 9 15 10 14 11 6 12
REMARK SMILES IDX 7 13 8 14 9 15 13 16 11 17 10 18 12 20 4 22 21 24 18 26
REMARK H PARENT 10 19 12 21 4 23 21 25 18 27
REMARK Flexibility Score: inf
ROOT
ATOM      1  C   UNL     1       2.199 -55.028 -25.862  1.00  0.00     0.180 A 
ATOM      2  C   UNL     1       2.308 -53.812 -25.165  1.00  0.00     0.208 A 
ATOM      3  C   UNL     1       1.286 -53.445 -24.275  1.00  0.00     0.238 A 
ATOM      4  O   UNL     1       1.426 -52.392 -23.598  1.00  0.00    -0.285 OA
ATOM      5  C   UNL     1       0.142 -54.267 -24.133  1.00  0.00     0.111 A 
ATOM      6  C   UNL     1      -0.974 -53.970 -23.295  1.00  0.00     0.134 A 
ATOM      7  C   UNL     1      -2.002 -54.911 -23.155  1.00  0.00     0.093 A 
ATOM      8  C   UNL     1      -1.985 -56.110 -23.872  1.00  0.00     0.123 A 
ATOM      9  C   UNL     1      -0.928 -56.384 -24.735  1.00  0.00     0.094 A 
ATOM     10  C   UNL     1       0.132 -55.483 -24.868  1.00  0.00     0.146 A 
ATOM     11  O   UNL     1       1.129 -55.795 -25.685  1.00  0.00    -0.452 OA
ENDROOT
BRANCH   1  12
ATOM     12  C   UNL     1       3.241 -55.491 -26.806  1.00  0.00     0.025 A 
ATOM     13  C   UNL     1       3.239 -55.091 -28.154  1.00  0.00     0.016 A 
ATOM     14  C   UNL     1       4.247 -55.523 -29.019  1.00  0.00     0.051 A 
ATOM     15  C   UNL     1       5.278 -56.348 -28.551  1.00  0.00     0.157 A 
ATOM     16  C   UNL     1       4.288 -56.300 -26.335  1.00  0.00     0.062 A 
ATOM     17  C   UNL     1       5.299 -56.735 -27.200  1.00  0.00     0.158 A 
BRANCH  15  18
ATOM     18  O   UNL     1       6.281 -56.778 -29.417  1.00  0.00    -0.504 OA
ATOM     19  H   UNL     1       7.175 -57.109 -29.073  1.00  0.00     0.293 HD
ENDBRANCH  15  18
BRANCH  17  20
ATOM     20  O   UNL     1       6.315 -57.548 -26.700  1.00  0.00    -0.504 OA
ATOM     21  H   UNL     1       7.230 -57.595 -27.133  1.00  0.00     0.293 HD
ENDBRANCH  17  20
ENDBRANCH   1  12
BRANCH   2  22
ATOM     22  O   UNL     1       3.408 -52.978 -25.375  1.00  0.00    -0.502 OA
ATOM     23  H   UNL     1       4.115 -53.175 -26.073  1.00  0.00     0.293 HD
ENDBRANCH   2  22
BRANCH   6  24
ATOM     24  O   UNL     1      -1.135 -52.766 -22.602  1.00  0.00    -0.507 OA
ATOM     25  H   UNL     1      -1.328 -52.689 -21.616  1.00  0.00     0.293 HD
ENDBRANCH   6  24
BRANCH   8  26
ATOM     26  O   UNL     1      -3.021 -57.031 -23.740  1.00  0.00    -0.508 OA
ATOM     27  H   UNL     1      -3.140 -57.795 -24.396  1.00  0.00     0.293 HD
ENDBRANCH   8  26
TORSDOF 6
ENDMDL
MODEL 9
REMARK VINA RESULT:    -6.639      4.575      8.755
REMARK INTER + INTRA:          -8.325
REMARK INTER:                  -8.013
REMARK INTRA:                  -0.312
REMARK UNBOUND:                -0.327
REMARK SMILES O=c1c(O)c(-c2ccc(O)c(O)c2)oc2cc(O)cc(O)c12
REMARK SMILES IDX 5 1 3 2 2 3 1 4 22 5 20 6 19 7 17 8 16 9 15 10 14 11 6 12
REMARK SMILES IDX 7 13 8 14 9 15 13 16 11 17 10 18 12 20 4 22 21 24 18 26
REMARK H PARENT 10 19 12 21 4 23 21 25 18 27
REMARK Flexibility Score: inf
ROOT
ATOM      1  C   UNL     1       1.984 -55.387 -25.808  1.00  0.00     0.180 A 
ATOM      2  C   UNL     1       2.883 -56.120 -25.013  1.00  0.00     0.208 A 
ATOM      3  C   UNL     1       4.094 -56.552 -25.578  1.00  0.00     0.238 A 
ATOM      4  O   UNL     1       4.926 -57.142 -24.840  1.00  0.00    -0.285 OA
ATOM      5  C   UNL     1       4.369 -56.295 -26.943  1.00  0.00     0.111 A 
ATOM      6  C   UNL     1       5.544 -56.725 -27.630  1.00  0.00     0.134 A 
ATOM      7  C   UNL     1       5.756 -56.320 -28.954  1.00  0.00     0.093 A 
ATOM      8  C   UNL     1       4.806 -55.555 -29.636  1.00  0.00     0.123 A 
ATOM      9  C   UNL     1       3.631 -55.178 -28.991  1.00  0.00     0.094 A 
ATOM     10  C   UNL     1       3.408 -55.533 -27.658  1.00  0.00     0.146 A 
ATOM     11  O   UNL     1       2.283 -55.133 -27.077  1.00  0.00    -0.452 OA
ENDROOT
BRANCH   1  12
ATOM     12  C   UNL     1       0.696 -54.886 -25.281  1.00  0.00     0.025 A 
ATOM     13  C   UNL     1      -0.494 -55.620 -25.432  1.00  0.00     0.016 A 
ATOM     14  C   UNL     1      -1.694 -55.136 -24.905  1.00  0.00     0.051 A 
ATOM     15  C   UNL     1      -1.723 -53.920 -24.210  1.00  0.00     0.157 A 
ATOM     16  C   UNL     1       0.666 -53.678 -24.565  1.00  0.00     0.062 A 
ATOM     17  C   UNL     1      -0.535 -53.191 -24.036  1.00  0.00     0.158 A 
BRANCH  15  18
ATOM     18  O   UNL     1      -2.922 -53.440 -23.687  1.00  0.00    -0.504 OA
ATOM     19  H   UNL     1      -3.271 -53.749 -22.787  1.00  0.00     0.293 HD
ENDBRANCH  15  18
BRANCH  17  20
ATOM     20  O   UNL     1      -0.529 -51.981 -23.342  1.00  0.00    -0.504 OA
ATOM     21  H   UNL     1      -0.250 -51.920 -22.370  1.00  0.00     0.293 HD
ENDBRANCH  17  20
ENDBRANCH   1  12
BRANCH   2  22
ATOM     22  O   UNL     1       2.560 -56.429 -23.690  1.00  0.00    -0.502 OA
ATOM     23  H   UNL     1       1.738 -56.057 -23.230  1.00  0.00     0.293 HD
ENDBRANCH   2  22
BRANCH   6  24
ATOM     24  O   UNL     1       6.515 -57.563 -27.074  1.00  0.00    -0.507 OA
ATOM     25  H   UNL     1       7.403 -57.780 -27.499  1.00  0.00     0.293 HD
ENDBRANCH   6  24
BRANCH   8  26
ATOM     26  O   UNL     1       5.018 -55.172 -30.958  1.00  0.00    -0.508 OA
ATOM     27  H   UNL     1       4.259 -54.841 -31.543  1.00  0.00     0.293 HD
ENDBRANCH   8  26
TORSDOF 6
ENDMDL
