MODEL 1
REMARK VINA RESULT:    -2.965      0.000      0.000
REMARK INTER + INTRA:          -3.711
REMARK INTER:                  -3.485
REMARK INTRA:                  -0.226
REMARK UNBOUND:                -0.226
REMARK SMILES [NH3+][C@@H](CO)C(=O)[O-]
REMARK SMILES IDX 3 1 2 2 1 3 5 7 6 8 7 9 4 10
REMARK H PARENT 1 4 1 5 1 6 4 11
REMARK Flexibility Score: inf
ROOT
ATOM      1  C   UNL     1     159.462 173.790 179.157  1.00  0.00     0.227 C 
ENDROOT
BRANCH   1   2
ATOM      2  C   UNL     1     159.859 172.902 180.349  1.00  0.00     0.253 C 
BRANCH   2   3
ATOM      3  N   UNL     1     158.990 171.721 180.427  1.00  0.00    -0.348 N 
ATOM      4  H   UNL     1     158.967 171.239 179.500  1.00  0.00     0.345 HD
ATOM      5  H   UNL     1     159.366 171.051 181.136  1.00  0.00     0.345 HD
ATOM      6  H   UNL     1     158.016 171.996 180.694  1.00  0.00     0.345 HD
ENDBRANCH   2   3
BRANCH   2   7
ATOM      7  C   UNL     1     159.793 173.683 181.634  1.00  0.00     0.102 C 
ATOM      8  O   UNL     1     159.396 174.878 181.629  1.00  0.00    -0.544 OA
ATOM      9  O   UNL     1     160.161 173.089 182.837  1.00  0.00    -0.544 OA
ENDBRANCH   2   7
ENDBRANCH   1   2
BRANCH   1  10
ATOM     10  O   UNL     1     158.076 174.008 179.138  1.00  0.00    -0.390 OA
ATOM     11  H   UNL     1     157.751 173.855 180.063  1.00  0.00     0.210 HD
ENDBRANCH   1  10
TORSDOF 4
ENDMDL
MODEL 2
REMARK VINA RESULT:    -2.945     11.812     12.051
REMARK INTER + INTRA:          -3.688
REMARK INTER:                  -3.461
REMARK INTRA:                  -0.227
REMARK UNBOUND:                -0.226
REMARK SMILES [NH3+][C@@H](CO)C(=O)[O-]
REMARK SMILES IDX 3 1 2 2 1 3 5 7 6 8 7 9 4 10
REMARK H PARENT 1 4 1 5 1 6 4 11
REMARK Flexibility Score: inf
ROOT
ATOM      1  C   UNL     1     160.019 161.736 179.255  1.00  0.00     0.227 C 
ENDROOT
BRANCH   1   2
ATOM      2  C   UNL     1     160.961 161.784 180.471  1.00  0.00     0.253 C 
BRANCH   2   3
ATOM      3  N   UNL     1     161.777 160.566 180.542  1.00  0.00    -0.348 N 
ATOM      4  H   UNL     1     162.250 160.511 181.473  1.00  0.00     0.345 HD
ATOM      5  H   UNL     1     161.165 159.724 180.435  1.00  0.00     0.345 HD
ATOM      6  H   UNL     1     162.502 160.562 179.788  1.00  0.00     0.345 HD
ENDBRANCH   2   3
BRANCH   2   7
ATOM      7  C   UNL     1     160.174 161.960 181.742  1.00  0.00     0.102 C 
ATOM      8  O   UNL     1     160.770 162.106 182.841  1.00  0.00    -0.544 OA
ATOM      9  O   UNL     1     158.784 161.972 181.710  1.00  0.00    -0.544 OA
ENDBRANCH   2   7
ENDBRANCH   1   2
BRANCH   1  10
ATOM     10  O   UNL     1     159.294 160.535 179.234  1.00  0.00    -0.390 OA
ATOM     11  H   UNL     1     158.374 160.764 178.939  1.00  0.00     0.210 HD
ENDBRANCH   1  10
TORSDOF 4
ENDMDL
MODEL 3
REMARK VINA RESULT:    -2.916     19.791     20.553
REMARK INTER + INTRA:          -3.653
REMARK INTER:                  -3.440
REMARK INTRA:                  -0.213
REMARK UNBOUND:                -0.226
REMARK SMILES [NH3+][C@@H](CO)C(=O)[O-]
REMARK SMILES IDX 3 1 2 2 1 3 5 7 6 8 7 9 4 10
REMARK H PARENT 1 4 1 5 1 6 4 11
REMARK Flexibility Score: inf
ROOT
ATOM      1  C   UNL     1     173.879 160.877 181.315  1.00  0.00     0.227 C 
ENDROOT
BRANCH   1   2
ATOM      2  C   UNL     1     175.194 161.541 180.867  1.00  0.00     0.253 C 
BRANCH   2   3
ATOM      3  N   UNL     1     175.297 161.545 179.403  1.00  0.00    -0.348 N 
ATOM      4  H   UNL     1     175.174 162.519 179.043  1.00  0.00     0.345 HD
ATOM      5  H   UNL     1     176.244 161.206 179.114  1.00  0.00     0.345 HD
ATOM      6  H   UNL     1     174.566 160.929 178.979  1.00  0.00     0.345 HD
ENDBRANCH   2   3
BRANCH   2   7
ATOM      7  C   UNL     1     176.376 160.831 181.472  1.00  0.00     0.102 C 
ATOM      8  O   UNL     1     176.222 159.723 182.049  1.00  0.00    -0.544 OA
ATOM      9  O   UNL     1     177.647 161.389 181.388  1.00  0.00    -0.544 OA
ENDBRANCH   2   7
ENDBRANCH   1   2
BRANCH   1  10
ATOM     10  O   UNL     1     173.578 159.771 180.507  1.00  0.00    -0.390 OA
ATOM     11  H   UNL     1     174.218 159.055 180.756  1.00  0.00     0.210 HD
ENDBRANCH   1  10
TORSDOF 4
ENDMDL
MODEL 4
REMARK VINA RESULT:    -2.881      2.758      4.212
REMARK INTER + INTRA:          -3.612
REMARK INTER:                  -3.244
REMARK INTRA:                  -0.368
REMARK UNBOUND:                -0.226
REMARK SMILES [NH3+][C@@H](CO)C(=O)[O-]
REMARK SMILES IDX 3 1 2 2 1 3 5 7 6 8 7 9 4 10
REMARK H PARENT 1 4 1 5 1 6 4 11
REMARK Flexibility Score: inf
ROOT
ATOM      1  C   UNL     1     159.676 173.820 179.480  1.00  0.00     0.227 C 
ENDROOT
BRANCH   1   2
ATOM      2  C   UNL     1     160.224 174.693 178.336  1.00  0.00     0.253 C 
BRANCH   2   3
ATOM      3  N   UNL     1     160.617 176.015 178.839  1.00  0.00    -0.348 N 
ATOM      4  H   UNL     1     161.404 175.915 179.519  1.00  0.00     0.345 HD
ATOM      5  H   UNL     1     160.943 176.613 178.045  1.00  0.00     0.345 HD
ATOM      6  H   UNL     1     159.811 176.485 179.314  1.00  0.00     0.345 HD
ENDBRANCH   2   3
BRANCH   2   7
ATOM      7  C   UNL     1     159.199 174.835 177.242  1.00  0.00     0.102 C 
ATOM      8  O   UNL     1     159.081 173.937 176.367  1.00  0.00    -0.544 OA
ATOM      9  O   UNL     1     158.371 175.950 177.196  1.00  0.00    -0.544 OA
ENDBRANCH   2   7
ENDBRANCH   1   2
BRANCH   1  10
ATOM     10  O   UNL     1     158.276 173.750 179.426  1.00  0.00    -0.390 OA
ATOM     11  H   UNL     1     158.050 172.864 179.041  1.00  0.00     0.210 HD
ENDBRANCH   1  10
TORSDOF 4
ENDMDL
MODEL 5
REMARK VINA RESULT:    -2.863     17.231     17.545
REMARK INTER + INTRA:          -3.592
REMARK INTER:                  -3.231
REMARK INTRA:                  -0.361
REMARK UNBOUND:                -0.226
REMARK SMILES [NH3+][C@@H](CO)C(=O)[O-]
REMARK SMILES IDX 3 1 2 2 1 3 5 7 6 8 7 9 4 10
REMARK H PARENT 1 4 1 5 1 6 4 11
REMARK Flexibility Score: inf
ROOT
ATOM      1  C   UNL     1     175.813 175.538 178.617  1.00  0.00     0.227 C 
ENDROOT
BRANCH   1   2
ATOM      2  C   UNL     1     175.577 176.617 179.689  1.00  0.00     0.253 C 
BRANCH   2   3
ATOM      3  N   UNL     1     174.839 177.753 179.124  1.00  0.00    -0.348 N 
ATOM      4  H   UNL     1     174.982 177.788 178.089  1.00  0.00     0.345 HD
ATOM      5  H   UNL     1     173.816 177.639 179.310  1.00  0.00     0.345 HD
ATOM      6  H   UNL     1     175.167 178.653 179.545  1.00  0.00     0.345 HD
ENDBRANCH   2   3
BRANCH   2   7
ATOM      7  C   UNL     1     176.886 177.082 180.268  1.00  0.00     0.102 C 
ATOM      8  O   UNL     1     177.206 176.766 181.445  1.00  0.00    -0.544 OA
ATOM      9  O   UNL     1     177.756 177.854 179.507  1.00  0.00    -0.544 OA
ENDBRANCH   2   7
ENDBRANCH   1   2
BRANCH   1  10
ATOM     10  O   UNL     1     177.116 175.025 178.705  1.00  0.00    -0.390 OA
ATOM     11  H   UNL     1     177.327 174.629 177.820  1.00  0.00     0.210 HD
ENDBRANCH   1  10
TORSDOF 4
ENDMDL
MODEL 6
REMARK VINA RESULT:    -2.800     17.485     17.815
REMARK INTER + INTRA:          -3.517
REMARK INTER:                  -3.161
REMARK INTRA:                  -0.356
REMARK UNBOUND:                -0.226
REMARK SMILES [NH3+][C@@H](CO)C(=O)[O-]
REMARK SMILES IDX 3 1 2 2 1 3 5 7 6 8 7 9 4 10
REMARK H PARENT 1 4 1 5 1 6 4 11
REMARK Flexibility Score: inf
ROOT
ATOM      1  C   UNL     1     176.989 174.906 180.526  1.00  0.00     0.227 C 
ENDROOT
BRANCH   1   2
ATOM      2  C   UNL     1     176.976 176.366 181.013  1.00  0.00     0.253 C 
BRANCH   2   3
ATOM      3  N   UNL     1     175.899 176.575 181.988  1.00  0.00    -0.348 N 
ATOM      4  H   UNL     1     176.243 176.347 182.949  1.00  0.00     0.345 HD
ATOM      5  H   UNL     1     175.601 177.578 181.976  1.00  0.00     0.345 HD
ATOM      6  H   UNL     1     175.076 175.969 181.766  1.00  0.00     0.345 HD
ENDBRANCH   2   3
BRANCH   2   7
ATOM      7  C   UNL     1     176.819 177.309 179.851  1.00  0.00     0.102 C 
ATOM      8  O   UNL     1     177.836 177.764 179.262  1.00  0.00    -0.544 OA
ATOM      9  O   UNL     1     175.552 177.678 179.413  1.00  0.00    -0.544 OA
ENDBRANCH   2   7
ENDBRANCH   1   2
BRANCH   1  10
ATOM     10  O   UNL     1     177.135 174.847 179.132  1.00  0.00    -0.390 OA
ATOM     11  H   UNL     1     177.477 173.940 178.919  1.00  0.00     0.210 HD
ENDBRANCH   1  10
TORSDOF 4
ENDMDL
MODEL 7
REMARK VINA RESULT:    -2.792     17.646     18.401
REMARK INTER + INTRA:          -3.507
REMARK INTER:                  -3.487
REMARK INTRA:                  -0.021
REMARK UNBOUND:                -0.226
REMARK SMILES [NH3+][C@@H](CO)C(=O)[O-]
REMARK SMILES IDX 3 1 2 2 1 3 5 7 6 8 7 9 4 10
REMARK H PARENT 1 4 1 5 1 6 4 11
REMARK Flexibility Score: inf
ROOT
ATOM      1  C   UNL     1     157.978 159.029 167.837  1.00  0.00     0.227 C 
ENDROOT
BRANCH   1   2
ATOM      2  C   UNL     1     158.744 160.354 167.996  1.00  0.00     0.253 C 
BRANCH   2   3
ATOM      3  N   UNL     1     159.742 160.505 166.930  1.00  0.00    -0.348 N 
ATOM      4  H   UNL     1     159.919 159.578 166.478  1.00  0.00     0.345 HD
ATOM      5  H   UNL     1     159.383 161.162 166.200  1.00  0.00     0.345 HD
ATOM      6  H   UNL     1     160.642 160.875 167.315  1.00  0.00     0.345 HD
ENDBRANCH   2   3
BRANCH   2   7
ATOM      7  C   UNL     1     159.409 160.421 169.345  1.00  0.00     0.102 C 
ATOM      8  O   UNL     1     159.366 159.431 170.122  1.00  0.00    -0.544 OA
ATOM      9  O   UNL     1     160.082 161.572 169.740  1.00  0.00    -0.544 OA
ENDBRANCH   2   7
ENDBRANCH   1   2
BRANCH   1  10
ATOM     10  O   UNL     1     158.257 158.437 166.597  1.00  0.00    -0.390 OA
ATOM     11  H   UNL     1     158.354 159.178 165.943  1.00  0.00     0.210 HD
ENDBRANCH   1  10
TORSDOF 4
ENDMDL
MODEL 8
REMARK VINA RESULT:    -2.764     15.845     16.569
REMARK INTER + INTRA:          -3.475
REMARK INTER:                  -3.101
REMARK INTRA:                  -0.374
REMARK UNBOUND:                -0.226
REMARK SMILES [NH3+][C@@H](CO)C(=O)[O-]
REMARK SMILES IDX 3 1 2 2 1 3 5 7 6 8 7 9 4 10
REMARK H PARENT 1 4 1 5 1 6 4 11
REMARK Flexibility Score: inf
ROOT
ATOM      1  C   UNL     1     161.308 161.845 170.086  1.00  0.00     0.227 C 
ENDROOT
BRANCH   1   2
ATOM      2  C   UNL     1     160.118 161.411 169.211  1.00  0.00     0.253 C 
BRANCH   2   3
ATOM      3  N   UNL     1     159.404 162.584 168.692  1.00  0.00    -0.348 N 
ATOM      4  H   UNL     1     158.770 162.967 169.430  1.00  0.00     0.345 HD
ATOM      5  H   UNL     1     160.090 163.329 168.430  1.00  0.00     0.345 HD
ATOM      6  H   UNL     1     158.835 162.329 167.852  1.00  0.00     0.345 HD
ENDBRANCH   2   3
BRANCH   2   7
ATOM      7  C   UNL     1     159.179 160.534 169.995  1.00  0.00     0.102 C 
ATOM      8  O   UNL     1     159.372 159.290 170.051  1.00  0.00    -0.544 OA
ATOM      9  O   UNL     1     158.098 161.089 170.671  1.00  0.00    -0.544 OA
ENDBRANCH   2   7
ENDBRANCH   1   2
BRANCH   1  10
ATOM     10  O   UNL     1     161.244 161.240 171.350  1.00  0.00    -0.390 OA
ATOM     11  H   UNL     1     162.095 161.456 171.812  1.00  0.00     0.210 HD
ENDBRANCH   1  10
TORSDOF 4
ENDMDL
MODEL 9
REMARK VINA RESULT:    -2.745     15.613     16.279
REMARK INTER + INTRA:          -3.452
REMARK INTER:                  -3.070
REMARK INTRA:                  -0.382
REMARK UNBOUND:                -0.226
REMARK SMILES [NH3+][C@@H](CO)C(=O)[O-]
REMARK SMILES IDX 3 1 2 2 1 3 5 7 6 8 7 9 4 10
REMARK H PARENT 1 4 1 5 1 6 4 11
REMARK Flexibility Score: inf
ROOT
ATOM      1  C   UNL     1     159.132 160.341 169.154  1.00  0.00     0.227 C 
ENDROOT
BRANCH   1   2
ATOM      2  C   UNL     1     159.814 161.667 169.533  1.00  0.00     0.253 C 
BRANCH   2   3
ATOM      3  N   UNL     1     160.968 161.922 168.662  1.00  0.00    -0.348 N 
ATOM      4  H   UNL     1     161.640 161.123 168.724  1.00  0.00     0.345 HD
ATOM      5  H   UNL     1     160.650 162.008 167.669  1.00  0.00     0.345 HD
ATOM      6  H   UNL     1     161.457 162.803 168.944  1.00  0.00     0.345 HD
ENDBRANCH   2   3
BRANCH   2   7
ATOM      7  C   UNL     1     160.244 161.647 170.976  1.00  0.00     0.102 C 
ATOM      8  O   UNL     1     159.433 161.973 171.882  1.00  0.00    -0.544 OA
ATOM      9  O   UNL     1     161.534 161.259 171.318  1.00  0.00    -0.544 OA
ENDBRANCH   2   7
ENDBRANCH   1   2
BRANCH   1  10
ATOM     10  O   UNL     1     159.383 159.357 170.122  1.00  0.00    -0.390 OA
ATOM     11  H   UNL     1     159.745 158.569 169.640  1.00  0.00     0.210 HD
ENDBRANCH   1  10
TORSDOF 4
ENDMDL
