MODEL 1
REMARK VINA RESULT:    -4.244      0.000      0.000
REMARK INTER + INTRA:          -5.356
REMARK INTER:                  -4.988
REMARK INTRA:                  -0.368
REMARK UNBOUND:                -0.368
REMARK SMILES CCCC[C@H]1OC(=O)C2=C1CCC=C2
REMARK SMILES IDX 3 1 2 2 1 3 4 4 5 5 10 6 6 7 9 8 11 9 7 10 14 11 12 12 8 13
REMARK SMILES IDX 13 14
REMARK H PARENT
REMARK Flexibility Score: inf
ROOT
ATOM      1  C   UNL     1     -12.976  82.305 -10.446  1.00  0.00     0.004 C 
ENDROOT
BRANCH   1   2
ATOM      2  C   UNL     1     -12.613  81.040 -11.243  1.00  0.00    -0.003 C 
ATOM      3  C   UNL     1     -12.970  81.144 -12.726  1.00  0.00     0.004 C 
ENDBRANCH   1   2
BRANCH   1   4
ATOM      4  C   UNL     1     -12.026  82.629  -9.278  1.00  0.00     0.050 C 
BRANCH   4   5
ATOM      5  C   UNL     1     -12.613  82.281  -7.901  1.00  0.00     0.204 C 
ATOM      6  C   UNL     1     -12.020  81.004  -7.355  1.00  0.00    -0.015 C 
ATOM      7  O   UNL     1     -14.006  81.965  -8.010  1.00  0.00    -0.454 OA
ATOM      8  C   UNL     1     -12.953  80.078  -7.206  1.00  0.00     0.062 C 
ATOM      9  C   UNL     1     -10.563  80.691  -7.149  1.00  0.00     0.040 C 
ATOM     10  C   UNL     1     -14.209  80.656  -7.605  1.00  0.00     0.338 C 
ATOM     11  C   UNL     1     -12.653  78.714  -6.752  1.00  0.00     0.011 C 
ATOM     12  C   UNL     1     -10.382  79.529  -6.145  1.00  0.00     0.032 C 
ATOM     13  O   UNL     1     -15.327  80.079  -7.601  1.00  0.00    -0.246 OA
ATOM     14  C   UNL     1     -11.417  78.434  -6.321  1.00  0.00    -0.026 C 
ENDBRANCH   4   5
ENDBRANCH   1   4
TORSDOF 3
ENDMDL
MODEL 2
REMARK VINA RESULT:    -4.193      7.425      9.027
REMARK INTER + INTRA:          -5.296
REMARK INTER:                  -4.628
REMARK INTRA:                  -0.668
REMARK UNBOUND:                -0.368
REMARK SMILES CCCC[C@H]1OC(=O)C2=C1CCC=C2
REMARK SMILES IDX 3 1 2 2 1 3 4 4 5 5 10 6 6 7 9 8 11 9 7 10 14 11 12 12 8 13
REMARK SMILES IDX 13 14
REMARK H PARENT
REMARK Flexibility Score: inf
ROOT
ATOM      1  C   UNL     1      -7.610  85.165  -8.230  1.00  0.00     0.004 C 
ENDROOT
BRANCH   1   2
ATOM      2  C   UNL     1      -7.986  83.791  -7.649  1.00  0.00    -0.003 C 
ATOM      3  C   UNL     1      -6.937  83.243  -6.682  1.00  0.00     0.004 C 
ENDBRANCH   1   2
BRANCH   1   4
ATOM      4  C   UNL     1      -7.377  85.182  -9.751  1.00  0.00     0.050 C 
BRANCH   4   5
ATOM      5  C   UNL     1      -5.911  85.437 -10.141  1.00  0.00     0.204 C 
ATOM      6  C   UNL     1      -5.015  84.310  -9.684  1.00  0.00    -0.015 C 
ATOM      7  O   UNL     1      -5.390  86.567  -9.433  1.00  0.00    -0.454 OA
ATOM      8  C   UNL     1      -4.125  84.743  -8.808  1.00  0.00     0.062 C 
ATOM      9  C   UNL     1      -5.161  82.846  -9.998  1.00  0.00     0.040 C 
ATOM     10  C   UNL     1      -4.334  86.157  -8.636  1.00  0.00     0.338 C 
ATOM     11  C   UNL     1      -3.163  83.853  -8.145  1.00  0.00     0.011 C 
ATOM     12  C   UNL     1      -3.825  82.097  -9.779  1.00  0.00     0.032 C 
ATOM     13  O   UNL     1      -3.677  86.918  -7.880  1.00  0.00    -0.246 OA
ATOM     14  C   UNL     1      -3.074  82.581  -8.553  1.00  0.00    -0.026 C 
ENDBRANCH   4   5
ENDBRANCH   1   4
TORSDOF 3
ENDMDL
MODEL 3
REMARK VINA RESULT:    -4.147      7.556      8.905
REMARK INTER + INTRA:          -5.243
REMARK INTER:                  -4.562
REMARK INTRA:                  -0.681
REMARK UNBOUND:                -0.368
REMARK SMILES CCCC[C@H]1OC(=O)C2=C1CCC=C2
REMARK SMILES IDX 3 1 2 2 1 3 4 4 5 5 10 6 6 7 9 8 11 9 7 10 14 11 12 12 8 13
REMARK SMILES IDX 13 14
REMARK H PARENT
REMARK Flexibility Score: inf
ROOT
ATOM      1  C   UNL     1      -4.853  85.655  -9.584  1.00  0.00     0.004 C 
ENDROOT
BRANCH   1   2
ATOM      2  C   UNL     1      -4.206  86.309  -8.350  1.00  0.00    -0.003 C 
ATOM      3  C   UNL     1      -2.875  85.665  -7.962  1.00  0.00     0.004 C 
ENDBRANCH   1   2
BRANCH   1   4
ATOM      4  C   UNL     1      -6.197  84.954  -9.314  1.00  0.00     0.050 C 
BRANCH   4   5
ATOM      5  C   UNL     1      -6.087  83.421  -9.274  1.00  0.00     0.204 C 
ATOM      6  C   UNL     1      -5.520  82.943  -7.958  1.00  0.00    -0.015 C 
ATOM      7  O   UNL     1      -5.123  82.958 -10.225  1.00  0.00    -0.454 OA
ATOM      8  C   UNL     1      -4.368  82.320  -8.142  1.00  0.00     0.062 C 
ATOM      9  C   UNL     1      -6.038  83.245  -6.579  1.00  0.00     0.040 C 
ATOM     10  C   UNL     1      -4.098  82.311  -9.556  1.00  0.00     0.338 C 
ATOM     11  C   UNL     1      -3.557  81.805  -7.032  1.00  0.00     0.011 C 
ATOM     12  C   UNL     1      -5.515  82.213  -5.552  1.00  0.00     0.032 C 
ATOM     13  O   UNL     1      -3.091  81.805 -10.116  1.00  0.00    -0.246 OA
ATOM     14  C   UNL     1      -4.070  81.822  -5.795  1.00  0.00    -0.026 C 
ENDBRANCH   4   5
ENDBRANCH   1   4
TORSDOF 3
ENDMDL
MODEL 4
REMARK VINA RESULT:    -4.127      7.405      8.709
REMARK INTER + INTRA:          -5.219
REMARK INTER:                  -4.635
REMARK INTRA:                  -0.583
REMARK UNBOUND:                -0.368
REMARK SMILES CCCC[C@H]1OC(=O)C2=C1CCC=C2
REMARK SMILES IDX 3 1 2 2 1 3 4 4 5 5 10 6 6 7 9 8 11 9 7 10 14 11 12 12 8 13
REMARK SMILES IDX 13 14
REMARK H PARENT
REMARK Flexibility Score: inf
ROOT
ATOM      1  C   UNL     1      -6.594  85.671  -9.657  1.00  0.00     0.004 C 
ENDROOT
BRANCH   1   2
ATOM      2  C   UNL     1      -7.760  84.671  -9.745  1.00  0.00    -0.003 C 
ATOM      3  C   UNL     1      -7.359  83.249  -9.356  1.00  0.00     0.004 C 
ENDBRANCH   1   2
BRANCH   1   4
ATOM      4  C   UNL     1      -5.233  85.121 -10.119  1.00  0.00     0.050 C 
BRANCH   4   5
ATOM      5  C   UNL     1      -4.167  85.121  -9.011  1.00  0.00     0.204 C 
ATOM      6  C   UNL     1      -3.910  83.726  -8.492  1.00  0.00    -0.015 C 
ATOM      7  O   UNL     1      -4.644  85.811  -7.851  1.00  0.00    -0.454 OA
ATOM      8  C   UNL     1      -4.232  83.635  -7.213  1.00  0.00     0.062 C 
ATOM      9  C   UNL     1      -3.514  82.515  -9.291  1.00  0.00     0.040 C 
ATOM     10  C   UNL     1      -4.691  84.930  -6.784  1.00  0.00     0.338 C 
ATOM     11  C   UNL     1      -4.147  82.377  -6.460  1.00  0.00     0.011 C 
ATOM     12  C   UNL     1      -2.880  81.436  -8.383  1.00  0.00     0.032 C 
ATOM     13  O   UNL     1      -5.084  85.233  -5.628  1.00  0.00    -0.246 OA
ATOM     14  C   UNL     1      -3.575  81.314  -7.040  1.00  0.00    -0.026 C 
ENDBRANCH   4   5
ENDBRANCH   1   4
TORSDOF 3
ENDMDL
MODEL 5
REMARK VINA RESULT:    -4.101     12.985     15.061
REMARK INTER + INTRA:          -5.188
REMARK INTER:                  -4.977
REMARK INTRA:                  -0.211
REMARK UNBOUND:                -0.368
REMARK SMILES CCCC[C@H]1OC(=O)C2=C1CCC=C2
REMARK SMILES IDX 3 1 2 2 1 3 4 4 5 5 10 6 6 7 9 8 11 9 7 10 14 11 12 12 8 13
REMARK SMILES IDX 13 14
REMARK H PARENT
REMARK Flexibility Score: inf
ROOT
ATOM      1  C   UNL     1      -4.407  93.092 -10.815  1.00  0.00     0.004 C 
ENDROOT
BRANCH   1   2
ATOM      2  C   UNL     1      -3.607  94.261 -10.214  1.00  0.00    -0.003 C 
ATOM      3  C   UNL     1      -2.877  95.091 -11.270  1.00  0.00     0.004 C 
ENDBRANCH   1   2
BRANCH   1   4
ATOM      4  C   UNL     1      -4.177  92.856 -12.319  1.00  0.00     0.050 C 
BRANCH   4   5
ATOM      5  C   UNL     1      -3.999  91.373 -12.683  1.00  0.00     0.204 C 
ATOM      6  C   UNL     1      -4.105  91.155 -14.174  1.00  0.00    -0.015 C 
ATOM      7  O   UNL     1      -5.083  90.592 -12.168  1.00  0.00    -0.454 OA
ATOM      8  C   UNL     1      -5.134  90.377 -14.463  1.00  0.00     0.062 C 
ATOM      9  C   UNL     1      -3.302  91.829 -15.253  1.00  0.00     0.040 C 
ATOM     10  C   UNL     1      -5.763  90.006 -13.222  1.00  0.00     0.338 C 
ATOM     11  C   UNL     1      -5.519  90.046 -15.841  1.00  0.00     0.011 C 
ATOM     12  C   UNL     1      -3.343  91.012 -16.566  1.00  0.00     0.032 C 
ATOM     13  O   UNL     1      -6.776  89.271 -13.093  1.00  0.00    -0.246 OA
ATOM     14  C   UNL     1      -4.709  90.412 -16.842  1.00  0.00    -0.026 C 
ENDBRANCH   4   5
ENDBRANCH   1   4
TORSDOF 3
ENDMDL
MODEL 6
REMARK VINA RESULT:    -4.097      2.819      4.923
REMARK INTER + INTRA:          -5.183
REMARK INTER:                  -4.824
REMARK INTRA:                  -0.359
REMARK UNBOUND:                -0.368
REMARK SMILES CCCC[C@H]1OC(=O)C2=C1CCC=C2
REMARK SMILES IDX 3 1 2 2 1 3 4 4 5 5 10 6 6 7 9 8 11 9 7 10 14 11 12 12 8 13
REMARK SMILES IDX 13 14
REMARK H PARENT
REMARK Flexibility Score: inf
ROOT
ATOM      1  C   UNL     1     -11.709  81.371 -10.820  1.00  0.00     0.004 C 
ENDROOT
BRANCH   1   2
ATOM      2  C   UNL     1     -11.873  80.990 -12.301  1.00  0.00    -0.003 C 
ATOM      3  C   UNL     1     -13.245  81.358 -12.866  1.00  0.00     0.004 C 
ENDBRANCH   1   2
BRANCH   1   4
ATOM      4  C   UNL     1     -12.997  81.278  -9.981  1.00  0.00     0.050 C 
BRANCH   4   5
ATOM      5  C   UNL     1     -13.042  82.282  -8.818  1.00  0.00     0.204 C 
ATOM      6  C   UNL     1     -12.949  83.706  -9.315  1.00  0.00    -0.015 C 
ATOM      7  O   UNL     1     -11.878  82.154  -7.995  1.00  0.00    -0.454 OA
ATOM      8  C   UNL     1     -11.857  84.293  -8.856  1.00  0.00     0.062 C 
ATOM      9  C   UNL     1     -13.836  84.377 -10.328  1.00  0.00     0.040 C 
ATOM     10  C   UNL     1     -11.169  83.343  -8.022  1.00  0.00     0.338 C 
ATOM     11  C   UNL     1     -11.473  85.661  -9.229  1.00  0.00     0.011 C 
ATOM     12  C   UNL     1     -13.746  85.916 -10.208  1.00  0.00     0.032 C 
ATOM     13  O   UNL     1     -10.088  83.540  -7.408  1.00  0.00    -0.246 OA
ATOM     14  C   UNL     1     -12.336  86.404  -9.933  1.00  0.00    -0.026 C 
ENDBRANCH   4   5
ENDBRANCH   1   4
TORSDOF 3
ENDMDL
MODEL 7
REMARK VINA RESULT:    -4.074      8.035      9.753
REMARK INTER + INTRA:          -5.156
REMARK INTER:                  -4.758
REMARK INTRA:                  -0.398
REMARK UNBOUND:                -0.368
REMARK SMILES CCCC[C@H]1OC(=O)C2=C1CCC=C2
REMARK SMILES IDX 3 1 2 2 1 3 4 4 5 5 10 6 6 7 9 8 11 9 7 10 14 11 12 12 8 13
REMARK SMILES IDX 13 14
REMARK H PARENT
REMARK Flexibility Score: inf
ROOT
ATOM      1  C   UNL     1      -4.766  82.494  -9.965  1.00  0.00     0.004 C 
ENDROOT
BRANCH   1   2
ATOM      2  C   UNL     1      -3.595  82.197  -9.011  1.00  0.00    -0.003 C 
ATOM      3  C   UNL     1      -4.023  82.114  -7.547  1.00  0.00     0.004 C 
ENDBRANCH   1   2
BRANCH   1   4
ATOM      4  C   UNL     1      -5.718  83.608  -9.494  1.00  0.00     0.050 C 
BRANCH   4   5
ATOM      5  C   UNL     1      -5.418  84.975 -10.128  1.00  0.00     0.204 C 
ATOM      6  C   UNL     1      -4.751  85.906  -9.144  1.00  0.00    -0.015 C 
ATOM      7  O   UNL     1      -6.633  85.663 -10.445  1.00  0.00    -0.454 OA
ATOM      8  C   UNL     1      -5.507  86.966  -8.912  1.00  0.00     0.062 C 
ATOM      9  C   UNL     1      -3.491  85.654  -8.362  1.00  0.00     0.040 C 
ATOM     10  C   UNL     1      -6.692  86.841  -9.719  1.00  0.00     0.338 C 
ATOM     11  C   UNL     1      -5.140  88.009  -7.946  1.00  0.00     0.011 C 
ATOM     12  C   UNL     1      -2.875  86.981  -7.860  1.00  0.00     0.032 C 
ATOM     13  O   UNL     1      -7.647  87.658  -9.768  1.00  0.00    -0.246 OA
ATOM     14  C   UNL     1      -3.921  87.975  -7.392  1.00  0.00    -0.026 C 
ENDBRANCH   4   5
ENDBRANCH   1   4
TORSDOF 3
ENDMDL
MODEL 8
REMARK VINA RESULT:    -3.987     12.231     14.287
REMARK INTER + INTRA:          -5.054
REMARK INTER:                  -4.751
REMARK INTRA:                  -0.303
REMARK UNBOUND:                -0.368
REMARK SMILES CCCC[C@H]1OC(=O)C2=C1CCC=C2
REMARK SMILES IDX 3 1 2 2 1 3 4 4 5 5 10 6 6 7 9 8 11 9 7 10 14 11 12 12 8 13
REMARK SMILES IDX 13 14
REMARK H PARENT
REMARK Flexibility Score: inf
ROOT
ATOM      1  C   UNL     1      -4.573  93.055  -9.715  1.00  0.00     0.004 C 
ENDROOT
BRANCH   1   2
ATOM      2  C   UNL     1      -3.545  94.200  -9.692  1.00  0.00    -0.003 C 
ATOM      3  C   UNL     1      -3.185  94.708 -11.087  1.00  0.00     0.004 C 
ENDBRANCH   1   2
BRANCH   1   4
ATOM      4  C   UNL     1      -5.034  92.628 -11.120  1.00  0.00     0.050 C 
BRANCH   4   5
ATOM      5  C   UNL     1      -4.639  91.187 -11.479  1.00  0.00     0.204 C 
ATOM      6  C   UNL     1      -4.642  90.970 -12.974  1.00  0.00    -0.015 C 
ATOM      7  O   UNL     1      -5.630  90.261 -11.020  1.00  0.00    -0.454 OA
ATOM      8  C   UNL     1      -5.541  90.062 -13.315  1.00  0.00     0.062 C 
ATOM      9  C   UNL     1      -3.887  91.756 -14.010  1.00  0.00     0.040 C 
ATOM     10  C   UNL     1      -6.173  89.598 -12.108  1.00  0.00     0.338 C 
ATOM     11  C   UNL     1      -5.810  89.696 -14.712  1.00  0.00     0.011 C 
ATOM     12  C   UNL     1      -3.753  90.954 -15.326  1.00  0.00     0.032 C 
ATOM     13  O   UNL     1      -7.082  88.731 -12.031  1.00  0.00    -0.246 OA
ATOM     14  C   UNL     1      -5.010  90.177 -15.671  1.00  0.00    -0.026 C 
ENDBRANCH   4   5
ENDBRANCH   1   4
TORSDOF 3
ENDMDL
MODEL 9
REMARK VINA RESULT:    -3.949     12.805     14.378
REMARK INTER + INTRA:          -5.009
REMARK INTER:                  -4.765
REMARK INTRA:                  -0.244
REMARK UNBOUND:                -0.368
REMARK SMILES CCCC[C@H]1OC(=O)C2=C1CCC=C2
REMARK SMILES IDX 3 1 2 2 1 3 4 4 5 5 10 6 6 7 9 8 11 9 7 10 14 11 12 12 8 13
REMARK SMILES IDX 13 14
REMARK H PARENT
REMARK Flexibility Score: inf
ROOT
ATOM      1  C   UNL     1      -5.083  89.517 -13.634  1.00  0.00     0.004 C 
ENDROOT
BRANCH   1   2
ATOM      2  C   UNL     1      -5.882  89.635 -14.943  1.00  0.00    -0.003 C 
ATOM      3  C   UNL     1      -5.119  90.369 -16.045  1.00  0.00     0.004 C 
ENDBRANCH   1   2
BRANCH   1   4
ATOM      4  C   UNL     1      -4.425  90.824 -13.156  1.00  0.00     0.050 C 
BRANCH   4   5
ATOM      5  C   UNL     1      -5.354  91.693 -12.293  1.00  0.00     0.204 C 
ATOM      6  C   UNL     1      -4.576  92.725 -11.511  1.00  0.00    -0.015 C 
ATOM      7  O   UNL     1      -5.969  90.910 -11.265  1.00  0.00    -0.454 OA
ATOM      8  C   UNL     1      -4.709  92.528 -10.211  1.00  0.00     0.062 C 
ATOM      9  C   UNL     1      -3.621  93.752 -12.056  1.00  0.00     0.040 C 
ATOM     10  C   UNL     1      -5.582  91.398 -10.028  1.00  0.00     0.338 C 
ATOM     11  C   UNL     1      -4.011  93.341  -9.207  1.00  0.00     0.011 C 
ATOM     12  C   UNL     1      -3.414  94.906 -11.047  1.00  0.00     0.032 C 
ATOM     13  O   UNL     1      -5.945  90.909  -8.926  1.00  0.00    -0.246 OA
ATOM     14  C   UNL     1      -3.335  94.424  -9.611  1.00  0.00    -0.026 C 
ENDBRANCH   4   5
ENDBRANCH   1   4
TORSDOF 3
ENDMDL
