MODEL 1
REMARK VINA RESULT:    -4.031      0.000      0.000
REMARK INTER + INTRA:          -5.821
REMARK INTER:                  -5.445
REMARK INTRA:                  -0.376
REMARK UNBOUND:                -0.376
REMARK SMILES CCCCCCCC(=O)[O-]
REMARK SMILES IDX 5 1 6 2 7 3 8 4 9 5 10 6 4 7 3 8 2 9 1 10
REMARK H PARENT
REMARK Flexibility Score: inf
ROOT
ATOM      1  C   UNL     1      27.291 -11.244  14.022  1.00  0.00     0.000 C 
ENDROOT
BRANCH   1   2
ATOM      2  C   UNL     1      26.953 -12.708  14.351  1.00  0.00     0.006 C 
BRANCH   2   3
ATOM      3  C   UNL     1      27.214 -13.058  15.823  1.00  0.00     0.053 C 
BRANCH   3   4
ATOM      4  C   UNL     1      28.575 -13.660  15.981  1.00  0.00     0.041 C 
ATOM      5  O   UNL     1      29.475 -13.037  16.602  1.00  0.00    -0.550 OA
ATOM      6  O   UNL     1      28.835 -14.931  15.484  1.00  0.00    -0.550 OA
ENDBRANCH   3   4
ENDBRANCH   2   3
ENDBRANCH   1   2
BRANCH   1   7
ATOM      7  C   UNL     1      27.281 -10.342  15.268  1.00  0.00     0.000 C 
BRANCH   7   8
ATOM      8  C   UNL     1      28.280  -9.175  15.169  1.00  0.00    -0.000 C 
BRANCH   8   9
ATOM      9  C   UNL     1      29.707  -9.573  14.752  1.00  0.00    -0.003 C 
ATOM     10  C   UNL     1      30.338  -8.589  13.767  1.00  0.00     0.004 C 
ENDBRANCH   8   9
ENDBRANCH   7   8
ENDBRANCH   1   7
TORSDOF 6
ENDMDL
MODEL 2
REMARK VINA RESULT:    -4.030      2.783      4.375
REMARK INTER + INTRA:          -5.819
REMARK INTER:                  -5.334
REMARK INTRA:                  -0.485
REMARK UNBOUND:                -0.376
REMARK SMILES CCCCCCCC(=O)[O-]
REMARK SMILES IDX 5 1 6 2 7 3 8 4 9 5 10 6 4 7 3 8 2 9 1 10
REMARK H PARENT
REMARK Flexibility Score: inf
ROOT
ATOM      1  C   UNL     1      27.251 -10.922  14.430  1.00  0.00     0.000 C 
ENDROOT
BRANCH   1   2
ATOM      2  C   UNL     1      28.218  -9.761  14.715  1.00  0.00     0.006 C 
BRANCH   2   3
ATOM      3  C   UNL     1      28.211  -9.334  16.190  1.00  0.00     0.053 C 
BRANCH   3   4
ATOM      4  C   UNL     1      29.527  -8.727  16.562  1.00  0.00     0.041 C 
ATOM      5  O   UNL     1      30.444  -8.629  15.706  1.00  0.00    -0.550 OA
ATOM      6  O   UNL     1      29.723  -8.226  17.843  1.00  0.00    -0.550 OA
ENDBRANCH   3   4
ENDBRANCH   2   3
ENDBRANCH   1   2
BRANCH   1   7
ATOM      7  C   UNL     1      27.984 -12.219  14.046  1.00  0.00     0.000 C 
BRANCH   7   8
ATOM      8  C   UNL     1      27.699 -13.377  15.020  1.00  0.00    -0.000 C 
BRANCH   8   9
ATOM      9  C   UNL     1      28.158 -13.138  16.469  1.00  0.00    -0.003 C 
ATOM     10  C   UNL     1      29.644 -12.799  16.577  1.00  0.00     0.004 C 
ENDBRANCH   8   9
ENDBRANCH   7   8
ENDBRANCH   1   7
TORSDOF 6
ENDMDL
MODEL 3
REMARK VINA RESULT:    -4.001      2.881      4.538
REMARK INTER + INTRA:          -5.781
REMARK INTER:                  -5.413
REMARK INTRA:                  -0.368
REMARK UNBOUND:                -0.376
REMARK SMILES CCCCCCCC(=O)[O-]
REMARK SMILES IDX 5 1 6 2 7 3 8 4 9 5 10 6 4 7 3 8 2 9 1 10
REMARK H PARENT
REMARK Flexibility Score: inf
ROOT
ATOM      1  C   UNL     1      27.181 -10.695  14.400  1.00  0.00     0.000 C 
ENDROOT
BRANCH   1   2
ATOM      2  C   UNL     1      27.559 -10.360  15.853  1.00  0.00     0.006 C 
BRANCH   2   3
ATOM      3  C   UNL     1      29.077 -10.341  16.080  1.00  0.00     0.053 C 
BRANCH   3   4
ATOM      4  C   UNL     1      29.594  -8.938  16.026  1.00  0.00     0.041 C 
ATOM      5  O   UNL     1      29.430  -8.165  17.006  1.00  0.00    -0.550 OA
ATOM      6  O   UNL     1      30.299  -8.499  14.912  1.00  0.00    -0.550 OA
ENDBRANCH   3   4
ENDBRANCH   2   3
ENDBRANCH   1   2
BRANCH   1   7
ATOM      7  C   UNL     1      27.803 -12.017  13.920  1.00  0.00     0.000 C 
BRANCH   7   8
ATOM      8  C   UNL     1      26.900 -13.235  14.189  1.00  0.00    -0.000 C 
BRANCH   8   9
ATOM      9  C   UNL     1      27.643 -14.575  14.340  1.00  0.00    -0.003 C 
ATOM     10  C   UNL     1      28.652 -14.573  15.488  1.00  0.00     0.004 C 
ENDBRANCH   8   9
ENDBRANCH   7   8
ENDBRANCH   1   7
TORSDOF 6
ENDMDL
MODEL 4
REMARK VINA RESULT:    -3.991      0.241      1.051
REMARK INTER + INTRA:          -5.768
REMARK INTER:                  -5.277
REMARK INTRA:                  -0.491
REMARK UNBOUND:                -0.376
REMARK SMILES CCCCCCCC(=O)[O-]
REMARK SMILES IDX 5 1 6 2 7 3 8 4 9 5 10 6 4 7 3 8 2 9 1 10
REMARK H PARENT
REMARK Flexibility Score: inf
ROOT
ATOM      1  C   UNL     1      27.353 -11.230  14.023  1.00  0.00     0.000 C 
ENDROOT
BRANCH   1   2
ATOM      2  C   UNL     1      26.945 -12.690  14.285  1.00  0.00     0.006 C 
BRANCH   2   3
ATOM      3  C   UNL     1      27.178 -13.117  15.741  1.00  0.00     0.053 C 
BRANCH   3   4
ATOM      4  C   UNL     1      28.527 -13.746  15.890  1.00  0.00     0.041 C 
ATOM      5  O   UNL     1      28.751 -14.886  15.405  1.00  0.00    -0.550 OA
ATOM      6  O   UNL     1      29.551 -13.053  16.523  1.00  0.00    -0.550 OA
ENDBRANCH   3   4
ENDBRANCH   2   3
ENDBRANCH   1   2
BRANCH   1   7
ATOM      7  C   UNL     1      27.214 -10.346  15.275  1.00  0.00     0.000 C 
BRANCH   7   8
ATOM      8  C   UNL     1      28.496  -9.554  15.592  1.00  0.00    -0.000 C 
BRANCH   8   9
ATOM      9  C   UNL     1      29.686  -9.841  14.659  1.00  0.00    -0.003 C 
ATOM     10  C   UNL     1      30.242  -8.580  13.995  1.00  0.00     0.004 C 
ENDBRANCH   8   9
ENDBRANCH   7   8
ENDBRANCH   1   7
TORSDOF 6
ENDMDL
MODEL 5
REMARK VINA RESULT:    -3.972      2.503      4.622
REMARK INTER + INTRA:          -5.741
REMARK INTER:                  -5.250
REMARK INTRA:                  -0.491
REMARK UNBOUND:                -0.376
REMARK SMILES CCCCCCCC(=O)[O-]
REMARK SMILES IDX 5 1 6 2 7 3 8 4 9 5 10 6 4 7 3 8 2 9 1 10
REMARK H PARENT
REMARK Flexibility Score: inf
ROOT
ATOM      1  C   UNL     1      30.057 -11.974  16.066  1.00  0.00     0.000 C 
ENDROOT
BRANCH   1   2
ATOM      2  C   UNL     1      29.700 -11.196  14.788  1.00  0.00     0.006 C 
BRANCH   2   3
ATOM      3  C   UNL     1      29.596  -9.683  15.026  1.00  0.00     0.053 C 
BRANCH   3   4
ATOM      4  C   UNL     1      28.547  -9.389  16.051  1.00  0.00     0.041 C 
ATOM      5  O   UNL     1      27.345  -9.692  15.833  1.00  0.00    -0.550 OA
ATOM      6  O   UNL     1      28.905  -8.823  17.269  1.00  0.00    -0.550 OA
ENDBRANCH   3   4
ENDBRANCH   2   3
ENDBRANCH   1   2
BRANCH   1   7
ATOM      7  C   UNL     1      29.278 -13.294  16.188  1.00  0.00     0.000 C 
BRANCH   7   8
ATOM      8  C   UNL     1      27.769 -13.080  16.408  1.00  0.00    -0.000 C 
BRANCH   8   9
ATOM      9  C   UNL     1      26.875 -13.479  15.220  1.00  0.00    -0.003 C 
ATOM     10  C   UNL     1      27.489 -14.579  14.354  1.00  0.00     0.004 C 
ENDBRANCH   8   9
ENDBRANCH   7   8
ENDBRANCH   1   7
TORSDOF 6
ENDMDL
MODEL 6
REMARK VINA RESULT:    -3.961      2.669      3.911
REMARK INTER + INTRA:          -5.726
REMARK INTER:                  -5.133
REMARK INTRA:                  -0.594
REMARK UNBOUND:                -0.376
REMARK SMILES CCCCCCCC(=O)[O-]
REMARK SMILES IDX 5 1 6 2 7 3 8 4 9 5 10 6 4 7 3 8 2 9 1 10
REMARK H PARENT
REMARK Flexibility Score: inf
ROOT
ATOM      1  C   UNL     1      27.224 -12.065  14.333  1.00  0.00     0.000 C 
ENDROOT
BRANCH   1   2
ATOM      2  C   UNL     1      27.631 -10.584  14.414  1.00  0.00     0.006 C 
BRANCH   2   3
ATOM      3  C   UNL     1      27.526 -10.019  15.837  1.00  0.00     0.053 C 
BRANCH   3   4
ATOM      4  C   UNL     1      28.726  -9.183  16.154  1.00  0.00     0.041 C 
ATOM      5  O   UNL     1      28.971  -8.853  17.344  1.00  0.00    -0.550 OA
ATOM      6  O   UNL     1      29.599  -8.807  15.141  1.00  0.00    -0.550 OA
ENDBRANCH   3   4
ENDBRANCH   2   3
ENDBRANCH   1   2
BRANCH   1   7
ATOM      7  C   UNL     1      27.310 -12.775  15.695  1.00  0.00     0.000 C 
BRANCH   7   8
ATOM      8  C   UNL     1      28.608 -13.586  15.865  1.00  0.00    -0.000 C 
BRANCH   8   9
ATOM      9  C   UNL     1      29.628 -12.983  16.847  1.00  0.00    -0.003 C 
ATOM     10  C   UNL     1      30.755 -12.224  16.147  1.00  0.00     0.004 C 
ENDBRANCH   8   9
ENDBRANCH   7   8
ENDBRANCH   1   7
TORSDOF 6
ENDMDL
MODEL 7
REMARK VINA RESULT:    -3.924      1.424      1.911
REMARK INTER + INTRA:          -5.677
REMARK INTER:                  -5.299
REMARK INTRA:                  -0.378
REMARK UNBOUND:                -0.376
REMARK SMILES CCCCCCCC(=O)[O-]
REMARK SMILES IDX 5 1 6 2 7 3 8 4 9 5 10 6 4 7 3 8 2 9 1 10
REMARK H PARENT
REMARK Flexibility Score: inf
ROOT
ATOM      1  C   UNL     1      28.690 -11.507  14.058  1.00  0.00     0.000 C 
ENDROOT
BRANCH   1   2
ATOM      2  C   UNL     1      27.297 -11.818  14.630  1.00  0.00     0.006 C 
BRANCH   2   3
ATOM      3  C   UNL     1      27.288 -13.066  15.523  1.00  0.00     0.053 C 
BRANCH   3   4
ATOM      4  C   UNL     1      27.734 -14.264  14.747  1.00  0.00     0.041 C 
ATOM      5  O   UNL     1      28.655 -14.999  15.191  1.00  0.00    -0.550 OA
ATOM      6  O   UNL     1      27.100 -14.598  13.557  1.00  0.00    -0.550 OA
ENDBRANCH   3   4
ENDBRANCH   2   3
ENDBRANCH   1   2
BRANCH   1   7
ATOM      7  C   UNL     1      29.149 -10.073  14.371  1.00  0.00     0.000 C 
BRANCH   7   8
ATOM      8  C   UNL     1      28.207  -9.343  15.347  1.00  0.00    -0.000 C 
BRANCH   8   9
ATOM      9  C   UNL     1      28.847  -8.934  16.685  1.00  0.00    -0.003 C 
ATOM     10  C   UNL     1      30.370  -8.821  16.610  1.00  0.00     0.004 C 
ENDBRANCH   8   9
ENDBRANCH   7   8
ENDBRANCH   1   7
TORSDOF 6
ENDMDL
MODEL 8
REMARK VINA RESULT:    -3.922      2.652      4.685
REMARK INTER + INTRA:          -5.674
REMARK INTER:                  -5.378
REMARK INTRA:                  -0.296
REMARK UNBOUND:                -0.376
REMARK SMILES CCCCCCCC(=O)[O-]
REMARK SMILES IDX 5 1 6 2 7 3 8 4 9 5 10 6 4 7 3 8 2 9 1 10
REMARK H PARENT
REMARK Flexibility Score: inf
ROOT
ATOM      1  C   UNL     1      28.649 -11.566  15.971  1.00  0.00     0.000 C 
ENDROOT
BRANCH   1   2
ATOM      2  C   UNL     1      27.763 -10.470  15.354  1.00  0.00     0.006 C 
BRANCH   2   3
ATOM      3  C   UNL     1      28.225  -9.055  15.729  1.00  0.00     0.053 C 
BRANCH   3   4
ATOM      4  C   UNL     1      29.660  -8.859  15.355  1.00  0.00     0.041 C 
ATOM      5  O   UNL     1      30.529  -8.681  16.248  1.00  0.00    -0.550 OA
ATOM      6  O   UNL     1      30.045  -8.920  14.022  1.00  0.00    -0.550 OA
ENDBRANCH   3   4
ENDBRANCH   2   3
ENDBRANCH   1   2
BRANCH   1   7
ATOM      7  C   UNL     1      27.874 -12.868  16.238  1.00  0.00     0.000 C 
BRANCH   7   8
ATOM      8  C   UNL     1      28.489 -14.086  15.524  1.00  0.00    -0.000 C 
BRANCH   8   9
ATOM      9  C   UNL     1      27.527 -14.853  14.600  1.00  0.00    -0.003 C 
ATOM     10  C   UNL     1      26.881 -13.963  13.538  1.00  0.00     0.004 C 
ENDBRANCH   8   9
ENDBRANCH   7   8
ENDBRANCH   1   7
TORSDOF 6
ENDMDL
MODEL 9
REMARK VINA RESULT:    -3.803      1.628      4.130
REMARK INTER + INTRA:          -5.514
REMARK INTER:                  -5.041
REMARK INTRA:                  -0.473
REMARK UNBOUND:                -0.376
REMARK SMILES CCCCCCCC(=O)[O-]
REMARK SMILES IDX 5 1 6 2 7 3 8 4 9 5 10 6 4 7 3 8 2 9 1 10
REMARK H PARENT
REMARK Flexibility Score: inf
ROOT
ATOM      1  C   UNL     1      27.253 -10.537  15.208  1.00  0.00     0.000 C 
ENDROOT
BRANCH   1   2
ATOM      2  C   UNL     1      28.299  -9.417  15.087  1.00  0.00     0.006 C 
BRANCH   2   3
ATOM      3  C   UNL     1      29.523  -9.837  14.261  1.00  0.00     0.053 C 
BRANCH   3   4
ATOM      4  C   UNL     1      30.590 -10.387  15.154  1.00  0.00     0.041 C 
ATOM      5  O   UNL     1      30.597 -11.610  15.453  1.00  0.00    -0.550 OA
ATOM      6  O   UNL     1      31.604  -9.559  15.618  1.00  0.00    -0.550 OA
ENDBRANCH   3   4
ENDBRANCH   2   3
ENDBRANCH   1   2
BRANCH   1   7
ATOM      7  C   UNL     1      27.002 -11.255  13.871  1.00  0.00     0.000 C 
BRANCH   7   8
ATOM      8  C   UNL     1      26.891 -12.783  14.025  1.00  0.00    -0.000 C 
BRANCH   8   9
ATOM      9  C   UNL     1      27.454 -13.348  15.341  1.00  0.00    -0.003 C 
ATOM     10  C   UNL     1      28.328 -14.585  15.136  1.00  0.00     0.004 C 
ENDBRANCH   8   9
ENDBRANCH   7   8
ENDBRANCH   1   7
TORSDOF 6
ENDMDL
