MODEL 1
REMARK VINA RESULT:    -5.885      0.000      0.000
REMARK INTER + INTRA:         -11.643
REMARK INTER:                  -9.325
REMARK INTRA:                  -2.318
REMARK UNBOUND:                -2.318
REMARK SMILES C[C@@H]1O[C@H](O[C@@H]2[C@@H](Oc3cc(O)c4c(c3)O[C@@H](c3ccc(O)cc3)CC4=O)O[C@@H](CO)[C@H](O)[C@H]2O)[C@@H](O)[C@@H](O)[C@H]1O
REMARK SMILES IDX 6 1 34 2 32 3 29 4 28 5 7 6 5 7 4 8 1 9 2 10 40 11 3 12
REMARK SMILES IDX 38 13 36 14 41 15 39 17 37 19 35 21 8 23 9 24 10 25 15 26
REMARK SMILES IDX 11 27 14 28 13 29 16 30 26 31 17 32 27 33 25 34 12 35 18 37
REMARK SMILES IDX 19 38 24 39 20 40 23 41 21 42 22 43 33 45 30 47 31 48
REMARK H PARENT 41 16 39 18 37 20 35 22 12 36 22 44 33 46 31 49
REMARK Flexibility Score: inf
ROOT
ATOM      1  C   UNL     1     167.500 184.698 153.815  1.00  0.00     0.221 C 
ATOM      2  C   UNL     1     167.114 185.338 152.508  1.00  0.00     0.181 C 
ATOM      3  C   UNL     1     168.231 186.300 152.113  1.00  0.00     0.177 C 
ATOM      4  C   UNL     1     168.423 187.381 153.202  1.00  0.00     0.179 C 
ATOM      5  O   UNL     1     168.379 186.910 154.584  1.00  0.00    -0.332 OA
ATOM      6  C   UNL     1     167.549 185.775 154.889  1.00  0.00     0.339 C 
ENDROOT
BRANCH   1   7
ATOM      7  O   UNL     1     166.878 183.430 154.101  1.00  0.00    -0.337 OA
BRANCH   7   8
ATOM      8  C   UNL     1     167.583 182.208 154.052  1.00  0.00     0.282 C 
ATOM      9  C   UNL     1     170.648 181.350 152.221  1.00  0.00     0.041 C 
ATOM     10  C   UNL     1     169.641 181.311 153.388  1.00  0.00     0.150 C 
ATOM     11  C   UNL     1     170.343 181.790 154.666  1.00  0.00     0.174 C 
ATOM     12  O   UNL     1     168.576 182.181 153.048  1.00  0.00    -0.344 OA
ATOM     13  C   UNL     1     169.396 181.702 155.903  1.00  0.00     0.179 C 
ATOM     14  C   UNL     1     167.905 181.595 155.464  1.00  0.00     0.202 C 
BRANCH  11  15
ATOM     15  O   UNL     1     171.607 181.210 154.905  1.00  0.00    -0.388 OA
ATOM     16  H   UNL     1     171.532 180.444 155.550  1.00  0.00     0.211 HD
ENDBRANCH  11  15
BRANCH  13  17
ATOM     17  O   UNL     1     169.692 180.654 156.804  1.00  0.00    -0.387 OA
ATOM     18  H   UNL     1     170.653 180.395 156.723  1.00  0.00     0.211 HD
ENDBRANCH  13  17
BRANCH  14  19
ATOM     19  O   UNL     1     167.478 180.250 155.482  1.00  0.00    -0.385 OA
ATOM     20  H   UNL     1     168.280 179.720 155.749  1.00  0.00     0.211 HD
ENDBRANCH  14  19
ENDBRANCH   7   8
ENDBRANCH   1   7
BRANCH   2  21
ATOM     21  O   UNL     1     166.895 184.371 151.520  1.00  0.00    -0.387 OA
ATOM     22  H   UNL     1     165.966 184.000 151.729  1.00  0.00     0.211 HD
ENDBRANCH   2  21
BRANCH   6  23
ATOM     23  O   UNL     1     168.035 185.212 156.077  1.00  0.00    -0.462 OA
BRANCH  23  24
ATOM     24  C   UNL     1     169.170 185.598 156.756  1.00  0.00     0.130 A 
ATOM     25  C   UNL     1     170.484 185.164 156.394  1.00  0.00     0.093 A 
ATOM     26  C   UNL     1     169.003 186.362 157.921  1.00  0.00     0.094 A 
ATOM     27  C   UNL     1     171.588 185.528 157.185  1.00  0.00     0.133 A 
ATOM     28  C   UNL     1     170.092 186.657 158.766  1.00  0.00     0.138 A 
ATOM     29  C   UNL     1     171.402 186.270 158.383  1.00  0.00     0.102 A 
ATOM     30  O   UNL     1     169.852 187.204 160.048  1.00  0.00    -0.484 OA
ATOM     31  C   UNL     1     172.496 186.538 159.360  1.00  0.00     0.174 C 
ATOM     32  C   UNL     1     170.745 186.914 161.130  1.00  0.00     0.211 C 
ATOM     33  O   UNL     1     173.680 186.151 159.116  1.00  0.00    -0.294 OA
ATOM     34  C   UNL     1     172.167 187.270 160.644  1.00  0.00     0.131 C 
BRANCH  27  35
ATOM     35  O   UNL     1     172.877 185.110 156.798  1.00  0.00    -0.507 OA
ATOM     36  H   UNL     1     173.702 185.662 157.024  1.00  0.00     0.293 HD
ENDBRANCH  27  35
BRANCH  32  37
ATOM     37  C   UNL     1     170.646 185.433 161.514  1.00  0.00    -0.007 A 
ATOM     38  C   UNL     1     169.500 184.682 161.198  1.00  0.00     0.011 A 
ATOM     39  C   UNL     1     171.714 184.813 162.190  1.00  0.00     0.011 A 
ATOM     40  C   UNL     1     169.516 183.282 161.320  1.00  0.00     0.046 A 
ATOM     41  C   UNL     1     171.736 183.415 162.293  1.00  0.00     0.046 A 
ATOM     42  C   UNL     1     170.649 182.642 161.853  1.00  0.00     0.115 A 
BRANCH  42  43
ATOM     43  O   UNL     1     170.654 181.248 161.950  1.00  0.00    -0.508 OA
ATOM     44  H   UNL     1     170.790 180.653 161.176  1.00  0.00     0.293 HD
ENDBRANCH  42  43
ENDBRANCH  32  37
ENDBRANCH  23  24
ENDBRANCH   6  23
BRANCH   3  45
ATOM     45  O   UNL     1     167.825 186.934 150.900  1.00  0.00    -0.387 OA
ATOM     46  H   UNL     1     167.589 187.873 151.140  1.00  0.00     0.211 HD
ENDBRANCH   3  45
BRANCH   4  47
ATOM     47  C   UNL     1     169.775 188.124 153.007  1.00  0.00     0.191 C 
BRANCH  47  48
ATOM     48  O   UNL     1     170.578 187.492 152.049  1.00  0.00    -0.394 OA
ATOM     49  H   UNL     1     170.305 187.890 151.166  1.00  0.00     0.210 HD
ENDBRANCH  47  48
ENDBRANCH   4  47
TORSDOF 14
ENDMDL
MODEL 2
REMARK VINA RESULT:    -5.831      1.993      6.927
REMARK INTER + INTRA:         -11.558
REMARK INTER:                  -8.755
REMARK INTRA:                  -2.803
REMARK UNBOUND:                -2.318
REMARK SMILES C[C@@H]1O[C@H](O[C@@H]2[C@@H](Oc3cc(O)c4c(c3)O[C@@H](c3ccc(O)cc3)CC4=O)O[C@@H](CO)[C@H](O)[C@H]2O)[C@@H](O)[C@@H](O)[C@H]1O
REMARK SMILES IDX 6 1 34 2 32 3 29 4 28 5 7 6 5 7 4 8 1 9 2 10 40 11 3 12
REMARK SMILES IDX 38 13 36 14 41 15 39 17 37 19 35 21 8 23 9 24 10 25 15 26
REMARK SMILES IDX 11 27 14 28 13 29 16 30 26 31 17 32 27 33 25 34 12 35 18 37
REMARK SMILES IDX 19 38 24 39 20 40 23 41 21 42 22 43 33 45 30 47 31 48
REMARK H PARENT 41 16 39 18 37 20 35 22 12 36 22 44 33 46 31 49
REMARK Flexibility Score: inf
ROOT
ATOM      1  C   UNL     1     169.490 183.957 159.396  1.00  0.00     0.221 C 
ATOM      2  C   UNL     1     170.408 183.087 160.213  1.00  0.00     0.181 C 
ATOM      3  C   UNL     1     170.728 183.831 161.506  1.00  0.00     0.177 C 
ATOM      4  C   UNL     1     171.410 185.184 161.196  1.00  0.00     0.179 C 
ATOM      5  O   UNL     1     170.841 185.946 160.087  1.00  0.00    -0.332 OA
ATOM      6  C   UNL     1     170.242 185.219 159.000  1.00  0.00     0.339 C 
ENDROOT
BRANCH   1   7
ATOM      7  O   UNL     1     168.676 183.273 158.425  1.00  0.00    -0.337 OA
BRANCH   7   8
ATOM      8  C   UNL     1     169.159 182.904 157.151  1.00  0.00     0.282 C 
ATOM      9  C   UNL     1     170.620 179.724 156.037  1.00  0.00     0.041 C 
ATOM     10  C   UNL     1     169.795 181.021 155.913  1.00  0.00     0.150 C 
ATOM     11  C   UNL     1     168.340 180.654 155.588  1.00  0.00     0.174 C 
ATOM     12  O   UNL     1     169.875 181.686 157.161  1.00  0.00    -0.344 OA
ATOM     13  C   UNL     1     167.467 181.929 155.374  1.00  0.00     0.179 C 
ATOM     14  C   UNL     1     168.155 183.192 155.974  1.00  0.00     0.202 C 
BRANCH  11  15
ATOM     15  O   UNL     1     168.181 179.705 154.557  1.00  0.00    -0.388 OA
ATOM     16  H   UNL     1     167.363 179.143 154.713  1.00  0.00     0.211 HD
ENDBRANCH  11  15
BRANCH  13  17
ATOM     17  O   UNL     1     167.113 182.188 154.030  1.00  0.00    -0.387 OA
ATOM     18  H   UNL     1     167.914 182.494 153.519  1.00  0.00     0.211 HD
ENDBRANCH  13  17
BRANCH  14  19
ATOM     19  O   UNL     1     168.832 183.913 154.968  1.00  0.00    -0.385 OA
ATOM     20  H   UNL     1     168.199 184.630 154.683  1.00  0.00     0.211 HD
ENDBRANCH  14  19
ENDBRANCH   7   8
ENDBRANCH   1   7
BRANCH   2  21
ATOM     21  O   UNL     1     169.824 181.840 160.468  1.00  0.00    -0.387 OA
ATOM     22  H   UNL     1     170.607 181.245 160.746  1.00  0.00     0.211 HD
ENDBRANCH   2  21
BRANCH   6  23
ATOM     23  O   UNL     1     169.356 186.093 158.354  1.00  0.00    -0.462 OA
BRANCH  23  24
ATOM     24  C   UNL     1     169.509 186.618 157.089  1.00  0.00     0.130 A 
ATOM     25  C   UNL     1     168.406 186.981 156.254  1.00  0.00     0.093 A 
ATOM     26  C   UNL     1     170.810 186.692 156.569  1.00  0.00     0.094 A 
ATOM     27  C   UNL     1     168.635 187.430 154.941  1.00  0.00     0.133 A 
ATOM     28  C   UNL     1     171.042 187.057 155.227  1.00  0.00     0.138 A 
ATOM     29  C   UNL     1     169.954 187.463 154.412  1.00  0.00     0.102 A 
ATOM     30  O   UNL     1     172.329 186.877 154.668  1.00  0.00    -0.484 OA
ATOM     31  C   UNL     1     170.257 187.756 152.982  1.00  0.00     0.174 C 
ATOM     32  C   UNL     1     172.470 186.590 153.271  1.00  0.00     0.211 C 
ATOM     33  O   UNL     1     169.321 188.052 152.178  1.00  0.00    -0.294 OA
ATOM     34  C   UNL     1     171.693 187.687 152.509  1.00  0.00     0.131 C 
BRANCH  27  35
ATOM     35  O   UNL     1     167.537 187.805 154.142  1.00  0.00    -0.507 OA
ATOM     36  H   UNL     1     166.847 188.477 154.472  1.00  0.00     0.293 HD
ENDBRANCH  27  35
BRANCH  32  37
ATOM     37  C   UNL     1     171.910 185.197 152.959  1.00  0.00    -0.007 A 
ATOM     38  C   UNL     1     172.289 184.080 153.725  1.00  0.00     0.011 A 
ATOM     39  C   UNL     1     171.004 185.030 151.895  1.00  0.00     0.011 A 
ATOM     40  C   UNL     1     171.589 182.868 153.602  1.00  0.00     0.046 A 
ATOM     41  C   UNL     1     170.293 183.826 151.787  1.00  0.00     0.046 A 
ATOM     42  C   UNL     1     170.570 182.746 152.640  1.00  0.00     0.115 A 
BRANCH  42  43
ATOM     43  O   UNL     1     169.872 181.538 152.546  1.00  0.00    -0.508 OA
ATOM     44  H   UNL     1     169.781 180.908 153.298  1.00  0.00     0.293 HD
ENDBRANCH  42  43
ENDBRANCH  32  37
ENDBRANCH  23  24
ENDBRANCH   6  23
BRANCH   3  45
ATOM     45  O   UNL     1     171.639 183.014 162.243  1.00  0.00    -0.387 OA
ATOM     46  H   UNL     1     172.372 183.616 162.548  1.00  0.00     0.211 HD
ENDBRANCH   3  45
BRANCH   4  47
ATOM     47  C   UNL     1     171.398 186.106 162.448  1.00  0.00     0.191 C 
BRANCH  47  48
ATOM     48  O   UNL     1     170.696 185.523 163.511  1.00  0.00    -0.394 OA
ATOM     49  H   UNL     1     171.119 184.620 163.648  1.00  0.00     0.210 HD
ENDBRANCH  47  48
ENDBRANCH   4  47
TORSDOF 14
ENDMDL
MODEL 3
REMARK VINA RESULT:    -5.822      3.787      7.811
REMARK INTER + INTRA:         -11.543
REMARK INTER:                  -9.705
REMARK INTRA:                  -1.839
REMARK UNBOUND:                -2.318
REMARK SMILES C[C@@H]1O[C@H](O[C@@H]2[C@@H](Oc3cc(O)c4c(c3)O[C@@H](c3ccc(O)cc3)CC4=O)O[C@@H](CO)[C@H](O)[C@H]2O)[C@@H](O)[C@@H](O)[C@H]1O
REMARK SMILES IDX 6 1 34 2 32 3 29 4 28 5 7 6 5 7 4 8 1 9 2 10 40 11 3 12
REMARK SMILES IDX 38 13 36 14 41 15 39 17 37 19 35 21 8 23 9 24 10 25 15 26
REMARK SMILES IDX 11 27 14 28 13 29 16 30 26 31 17 32 27 33 25 34 12 35 18 37
REMARK SMILES IDX 19 38 24 39 20 40 23 41 21 42 22 43 33 45 30 47 31 48
REMARK H PARENT 41 16 39 18 37 20 35 22 12 36 22 44 33 46 31 49
REMARK Flexibility Score: inf
ROOT
ATOM      1  C   UNL     1     172.942 179.554 153.221  1.00  0.00     0.221 C 
ATOM      2  C   UNL     1     173.976 179.066 154.201  1.00  0.00     0.181 C 
ATOM      3  C   UNL     1     173.460 177.768 154.815  1.00  0.00     0.177 C 
ATOM      4  C   UNL     1     172.111 178.009 155.534  1.00  0.00     0.179 C 
ATOM      5  O   UNL     1     171.158 178.865 154.833  1.00  0.00    -0.332 OA
ATOM      6  C   UNL     1     171.674 179.906 153.985  1.00  0.00     0.339 C 
ENDROOT
BRANCH   1   7
ATOM      7  O   UNL     1     173.423 180.435 152.188  1.00  0.00    -0.337 OA
BRANCH   7   8
ATOM      8  C   UNL     1     173.677 179.997 150.870  1.00  0.00     0.282 C 
ATOM      9  C   UNL     1     176.381 177.862 149.598  1.00  0.00     0.041 C 
ATOM     10  C   UNL     1     174.953 178.438 149.677  1.00  0.00     0.150 C 
ATOM     11  C   UNL     1     173.974 177.295 149.985  1.00  0.00     0.174 C 
ATOM     12  O   UNL     1     174.946 179.394 150.722  1.00  0.00    -0.344 OA
ATOM     13  C   UNL     1     172.498 177.800 150.002  1.00  0.00     0.179 C 
ATOM     14  C   UNL     1     172.434 179.349 150.157  1.00  0.00     0.202 C 
BRANCH  11  15
ATOM     15  O   UNL     1     174.145 176.136 149.197  1.00  0.00    -0.388 OA
ATOM     16  H   UNL     1     174.361 175.343 149.774  1.00  0.00     0.211 HD
ENDBRANCH  11  15
BRANCH  13  17
ATOM     17  O   UNL     1     171.724 177.412 148.885  1.00  0.00    -0.387 OA
ATOM     18  H   UNL     1     171.843 178.069 148.142  1.00  0.00     0.211 HD
ENDBRANCH  13  17
BRANCH  14  19
ATOM     19  O   UNL     1     172.261 179.966 148.899  1.00  0.00    -0.385 OA
ATOM     20  H   UNL     1     171.446 179.546 148.507  1.00  0.00     0.211 HD
ENDBRANCH  14  19
ENDBRANCH   7   8
ENDBRANCH   1   7
BRANCH   2  21
ATOM     21  O   UNL     1     175.214 178.882 153.576  1.00  0.00    -0.387 OA
ATOM     22  H   UNL     1     175.196 177.911 153.257  1.00  0.00     0.211 HD
ENDBRANCH   2  21
BRANCH   6  23
ATOM     23  O   UNL     1     170.667 180.234 153.068  1.00  0.00    -0.462 OA
BRANCH  23  24
ATOM     24  C   UNL     1     170.123 181.485 152.870  1.00  0.00     0.130 A 
ATOM     25  C   UNL     1     170.843 182.564 152.270  1.00  0.00     0.093 A 
ATOM     26  C   UNL     1     168.840 181.726 153.387  1.00  0.00     0.094 A 
ATOM     27  C   UNL     1     170.254 183.839 152.179  1.00  0.00     0.133 A 
ATOM     28  C   UNL     1     168.279 183.018 153.379  1.00  0.00     0.138 A 
ATOM     29  C   UNL     1     168.971 184.080 152.741  1.00  0.00     0.102 A 
ATOM     30  O   UNL     1     167.107 183.275 154.128  1.00  0.00    -0.484 OA
ATOM     31  C   UNL     1     168.362 185.437 152.840  1.00  0.00     0.174 C 
ATOM     32  C   UNL     1     166.883 184.575 154.687  1.00  0.00     0.211 C 
ATOM     33  O   UNL     1     168.963 186.445 152.358  1.00  0.00    -0.294 OA
ATOM     34  C   UNL     1     167.023 185.589 153.530  1.00  0.00     0.131 C 
BRANCH  27  35
ATOM     35  O   UNL     1     170.971 184.884 151.563  1.00  0.00    -0.507 OA
ATOM     36  H   UNL     1     171.284 184.813 150.597  1.00  0.00     0.293 HD
ENDBRANCH  27  35
BRANCH  32  37
ATOM     37  C   UNL     1     167.904 184.856 155.796  1.00  0.00    -0.007 A 
ATOM     38  C   UNL     1     168.381 186.159 156.023  1.00  0.00     0.011 A 
ATOM     39  C   UNL     1     168.370 183.799 156.600  1.00  0.00     0.011 A 
ATOM     40  C   UNL     1     169.110 186.451 157.188  1.00  0.00     0.046 A 
ATOM     41  C   UNL     1     169.081 184.096 157.771  1.00  0.00     0.046 A 
ATOM     42  C   UNL     1     169.446 185.416 158.079  1.00  0.00     0.115 A 
BRANCH  42  43
ATOM     43  O   UNL     1     170.155 185.730 159.241  1.00  0.00    -0.508 OA
ATOM     44  H   UNL     1     169.848 186.398 159.898  1.00  0.00     0.293 HD
ENDBRANCH  42  43
ENDBRANCH  32  37
ENDBRANCH  23  24
ENDBRANCH   6  23
BRANCH   3  45
ATOM     45  O   UNL     1     174.428 177.349 155.778  1.00  0.00    -0.387 OA
ATOM     46  H   UNL     1     173.916 177.072 156.588  1.00  0.00     0.211 HD
ENDBRANCH   3  45
BRANCH   4  47
ATOM     47  C   UNL     1     171.397 176.661 155.830  1.00  0.00     0.191 C 
BRANCH  47  48
ATOM     48  O   UNL     1     170.575 176.268 154.767  1.00  0.00    -0.394 OA
ATOM     49  H   UNL     1     169.995 177.065 154.567  1.00  0.00     0.210 HD
ENDBRANCH  47  48
ENDBRANCH   4  47
TORSDOF 14
ENDMDL
MODEL 4
REMARK VINA RESULT:    -5.647      2.114      7.588
REMARK INTER + INTRA:         -11.266
REMARK INTER:                  -8.488
REMARK INTRA:                  -2.778
REMARK UNBOUND:                -2.318
REMARK SMILES C[C@@H]1O[C@H](O[C@@H]2[C@@H](Oc3cc(O)c4c(c3)O[C@@H](c3ccc(O)cc3)CC4=O)O[C@@H](CO)[C@H](O)[C@H]2O)[C@@H](O)[C@@H](O)[C@H]1O
REMARK SMILES IDX 6 1 34 2 32 3 29 4 28 5 7 6 5 7 4 8 1 9 2 10 40 11 3 12
REMARK SMILES IDX 38 13 36 14 41 15 39 17 37 19 35 21 8 23 9 24 10 25 15 26
REMARK SMILES IDX 11 27 14 28 13 29 16 30 26 31 17 32 27 33 25 34 12 35 18 37
REMARK SMILES IDX 19 38 24 39 20 40 23 41 21 42 22 43 33 45 30 47 31 48
REMARK H PARENT 41 16 39 18 37 20 35 22 12 36 22 44 33 46 31 49
REMARK Flexibility Score: inf
ROOT
ATOM      1  C   UNL     1     171.525 182.102 158.822  1.00  0.00     0.221 C 
ATOM      2  C   UNL     1     173.011 182.309 158.940  1.00  0.00     0.181 C 
ATOM      3  C   UNL     1     173.493 182.974 157.654  1.00  0.00     0.177 C 
ATOM      4  C   UNL     1     173.172 182.081 156.432  1.00  0.00     0.179 C 
ATOM      5  O   UNL     1     171.853 181.452 156.429  1.00  0.00    -0.332 OA
ATOM      6  C   UNL     1     171.259 181.116 157.695  1.00  0.00     0.339 C 
ENDROOT
BRANCH   1   7
ATOM      7  O   UNL     1     170.808 181.979 160.065  1.00  0.00    -0.337 OA
BRANCH   7   8
ATOM      8  C   UNL     1     170.081 183.047 160.635  1.00  0.00     0.282 C 
ATOM      9  C   UNL     1     171.248 185.777 162.795  1.00  0.00     0.041 C 
ATOM     10  C   UNL     1     170.395 185.109 161.698  1.00  0.00     0.150 C 
ATOM     11  C   UNL     1     170.636 185.838 160.369  1.00  0.00     0.174 C 
ATOM     12  O   UNL     1     170.815 183.759 161.609  1.00  0.00    -0.344 OA
ATOM     13  C   UNL     1     169.741 185.256 159.231  1.00  0.00     0.179 C 
ATOM     14  C   UNL     1     169.199 183.845 159.606  1.00  0.00     0.202 C 
BRANCH  11  15
ATOM     15  O   UNL     1     170.577 187.246 160.443  1.00  0.00    -0.388 OA
ATOM     16  H   UNL     1     170.883 187.569 161.343  1.00  0.00     0.211 HD
ENDBRANCH  11  15
BRANCH  13  17
ATOM     17  O   UNL     1     168.661 186.081 158.844  1.00  0.00    -0.387 OA
ATOM     18  H   UNL     1     168.702 186.951 159.334  1.00  0.00     0.211 HD
ENDBRANCH  13  17
BRANCH  14  19
ATOM     19  O   UNL     1     167.884 183.938 160.113  1.00  0.00    -0.385 OA
ATOM     20  H   UNL     1     167.959 184.477 160.949  1.00  0.00     0.211 HD
ENDBRANCH  14  19
ENDBRANCH   7   8
ENDBRANCH   1   7
BRANCH   2  21
ATOM     21  O   UNL     1     173.324 183.081 160.066  1.00  0.00    -0.387 OA
ATOM     22  H   UNL     1     172.505 183.678 160.200  1.00  0.00     0.211 HD
ENDBRANCH   2  21
BRANCH   6  23
ATOM     23  O   UNL     1     169.875 181.019 157.492  1.00  0.00    -0.462 OA
BRANCH  23  24
ATOM     24  C   UNL     1     169.153 181.644 156.499  1.00  0.00     0.130 A 
ATOM     25  C   UNL     1     168.998 181.102 155.185  1.00  0.00     0.093 A 
ATOM     26  C   UNL     1     168.645 182.924 156.771  1.00  0.00     0.094 A 
ATOM     27  C   UNL     1     168.321 181.837 154.195  1.00  0.00     0.133 A 
ATOM     28  C   UNL     1     168.042 183.702 155.762  1.00  0.00     0.138 A 
ATOM     29  C   UNL     1     167.845 183.148 154.472  1.00  0.00     0.102 A 
ATOM     30  O   UNL     1     167.774 185.070 156.003  1.00  0.00    -0.484 OA
ATOM     31  C   UNL     1     167.279 184.051 153.429  1.00  0.00     0.174 C 
ATOM     32  C   UNL     1     167.808 186.009 154.921  1.00  0.00     0.211 C 
ATOM     33  O   UNL     1     167.145 183.644 152.235  1.00  0.00    -0.294 OA
ATOM     34  C   UNL     1     166.876 185.457 153.820  1.00  0.00     0.131 C 
BRANCH  27  35
ATOM     35  O   UNL     1     168.158 181.275 152.913  1.00  0.00    -0.507 OA
ATOM     36  H   UNL     1     168.820 180.593 152.547  1.00  0.00     0.293 HD
ENDBRANCH  27  35
BRANCH  32  37
ATOM     37  C   UNL     1     169.243 186.167 154.404  1.00  0.00    -0.007 A 
ATOM     38  C   UNL     1     170.323 186.273 155.297  1.00  0.00     0.011 A 
ATOM     39  C   UNL     1     169.486 186.204 153.018  1.00  0.00     0.011 A 
ATOM     40  C   UNL     1     171.643 186.160 154.827  1.00  0.00     0.046 A 
ATOM     41  C   UNL     1     170.802 186.072 152.553  1.00  0.00     0.046 A 
ATOM     42  C   UNL     1     171.884 186.039 153.447  1.00  0.00     0.115 A 
BRANCH  42  43
ATOM     43  O   UNL     1     173.202 185.910 153.001  1.00  0.00    -0.508 OA
ATOM     44  H   UNL     1     173.456 185.956 152.050  1.00  0.00     0.293 HD
ENDBRANCH  42  43
ENDBRANCH  32  37
ENDBRANCH  23  24
ENDBRANCH   6  23
BRANCH   3  45
ATOM     45  O   UNL     1     174.910 183.115 157.763  1.00  0.00    -0.387 OA
ATOM     46  H   UNL     1     175.307 182.391 157.204  1.00  0.00     0.211 HD
ENDBRANCH   3  45
BRANCH   4  47
ATOM     47  C   UNL     1     173.305 182.890 155.110  1.00  0.00     0.191 C 
BRANCH  47  48
ATOM     48  O   UNL     1     174.237 183.928 155.232  1.00  0.00    -0.394 OA
ATOM     49  H   UNL     1     175.105 183.551 154.889  1.00  0.00     0.210 HD
ENDBRANCH  47  48
ENDBRANCH   4  47
TORSDOF 14
ENDMDL
MODEL 5
REMARK VINA RESULT:    -5.572      1.510      2.222
REMARK INTER + INTRA:         -11.147
REMARK INTER:                  -9.134
REMARK INTRA:                  -2.013
REMARK UNBOUND:                -2.318
REMARK SMILES C[C@@H]1O[C@H](O[C@@H]2[C@@H](Oc3cc(O)c4c(c3)O[C@@H](c3ccc(O)cc3)CC4=O)O[C@@H](CO)[C@H](O)[C@H]2O)[C@@H](O)[C@@H](O)[C@H]1O
REMARK SMILES IDX 6 1 34 2 32 3 29 4 28 5 7 6 5 7 4 8 1 9 2 10 40 11 3 12
REMARK SMILES IDX 38 13 36 14 41 15 39 17 37 19 35 21 8 23 9 24 10 25 15 26
REMARK SMILES IDX 11 27 14 28 13 29 16 30 26 31 17 32 27 33 25 34 12 35 18 37
REMARK SMILES IDX 19 38 24 39 20 40 23 41 21 42 22 43 33 45 30 47 31 48
REMARK H PARENT 41 16 39 18 37 20 35 22 12 36 22 44 33 46 31 49
REMARK Flexibility Score: inf
ROOT
ATOM      1  C   UNL     1     168.220 184.896 154.402  1.00  0.00     0.221 C 
ATOM      2  C   UNL     1     167.604 185.856 153.419  1.00  0.00     0.181 C 
ATOM      3  C   UNL     1     168.731 186.683 152.806  1.00  0.00     0.177 C 
ATOM      4  C   UNL     1     169.493 187.458 153.907  1.00  0.00     0.179 C 
ATOM      5  O   UNL     1     169.773 186.715 155.134  1.00  0.00    -0.332 OA
ATOM      6  C   UNL     1     168.844 185.694 155.537  1.00  0.00     0.339 C 
ENDROOT
BRANCH   1   7
ATOM      7  O   UNL     1     167.447 183.717 154.695  1.00  0.00    -0.337 OA
BRANCH   7   8
ATOM      8  C   UNL     1     167.875 182.419 154.345  1.00  0.00     0.282 C 
ATOM      9  C   UNL     1     170.708 181.377 152.253  1.00  0.00     0.041 C 
ATOM     10  C   UNL     1     169.701 181.285 153.418  1.00  0.00     0.150 C 
ATOM     11  C   UNL     1     170.475 181.299 154.744  1.00  0.00     0.174 C 
ATOM     12  O   UNL     1     168.851 182.414 153.324  1.00  0.00    -0.344 OA
ATOM     13  C   UNL     1     169.516 181.131 155.963  1.00  0.00     0.179 C 
ATOM     14  C   UNL     1     168.042 181.444 155.568  1.00  0.00     0.202 C 
BRANCH  11  15
ATOM     15  O   UNL     1     171.583 180.427 154.797  1.00  0.00    -0.388 OA
ATOM     16  H   UNL     1     171.283 179.478 154.926  1.00  0.00     0.211 HD
ENDBRANCH  11  15
BRANCH  13  17
ATOM     17  O   UNL     1     169.570 179.866 156.591  1.00  0.00    -0.387 OA
ATOM     18  H   UNL     1     169.689 179.978 157.577  1.00  0.00     0.211 HD
ENDBRANCH  13  17
BRANCH  14  19
ATOM     19  O   UNL     1     167.337 180.251 155.296  1.00  0.00    -0.385 OA
ATOM     20  H   UNL     1     166.824 180.430 154.460  1.00  0.00     0.211 HD
ENDBRANCH  14  19
ENDBRANCH   7   8
ENDBRANCH   1   7
BRANCH   2  21
ATOM     21  O   UNL     1     166.876 185.174 152.438  1.00  0.00    -0.387 OA
ATOM     22  H   UNL     1     167.339 185.419 151.561  1.00  0.00     0.211 HD
ENDBRANCH   2  21
BRANCH   6  23
ATOM     23  O   UNL     1     169.533 184.817 156.385  1.00  0.00    -0.462 OA
BRANCH  23  24
ATOM     24  C   UNL     1     169.932 185.080 157.678  1.00  0.00     0.130 A 
ATOM     25  C   UNL     1     171.175 185.710 157.999  1.00  0.00     0.093 A 
ATOM     26  C   UNL     1     169.121 184.603 158.719  1.00  0.00     0.094 A 
ATOM     27  C   UNL     1     171.556 185.869 159.344  1.00  0.00     0.133 A 
ATOM     28  C   UNL     1     169.536 184.679 160.064  1.00  0.00     0.138 A 
ATOM     29  C   UNL     1     170.745 185.346 160.388  1.00  0.00     0.102 A 
ATOM     30  O   UNL     1     168.822 183.967 161.056  1.00  0.00    -0.484 OA
ATOM     31  C   UNL     1     171.168 185.318 161.818  1.00  0.00     0.174 C 
ATOM     32  C   UNL     1     169.504 183.470 162.213  1.00  0.00     0.211 C 
ATOM     33  O   UNL     1     172.275 185.830 162.168  1.00  0.00    -0.294 OA
ATOM     34  C   UNL     1     170.258 184.665 162.837  1.00  0.00     0.131 C 
BRANCH  27  35
ATOM     35  O   UNL     1     172.773 186.513 159.641  1.00  0.00    -0.507 OA
ATOM     36  H   UNL     1     172.888 187.515 159.507  1.00  0.00     0.293 HD
ENDBRANCH  27  35
BRANCH  32  37
ATOM     37  C   UNL     1     170.474 182.351 161.814  1.00  0.00    -0.007 A 
ATOM     38  C   UNL     1     171.583 182.037 162.620  1.00  0.00     0.011 A 
ATOM     39  C   UNL     1     170.255 181.628 160.627  1.00  0.00     0.011 A 
ATOM     40  C   UNL     1     172.314 180.859 162.388  1.00  0.00     0.046 A 
ATOM     41  C   UNL     1     170.974 180.444 160.408  1.00  0.00     0.046 A 
ATOM     42  C   UNL     1     171.995 180.046 161.286  1.00  0.00     0.115 A 
BRANCH  42  43
ATOM     43  O   UNL     1     172.722 178.870 161.082  1.00  0.00    -0.508 OA
ATOM     44  H   UNL     1     172.631 178.073 161.654  1.00  0.00     0.293 HD
ENDBRANCH  42  43
ENDBRANCH  32  37
ENDBRANCH  23  24
ENDBRANCH   6  23
BRANCH   3  45
ATOM     45  O   UNL     1     168.124 187.622 151.917  1.00  0.00    -0.387 OA
ATOM     46  H   UNL     1     168.498 187.433 151.012  1.00  0.00     0.211 HD
ENDBRANCH   3  45
BRANCH   4  47
ATOM     47  C   UNL     1     170.849 187.993 153.366  1.00  0.00     0.191 C 
BRANCH  47  48
ATOM     48  O   UNL     1     170.984 187.759 151.992  1.00  0.00    -0.394 OA
ATOM     49  H   UNL     1     170.125 188.081 151.579  1.00  0.00     0.210 HD
ENDBRANCH  47  48
ENDBRANCH   4  47
TORSDOF 14
ENDMDL
MODEL 6
REMARK VINA RESULT:    -5.551      2.337      8.643
REMARK INTER + INTRA:         -11.114
REMARK INTER:                  -9.601
REMARK INTRA:                  -1.513
REMARK UNBOUND:                -2.318
REMARK SMILES C[C@@H]1O[C@H](O[C@@H]2[C@@H](Oc3cc(O)c4c(c3)O[C@@H](c3ccc(O)cc3)CC4=O)O[C@@H](CO)[C@H](O)[C@H]2O)[C@@H](O)[C@@H](O)[C@H]1O
REMARK SMILES IDX 6 1 34 2 32 3 29 4 28 5 7 6 5 7 4 8 1 9 2 10 40 11 3 12
REMARK SMILES IDX 38 13 36 14 41 15 39 17 37 19 35 21 8 23 9 24 10 25 15 26
REMARK SMILES IDX 11 27 14 28 13 29 16 30 26 31 17 32 27 33 25 34 12 35 18 37
REMARK SMILES IDX 19 38 24 39 20 40 23 41 21 42 22 43 33 45 30 47 31 48
REMARK H PARENT 41 16 39 18 37 20 35 22 12 36 22 44 33 46 31 49
REMARK Flexibility Score: inf
ROOT
ATOM      1  C   UNL     1     170.909 181.030 159.926  1.00  0.00     0.221 C 
ATOM      2  C   UNL     1     170.597 180.332 161.223  1.00  0.00     0.181 C 
ATOM      3  C   UNL     1     170.940 178.854 161.052  1.00  0.00     0.177 C 
ATOM      4  C   UNL     1     170.112 178.238 159.899  1.00  0.00     0.179 C 
ATOM      5  O   UNL     1     169.982 179.058 158.697  1.00  0.00    -0.332 OA
ATOM      6  C   UNL     1     169.983 180.488 158.847  1.00  0.00     0.339 C 
ENDROOT
BRANCH   1   7
ATOM      7  O   UNL     1     171.150 182.447 160.018  1.00  0.00    -0.337 OA
BRANCH   7   8
ATOM      8  C   UNL     1     170.280 183.325 160.698  1.00  0.00     0.282 C 
ATOM      9  C   UNL     1     171.035 185.836 163.270  1.00  0.00     0.041 C 
ATOM     10  C   UNL     1     170.303 185.235 162.053  1.00  0.00     0.150 C 
ATOM     11  C   UNL     1     170.486 186.172 160.851  1.00  0.00     0.174 C 
ATOM     12  O   UNL     1     170.891 183.972 161.795  1.00  0.00    -0.344 OA
ATOM     13  C   UNL     1     169.703 185.657 159.604  1.00  0.00     0.179 C 
ATOM     14  C   UNL     1     169.332 184.151 159.753  1.00  0.00     0.202 C 
BRANCH  11  15
ATOM     15  O   UNL     1     170.249 187.537 161.119  1.00  0.00    -0.388 OA
ATOM     16  H   UNL     1     169.285 187.691 161.356  1.00  0.00     0.211 HD
ENDBRANCH  11  15
BRANCH  13  17
ATOM     17  O   UNL     1     168.539 186.394 159.288  1.00  0.00    -0.387 OA
ATOM     18  H   UNL     1     167.741 185.793 159.299  1.00  0.00     0.211 HD
ENDBRANCH  13  17
BRANCH  14  19
ATOM     19  O   UNL     1     168.004 184.011 160.208  1.00  0.00    -0.385 OA
ATOM     20  H   UNL     1     168.077 183.773 161.174  1.00  0.00     0.211 HD
ENDBRANCH  14  19
ENDBRANCH   7   8
ENDBRANCH   1   7
BRANCH   2  21
ATOM     21  O   UNL     1     171.307 180.904 162.285  1.00  0.00    -0.387 OA
ATOM     22  H   UNL     1     171.844 181.659 161.855  1.00  0.00     0.211 HD
ENDBRANCH   2  21
BRANCH   6  23
ATOM     23  O   UNL     1     170.355 181.036 157.612  1.00  0.00    -0.462 OA
BRANCH  23  24
ATOM     24  C   UNL     1     169.505 181.587 156.677  1.00  0.00     0.130 A 
ATOM     25  C   UNL     1     169.183 180.947 155.440  1.00  0.00     0.093 A 
ATOM     26  C   UNL     1     169.030 182.886 156.916  1.00  0.00     0.094 A 
ATOM     27  C   UNL     1     168.377 181.608 154.495  1.00  0.00     0.133 A 
ATOM     28  C   UNL     1     168.296 183.588 155.939  1.00  0.00     0.138 A 
ATOM     29  C   UNL     1     167.934 182.938 154.731  1.00  0.00     0.102 A 
ATOM     30  O   UNL     1     168.054 184.971 156.108  1.00  0.00    -0.484 OA
ATOM     31  C   UNL     1     167.231 183.761 153.706  1.00  0.00     0.174 C 
ATOM     32  C   UNL     1     167.941 185.825 154.963  1.00  0.00     0.211 C 
ATOM     33  O   UNL     1     166.944 183.266 152.574  1.00  0.00    -0.294 OA
ATOM     34  C   UNL     1     166.875 185.195 154.039  1.00  0.00     0.131 C 
BRANCH  27  35
ATOM     35  O   UNL     1     168.051 180.951 153.292  1.00  0.00    -0.507 OA
ATOM     36  H   UNL     1     167.554 180.062 153.291  1.00  0.00     0.293 HD
ENDBRANCH  27  35
BRANCH  32  37
ATOM     37  C   UNL     1     169.294 185.936 154.251  1.00  0.00    -0.007 A 
ATOM     38  C   UNL     1     169.363 186.129 152.860  1.00  0.00     0.011 A 
ATOM     39  C   UNL     1     170.485 185.847 154.996  1.00  0.00     0.011 A 
ATOM     40  C   UNL     1     170.582 186.483 152.255  1.00  0.00     0.046 A 
ATOM     41  C   UNL     1     171.695 186.218 154.395  1.00  0.00     0.046 A 
ATOM     42  C   UNL     1     171.752 186.547 153.031  1.00  0.00     0.115 A 
BRANCH  42  43
ATOM     43  O   UNL     1     172.951 186.918 152.415  1.00  0.00    -0.508 OA
ATOM     44  H   UNL     1     173.175 187.851 152.188  1.00  0.00     0.293 HD
ENDBRANCH  42  43
ENDBRANCH  32  37
ENDBRANCH  23  24
ENDBRANCH   6  23
BRANCH   3  45
ATOM     45  O   UNL     1     170.590 178.201 162.272  1.00  0.00    -0.387 OA
ATOM     46  H   UNL     1     171.271 177.486 162.413  1.00  0.00     0.211 HD
ENDBRANCH   3  45
BRANCH   4  47
ATOM     47  C   UNL     1     170.707 176.868 159.467  1.00  0.00     0.191 C 
BRANCH  47  48
ATOM     48  O   UNL     1     170.192 176.449 158.234  1.00  0.00    -0.394 OA
ATOM     49  H   UNL     1     169.192 176.498 158.330  1.00  0.00     0.210 HD
ENDBRANCH  47  48
ENDBRANCH   4  47
TORSDOF 14
ENDMDL
MODEL 7
REMARK VINA RESULT:    -5.529      1.546      2.539
REMARK INTER + INTRA:         -11.078
REMARK INTER:                  -9.416
REMARK INTRA:                  -1.663
REMARK UNBOUND:                -2.318
REMARK SMILES C[C@@H]1O[C@H](O[C@@H]2[C@@H](Oc3cc(O)c4c(c3)O[C@@H](c3ccc(O)cc3)CC4=O)O[C@@H](CO)[C@H](O)[C@H]2O)[C@@H](O)[C@@H](O)[C@H]1O
REMARK SMILES IDX 6 1 34 2 32 3 29 4 28 5 7 6 5 7 4 8 1 9 2 10 40 11 3 12
REMARK SMILES IDX 38 13 36 14 41 15 39 17 37 19 35 21 8 23 9 24 10 25 15 26
REMARK SMILES IDX 11 27 14 28 13 29 16 30 26 31 17 32 27 33 25 34 12 35 18 37
REMARK SMILES IDX 19 38 24 39 20 40 23 41 21 42 22 43 33 45 30 47 31 48
REMARK H PARENT 41 16 39 18 37 20 35 22 12 36 22 44 33 46 31 49
REMARK Flexibility Score: inf
ROOT
ATOM      1  C   UNL     1     167.739 184.318 153.687  1.00  0.00     0.221 C 
ATOM      2  C   UNL     1     167.135 185.210 152.635  1.00  0.00     0.181 C 
ATOM      3  C   UNL     1     168.105 186.362 152.388  1.00  0.00     0.177 C 
ATOM      4  C   UNL     1     168.342 187.158 153.694  1.00  0.00     0.179 C 
ATOM      5  O   UNL     1     168.515 186.360 154.905  1.00  0.00    -0.332 OA
ATOM      6  C   UNL     1     167.833 185.097 154.991  1.00  0.00     0.339 C 
ENDROOT
BRANCH   1   7
ATOM      7  O   UNL     1     167.271 182.956 153.699  1.00  0.00    -0.337 OA
BRANCH   7   8
ATOM      8  C   UNL     1     168.125 181.855 153.475  1.00  0.00     0.282 C 
ATOM      9  C   UNL     1     171.596 181.796 152.277  1.00  0.00     0.041 C 
ATOM     10  C   UNL     1     170.377 181.335 153.102  1.00  0.00     0.150 C 
ATOM     11  C   UNL     1     170.721 181.438 154.595  1.00  0.00     0.174 C 
ATOM     12  O   UNL     1     169.304 182.201 152.778  1.00  0.00    -0.344 OA
ATOM     13  C   UNL     1     169.552 180.912 155.485  1.00  0.00     0.179 C 
ATOM     14  C   UNL     1     168.217 180.855 154.685  1.00  0.00     0.202 C 
BRANCH  11  15
ATOM     15  O   UNL     1     171.971 180.891 154.957  1.00  0.00    -0.388 OA
ATOM     16  H   UNL     1     171.940 180.517 155.889  1.00  0.00     0.211 HD
ENDBRANCH  11  15
BRANCH  13  17
ATOM     17  O   UNL     1     169.785 179.657 156.091  1.00  0.00    -0.387 OA
ATOM     18  H   UNL     1     170.382 179.765 156.884  1.00  0.00     0.211 HD
ENDBRANCH  13  17
BRANCH  14  19
ATOM     19  O   UNL     1     167.978 179.547 154.212  1.00  0.00    -0.385 OA
ATOM     20  H   UNL     1     168.864 179.210 153.901  1.00  0.00     0.211 HD
ENDBRANCH  14  19
ENDBRANCH   7   8
ENDBRANCH   1   7
BRANCH   2  21
ATOM     21  O   UNL     1     166.875 184.496 151.459  1.00  0.00    -0.387 OA
ATOM     22  H   UNL     1     167.568 184.843 150.793  1.00  0.00     0.211 HD
ENDBRANCH   2  21
BRANCH   6  23
ATOM     23  O   UNL     1     168.514 184.319 155.937  1.00  0.00    -0.462 OA
BRANCH  23  24
ATOM     24  C   UNL     1     168.812 184.689 157.231  1.00  0.00     0.130 A 
ATOM     25  C   UNL     1     169.211 186.013 157.593  1.00  0.00     0.093 A 
ATOM     26  C   UNL     1     168.828 183.682 158.208  1.00  0.00     0.094 A 
ATOM     27  C   UNL     1     169.585 186.297 158.920  1.00  0.00     0.133 A 
ATOM     28  C   UNL     1     169.284 183.938 159.517  1.00  0.00     0.138 A 
ATOM     29  C   UNL     1     169.634 185.261 159.891  1.00  0.00     0.102 A 
ATOM     30  O   UNL     1     169.526 182.857 160.396  1.00  0.00    -0.484 OA
ATOM     31  C   UNL     1     170.188 185.449 161.263  1.00  0.00     0.174 C 
ATOM     32  C   UNL     1     170.547 182.960 161.396  1.00  0.00     0.211 C 
ATOM     33  O   UNL     1     170.591 186.592 161.638  1.00  0.00    -0.294 OA
ATOM     34  C   UNL     1     170.265 184.255 162.190  1.00  0.00     0.131 C 
BRANCH  27  35
ATOM     35  O   UNL     1     169.952 187.613 159.262  1.00  0.00    -0.507 OA
ATOM     36  H   UNL     1     170.857 187.818 159.681  1.00  0.00     0.293 HD
ENDBRANCH  27  35
BRANCH  32  37
ATOM     37  C   UNL     1     171.930 183.006 160.737  1.00  0.00    -0.007 A 
ATOM     38  C   UNL     1     172.140 182.445 159.464  1.00  0.00     0.011 A 
ATOM     39  C   UNL     1     173.005 183.616 161.409  1.00  0.00     0.011 A 
ATOM     40  C   UNL     1     173.329 182.711 158.762  1.00  0.00     0.046 A 
ATOM     41  C   UNL     1     174.182 183.896 160.700  1.00  0.00     0.046 A 
ATOM     42  C   UNL     1     174.349 183.458 159.376  1.00  0.00     0.115 A 
BRANCH  42  43
ATOM     43  O   UNL     1     175.516 183.727 158.656  1.00  0.00    -0.508 OA
ATOM     44  H   UNL     1     176.097 184.502 158.839  1.00  0.00     0.293 HD
ENDBRANCH  42  43
ENDBRANCH  32  37
ENDBRANCH  23  24
ENDBRANCH   6  23
BRANCH   3  45
ATOM     45  O   UNL     1     167.493 187.223 151.428  1.00  0.00    -0.387 OA
ATOM     46  H   UNL     1     167.102 187.984 151.941  1.00  0.00     0.211 HD
ENDBRANCH   3  45
BRANCH   4  47
ATOM     47  C   UNL     1     169.588 188.077 153.559  1.00  0.00     0.191 C 
BRANCH  47  48
ATOM     48  O   UNL     1     170.076 188.096 152.246  1.00  0.00    -0.394 OA
ATOM     49  H   UNL     1     170.932 188.624 152.286  1.00  0.00     0.210 HD
ENDBRANCH  47  48
ENDBRANCH   4  47
TORSDOF 14
ENDMDL
MODEL 8
REMARK VINA RESULT:    -5.525      2.322      8.670
REMARK INTER + INTRA:         -11.073
REMARK INTER:                  -8.642
REMARK INTRA:                  -2.431
REMARK UNBOUND:                -2.318
REMARK SMILES C[C@@H]1O[C@H](O[C@@H]2[C@@H](Oc3cc(O)c4c(c3)O[C@@H](c3ccc(O)cc3)CC4=O)O[C@@H](CO)[C@H](O)[C@H]2O)[C@@H](O)[C@@H](O)[C@H]1O
REMARK SMILES IDX 6 1 34 2 32 3 29 4 28 5 7 6 5 7 4 8 1 9 2 10 40 11 3 12
REMARK SMILES IDX 38 13 36 14 41 15 39 17 37 19 35 21 8 23 9 24 10 25 15 26
REMARK SMILES IDX 11 27 14 28 13 29 16 30 26 31 17 32 27 33 25 34 12 35 18 37
REMARK SMILES IDX 19 38 24 39 20 40 23 41 21 42 22 43 33 45 30 47 31 48
REMARK H PARENT 41 16 39 18 37 20 35 22 12 36 22 44 33 46 31 49
REMARK Flexibility Score: inf
ROOT
ATOM      1  C   UNL     1     171.982 181.885 160.436  1.00  0.00     0.221 C 
ATOM      2  C   UNL     1     172.782 181.120 161.456  1.00  0.00     0.181 C 
ATOM      3  C   UNL     1     174.215 181.643 161.413  1.00  0.00     0.177 C 
ATOM      4  C   UNL     1     174.819 181.448 160.003  1.00  0.00     0.179 C 
ATOM      5  O   UNL     1     173.938 181.764 158.881  1.00  0.00    -0.332 OA
ATOM      6  C   UNL     1     172.524 181.564 159.051  1.00  0.00     0.339 C 
ENDROOT
BRANCH   1   7
ATOM      7  O   UNL     1     170.560 181.926 160.657  1.00  0.00    -0.337 OA
BRANCH   7   8
ATOM      8  C   UNL     1     169.876 183.113 161.000  1.00  0.00     0.282 C 
ATOM      9  C   UNL     1     171.109 186.098 162.747  1.00  0.00     0.041 C 
ATOM     10  C   UNL     1     170.269 185.303 161.727  1.00  0.00     0.150 C 
ATOM     11  C   UNL     1     170.621 185.786 160.312  1.00  0.00     0.174 C 
ATOM     12  O   UNL     1     170.605 183.936 161.885  1.00  0.00    -0.344 OA
ATOM     13  C   UNL     1     169.747 185.071 159.235  1.00  0.00     0.179 C 
ATOM     14  C   UNL     1     169.097 183.775 159.804  1.00  0.00     0.202 C 
BRANCH  11  15
ATOM     15  O   UNL     1     170.648 187.187 160.150  1.00  0.00    -0.388 OA
ATOM     16  H   UNL     1     171.178 187.620 160.886  1.00  0.00     0.211 HD
ENDBRANCH  11  15
BRANCH  13  17
ATOM     17  O   UNL     1     168.742 185.878 158.654  1.00  0.00    -0.387 OA
ATOM     18  H   UNL     1     167.984 185.993 159.294  1.00  0.00     0.211 HD
ENDBRANCH  13  17
BRANCH  14  19
ATOM     19  O   UNL     1     167.769 184.023 160.211  1.00  0.00    -0.385 OA
ATOM     20  H   UNL     1     167.196 183.709 159.457  1.00  0.00     0.211 HD
ENDBRANCH  14  19
ENDBRANCH   7   8
ENDBRANCH   1   7
BRANCH   2  21
ATOM     21  O   UNL     1     172.225 181.250 162.734  1.00  0.00    -0.387 OA
ATOM     22  H   UNL     1     172.493 182.190 163.033  1.00  0.00     0.211 HD
ENDBRANCH   2  21
BRANCH   6  23
ATOM     23  O   UNL     1     171.873 182.372 158.109  1.00  0.00    -0.462 OA
BRANCH  23  24
ATOM     24  C   UNL     1     171.343 181.955 156.907  1.00  0.00     0.130 A 
ATOM     25  C   UNL     1     172.033 182.083 155.662  1.00  0.00     0.093 A 
ATOM     26  C   UNL     1     170.019 181.487 156.908  1.00  0.00     0.094 A 
ATOM     27  C   UNL     1     171.395 181.716 154.463  1.00  0.00     0.133 A 
ATOM     28  C   UNL     1     169.344 181.200 155.704  1.00  0.00     0.138 A 
ATOM     29  C   UNL     1     170.042 181.280 154.472  1.00  0.00     0.102 A 
ATOM     30  O   UNL     1     167.947 180.978 155.724  1.00  0.00    -0.484 OA
ATOM     31  C   UNL     1     169.248 181.046 153.231  1.00  0.00     0.174 C 
ATOM     32  C   UNL     1     167.148 181.336 154.590  1.00  0.00     0.211 C 
ATOM     33  O   UNL     1     169.790 181.174 152.091  1.00  0.00    -0.294 OA
ATOM     34  C   UNL     1     167.790 180.659 153.358  1.00  0.00     0.131 C 
BRANCH  27  35
ATOM     35  O   UNL     1     172.100 181.828 153.248  1.00  0.00    -0.507 OA
ATOM     36  H   UNL     1     171.676 182.256 152.428  1.00  0.00     0.293 HD
ENDBRANCH  27  35
BRANCH  32  37
ATOM     37  C   UNL     1     167.114 182.861 154.429  1.00  0.00    -0.007 A 
ATOM     38  C   UNL     1     167.290 183.706 155.538  1.00  0.00     0.011 A 
ATOM     39  C   UNL     1     166.906 183.424 153.156  1.00  0.00     0.011 A 
ATOM     40  C   UNL     1     167.511 185.082 155.350  1.00  0.00     0.046 A 
ATOM     41  C   UNL     1     167.146 184.793 152.969  1.00  0.00     0.046 A 
ATOM     42  C   UNL     1     167.459 185.626 154.055  1.00  0.00     0.115 A 
BRANCH  42  43
ATOM     43  O   UNL     1     167.700 186.992 153.887  1.00  0.00    -0.508 OA
ATOM     44  H   UNL     1     168.563 187.418 154.099  1.00  0.00     0.293 HD
ENDBRANCH  42  43
ENDBRANCH  32  37
ENDBRANCH  23  24
ENDBRANCH   6  23
BRANCH   3  45
ATOM     45  O   UNL     1     174.969 180.871 162.349  1.00  0.00    -0.387 OA
ATOM     46  H   UNL     1     174.359 180.686 163.116  1.00  0.00     0.211 HD
ENDBRANCH   3  45
BRANCH   4  47
ATOM     47  C   UNL     1     176.110 182.300 159.835  1.00  0.00     0.191 C 
BRANCH  47  48
ATOM     48  O   UNL     1     176.396 183.036 160.991  1.00  0.00    -0.394 OA
ATOM     49  H   UNL     1     175.537 183.059 161.514  1.00  0.00     0.210 HD
ENDBRANCH  47  48
ENDBRANCH   4  47
TORSDOF 14
ENDMDL
MODEL 9
REMARK VINA RESULT:    -5.438      1.777      8.645
REMARK INTER + INTRA:         -10.935
REMARK INTER:                  -8.599
REMARK INTRA:                  -2.337
REMARK UNBOUND:                -2.318
REMARK SMILES C[C@@H]1O[C@H](O[C@@H]2[C@@H](Oc3cc(O)c4c(c3)O[C@@H](c3ccc(O)cc3)CC4=O)O[C@@H](CO)[C@H](O)[C@H]2O)[C@@H](O)[C@@H](O)[C@H]1O
REMARK SMILES IDX 6 1 34 2 32 3 29 4 28 5 7 6 5 7 4 8 1 9 2 10 40 11 3 12
REMARK SMILES IDX 38 13 36 14 41 15 39 17 37 19 35 21 8 23 9 24 10 25 15 26
REMARK SMILES IDX 11 27 14 28 13 29 16 30 26 31 17 32 27 33 25 34 12 35 18 37
REMARK SMILES IDX 19 38 24 39 20 40 23 41 21 42 22 43 33 45 30 47 31 48
REMARK H PARENT 41 16 39 18 37 20 35 22 12 36 22 44 33 46 31 49
REMARK Flexibility Score: inf
ROOT
ATOM      1  C   UNL     1     170.275 183.085 160.639  1.00  0.00     0.221 C 
ATOM      2  C   UNL     1     170.185 182.519 162.031  1.00  0.00     0.181 C 
ATOM      3  C   UNL     1     171.606 182.262 162.523  1.00  0.00     0.177 C 
ATOM      4  C   UNL     1     172.331 181.266 161.586  1.00  0.00     0.179 C 
ATOM      5  O   UNL     1     172.125 181.472 160.154  1.00  0.00    -0.332 OA
ATOM      6  C   UNL     1     170.871 182.028 159.721  1.00  0.00     0.339 C 
ENDROOT
BRANCH   1   7
ATOM      7  O   UNL     1     169.141 183.857 160.201  1.00  0.00    -0.337 OA
BRANCH   7   8
ATOM      8  C   UNL     1     169.197 185.255 160.016  1.00  0.00     0.282 C 
ATOM      9  C   UNL     1     171.253 187.760 161.745  1.00  0.00     0.041 C 
ATOM     10  C   UNL     1     170.507 187.119 160.557  1.00  0.00     0.150 C 
ATOM     11  C   UNL     1     171.518 186.822 159.440  1.00  0.00     0.174 C 
ATOM     12  O   UNL     1     169.921 185.919 161.031  1.00  0.00    -0.344 OA
ATOM     13  C   UNL     1     170.812 186.240 158.175  1.00  0.00     0.179 C 
ATOM     14  C   UNL     1     169.392 185.700 158.521  1.00  0.00     0.202 C 
BRANCH  11  15
ATOM     15  O   UNL     1     172.397 187.883 159.134  1.00  0.00    -0.388 OA
ATOM     16  H   UNL     1     173.081 187.998 159.861  1.00  0.00     0.211 HD
ENDBRANCH  11  15
BRANCH  13  17
ATOM     17  O   UNL     1     170.716 187.135 157.085  1.00  0.00    -0.387 OA
ATOM     18  H   UNL     1     171.620 187.291 156.690  1.00  0.00     0.211 HD
ENDBRANCH  13  17
BRANCH  14  19
ATOM     19  O   UNL     1     168.405 186.657 158.200  1.00  0.00    -0.385 OA
ATOM     20  H   UNL     1     168.788 187.536 158.474  1.00  0.00     0.211 HD
ENDBRANCH  14  19
ENDBRANCH   7   8
ENDBRANCH   1   7
BRANCH   2  21
ATOM     21  O   UNL     1     169.495 183.388 162.884  1.00  0.00    -0.387 OA
ATOM     22  H   UNL     1     169.040 184.053 162.256  1.00  0.00     0.211 HD
ENDBRANCH   2  21
BRANCH   6  23
ATOM     23  O   UNL     1     171.082 182.591 158.455  1.00  0.00    -0.462 OA
BRANCH  23  24
ATOM     24  C   UNL     1     170.458 182.216 157.284  1.00  0.00     0.130 A 
ATOM     25  C   UNL     1     171.131 181.533 156.224  1.00  0.00     0.093 A 
ATOM     26  C   UNL     1     169.131 182.630 157.093  1.00  0.00     0.094 A 
ATOM     27  C   UNL     1     170.454 181.259 155.022  1.00  0.00     0.133 A 
ATOM     28  C   UNL     1     168.474 182.438 155.861  1.00  0.00     0.138 A 
ATOM     29  C   UNL     1     169.123 181.717 154.825  1.00  0.00     0.102 A 
ATOM     30  O   UNL     1     167.241 183.086 155.618  1.00  0.00    -0.484 OA
ATOM     31  C   UNL     1     168.408 181.621 153.520  1.00  0.00     0.174 C 
ATOM     32  C   UNL     1     166.884 183.473 154.285  1.00  0.00     0.211 C 
ATOM     33  O   UNL     1     168.961 181.056 152.528  1.00  0.00    -0.294 OA
ATOM     34  C   UNL     1     167.020 182.214 153.402  1.00  0.00     0.131 C 
BRANCH  27  35
ATOM     35  O   UNL     1     171.128 180.563 153.998  1.00  0.00    -0.507 OA
ATOM     36  H   UNL     1     170.819 179.643 153.692  1.00  0.00     0.293 HD
ENDBRANCH  27  35
BRANCH  32  37
ATOM     37  C   UNL     1     167.808 184.595 153.797  1.00  0.00    -0.007 A 
ATOM     38  C   UNL     1     168.284 184.612 152.474  1.00  0.00     0.011 A 
ATOM     39  C   UNL     1     168.185 185.624 154.680  1.00  0.00     0.011 A 
ATOM     40  C   UNL     1     168.912 185.760 151.963  1.00  0.00     0.046 A 
ATOM     41  C   UNL     1     168.795 186.776 154.163  1.00  0.00     0.046 A 
ATOM     42  C   UNL     1     169.152 186.858 152.808  1.00  0.00     0.115 A 
BRANCH  42  43
ATOM     43  O   UNL     1     169.762 187.998 152.277  1.00  0.00    -0.508 OA
ATOM     44  H   UNL     1     169.257 188.790 151.977  1.00  0.00     0.293 HD
ENDBRANCH  42  43
ENDBRANCH  32  37
ENDBRANCH  23  24
ENDBRANCH   6  23
BRANCH   3  45
ATOM     45  O   UNL     1     171.498 181.677 163.822  1.00  0.00    -0.387 OA
ATOM     46  H   UNL     1     172.157 180.929 163.848  1.00  0.00     0.211 HD
ENDBRANCH   3  45
BRANCH   4  47
ATOM     47  C   UNL     1     173.864 181.285 161.844  1.00  0.00     0.191 C 
BRANCH  47  48
ATOM     48  O   UNL     1     174.163 181.699 163.148  1.00  0.00    -0.394 OA
ATOM     49  H   UNL     1     173.378 181.411 163.708  1.00  0.00     0.210 HD
ENDBRANCH  47  48
ENDBRANCH   4  47
TORSDOF 14
ENDMDL
