MODEL 1
REMARK VINA RESULT:    -4.622      0.000      0.000
REMARK INTER + INTRA:          -5.931
REMARK INTER:                  -5.703
REMARK INTRA:                  -0.229
REMARK UNBOUND:                -0.229
REMARK SMILES CCCCCC(=O)[O-]
REMARK SMILES IDX 4 1 5 2 6 3 7 4 8 5 3 6 2 7 1 8
REMARK H PARENT
REMARK Flexibility Score: inf
ROOT
ATOM      1  C   UNL     1     -15.535  -7.016 -22.840  1.00  0.00     0.006 C 
ENDROOT
BRANCH   1   2
ATOM      2  C   UNL     1     -16.551  -7.365 -23.936  1.00  0.00     0.053 C 
BRANCH   2   3
ATOM      3  C   UNL     1     -16.824  -8.837 -23.994  1.00  0.00     0.041 C 
ATOM      4  O   UNL     1     -16.134  -9.581 -24.740  1.00  0.00    -0.550 OA
ATOM      5  O   UNL     1     -17.822  -9.390 -23.202  1.00  0.00    -0.550 OA
ENDBRANCH   2   3
ENDBRANCH   1   2
BRANCH   1   6
ATOM      6  C   UNL     1     -16.206  -6.381 -21.609  1.00  0.00     0.000 C 
BRANCH   6   7
ATOM      7  C   UNL     1     -16.254  -7.335 -20.406  1.00  0.00    -0.003 C 
ATOM      8  C   UNL     1     -15.416  -8.596 -20.615  1.00  0.00     0.004 C 
ENDBRANCH   6   7
ENDBRANCH   1   6
TORSDOF 4
ENDMDL
MODEL 2
REMARK VINA RESULT:    -4.439      1.550      2.319
REMARK INTER + INTRA:          -5.706
REMARK INTER:                  -5.455
REMARK INTRA:                  -0.251
REMARK UNBOUND:                -0.229
REMARK SMILES CCCCCC(=O)[O-]
REMARK SMILES IDX 4 1 5 2 6 3 7 4 8 5 3 6 2 7 1 8
REMARK H PARENT
REMARK Flexibility Score: inf
ROOT
ATOM      1  C   UNL     1     -17.832  -8.535 -22.297  1.00  0.00     0.006 C 
ENDROOT
BRANCH   1   2
ATOM      2  C   UNL     1     -17.503  -8.881 -23.756  1.00  0.00     0.053 C 
BRANCH   2   3
ATOM      3  C   UNL     1     -16.403  -8.021 -24.297  1.00  0.00     0.041 C 
ATOM      4  O   UNL     1     -16.671  -6.922 -24.851  1.00  0.00    -0.550 OA
ATOM      5  O   UNL     1     -15.079  -8.421 -24.165  1.00  0.00    -0.550 OA
ENDBRANCH   2   3
ENDBRANCH   1   2
BRANCH   1   6
ATOM      6  C   UNL     1     -16.999  -9.362 -21.303  1.00  0.00     0.000 C 
BRANCH   6   7
ATOM      7  C   UNL     1     -15.874  -8.542 -20.651  1.00  0.00    -0.003 C 
ATOM      8  C   UNL     1     -16.142  -7.038 -20.683  1.00  0.00     0.004 C 
ENDBRANCH   6   7
ENDBRANCH   1   6
TORSDOF 4
ENDMDL
MODEL 3
REMARK VINA RESULT:    -4.406      1.873      3.164
REMARK INTER + INTRA:          -5.666
REMARK INTER:                  -5.519
REMARK INTRA:                  -0.147
REMARK UNBOUND:                -0.229
REMARK SMILES CCCCCC(=O)[O-]
REMARK SMILES IDX 4 1 5 2 6 3 7 4 8 5 3 6 2 7 1 8
REMARK H PARENT
REMARK Flexibility Score: inf
ROOT
ATOM      1  C   UNL     1     -15.846  -6.623 -22.497  1.00  0.00     0.006 C 
ENDROOT
BRANCH   1   2
ATOM      2  C   UNL     1     -16.447  -7.050 -21.151  1.00  0.00     0.053 C 
BRANCH   2   3
ATOM      3  C   UNL     1     -16.170  -8.492 -20.850  1.00  0.00     0.041 C 
ATOM      4  O   UNL     1     -15.039  -8.845 -20.424  1.00  0.00    -0.550 OA
ATOM      5  O   UNL     1     -17.171  -9.440 -21.016  1.00  0.00    -0.550 OA
ENDBRANCH   2   3
ENDBRANCH   1   2
BRANCH   1   6
ATOM      6  C   UNL     1     -16.575  -7.268 -23.688  1.00  0.00     0.000 C 
BRANCH   6   7
ATOM      7  C   UNL     1     -15.617  -8.013 -24.631  1.00  0.00    -0.003 C 
ATOM      8  C   UNL     1     -14.970  -9.233 -23.977  1.00  0.00     0.004 C 
ENDBRANCH   6   7
ENDBRANCH   1   6
TORSDOF 4
ENDMDL
MODEL 4
REMARK VINA RESULT:    -4.262      1.231      2.555
REMARK INTER + INTRA:          -5.488
REMARK INTER:                  -5.374
REMARK INTRA:                  -0.114
REMARK UNBOUND:                -0.229
REMARK SMILES CCCCCC(=O)[O-]
REMARK SMILES IDX 4 1 5 2 6 3 7 4 8 5 3 6 2 7 1 8
REMARK H PARENT
REMARK Flexibility Score: inf
ROOT
ATOM      1  C   UNL     1     -15.938  -8.549 -20.997  1.00  0.00     0.006 C 
ENDROOT
BRANCH   1   2
ATOM      2  C   UNL     1     -17.157  -9.389 -21.405  1.00  0.00     0.053 C 
BRANCH   2   3
ATOM      3  C   UNL     1     -17.435  -9.286 -22.874  1.00  0.00     0.041 C 
ATOM      4  O   UNL     1     -18.612  -9.107 -23.285  1.00  0.00    -0.550 OA
ATOM      5  O   UNL     1     -16.391  -9.362 -23.786  1.00  0.00    -0.550 OA
ENDBRANCH   2   3
ENDBRANCH   1   2
BRANCH   1   6
ATOM      6  C   UNL     1     -16.252  -7.043 -20.979  1.00  0.00     0.000 C 
BRANCH   6   7
ATOM      7  C   UNL     1     -15.639  -6.300 -22.177  1.00  0.00    -0.003 C 
ATOM      8  C   UNL     1     -16.175  -4.877 -22.330  1.00  0.00     0.004 C 
ENDBRANCH   6   7
ENDBRANCH   1   6
TORSDOF 4
ENDMDL
MODEL 5
REMARK VINA RESULT:    -4.259      1.146      1.799
REMARK INTER + INTRA:          -5.484
REMARK INTER:                  -5.295
REMARK INTRA:                  -0.189
REMARK UNBOUND:                -0.229
REMARK SMILES CCCCCC(=O)[O-]
REMARK SMILES IDX 4 1 5 2 6 3 7 4 8 5 3 6 2 7 1 8
REMARK H PARENT
REMARK Flexibility Score: inf
ROOT
ATOM      1  C   UNL     1     -15.130  -8.591 -22.541  1.00  0.00     0.006 C 
ENDROOT
BRANCH   1   2
ATOM      2  C   UNL     1     -15.941  -9.416 -23.551  1.00  0.00     0.053 C 
BRANCH   2   3
ATOM      3  C   UNL     1     -17.266  -8.784 -23.848  1.00  0.00     0.041 C 
ATOM      4  O   UNL     1     -17.348  -7.841 -24.678  1.00  0.00    -0.550 OA
ATOM      5  O   UNL     1     -18.416  -9.256 -23.228  1.00  0.00    -0.550 OA
ENDBRANCH   2   3
ENDBRANCH   1   2
BRANCH   1   6
ATOM      6  C   UNL     1     -15.815  -8.523 -21.165  1.00  0.00     0.000 C 
BRANCH   6   7
ATOM      7  C   UNL     1     -16.215  -7.091 -20.776  1.00  0.00    -0.003 C 
ATOM      8  C   UNL     1     -15.914  -6.073 -21.874  1.00  0.00     0.004 C 
ENDBRANCH   6   7
ENDBRANCH   1   6
TORSDOF 4
ENDMDL
MODEL 6
REMARK VINA RESULT:    -4.211      2.393      3.586
REMARK INTER + INTRA:          -5.425
REMARK INTER:                  -5.250
REMARK INTRA:                  -0.175
REMARK UNBOUND:                -0.229
REMARK SMILES CCCCCC(=O)[O-]
REMARK SMILES IDX 4 1 5 2 6 3 7 4 8 5 3 6 2 7 1 8
REMARK H PARENT
REMARK Flexibility Score: inf
ROOT
ATOM      1  C   UNL     1     -18.089  -8.589 -22.656  1.00  0.00     0.006 C 
ENDROOT
BRANCH   1   2
ATOM      2  C   UNL     1     -17.261  -9.312 -21.585  1.00  0.00     0.053 C 
BRANCH   2   3
ATOM      3  C   UNL     1     -16.353  -8.371 -20.854  1.00  0.00     0.041 C 
ATOM      4  O   UNL     1     -15.184  -8.725 -20.548  1.00  0.00    -0.550 OA
ATOM      5  O   UNL     1     -16.790  -7.091 -20.535  1.00  0.00    -0.550 OA
ENDBRANCH   2   3
ENDBRANCH   1   2
BRANCH   1   6
ATOM      6  C   UNL     1     -17.215  -8.062 -23.807  1.00  0.00     0.000 C 
BRANCH   6   7
ATOM      7  C   UNL     1     -16.272  -9.137 -24.370  1.00  0.00    -0.003 C 
ATOM      8  C   UNL     1     -14.797  -8.770 -24.219  1.00  0.00     0.004 C 
ENDBRANCH   6   7
ENDBRANCH   1   6
TORSDOF 4
ENDMDL
MODEL 7
REMARK VINA RESULT:    -4.171      2.278      3.803
REMARK INTER + INTRA:          -5.376
REMARK INTER:                  -5.178
REMARK INTRA:                  -0.198
REMARK UNBOUND:                -0.229
REMARK SMILES CCCCCC(=O)[O-]
REMARK SMILES IDX 4 1 5 2 6 3 7 4 8 5 3 6 2 7 1 8
REMARK H PARENT
REMARK Flexibility Score: inf
ROOT
ATOM      1  C   UNL     1     -16.009  -9.223 -22.376  1.00  0.00     0.006 C 
ENDROOT
BRANCH   1   2
ATOM      2  C   UNL     1     -15.585  -8.312 -21.216  1.00  0.00     0.053 C 
BRANCH   2   3
ATOM      3  C   UNL     1     -16.250  -6.971 -21.290  1.00  0.00     0.041 C 
ATOM      4  O   UNL     1     -15.738  -6.046 -21.974  1.00  0.00    -0.550 OA
ATOM      5  O   UNL     1     -17.450  -6.754 -20.626  1.00  0.00    -0.550 OA
ENDBRANCH   2   3
ENDBRANCH   1   2
BRANCH   1   6
ATOM      6  C   UNL     1     -15.122  -9.030 -23.619  1.00  0.00     0.000 C 
BRANCH   6   7
ATOM      7  C   UNL     1     -15.942  -8.881 -24.910  1.00  0.00    -0.003 C 
ATOM      8  C   UNL     1     -16.942  -7.728 -24.848  1.00  0.00     0.004 C 
ENDBRANCH   6   7
ENDBRANCH   1   6
TORSDOF 4
ENDMDL
MODEL 8
REMARK VINA RESULT:    -3.943      2.224      3.517
REMARK INTER + INTRA:          -5.094
REMARK INTER:                  -4.949
REMARK INTRA:                  -0.145
REMARK UNBOUND:                -0.229
REMARK SMILES CCCCCC(=O)[O-]
REMARK SMILES IDX 4 1 5 2 6 3 7 4 8 5 3 6 2 7 1 8
REMARK H PARENT
REMARK Flexibility Score: inf
ROOT
ATOM      1  C   UNL     1     -16.458  -6.735 -23.420  1.00  0.00     0.006 C 
ENDROOT
BRANCH   1   2
ATOM      2  C   UNL     1     -15.451  -6.721 -22.261  1.00  0.00     0.053 C 
BRANCH   2   3
ATOM      3  C   UNL     1     -16.030  -7.316 -21.014  1.00  0.00     0.041 C 
ATOM      4  O   UNL     1     -17.070  -6.827 -20.501  1.00  0.00    -0.550 OA
ATOM      5  O   UNL     1     -15.435  -8.430 -20.436  1.00  0.00    -0.550 OA
ENDBRANCH   2   3
ENDBRANCH   1   2
BRANCH   1   6
ATOM      6  C   UNL     1     -16.166  -7.862 -24.427  1.00  0.00     0.000 C 
BRANCH   6   7
ATOM      7  C   UNL     1     -16.635  -9.236 -23.924  1.00  0.00    -0.003 C 
ATOM      8  C   UNL     1     -18.031  -9.196 -23.305  1.00  0.00     0.004 C 
ENDBRANCH   6   7
ENDBRANCH   1   6
TORSDOF 4
ENDMDL
MODEL 9
REMARK VINA RESULT:    -3.202      2.319      2.945
REMARK INTER + INTRA:          -4.180
REMARK INTER:                  -4.385
REMARK INTRA:                   0.205
REMARK UNBOUND:                -0.229
REMARK SMILES CCCCCC(=O)[O-]
REMARK SMILES IDX 4 1 5 2 6 3 7 4 8 5 3 6 2 7 1 8
REMARK H PARENT
REMARK Flexibility Score: inf
ROOT
ATOM      1  C   UNL     1     -15.343  -9.111 -22.029  1.00  0.00     0.006 C 
ENDROOT
BRANCH   1   2
ATOM      2  C   UNL     1     -15.175  -8.410 -23.384  1.00  0.00     0.053 C 
BRANCH   2   3
ATOM      3  C   UNL     1     -15.826  -7.060 -23.396  1.00  0.00     0.041 C 
ATOM      4  O   UNL     1     -16.647  -6.760 -24.302  1.00  0.00    -0.550 OA
ATOM      5  O   UNL     1     -15.545  -6.144 -22.391  1.00  0.00    -0.550 OA
ENDBRANCH   2   3
ENDBRANCH   1   2
BRANCH   1   6
ATOM      6  C   UNL     1     -16.677  -8.752 -21.351  1.00  0.00     0.000 C 
BRANCH   6   7
ATOM      7  C   UNL     1     -17.806  -9.726 -21.723  1.00  0.00    -0.003 C 
ATOM      8  C   UNL     1     -18.530  -9.332 -23.009  1.00  0.00     0.004 C 
ENDBRANCH   6   7
ENDBRANCH   1   6
TORSDOF 4
ENDMDL
