MODEL 1
REMARK VINA RESULT:    -5.993      0.000      0.000
REMARK INTER + INTRA:          -6.913
REMARK INTER:                  -6.868
REMARK INTRA:                  -0.045
REMARK UNBOUND:                -0.045
REMARK SMILES O=C([O-])c1cc(O)c(O)c(O)c1
REMARK SMILES IDX 4 1 5 2 12 3 6 4 10 5 8 6 2 7 1 8 3 9 7 10 11 12 9 14
REMARK H PARENT 7 11 11 13 9 15
REMARK Flexibility Score: inf
ROOT
ATOM      1  C   UNL     1      47.065  -6.857  25.586  1.00  0.00     0.005 A 
ATOM      2  C   UNL     1      46.989  -5.539  26.068  1.00  0.00     0.060 A 
ATOM      3  C   UNL     1      48.313  -7.367  25.191  1.00  0.00     0.060 A 
ATOM      4  C   UNL     1      48.136  -4.743  26.155  1.00  0.00     0.162 A 
ATOM      5  C   UNL     1      49.466  -6.576  25.275  1.00  0.00     0.162 A 
ATOM      6  C   UNL     1      49.381  -5.259  25.759  1.00  0.00     0.200 A 
ENDROOT
BRANCH   1   7
ATOM      7  C   UNL     1      45.851  -7.698  25.494  1.00  0.00     0.072 C 
ATOM      8  O   UNL     1      45.473  -8.389  26.478  1.00  0.00    -0.545 OA
ATOM      9  O   UNL     1      45.108  -7.736  24.320  1.00  0.00    -0.545 OA
ENDBRANCH   1   7
BRANCH   4  10
ATOM     10  O   UNL     1      48.018  -3.440  26.639  1.00  0.00    -0.504 OA
ATOM     11  H   UNL     1      48.275  -3.192  27.587  1.00  0.00     0.293 HD
ENDBRANCH   4  10
BRANCH   5  12
ATOM     12  O   UNL     1      50.699  -7.094  24.880  1.00  0.00    -0.504 OA
ATOM     13  H   UNL     1      51.211  -7.751  25.458  1.00  0.00     0.293 HD
ENDBRANCH   5  12
BRANCH   6  14
ATOM     14  O   UNL     1      50.520  -4.458  25.849  1.00  0.00    -0.502 OA
ATOM     15  H   UNL     1      50.570  -3.656  26.465  1.00  0.00     0.293 HD
ENDBRANCH   6  14
TORSDOF 4
ENDMDL
MODEL 2
REMARK VINA RESULT:    -5.987      0.068      2.430
REMARK INTER + INTRA:          -6.907
REMARK INTER:                  -6.862
REMARK INTRA:                  -0.045
REMARK UNBOUND:                -0.045
REMARK SMILES O=C([O-])c1cc(O)c(O)c(O)c1
REMARK SMILES IDX 4 1 5 2 12 3 6 4 10 5 8 6 2 7 1 8 3 9 7 10 11 12 9 14
REMARK H PARENT 7 11 11 13 9 15
REMARK Flexibility Score: inf
ROOT
ATOM      1  C   UNL     1      47.031  -6.885  25.588  1.00  0.00     0.005 A 
ATOM      2  C   UNL     1      48.292  -7.392  25.232  1.00  0.00     0.060 A 
ATOM      3  C   UNL     1      46.934  -5.564  26.054  1.00  0.00     0.060 A 
ATOM      4  C   UNL     1      49.438  -6.597  25.339  1.00  0.00     0.162 A 
ATOM      5  C   UNL     1      48.077  -4.761  26.164  1.00  0.00     0.162 A 
ATOM      6  C   UNL     1      49.335  -5.276  25.806  1.00  0.00     0.200 A 
ENDROOT
BRANCH   1   7
ATOM      7  C   UNL     1      45.820  -7.728  25.474  1.00  0.00     0.072 C 
ATOM      8  O   UNL     1      45.412  -8.402  26.458  1.00  0.00    -0.545 OA
ATOM      9  O   UNL     1      45.114  -7.788  24.278  1.00  0.00    -0.545 OA
ENDBRANCH   1   7
BRANCH   4  10
ATOM     10  O   UNL     1      50.671  -7.138  24.976  1.00  0.00    -0.504 OA
ATOM     11  H   UNL     1      51.155  -7.813  25.556  1.00  0.00     0.293 HD
ENDBRANCH   4  10
BRANCH   5  12
ATOM     12  O   UNL     1      47.968  -3.451  26.629  1.00  0.00    -0.504 OA
ATOM     13  H   UNL     1      48.676  -2.753  26.426  1.00  0.00     0.293 HD
ENDBRANCH   5  12
BRANCH   6  14
ATOM     14  O   UNL     1      50.482  -4.489  25.910  1.00  0.00    -0.502 OA
ATOM     15  H   UNL     1      51.171  -4.437  25.169  1.00  0.00     0.293 HD
ENDBRANCH   6  14
TORSDOF 4
ENDMDL
MODEL 3
REMARK VINA RESULT:    -5.809      1.025      1.373
REMARK INTER + INTRA:          -6.703
REMARK INTER:                  -6.655
REMARK INTRA:                  -0.048
REMARK UNBOUND:                -0.045
REMARK SMILES O=C([O-])c1cc(O)c(O)c(O)c1
REMARK SMILES IDX 4 1 5 2 12 3 6 4 10 5 8 6 2 7 1 8 3 9 7 10 11 12 9 14
REMARK H PARENT 7 11 11 13 9 15
REMARK Flexibility Score: inf
ROOT
ATOM      1  C   UNL     1      46.780  -6.956  25.214  1.00  0.00     0.005 A 
ATOM      2  C   UNL     1      47.107  -5.823  25.979  1.00  0.00     0.060 A 
ATOM      3  C   UNL     1      47.677  -7.393  24.226  1.00  0.00     0.060 A 
ATOM      4  C   UNL     1      48.308  -5.138  25.764  1.00  0.00     0.162 A 
ATOM      5  C   UNL     1      48.882  -6.712  24.004  1.00  0.00     0.162 A 
ATOM      6  C   UNL     1      49.202  -5.581  24.774  1.00  0.00     0.200 A 
ENDROOT
BRANCH   1   7
ATOM      7  C   UNL     1      45.510  -7.679  25.443  1.00  0.00     0.072 C 
ATOM      8  O   UNL     1      44.766  -7.992  24.475  1.00  0.00    -0.545 OA
ATOM      9  O   UNL     1      45.119  -8.025  26.732  1.00  0.00    -0.545 OA
ENDBRANCH   1   7
BRANCH   4  10
ATOM     10  O   UNL     1      48.595  -4.018  26.544  1.00  0.00    -0.504 OA
ATOM     11  H   UNL     1      49.263  -3.315  26.253  1.00  0.00     0.293 HD
ENDBRANCH   4  10
BRANCH   5  12
ATOM     12  O   UNL     1      49.765  -7.157  23.020  1.00  0.00    -0.504 OA
ATOM     13  H   UNL     1      49.516  -7.904  22.381  1.00  0.00     0.293 HD
ENDBRANCH   5  12
BRANCH   6  14
ATOM     14  O   UNL     1      50.397  -4.891  24.566  1.00  0.00    -0.502 OA
ATOM     15  H   UNL     1      51.060  -5.164  23.851  1.00  0.00     0.293 HD
ENDBRANCH   6  14
TORSDOF 4
ENDMDL
MODEL 4
REMARK VINA RESULT:    -5.709      1.587      3.787
REMARK INTER + INTRA:          -6.588
REMARK INTER:                  -6.538
REMARK INTRA:                  -0.050
REMARK UNBOUND:                -0.045
REMARK SMILES O=C([O-])c1cc(O)c(O)c(O)c1
REMARK SMILES IDX 4 1 5 2 12 3 6 4 10 5 8 6 2 7 1 8 3 9 7 10 11 12 9 14
REMARK H PARENT 7 11 11 13 9 15
REMARK Flexibility Score: inf
ROOT
ATOM      1  C   UNL     1      47.940  -6.388  24.988  1.00  0.00     0.005 A 
ATOM      2  C   UNL     1      48.164  -5.127  25.567  1.00  0.00     0.060 A 
ATOM      3  C   UNL     1      46.661  -6.961  25.077  1.00  0.00     0.060 A 
ATOM      4  C   UNL     1      47.132  -4.448  26.224  1.00  0.00     0.162 A 
ATOM      5  C   UNL     1      45.621  -6.288  25.733  1.00  0.00     0.162 A 
ATOM      6  C   UNL     1      45.854  -5.027  26.309  1.00  0.00     0.200 A 
ENDROOT
BRANCH   1   7
ATOM      7  C   UNL     1      49.034  -7.104  24.295  1.00  0.00     0.072 C 
ATOM      8  O   UNL     1      48.803  -7.770  23.250  1.00  0.00    -0.545 OA
ATOM      9  O   UNL     1      50.333  -7.051  24.787  1.00  0.00    -0.545 OA
ENDBRANCH   1   7
BRANCH   4  10
ATOM     10  O   UNL     1      47.395  -3.199  26.785  1.00  0.00    -0.504 OA
ATOM     11  H   UNL     1      48.154  -2.612  26.461  1.00  0.00     0.293 HD
ENDBRANCH   4  10
BRANCH   5  12
ATOM     12  O   UNL     1      44.356  -6.868  25.815  1.00  0.00    -0.504 OA
ATOM     13  H   UNL     1      43.728  -6.668  26.586  1.00  0.00     0.293 HD
ENDBRANCH   5  12
BRANCH   6  14
ATOM     14  O   UNL     1      44.830  -4.344  26.965  1.00  0.00    -0.502 OA
ATOM     15  H   UNL     1      44.265  -3.642  26.502  1.00  0.00     0.293 HD
ENDBRANCH   6  14
TORSDOF 4
ENDMDL
MODEL 5
REMARK VINA RESULT:    -5.702      1.579      4.019
REMARK INTER + INTRA:          -6.580
REMARK INTER:                  -6.530
REMARK INTRA:                  -0.050
REMARK UNBOUND:                -0.045
REMARK SMILES O=C([O-])c1cc(O)c(O)c(O)c1
REMARK SMILES IDX 4 1 5 2 12 3 6 4 10 5 8 6 2 7 1 8 3 9 7 10 11 12 9 14
REMARK H PARENT 7 11 11 13 9 15
REMARK Flexibility Score: inf
ROOT
ATOM      1  C   UNL     1      47.962  -6.369  25.003  1.00  0.00     0.005 A 
ATOM      2  C   UNL     1      46.685  -6.947  25.100  1.00  0.00     0.060 A 
ATOM      3  C   UNL     1      48.182  -5.104  25.572  1.00  0.00     0.060 A 
ATOM      4  C   UNL     1      45.644  -6.277  25.752  1.00  0.00     0.162 A 
ATOM      5  C   UNL     1      47.145  -4.426  26.228  1.00  0.00     0.162 A 
ATOM      6  C   UNL     1      45.871  -5.012  26.320  1.00  0.00     0.200 A 
ENDROOT
BRANCH   1   7
ATOM      7  C   UNL     1      49.061  -7.079  24.312  1.00  0.00     0.072 C 
ATOM      8  O   UNL     1      48.833  -7.764  23.279  1.00  0.00    -0.545 OA
ATOM      9  O   UNL     1      50.363  -7.000  24.793  1.00  0.00    -0.545 OA
ENDBRANCH   1   7
BRANCH   4  10
ATOM     10  O   UNL     1      44.392  -6.886  25.827  1.00  0.00    -0.504 OA
ATOM     11  H   UNL     1      44.193  -7.632  26.481  1.00  0.00     0.293 HD
ENDBRANCH   4  10
BRANCH   5  12
ATOM     12  O   UNL     1      47.377  -3.171  26.789  1.00  0.00    -0.504 OA
ATOM     13  H   UNL     1      47.070  -2.319  26.332  1.00  0.00     0.293 HD
ENDBRANCH   5  12
BRANCH   6  14
ATOM     14  O   UNL     1      44.828  -4.350  26.970  1.00  0.00    -0.502 OA
ATOM     15  H   UNL     1      43.857  -4.598  26.823  1.00  0.00     0.293 HD
ENDBRANCH   6  14
TORSDOF 4
ENDMDL
MODEL 6
REMARK VINA RESULT:    -5.398      2.007      3.367
REMARK INTER + INTRA:          -6.232
REMARK INTER:                  -6.186
REMARK INTRA:                  -0.046
REMARK UNBOUND:                -0.045
REMARK SMILES O=C([O-])c1cc(O)c(O)c(O)c1
REMARK SMILES IDX 4 1 5 2 12 3 6 4 10 5 8 6 2 7 1 8 3 9 7 10 11 12 9 14
REMARK H PARENT 7 11 11 13 9 15
REMARK Flexibility Score: inf
ROOT
ATOM      1  C   UNL     1      46.848  -6.666  25.087  1.00  0.00     0.005 A 
ATOM      2  C   UNL     1      46.458  -7.355  23.926  1.00  0.00     0.060 A 
ATOM      3  C   UNL     1      48.195  -6.304  25.245  1.00  0.00     0.060 A 
ATOM      4  C   UNL     1      47.394  -7.678  22.938  1.00  0.00     0.162 A 
ATOM      5  C   UNL     1      49.140  -6.623  24.260  1.00  0.00     0.162 A 
ATOM      6  C   UNL     1      48.741  -7.312  23.101  1.00  0.00     0.200 A 
ENDROOT
BRANCH   1   7
ATOM      7  C   UNL     1      45.855  -6.325  26.131  1.00  0.00     0.072 C 
ATOM      8  O   UNL     1      45.583  -5.122  26.389  1.00  0.00    -0.545 OA
ATOM      9  O   UNL     1      45.207  -7.330  26.840  1.00  0.00    -0.545 OA
ENDBRANCH   1   7
BRANCH   4  10
ATOM     10  O   UNL     1      46.967  -8.362  21.800  1.00  0.00    -0.504 OA
ATOM     11  H   UNL     1      46.366  -7.932  21.107  1.00  0.00     0.293 HD
ENDBRANCH   4  10
BRANCH   5  12
ATOM     12  O   UNL     1      50.475  -6.258  24.428  1.00  0.00    -0.504 OA
ATOM     13  H   UNL     1      50.785  -5.734  25.239  1.00  0.00     0.293 HD
ENDBRANCH   5  12
BRANCH   6  14
ATOM     14  O   UNL     1      49.669  -7.638  22.112  1.00  0.00    -0.502 OA
ATOM     15  H   UNL     1      50.664  -7.502  22.238  1.00  0.00     0.293 HD
ENDBRANCH   6  14
TORSDOF 4
ENDMDL
MODEL 7
REMARK VINA RESULT:    -5.359      2.009      3.091
REMARK INTER + INTRA:          -6.187
REMARK INTER:                  -6.141
REMARK INTRA:                  -0.045
REMARK UNBOUND:                -0.045
REMARK SMILES O=C([O-])c1cc(O)c(O)c(O)c1
REMARK SMILES IDX 4 1 5 2 12 3 6 4 10 5 8 6 2 7 1 8 3 9 7 10 11 12 9 14
REMARK H PARENT 7 11 11 13 9 15
REMARK Flexibility Score: inf
ROOT
ATOM      1  C   UNL     1      46.496  -6.924  24.949  1.00  0.00     0.005 A 
ATOM      2  C   UNL     1      47.782  -6.411  25.193  1.00  0.00     0.060 A 
ATOM      3  C   UNL     1      46.250  -7.604  23.746  1.00  0.00     0.060 A 
ATOM      4  C   UNL     1      48.806  -6.574  24.253  1.00  0.00     0.162 A 
ATOM      5  C   UNL     1      47.270  -7.772  22.799  1.00  0.00     0.162 A 
ATOM      6  C   UNL     1      48.553  -7.257  23.051  1.00  0.00     0.200 A 
ENDROOT
BRANCH   1   7
ATOM      7  C   UNL     1      45.414  -6.750  25.944  1.00  0.00     0.072 C 
ATOM      8  O   UNL     1      45.449  -7.365  27.044  1.00  0.00    -0.545 OA
ATOM      9  O   UNL     1      44.343  -5.904  25.680  1.00  0.00    -0.545 OA
ENDBRANCH   1   7
BRANCH   4  10
ATOM     10  O   UNL     1      50.068  -6.051  24.533  1.00  0.00    -0.504 OA
ATOM     11  H   UNL     1      50.467  -5.292  23.995  1.00  0.00     0.293 HD
ENDBRANCH   4  10
BRANCH   5  12
ATOM     12  O   UNL     1      47.013  -8.450  21.608  1.00  0.00    -0.504 OA
ATOM     13  H   UNL     1      47.055  -9.461  21.551  1.00  0.00     0.293 HD
ENDBRANCH   5  12
BRANCH   6  14
ATOM     14  O   UNL     1      49.580  -7.415  22.119  1.00  0.00    -0.502 OA
ATOM     15  H   UNL     1      50.424  -7.934  22.328  1.00  0.00     0.293 HD
ENDBRANCH   6  14
TORSDOF 4
ENDMDL
MODEL 8
REMARK VINA RESULT:    -5.323      1.729      2.117
REMARK INTER + INTRA:          -6.146
REMARK INTER:                  -6.094
REMARK INTRA:                  -0.051
REMARK UNBOUND:                -0.045
REMARK SMILES O=C([O-])c1cc(O)c(O)c(O)c1
REMARK SMILES IDX 4 1 5 2 12 3 6 4 10 5 8 6 2 7 1 8 3 9 7 10 11 12 9 14
REMARK H PARENT 7 11 11 13 9 15
REMARK Flexibility Score: inf
ROOT
ATOM      1  C   UNL     1      46.403  -5.677  26.013  1.00  0.00     0.005 A 
ATOM      2  C   UNL     1      47.356  -4.782  26.528  1.00  0.00     0.060 A 
ATOM      3  C   UNL     1      46.817  -6.665  25.105  1.00  0.00     0.060 A 
ATOM      4  C   UNL     1      48.699  -4.869  26.146  1.00  0.00     0.162 A 
ATOM      5  C   UNL     1      48.161  -6.759  24.717  1.00  0.00     0.162 A 
ATOM      6  C   UNL     1      49.107  -5.860  25.237  1.00  0.00     0.200 A 
ENDROOT
BRANCH   1   7
ATOM      7  C   UNL     1      44.983  -5.584  26.419  1.00  0.00     0.072 C 
ATOM      8  O   UNL     1      44.072  -6.045  25.680  1.00  0.00    -0.545 OA
ATOM      9  O   UNL     1      44.633  -4.985  27.624  1.00  0.00    -0.545 OA
ENDBRANCH   1   7
BRANCH   4  10
ATOM     10  O   UNL     1      49.613  -3.961  26.680  1.00  0.00    -0.504 OA
ATOM     11  H   UNL     1      50.583  -4.203  26.837  1.00  0.00     0.293 HD
ENDBRANCH   4  10
BRANCH   5  12
ATOM     12  O   UNL     1      48.560  -7.745  23.814  1.00  0.00    -0.504 OA
ATOM     13  H   UNL     1      48.607  -7.565  22.817  1.00  0.00     0.293 HD
ENDBRANCH   5  12
BRANCH   6  14
ATOM     14  O   UNL     1      50.448  -5.940  24.861  1.00  0.00    -0.502 OA
ATOM     15  H   UNL     1      51.018  -5.116  24.713  1.00  0.00     0.293 HD
ENDBRANCH   6  14
TORSDOF 4
ENDMDL
MODEL 9
REMARK VINA RESULT:    -5.315      1.727      2.900
REMARK INTER + INTRA:          -6.136
REMARK INTER:                  -6.084
REMARK INTRA:                  -0.052
REMARK UNBOUND:                -0.045
REMARK SMILES O=C([O-])c1cc(O)c(O)c(O)c1
REMARK SMILES IDX 4 1 5 2 12 3 6 4 10 5 8 6 2 7 1 8 3 9 7 10 11 12 9 14
REMARK H PARENT 7 11 11 13 9 15
REMARK Flexibility Score: inf
ROOT
ATOM      1  C   UNL     1      46.417  -5.658  25.960  1.00  0.00     0.005 A 
ATOM      2  C   UNL     1      46.844  -6.639  25.048  1.00  0.00     0.060 A 
ATOM      3  C   UNL     1      47.361  -4.771  26.499  1.00  0.00     0.060 A 
ATOM      4  C   UNL     1      48.191  -6.733  24.680  1.00  0.00     0.162 A 
ATOM      5  C   UNL     1      48.712  -4.859  26.136  1.00  0.00     0.162 A 
ATOM      6  C   UNL     1      49.131  -5.842  25.223  1.00  0.00     0.200 A 
ENDROOT
BRANCH   1   7
ATOM      7  C   UNL     1      44.992  -5.560  26.347  1.00  0.00     0.072 C 
ATOM      8  O   UNL     1      44.106  -6.181  25.700  1.00  0.00    -0.545 OA
ATOM      9  O   UNL     1      44.610  -4.780  27.433  1.00  0.00    -0.545 OA
ENDBRANCH   1   7
BRANCH   4  10
ATOM     10  O   UNL     1      48.575  -7.720  23.772  1.00  0.00    -0.504 OA
ATOM     11  H   UNL     1      49.511  -8.105  23.759  1.00  0.00     0.293 HD
ENDBRANCH   4  10
BRANCH   5  12
ATOM     12  O   UNL     1      49.641  -3.972  26.679  1.00  0.00    -0.504 OA
ATOM     13  H   UNL     1      50.342  -3.517  26.104  1.00  0.00     0.293 HD
ENDBRANCH   5  12
BRANCH   6  14
ATOM     14  O   UNL     1      50.472  -5.943  24.851  1.00  0.00    -0.502 OA
ATOM     15  H   UNL     1      50.756  -6.247  23.928  1.00  0.00     0.293 HD
ENDBRANCH   6  14
TORSDOF 4
ENDMDL
