MODEL 1
REMARK VINA RESULT:    -5.104      0.000      0.000
REMARK INTER + INTRA:          -5.253
REMARK INTER:                  -5.253
REMARK INTRA:                   0.000
REMARK UNBOUND:                 0.000
REMARK SMILES Oc1ccc2[nH]ccc2c1
REMARK SMILES IDX 3 1 4 2 5 3 9 4 8 5 7 6 6 7 10 8 2 9 1 11
REMARK H PARENT 6 10 1 12
REMARK Flexibility Score: inf
ROOT
ATOM      1  C   UNL     1       7.639  -2.221  15.772  1.00  0.00     0.048 A 
ATOM      2  C   UNL     1       7.770  -2.434  17.157  1.00  0.00     0.030 A 
ATOM      3  C   UNL     1       6.603  -2.553  17.909  1.00  0.00     0.046 A 
ATOM      4  C   UNL     1       5.363  -2.468  17.335  1.00  0.00     0.003 A 
ATOM      5  C   UNL     1       4.432  -2.624  18.338  1.00  0.00     0.028 A 
ATOM      6  C   UNL     1       5.176  -2.802  19.501  1.00  0.00     0.083 A 
ATOM      7  N   UNL     1       6.502  -2.756  19.234  1.00  0.00    -0.361 N 
ATOM      8  C   UNL     1       5.199  -2.258  15.968  1.00  0.00     0.056 A 
ATOM      9  C   UNL     1       6.359  -2.133  15.176  1.00  0.00     0.116 A 
ATOM     10  H   UNL     1       7.283  -2.860  19.919  1.00  0.00     0.166 HD
ENDROOT
BRANCH   9  11
ATOM     11  O   UNL     1       6.257  -1.922  13.803  1.00  0.00    -0.508 OA
ATOM     12  H   UNL     1       5.535  -1.331  13.410  1.00  0.00     0.293 HD
ENDBRANCH   9  11
TORSDOF 1
ENDMDL
MODEL 2
REMARK VINA RESULT:    -4.997      2.628      3.501
REMARK INTER + INTRA:          -5.143
REMARK INTER:                  -5.143
REMARK INTRA:                   0.000
REMARK UNBOUND:                 0.000
REMARK SMILES Oc1ccc2[nH]ccc2c1
REMARK SMILES IDX 3 1 4 2 5 3 9 4 8 5 7 6 6 7 10 8 2 9 1 11
REMARK H PARENT 6 10 1 12
REMARK Flexibility Score: inf
ROOT
ATOM      1  C   UNL     1       7.388  -2.493  17.190  1.00  0.00     0.048 A 
ATOM      2  C   UNL     1       7.123  -2.221  15.835  1.00  0.00     0.030 A 
ATOM      3  C   UNL     1       5.790  -2.119  15.441  1.00  0.00     0.046 A 
ATOM      4  C   UNL     1       4.762  -2.275  16.331  1.00  0.00     0.003 A 
ATOM      5  C   UNL     1       3.585  -2.115  15.633  1.00  0.00     0.028 A 
ATOM      6  C   UNL     1       3.972  -1.864  14.320  1.00  0.00     0.083 A 
ATOM      7  N   UNL     1       5.320  -1.868  14.208  1.00  0.00    -0.361 N 
ATOM      8  C   UNL     1       4.989  -2.543  17.679  1.00  0.00     0.056 A 
ATOM      9  C   UNL     1       6.327  -2.655  18.112  1.00  0.00     0.116 A 
ATOM     10  H   UNL     1       5.876  -1.707  13.339  1.00  0.00     0.166 HD
ENDROOT
BRANCH   9  11
ATOM     11  O   UNL     1       6.617  -2.922  19.448  1.00  0.00    -0.508 OA
ATOM     12  H   UNL     1       7.442  -2.544  19.896  1.00  0.00     0.293 HD
ENDBRANCH   9  11
TORSDOF 1
ENDMDL
MODEL 3
REMARK VINA RESULT:    -4.685      7.816      8.766
REMARK INTER + INTRA:          -4.822
REMARK INTER:                  -4.822
REMARK INTRA:                   0.000
REMARK UNBOUND:                 0.000
REMARK SMILES Oc1ccc2[nH]ccc2c1
REMARK SMILES IDX 3 1 4 2 5 3 9 4 8 5 7 6 6 7 10 8 2 9 1 11
REMARK H PARENT 6 10 1 12
REMARK Flexibility Score: inf
ROOT
ATOM      1  C   UNL     1       8.175   1.821  22.238  1.00  0.00     0.048 A 
ATOM      2  C   UNL     1       9.462   1.376  22.595  1.00  0.00     0.030 A 
ATOM      3  C   UNL     1       9.722   1.157  23.946  1.00  0.00     0.046 A 
ATOM      4  C   UNL     1       8.768   1.363  24.906  1.00  0.00     0.003 A 
ATOM      5  C   UNL     1       9.336   1.060  26.124  1.00  0.00     0.028 A 
ATOM      6  C   UNL     1      10.641   0.674  25.831  1.00  0.00     0.083 A 
ATOM      7  N   UNL     1      10.872   0.736  24.499  1.00  0.00    -0.361 N 
ATOM      8  C   UNL     1       7.486   1.802  24.587  1.00  0.00     0.056 A 
ATOM      9  C   UNL     1       7.188   2.035  23.228  1.00  0.00     0.116 A 
ATOM     10  H   UNL     1      11.763   0.502  24.006  1.00  0.00     0.166 HD
ENDROOT
BRANCH   9  11
ATOM     11  O   UNL     1       5.922   2.475  22.848  1.00  0.00    -0.508 OA
ATOM     12  H   UNL     1       5.716   2.728  21.889  1.00  0.00     0.293 HD
ENDBRANCH   9  11
TORSDOF 1
ENDMDL
MODEL 4
REMARK VINA RESULT:    -4.669      1.824      2.681
REMARK INTER + INTRA:          -4.805
REMARK INTER:                  -4.805
REMARK INTRA:                   0.000
REMARK UNBOUND:                 0.000
REMARK SMILES Oc1ccc2[nH]ccc2c1
REMARK SMILES IDX 3 1 4 2 5 3 9 4 8 5 7 6 6 7 10 8 2 9 1 11
REMARK H PARENT 6 10 1 12
REMARK Flexibility Score: inf
ROOT
ATOM      1  C   UNL     1       7.139  -2.487  17.541  1.00  0.00     0.048 A 
ATOM      2  C   UNL     1       5.805  -2.628  17.966  1.00  0.00     0.030 A 
ATOM      3  C   UNL     1       4.800  -2.488  17.010  1.00  0.00     0.046 A 
ATOM      4  C   UNL     1       5.086  -2.222  15.698  1.00  0.00     0.003 A 
ATOM      5  C   UNL     1       3.888  -2.145  15.022  1.00  0.00     0.028 A 
ATOM      6  C   UNL     1       2.911  -2.374  15.987  1.00  0.00     0.083 A 
ATOM      7  N   UNL     1       3.473  -2.582  17.200  1.00  0.00    -0.361 N 
ATOM      8  C   UNL     1       6.395  -2.078  15.244  1.00  0.00     0.056 A 
ATOM      9  C   UNL     1       7.437  -2.213  16.185  1.00  0.00     0.116 A 
ATOM     10  H   UNL     1       2.975  -2.777  18.096  1.00  0.00     0.166 HD
ENDROOT
BRANCH   9  11
ATOM     11  O   UNL     1       8.766  -2.079  15.791  1.00  0.00    -0.508 OA
ATOM     12  H   UNL     1       9.018  -1.937  14.820  1.00  0.00     0.293 HD
ENDBRANCH   9  11
TORSDOF 1
ENDMDL
MODEL 5
REMARK VINA RESULT:    -4.610      1.998      2.614
REMARK INTER + INTRA:          -4.745
REMARK INTER:                  -4.745
REMARK INTRA:                   0.000
REMARK UNBOUND:                 0.000
REMARK SMILES Oc1ccc2[nH]ccc2c1
REMARK SMILES IDX 3 1 4 2 5 3 9 4 8 5 7 6 6 7 10 8 2 9 1 11
REMARK H PARENT 6 10 1 12
REMARK Flexibility Score: inf
ROOT
ATOM      1  C   UNL     1       7.031  -2.257  15.618  1.00  0.00     0.048 A 
ATOM      2  C   UNL     1       5.648  -2.167  15.375  1.00  0.00     0.030 A 
ATOM      3  C   UNL     1       4.786  -2.310  16.461  1.00  0.00     0.046 A 
ATOM      4  C   UNL     1       5.255  -2.531  17.728  1.00  0.00     0.003 A 
ATOM      5  C   UNL     1       4.161  -2.625  18.561  1.00  0.00     0.028 A 
ATOM      6  C   UNL     1       3.056  -2.451  17.733  1.00  0.00     0.083 A 
ATOM      7  N   UNL     1       3.443  -2.260  16.450  1.00  0.00    -0.361 N 
ATOM      8  C   UNL     1       6.616  -2.625  18.003  1.00  0.00     0.056 A 
ATOM      9  C   UNL     1       7.517  -2.486  16.927  1.00  0.00     0.116 A 
ATOM     10  H   UNL     1       2.822  -2.104  15.626  1.00  0.00     0.166 HD
ENDROOT
BRANCH   9  11
ATOM     11  O   UNL     1       8.891  -2.570  17.141  1.00  0.00    -0.508 OA
ATOM     12  H   UNL     1       9.555  -2.215  16.462  1.00  0.00     0.293 HD
ENDBRANCH   9  11
TORSDOF 1
ENDMDL
MODEL 6
REMARK VINA RESULT:    -4.601      1.166      2.122
REMARK INTER + INTRA:          -4.735
REMARK INTER:                  -4.735
REMARK INTRA:                   0.000
REMARK UNBOUND:                 0.000
REMARK SMILES Oc1ccc2[nH]ccc2c1
REMARK SMILES IDX 3 1 4 2 5 3 9 4 8 5 7 6 6 7 10 8 2 9 1 11
REMARK H PARENT 6 10 1 12
REMARK Flexibility Score: inf
ROOT
ATOM      1  C   UNL     1       4.420  -1.957  14.960  1.00  0.00     0.048 A 
ATOM      2  C   UNL     1       3.797  -2.154  16.206  1.00  0.00     0.030 A 
ATOM      3  C   UNL     1       4.612  -2.414  17.306  1.00  0.00     0.046 A 
ATOM      4  C   UNL     1       5.974  -2.479  17.194  1.00  0.00     0.003 A 
ATOM      5  C   UNL     1       6.479  -2.749  18.447  1.00  0.00     0.028 A 
ATOM      6  C   UNL     1       5.365  -2.836  19.277  1.00  0.00     0.083 A 
ATOM      7  N   UNL     1       4.226  -2.632  18.575  1.00  0.00    -0.361 N 
ATOM      8  C   UNL     1       6.623  -2.289  15.976  1.00  0.00     0.056 A 
ATOM      9  C   UNL     1       5.828  -2.024  14.841  1.00  0.00     0.116 A 
ATOM     10  H   UNL     1       3.251  -2.640  18.947  1.00  0.00     0.166 HD
ENDROOT
BRANCH   9  11
ATOM     11  O   UNL     1       6.420  -1.824  13.596  1.00  0.00    -0.508 OA
ATOM     12  H   UNL     1       5.980  -1.250  12.887  1.00  0.00     0.293 HD
ENDBRANCH   9  11
TORSDOF 1
ENDMDL
MODEL 7
REMARK VINA RESULT:    -4.544      7.674      8.653
REMARK INTER + INTRA:          -4.677
REMARK INTER:                  -4.677
REMARK INTRA:                   0.000
REMARK UNBOUND:                 0.000
REMARK SMILES Oc1ccc2[nH]ccc2c1
REMARK SMILES IDX 3 1 4 2 5 3 9 4 8 5 7 6 6 7 10 8 2 9 1 11
REMARK H PARENT 6 10 1 12
REMARK Flexibility Score: inf
ROOT
ATOM      1  C   UNL     1       9.593   1.139  22.746  1.00  0.00     0.048 A 
ATOM      2  C   UNL     1       8.340   1.501  22.217  1.00  0.00     0.030 A 
ATOM      3  C   UNL     1       7.343   1.885  23.111  1.00  0.00     0.046 A 
ATOM      4  C   UNL     1       7.559   1.913  24.462  1.00  0.00     0.003 A 
ATOM      5  C   UNL     1       6.389   2.330  25.059  1.00  0.00     0.028 A 
ATOM      6  C   UNL     1       5.500   2.539  24.009  1.00  0.00     0.083 A 
ATOM      7  N   UNL     1       6.087   2.264  22.821  1.00  0.00    -0.361 N 
ATOM      8  C   UNL     1       8.786   1.561  25.019  1.00  0.00     0.056 A 
ATOM      9  C   UNL     1       9.819   1.167  24.142  1.00  0.00     0.116 A 
ATOM     10  H   UNL     1       5.650   2.336  21.875  1.00  0.00     0.166 HD
ENDROOT
BRANCH   9  11
ATOM     11  O   UNL     1      11.068   0.805  24.640  1.00  0.00    -0.508 OA
ATOM     12  H   UNL     1      11.646   1.463  25.147  1.00  0.00     0.293 HD
ENDBRANCH   9  11
TORSDOF 1
ENDMDL
MODEL 8
REMARK VINA RESULT:    -4.459      1.740      3.106
REMARK INTER + INTRA:          -4.590
REMARK INTER:                  -4.590
REMARK INTRA:                   0.000
REMARK UNBOUND:                 0.000
REMARK SMILES Oc1ccc2[nH]ccc2c1
REMARK SMILES IDX 3 1 4 2 5 3 9 4 8 5 7 6 6 7 10 8 2 9 1 11
REMARK H PARENT 6 10 1 12
REMARK Flexibility Score: inf
ROOT
ATOM      1  C   UNL     1       3.891  -2.360  18.026  1.00  0.00     0.048 A 
ATOM      2  C   UNL     1       5.208  -2.382  18.521  1.00  0.00     0.030 A 
ATOM      3  C   UNL     1       6.251  -2.336  17.597  1.00  0.00     0.046 A 
ATOM      4  C   UNL     1       6.017  -2.270  16.250  1.00  0.00     0.003 A 
ATOM      5  C   UNL     1       7.242  -2.238  15.620  1.00  0.00     0.028 A 
ATOM      6  C   UNL     1       8.180  -2.286  16.646  1.00  0.00     0.083 A 
ATOM      7  N   UNL     1       7.570  -2.347  17.853  1.00  0.00    -0.361 N 
ATOM      8  C   UNL     1       4.726  -2.245  15.727  1.00  0.00     0.056 A 
ATOM      9  C   UNL     1       3.647  -2.292  16.634  1.00  0.00     0.116 A 
ATOM     10  H   UNL     1       8.033  -2.392  18.787  1.00  0.00     0.166 HD
ENDROOT
BRANCH   9  11
ATOM     11  O   UNL     1       2.334  -2.270  16.170  1.00  0.00    -0.508 OA
ATOM     12  H   UNL     1       1.978  -2.993  15.557  1.00  0.00     0.293 HD
ENDBRANCH   9  11
TORSDOF 1
ENDMDL
MODEL 9
REMARK VINA RESULT:    -4.420      9.416     10.399
REMARK INTER + INTRA:          -4.549
REMARK INTER:                  -4.549
REMARK INTRA:                   0.000
REMARK UNBOUND:                 0.000
REMARK SMILES Oc1ccc2[nH]ccc2c1
REMARK SMILES IDX 3 1 4 2 5 3 9 4 8 5 7 6 6 7 10 8 2 9 1 11
REMARK H PARENT 6 10 1 12
REMARK Flexibility Score: inf
ROOT
ATOM      1  C   UNL     1      -0.767  -6.034   8.928  1.00  0.00     0.048 A 
ATOM      2  C   UNL     1      -0.300  -4.817   9.456  1.00  0.00     0.030 A 
ATOM      3  C   UNL     1      -0.763  -4.433  10.713  1.00  0.00     0.046 A 
ATOM      4  C   UNL     1      -1.644  -5.205  11.422  1.00  0.00     0.003 A 
ATOM      5  C   UNL     1      -1.899  -4.553  12.609  1.00  0.00     0.028 A 
ATOM      6  C   UNL     1      -1.139  -3.388  12.556  1.00  0.00     0.083 A 
ATOM      7  N   UNL     1      -0.448  -3.319  11.395  1.00  0.00    -0.361 N 
ATOM      8  C   UNL     1      -2.125  -6.415  10.929  1.00  0.00     0.056 A 
ATOM      9  C   UNL     1      -1.677  -6.833   9.658  1.00  0.00     0.116 A 
ATOM     10  H   UNL     1       0.199  -2.556  11.096  1.00  0.00     0.166 HD
ENDROOT
BRANCH   9  11
ATOM     11  O   UNL     1      -2.124  -8.035   9.113  1.00  0.00    -0.508 OA
ATOM     12  H   UNL     1      -2.693  -8.056   8.275  1.00  0.00     0.293 HD
ENDBRANCH   9  11
TORSDOF 1
ENDMDL
