MODEL 1
REMARK VINA RESULT:    -2.773      0.000      0.000
REMARK INTER + INTRA:          -3.429
REMARK INTER:                  -3.259
REMARK INTRA:                  -0.170
REMARK UNBOUND:                -0.170
REMARK SMILES O=C([O-])CCC(=O)[O-]
REMARK SMILES IDX 4 1 2 2 1 3 3 4 5 5 6 6 7 7 8 8
REMARK H PARENT
REMARK Flexibility Score: inf
ROOT
ATOM      1  C   UNL     1       1.523  -3.362  12.136  1.00  0.00     0.059 C 
ENDROOT
BRANCH   1   2
ATOM      2  C   UNL     1       2.870  -2.710  12.085  1.00  0.00     0.042 C 
ATOM      3  O   UNL     1       3.455  -2.380  13.150  1.00  0.00    -0.550 OA
ATOM      4  O   UNL     1       3.462  -2.430  10.859  1.00  0.00    -0.550 OA
ENDBRANCH   1   2
BRANCH   1   5
ATOM      5  C   UNL     1       1.475  -4.628  11.274  1.00  0.00     0.059 C 
BRANCH   5   6
ATOM      6  C   UNL     1       2.428  -5.672  11.774  1.00  0.00     0.042 C 
ATOM      7  O   UNL     1       2.178  -6.302  12.834  1.00  0.00    -0.550 OA
ATOM      8  O   UNL     1       3.571  -5.975  11.046  1.00  0.00    -0.550 OA
ENDBRANCH   5   6
ENDBRANCH   1   5
TORSDOF 3
ENDMDL
MODEL 2
REMARK VINA RESULT:    -2.750      2.569      4.174
REMARK INTER + INTRA:          -3.402
REMARK INTER:                  -3.251
REMARK INTRA:                  -0.151
REMARK UNBOUND:                -0.170
REMARK SMILES O=C([O-])CCC(=O)[O-]
REMARK SMILES IDX 4 1 2 2 1 3 3 4 5 5 6 6 7 7 8 8
REMARK H PARENT
REMARK Flexibility Score: inf
ROOT
ATOM      1  C   UNL     1       1.422  -0.832  12.399  1.00  0.00     0.059 C 
ENDROOT
BRANCH   1   2
ATOM      2  C   UNL     1       1.309  -2.235  11.889  1.00  0.00     0.042 C 
ATOM      3  O   UNL     1       1.073  -2.450  10.671  1.00  0.00    -0.550 OA
ATOM      4  O   UNL     1       1.426  -3.307  12.766  1.00  0.00    -0.550 OA
ENDBRANCH   1   2
BRANCH   1   5
ATOM      5  C   UNL     1       2.711  -0.157  11.916  1.00  0.00     0.059 C 
BRANCH   5   6
ATOM      6  C   UNL     1       3.925  -0.945  12.304  1.00  0.00     0.042 C 
ATOM      7  O   UNL     1       4.791  -1.241  11.440  1.00  0.00    -0.550 OA
ATOM      8  O   UNL     1       4.117  -1.318  13.628  1.00  0.00    -0.550 OA
ENDBRANCH   5   6
ENDBRANCH   1   5
TORSDOF 3
ENDMDL
MODEL 3
REMARK VINA RESULT:    -2.705      2.605      3.144
REMARK INTER + INTRA:          -3.350
REMARK INTER:                  -3.226
REMARK INTRA:                  -0.124
REMARK UNBOUND:                -0.170
REMARK SMILES O=C([O-])CCC(=O)[O-]
REMARK SMILES IDX 4 1 2 2 1 3 3 4 5 5 6 6 7 7 8 8
REMARK H PARENT
REMARK Flexibility Score: inf
ROOT
ATOM      1  C   UNL     1       2.705  -0.105  12.028  1.00  0.00     0.059 C 
ENDROOT
BRANCH   1   2
ATOM      2  C   UNL     1       3.930  -0.868  12.426  1.00  0.00     0.042 C 
ATOM      3  O   UNL     1       4.111  -1.193  13.629  1.00  0.00    -0.550 OA
ATOM      4  O   UNL     1       4.892  -1.187  11.475  1.00  0.00    -0.550 OA
ENDBRANCH   1   2
BRANCH   1   5
ATOM      5  C   UNL     1       1.424  -0.830  12.455  1.00  0.00     0.059 C 
BRANCH   5   6
ATOM      6  C   UNL     1       1.394  -2.240  11.948  1.00  0.00     0.042 C 
ATOM      7  O   UNL     1       1.406  -3.204  12.757  1.00  0.00    -0.550 OA
ATOM      8  O   UNL     1       1.311  -2.487  10.584  1.00  0.00    -0.550 OA
ENDBRANCH   5   6
ENDBRANCH   1   5
TORSDOF 3
ENDMDL
MODEL 4
REMARK VINA RESULT:    -2.697      1.453      3.949
REMARK INTER + INTRA:          -3.340
REMARK INTER:                  -3.260
REMARK INTRA:                  -0.080
REMARK UNBOUND:                -0.170
REMARK SMILES O=C([O-])CCC(=O)[O-]
REMARK SMILES IDX 4 1 2 2 1 3 3 4 5 5 6 6 7 7 8 8
REMARK H PARENT
REMARK Flexibility Score: inf
ROOT
ATOM      1  C   UNL     1       1.164  -5.361  11.805  1.00  0.00     0.059 C 
ENDROOT
BRANCH   1   2
ATOM      2  C   UNL     1       1.133  -6.499  12.778  1.00  0.00     0.042 C 
ATOM      3  O   UNL     1       0.031  -6.960  13.180  1.00  0.00    -0.550 OA
ATOM      4  O   UNL     1       2.320  -7.026  13.272  1.00  0.00    -0.550 OA
ENDBRANCH   1   2
BRANCH   1   5
ATOM      5  C   UNL     1       2.558  -4.732  11.716  1.00  0.00     0.059 C 
BRANCH   5   6
ATOM      6  C   UNL     1       2.552  -3.310  12.191  1.00  0.00     0.042 C 
ATOM      7  O   UNL     1       3.514  -2.546  11.914  1.00  0.00    -0.550 OA
ATOM      8  O   UNL     1       1.466  -2.820  12.904  1.00  0.00    -0.550 OA
ENDBRANCH   5   6
ENDBRANCH   1   5
TORSDOF 3
ENDMDL
MODEL 5
REMARK VINA RESULT:    -2.692      1.031      1.663
REMARK INTER + INTRA:          -3.334
REMARK INTER:                  -3.219
REMARK INTRA:                  -0.115
REMARK UNBOUND:                -0.170
REMARK SMILES O=C([O-])CCC(=O)[O-]
REMARK SMILES IDX 4 1 2 2 1 3 3 4 5 5 6 6 7 7 8 8
REMARK H PARENT
REMARK Flexibility Score: inf
ROOT
ATOM      1  C   UNL     1       1.779  -3.637  11.249  1.00  0.00     0.059 C 
ENDROOT
BRANCH   1   2
ATOM      2  C   UNL     1       2.336  -2.507  12.057  1.00  0.00     0.042 C 
ATOM      3  O   UNL     1       3.579  -2.305  12.091  1.00  0.00    -0.550 OA
ATOM      4  O   UNL     1       1.487  -1.701  12.806  1.00  0.00    -0.550 OA
ENDBRANCH   1   2
BRANCH   1   5
ATOM      5  C   UNL     1       1.345  -4.808  12.137  1.00  0.00     0.059 C 
BRANCH   5   6
ATOM      6  C   UNL     1       2.392  -5.879  12.188  1.00  0.00     0.042 C 
ATOM      7  O   UNL     1       3.375  -5.841  11.403  1.00  0.00    -0.550 OA
ATOM      8  O   UNL     1       2.302  -6.895  13.130  1.00  0.00    -0.550 OA
ENDBRANCH   5   6
ENDBRANCH   1   5
TORSDOF 3
ENDMDL
MODEL 6
REMARK VINA RESULT:    -2.659      0.371      3.302
REMARK INTER + INTRA:          -3.295
REMARK INTER:                  -3.154
REMARK INTRA:                  -0.142
REMARK UNBOUND:                -0.170
REMARK SMILES O=C([O-])CCC(=O)[O-]
REMARK SMILES IDX 4 1 2 2 1 3 3 4 5 5 6 6 7 7 8 8
REMARK H PARENT
REMARK Flexibility Score: inf
ROOT
ATOM      1  C   UNL     1       1.807  -4.300  11.065  1.00  0.00     0.059 C 
ENDROOT
BRANCH   1   2
ATOM      2  C   UNL     1       2.584  -5.494  11.526  1.00  0.00     0.042 C 
ATOM      3  O   UNL     1       2.305  -6.048  12.623  1.00  0.00    -0.550 OA
ATOM      4  O   UNL     1       3.643  -5.973  10.764  1.00  0.00    -0.550 OA
ENDBRANCH   1   2
BRANCH   1   5
ATOM      5  C   UNL     1       1.774  -3.201  12.133  1.00  0.00     0.059 C 
BRANCH   5   6
ATOM      6  C   UNL     1       3.045  -2.406  12.144  1.00  0.00     0.042 C 
ATOM      7  O   UNL     1       3.566  -2.058  13.236  1.00  0.00    -0.550 OA
ATOM      8  O   UNL     1       3.673  -2.083  10.948  1.00  0.00    -0.550 OA
ENDBRANCH   5   6
ENDBRANCH   1   5
TORSDOF 3
ENDMDL
MODEL 7
REMARK VINA RESULT:    -2.631      3.278      4.054
REMARK INTER + INTRA:          -3.263
REMARK INTER:                  -3.075
REMARK INTRA:                  -0.188
REMARK UNBOUND:                -0.170
REMARK SMILES O=C([O-])CCC(=O)[O-]
REMARK SMILES IDX 4 1 2 2 1 3 3 4 5 5 6 6 7 7 8 8
REMARK H PARENT
REMARK Flexibility Score: inf
ROOT
ATOM      1  C   UNL     1       3.093  -0.036  10.544  1.00  0.00     0.059 C 
ENDROOT
BRANCH   1   2
ATOM      2  C   UNL     1       4.055  -1.178  10.653  1.00  0.00     0.042 C 
ATOM      3  O   UNL     1       5.107  -1.057  11.337  1.00  0.00    -0.550 OA
ATOM      4  O   UNL     1       3.812  -2.361   9.967  1.00  0.00    -0.550 OA
ENDBRANCH   1   2
BRANCH   1   5
ATOM      5  C   UNL     1       1.698  -0.422  11.048  1.00  0.00     0.059 C 
BRANCH   5   6
ATOM      6  C   UNL     1       1.742  -0.927  12.458  1.00  0.00     0.042 C 
ATOM      7  O   UNL     1       2.048  -0.149  13.400  1.00  0.00    -0.550 OA
ATOM      8  O   UNL     1       1.405  -2.245  12.736  1.00  0.00    -0.550 OA
ENDBRANCH   5   6
ENDBRANCH   1   5
TORSDOF 3
ENDMDL
MODEL 8
REMARK VINA RESULT:    -2.614      6.824      8.145
REMARK INTER + INTRA:          -3.243
REMARK INTER:                  -3.131
REMARK INTRA:                  -0.112
REMARK UNBOUND:                -0.170
REMARK SMILES O=C([O-])CCC(=O)[O-]
REMARK SMILES IDX 4 1 2 2 1 3 3 4 5 5 6 6 7 7 8 8
REMARK H PARENT
REMARK Flexibility Score: inf
ROOT
ATOM      1  C   UNL     1       5.604  -1.690  17.898  1.00  0.00     0.059 C 
ENDROOT
BRANCH   1   2
ATOM      2  C   UNL     1       5.926  -1.977  16.464  1.00  0.00     0.042 C 
ATOM      3  O   UNL     1       7.037  -2.483  16.153  1.00  0.00    -0.550 OA
ATOM      4  O   UNL     1       5.015  -1.651  15.467  1.00  0.00    -0.550 OA
ENDBRANCH   1   2
BRANCH   1   5
ATOM      5  C   UNL     1       6.244  -2.718  18.838  1.00  0.00     0.059 C 
BRANCH   5   6
ATOM      6  C   UNL     1       7.283  -2.089  19.716  1.00  0.00     0.042 C 
ATOM      7  O   UNL     1       7.709  -2.701  20.731  1.00  0.00    -0.550 OA
ATOM      8  O   UNL     1       7.809  -0.846  19.390  1.00  0.00    -0.550 OA
ENDBRANCH   5   6
ENDBRANCH   1   5
TORSDOF 3
ENDMDL
MODEL 9
REMARK VINA RESULT:    -2.546      1.869      4.113
REMARK INTER + INTRA:          -3.163
REMARK INTER:                  -3.132
REMARK INTRA:                  -0.030
REMARK UNBOUND:                -0.170
REMARK SMILES O=C([O-])CCC(=O)[O-]
REMARK SMILES IDX 4 1 2 2 1 3 3 4 5 5 6 6 7 7 8 8
REMARK H PARENT
REMARK Flexibility Score: inf
ROOT
ATOM      1  C   UNL     1       2.510  -3.220  12.135  1.00  0.00     0.059 C 
ENDROOT
BRANCH   1   2
ATOM      2  C   UNL     1       2.239  -4.623  11.686  1.00  0.00     0.042 C 
ATOM      3  O   UNL     1       3.194  -5.385  11.380  1.00  0.00    -0.550 OA
ATOM      4  O   UNL     1       0.931  -5.076  11.567  1.00  0.00    -0.550 OA
ENDBRANCH   1   2
BRANCH   1   5
ATOM      5  C   UNL     1       1.318  -2.298  11.857  1.00  0.00     0.059 C 
BRANCH   5   6
ATOM      6  C   UNL     1       1.657  -0.863  12.127  1.00  0.00     0.042 C 
ATOM      7  O   UNL     1       2.053  -0.509  13.268  1.00  0.00    -0.550 OA
ATOM      8  O   UNL     1       1.572   0.075  11.106  1.00  0.00    -0.550 OA
ENDBRANCH   5   6
ENDBRANCH   1   5
TORSDOF 3
ENDMDL
