MODEL 1
REMARK VINA RESULT:    -4.538      0.000      0.000
REMARK INTER + INTRA:          -4.670
REMARK INTER:                  -4.670
REMARK INTRA:                   0.000
REMARK UNBOUND:                 0.000
REMARK SMILES Cc1cccc(O)c1C
REMARK SMILES IDX 1 1 2 2 8 3 6 4 5 5 4 6 3 7 9 8 7 9
REMARK H PARENT 7 10
REMARK Flexibility Score: inf
ROOT
ATOM      1  C   UNL     1      -4.387   5.719  -3.384  1.00  0.00     0.045 C 
ATOM      2  C   UNL     1      -5.232   6.854  -3.905  1.00  0.00    -0.045 A 
ATOM      3  C   UNL     1      -6.647   6.831  -3.804  1.00  0.00    -0.006 A 
ATOM      4  C   UNL     1      -7.394   7.909  -4.328  1.00  0.00     0.118 A 
ATOM      5  C   UNL     1      -6.737   9.006  -4.901  1.00  0.00     0.046 A 
ATOM      6  C   UNL     1      -5.346   9.038  -4.968  1.00  0.00     0.004 A 
ATOM      7  C   UNL     1      -4.597   7.970  -4.474  1.00  0.00     0.004 A 
ATOM      8  C   UNL     1      -7.357   5.643  -3.198  1.00  0.00     0.048 C 
ENDROOT
BRANCH   4   9
ATOM      9  O   UNL     1      -8.789   7.892  -4.280  1.00  0.00    -0.508 OA
ATOM     10  H   UNL     1      -9.339   8.712  -4.507  1.00  0.00     0.293 HD
ENDBRANCH   4   9
TORSDOF 1
ENDMDL
MODEL 2
REMARK VINA RESULT:    -4.179      1.624      2.918
REMARK INTER + INTRA:          -4.301
REMARK INTER:                  -4.301
REMARK INTRA:                   0.000
REMARK UNBOUND:                 0.000
REMARK SMILES Cc1cccc(O)c1C
REMARK SMILES IDX 1 1 2 2 8 3 6 4 5 5 4 6 3 7 9 8 7 9
REMARK H PARENT 7 10
REMARK Flexibility Score: inf
ROOT
ATOM      1  C   UNL     1      -7.876   6.006  -2.914  1.00  0.00     0.045 C 
ATOM      2  C   UNL     1      -6.566   6.492  -3.478  1.00  0.00    -0.045 A 
ATOM      3  C   UNL     1      -6.430   7.798  -4.016  1.00  0.00    -0.006 A 
ATOM      4  C   UNL     1      -5.186   8.197  -4.554  1.00  0.00     0.118 A 
ATOM      5  C   UNL     1      -4.091   7.324  -4.514  1.00  0.00     0.046 A 
ATOM      6  C   UNL     1      -4.222   6.054  -3.955  1.00  0.00     0.004 A 
ATOM      7  C   UNL     1      -5.450   5.640  -3.441  1.00  0.00     0.004 A 
ATOM      8  C   UNL     1      -7.612   8.736  -4.071  1.00  0.00     0.048 C 
ENDROOT
BRANCH   4   9
ATOM      9  O   UNL     1      -5.036   9.461  -5.127  1.00  0.00    -0.508 OA
ATOM     10  H   UNL     1      -4.367  10.131  -4.770  1.00  0.00     0.293 HD
ENDBRANCH   4   9
TORSDOF 1
ENDMDL
MODEL 3
REMARK VINA RESULT:    -4.162      1.169      2.719
REMARK INTER + INTRA:          -4.283
REMARK INTER:                  -4.283
REMARK INTRA:                   0.000
REMARK UNBOUND:                 0.000
REMARK SMILES Cc1cccc(O)c1C
REMARK SMILES IDX 1 1 2 2 8 3 6 4 5 5 4 6 3 7 9 8 7 9
REMARK H PARENT 7 10
REMARK Flexibility Score: inf
ROOT
ATOM      1  C   UNL     1      -5.395   9.734  -4.779  1.00  0.00     0.045 C 
ATOM      2  C   UNL     1      -5.533   8.310  -4.306  1.00  0.00    -0.045 A 
ATOM      3  C   UNL     1      -6.793   7.768  -3.941  1.00  0.00    -0.006 A 
ATOM      4  C   UNL     1      -6.865   6.434  -3.483  1.00  0.00     0.118 A 
ATOM      5  C   UNL     1      -5.708   5.647  -3.431  1.00  0.00     0.046 A 
ATOM      6  C   UNL     1      -4.478   6.173  -3.820  1.00  0.00     0.004 A 
ATOM      7  C   UNL     1      -4.389   7.495  -4.255  1.00  0.00     0.004 A 
ATOM      8  C   UNL     1      -8.039   8.621  -3.985  1.00  0.00     0.048 C 
ENDROOT
BRANCH   4   9
ATOM      9  O   UNL     1      -8.085   5.891  -3.078  1.00  0.00    -0.508 OA
ATOM     10  H   UNL     1      -8.428   5.015  -3.453  1.00  0.00     0.293 HD
ENDBRANCH   4   9
TORSDOF 1
ENDMDL
MODEL 4
REMARK VINA RESULT:    -4.157      1.051      2.603
REMARK INTER + INTRA:          -4.278
REMARK INTER:                  -4.278
REMARK INTRA:                   0.000
REMARK UNBOUND:                 0.000
REMARK SMILES Cc1cccc(O)c1C
REMARK SMILES IDX 1 1 2 2 8 3 6 4 5 5 4 6 3 7 9 8 7 9
REMARK H PARENT 7 10
REMARK Flexibility Score: inf
ROOT
ATOM      1  C   UNL     1      -3.885   5.878  -3.878  1.00  0.00     0.045 C 
ATOM      2  C   UNL     1      -5.308   6.364  -3.763  1.00  0.00    -0.045 A 
ATOM      3  C   UNL     1      -5.682   7.668  -4.180  1.00  0.00    -0.006 A 
ATOM      4  C   UNL     1      -7.024   8.082  -4.030  1.00  0.00     0.118 A 
ATOM      5  C   UNL     1      -7.978   7.196  -3.513  1.00  0.00     0.046 A 
ATOM      6  C   UNL     1      -7.612   5.906  -3.135  1.00  0.00     0.004 A 
ATOM      7  C   UNL     1      -6.287   5.491  -3.258  1.00  0.00     0.004 A 
ATOM      8  C   UNL     1      -4.651   8.628  -4.725  1.00  0.00     0.048 C 
ENDROOT
BRANCH   4   9
ATOM      9  O   UNL     1      -7.409   9.373  -4.392  1.00  0.00    -0.508 OA
ATOM     10  H   UNL     1      -7.147  10.181  -3.841  1.00  0.00     0.293 HD
ENDBRANCH   4   9
TORSDOF 1
ENDMDL
MODEL 5
REMARK VINA RESULT:    -4.068     19.277     20.323
REMARK INTER + INTRA:          -4.187
REMARK INTER:                  -4.187
REMARK INTRA:                   0.000
REMARK UNBOUND:                 0.000
REMARK SMILES Cc1cccc(O)c1C
REMARK SMILES IDX 1 1 2 2 8 3 6 4 5 5 4 6 3 7 9 8 7 9
REMARK H PARENT 7 10
REMARK Flexibility Score: inf
ROOT
ATOM      1  C   UNL     1       3.383  -6.179   5.548  1.00  0.00     0.045 C 
ATOM      2  C   UNL     1       3.487  -7.448   4.741  1.00  0.00    -0.045 A 
ATOM      3  C   UNL     1       2.332  -8.174   4.350  1.00  0.00    -0.006 A 
ATOM      4  C   UNL     1       2.485  -9.369   3.613  1.00  0.00     0.118 A 
ATOM      5  C   UNL     1       3.763  -9.805   3.239  1.00  0.00     0.046 A 
ATOM      6  C   UNL     1       4.891  -9.071   3.598  1.00  0.00     0.004 A 
ATOM      7  C   UNL     1       4.756  -7.900   4.344  1.00  0.00     0.004 A 
ATOM      8  C   UNL     1       0.955  -7.712   4.763  1.00  0.00     0.048 C 
ENDROOT
BRANCH   4   9
ATOM      9  O   UNL     1       1.368 -10.125   3.252  1.00  0.00    -0.508 OA
ATOM     10  H   UNL     1       0.639 -10.347   3.919  1.00  0.00     0.293 HD
ENDBRANCH   4   9
TORSDOF 1
ENDMDL
MODEL 6
REMARK VINA RESULT:    -4.000     18.798     19.741
REMARK INTER + INTRA:          -4.116
REMARK INTER:                  -4.116
REMARK INTRA:                   0.000
REMARK UNBOUND:                 0.000
REMARK SMILES Cc1cccc(O)c1C
REMARK SMILES IDX 1 1 2 2 8 3 6 4 5 5 4 6 3 7 9 8 7 9
REMARK H PARENT 7 10
REMARK Flexibility Score: inf
ROOT
ATOM      1  C   UNL     1       4.749  -8.639   3.976  1.00  0.00     0.045 C 
ATOM      2  C   UNL     1       3.387  -8.120   4.360  1.00  0.00    -0.045 A 
ATOM      3  C   UNL     1       2.203  -8.832   4.033  1.00  0.00    -0.006 A 
ATOM      4  C   UNL     1       0.950  -8.290   4.396  1.00  0.00     0.118 A 
ATOM      5  C   UNL     1       0.886  -7.085   5.108  1.00  0.00     0.046 A 
ATOM      6  C   UNL     1       2.052  -6.407   5.454  1.00  0.00     0.004 A 
ATOM      7  C   UNL     1       3.295  -6.919   5.083  1.00  0.00     0.004 A 
ATOM      8  C   UNL     1       2.271 -10.124   3.255  1.00  0.00     0.048 C 
ENDROOT
BRANCH   4   9
ATOM      9  O   UNL     1      -0.231  -8.948   4.050  1.00  0.00    -0.508 OA
ATOM     10  H   UNL     1      -1.139  -8.582   4.307  1.00  0.00     0.293 HD
ENDBRANCH   4   9
TORSDOF 1
ENDMDL
MODEL 7
REMARK VINA RESULT:    -3.931     19.544     20.820
REMARK INTER + INTRA:          -4.046
REMARK INTER:                  -4.046
REMARK INTRA:                   0.000
REMARK UNBOUND:                 0.000
REMARK SMILES Cc1cccc(O)c1C
REMARK SMILES IDX 1 1 2 2 8 3 6 4 5 5 4 6 3 7 9 8 7 9
REMARK H PARENT 7 10
REMARK Flexibility Score: inf
ROOT
ATOM      1  C   UNL     1       1.548  -7.403   4.983  1.00  0.00     0.045 C 
ATOM      2  C   UNL     1       2.707  -8.162   4.391  1.00  0.00    -0.045 A 
ATOM      3  C   UNL     1       4.042  -7.701   4.528  1.00  0.00    -0.006 A 
ATOM      4  C   UNL     1       5.092  -8.437   3.935  1.00  0.00     0.118 A 
ATOM      5  C   UNL     1       4.815  -9.631   3.256  1.00  0.00     0.046 A 
ATOM      6  C   UNL     1       3.505 -10.096   3.153  1.00  0.00     0.004 A 
ATOM      7  C   UNL     1       2.458  -9.368   3.715  1.00  0.00     0.004 A 
ATOM      8  C   UNL     1       4.340  -6.407   5.248  1.00  0.00     0.048 C 
ENDROOT
BRANCH   4   9
ATOM      9  O   UNL     1       6.408  -7.983   4.018  1.00  0.00    -0.508 OA
ATOM     10  H   UNL     1       6.626  -7.002   4.144  1.00  0.00     0.293 HD
ENDBRANCH   4   9
TORSDOF 1
ENDMDL
MODEL 8
REMARK VINA RESULT:    -3.909     19.723     20.553
REMARK INTER + INTRA:          -4.024
REMARK INTER:                  -4.024
REMARK INTRA:                   0.000
REMARK UNBOUND:                 0.000
REMARK SMILES Cc1cccc(O)c1C
REMARK SMILES IDX 1 1 2 2 8 3 6 4 5 5 4 6 3 7 9 8 7 9
REMARK H PARENT 7 10
REMARK Flexibility Score: inf
ROOT
ATOM      1  C   UNL     1       1.364  -9.029   3.964  1.00  0.00     0.045 C 
ATOM      2  C   UNL     1       2.607  -8.259   4.327  1.00  0.00    -0.045 A 
ATOM      3  C   UNL     1       3.894  -8.688   3.909  1.00  0.00    -0.006 A 
ATOM      4  C   UNL     1       5.030  -7.943   4.295  1.00  0.00     0.118 A 
ATOM      5  C   UNL     1       4.878  -6.771   5.046  1.00  0.00     0.046 A 
ATOM      6  C   UNL     1       3.610  -6.336   5.426  1.00  0.00     0.004 A 
ATOM      7  C   UNL     1       2.482  -7.074   5.070  1.00  0.00     0.004 A 
ATOM      8  C   UNL     1       4.060  -9.960   3.110  1.00  0.00     0.048 C 
ENDROOT
BRANCH   4   9
ATOM      9  O   UNL     1       6.309  -8.367   3.933  1.00  0.00    -0.508 OA
ATOM     10  H   UNL     1       7.077  -7.714   3.832  1.00  0.00     0.293 HD
ENDBRANCH   4   9
TORSDOF 1
ENDMDL
MODEL 9
REMARK VINA RESULT:    -3.885      1.723      2.755
REMARK INTER + INTRA:          -3.999
REMARK INTER:                  -3.999
REMARK INTRA:                   0.000
REMARK UNBOUND:                 0.000
REMARK SMILES Cc1cccc(O)c1C
REMARK SMILES IDX 1 1 2 2 8 3 6 4 5 5 4 6 3 7 9 8 7 9
REMARK H PARENT 7 10
REMARK Flexibility Score: inf
ROOT
ATOM      1  C   UNL     1      -7.453   5.601  -3.113  1.00  0.00     0.045 C 
ATOM      2  C   UNL     1      -7.062   6.886  -3.798  1.00  0.00    -0.045 A 
ATOM      3  C   UNL     1      -5.705   7.194  -4.077  1.00  0.00    -0.006 A 
ATOM      4  C   UNL     1      -5.390   8.422  -4.700  1.00  0.00     0.118 A 
ATOM      5  C   UNL     1      -6.414   9.303  -5.073  1.00  0.00     0.046 A 
ATOM      6  C   UNL     1      -7.747   8.981  -4.826  1.00  0.00     0.004 A 
ATOM      7  C   UNL     1      -8.070   7.782  -4.192  1.00  0.00     0.004 A 
ATOM      8  C   UNL     1      -4.600   6.252  -3.663  1.00  0.00     0.048 C 
ENDROOT
BRANCH   4   9
ATOM      9  O   UNL     1      -4.061   8.769  -4.947  1.00  0.00    -0.508 OA
ATOM     10  H   UNL     1      -3.369   8.784  -4.208  1.00  0.00     0.293 HD
ENDBRANCH   4   9
TORSDOF 1
ENDMDL
