MODEL 1
REMARK VINA RESULT:    -4.956      0.000      0.000
REMARK INTER + INTRA:          -5.558
REMARK INTER:                  -5.246
REMARK INTRA:                  -0.312
REMARK UNBOUND:                -0.312
REMARK SMILES C=C(C)[C@H]1CC[C@@]2(C)CCCC(=C)[C@@H]2C1
REMARK SMILES IDX 4 1 5 2 6 3 7 4 9 5 10 6 11 7 12 8 13 9 14 10 15 11 8 12
REMARK SMILES IDX 2 13 3 14 1 15
REMARK H PARENT
REMARK Flexibility Score: inf
ROOT
ATOM      1  C   UNL     1       2.285  13.925  14.458  1.00  0.00     0.015 C 
ATOM      2  C   UNL     1       2.216  14.063  12.920  1.00  0.00     0.008 C 
ATOM      3  C   UNL     1       0.999  14.869  12.436  1.00  0.00     0.008 C 
ATOM      4  C   UNL     1       0.889  16.267  13.103  1.00  0.00    -0.026 C 
ATOM      5  C   UNL     1      -0.450  16.925  12.649  1.00  0.00     0.008 C 
ATOM      6  C   UNL     1      -0.749  18.257  13.370  1.00  0.00     0.005 C 
ATOM      7  C   UNL     1      -0.691  18.121  14.898  1.00  0.00     0.031 C 
ATOM      8  C   UNL     1       0.577  17.416  15.325  1.00  0.00    -0.074 C 
ATOM      9  C   UNL     1       1.380  17.967  16.252  1.00  0.00     0.008 C 
ATOM     10  C   UNL     1       0.848  16.078  14.647  1.00  0.00     0.021 C 
ATOM     11  C   UNL     1       2.066  15.281  15.179  1.00  0.00     0.016 C 
ATOM     12  C   UNL     1       2.077  17.165  12.653  1.00  0.00     0.012 C 
ENDROOT
BRANCH   1  13
ATOM     13  C   UNL     1       1.428  12.757  14.962  1.00  0.00    -0.077 C 
ATOM     14  C   UNL     1       1.128  11.537  14.123  1.00  0.00     0.039 C 
ATOM     15  C   UNL     1       0.981  12.788  16.230  1.00  0.00     0.008 C 
ENDBRANCH   1  13
TORSDOF 1
ENDMDL
MODEL 2
REMARK VINA RESULT:    -4.929      1.305      4.834
REMARK INTER + INTRA:          -5.529
REMARK INTER:                  -5.228
REMARK INTRA:                  -0.301
REMARK UNBOUND:                -0.312
REMARK SMILES C=C(C)[C@H]1CC[C@@]2(C)CCCC(=C)[C@@H]2C1
REMARK SMILES IDX 4 1 5 2 6 3 7 4 9 5 10 6 11 7 12 8 13 9 14 10 15 11 8 12
REMARK SMILES IDX 2 13 3 14 1 15
REMARK H PARENT
REMARK Flexibility Score: inf
ROOT
ATOM      1  C   UNL     1       0.945  17.610  14.224  1.00  0.00     0.015 C 
ATOM      2  C   UNL     1       0.295  17.902  15.597  1.00  0.00     0.008 C 
ATOM      3  C   UNL     1      -0.344  16.662  16.243  1.00  0.00     0.008 C 
ATOM      4  C   UNL     1       0.634  15.462  16.360  1.00  0.00    -0.026 C 
ATOM      5  C   UNL     1      -0.160  14.228  16.889  1.00  0.00     0.008 C 
ATOM      6  C   UNL     1       0.671  12.928  16.900  1.00  0.00     0.005 C 
ATOM      7  C   UNL     1       1.311  12.630  15.536  1.00  0.00     0.031 C 
ATOM      8  C   UNL     1       2.016  13.854  14.997  1.00  0.00    -0.074 C 
ATOM      9  C   UNL     1       3.298  13.775  14.596  1.00  0.00     0.008 C 
ATOM     10  C   UNL     1       1.180  15.127  14.942  1.00  0.00     0.021 C 
ATOM     11  C   UNL     1       1.847  16.348  14.259  1.00  0.00     0.016 C 
ATOM     12  C   UNL     1       1.774  15.803  17.362  1.00  0.00     0.012 C 
ENDROOT
BRANCH   1  13
ATOM     13  C   UNL     1      -0.083  17.663  13.088  1.00  0.00    -0.077 C 
ATOM     14  C   UNL     1      -0.021  16.756  11.881  1.00  0.00     0.039 C 
ATOM     15  C   UNL     1      -1.125  18.506  13.202  1.00  0.00     0.008 C 
ENDBRANCH   1  13
TORSDOF 1
ENDMDL
MODEL 3
REMARK VINA RESULT:    -4.841      1.724      2.708
REMARK INTER + INTRA:          -5.435
REMARK INTER:                  -5.232
REMARK INTRA:                  -0.203
REMARK UNBOUND:                -0.312
REMARK SMILES C=C(C)[C@H]1CC[C@@]2(C)CCCC(=C)[C@@H]2C1
REMARK SMILES IDX 4 1 5 2 6 3 7 4 9 5 10 6 11 7 12 8 13 9 14 10 15 11 8 12
REMARK SMILES IDX 2 13 3 14 1 15
REMARK H PARENT
REMARK Flexibility Score: inf
ROOT
ATOM      1  C   UNL     1       1.239  13.603  17.461  1.00  0.00     0.015 C 
ATOM      2  C   UNL     1       1.190  12.875  16.097  1.00  0.00     0.008 C 
ATOM      3  C   UNL     1       0.314  13.592  15.057  1.00  0.00     0.008 C 
ATOM      4  C   UNL     1       0.704  15.081  14.854  1.00  0.00    -0.026 C 
ATOM      5  C   UNL     1      -0.337  15.737  13.895  1.00  0.00     0.008 C 
ATOM      6  C   UNL     1      -0.146  17.261  13.739  1.00  0.00     0.005 C 
ATOM      7  C   UNL     1      -0.105  17.987  15.090  1.00  0.00     0.031 C 
ATOM      8  C   UNL     1       0.852  17.301  16.038  1.00  0.00    -0.074 C 
ATOM      9  C   UNL     1       1.814  18.007  16.658  1.00  0.00     0.008 C 
ATOM     10  C   UNL     1       0.633  15.805  16.229  1.00  0.00     0.021 C 
ATOM     11  C   UNL     1       1.515  15.122  17.305  1.00  0.00     0.016 C 
ATOM     12  C   UNL     1       2.118  15.176  14.213  1.00  0.00     0.012 C 
ENDROOT
BRANCH   1  13
ATOM     13  C   UNL     1       0.045  13.229  18.346  1.00  0.00    -0.077 C 
ATOM     14  C   UNL     1      -1.121  14.159  18.589  1.00  0.00     0.039 C 
ATOM     15  C   UNL     1      -0.001  11.993  18.876  1.00  0.00     0.008 C 
ENDBRANCH   1  13
TORSDOF 1
ENDMDL
MODEL 4
REMARK VINA RESULT:    -4.789      1.505      3.624
REMARK INTER + INTRA:          -5.381
REMARK INTER:                  -5.075
REMARK INTRA:                  -0.306
REMARK UNBOUND:                -0.312
REMARK SMILES C=C(C)[C@H]1CC[C@@]2(C)CCCC(=C)[C@@H]2C1
REMARK SMILES IDX 4 1 5 2 6 3 7 4 9 5 10 6 11 7 12 8 13 9 14 10 15 11 8 12
REMARK SMILES IDX 2 13 3 14 1 15
REMARK H PARENT
REMARK Flexibility Score: inf
ROOT
ATOM      1  C   UNL     1       1.953  13.937  12.901  1.00  0.00     0.015 C 
ATOM      2  C   UNL     1       1.744  12.767  13.890  1.00  0.00     0.008 C 
ATOM      3  C   UNL     1       2.075  13.136  15.346  1.00  0.00     0.008 C 
ATOM      4  C   UNL     1       1.320  14.398  15.843  1.00  0.00    -0.026 C 
ATOM      5  C   UNL     1       1.844  14.755  17.268  1.00  0.00     0.008 C 
ATOM      6  C   UNL     1       1.280  16.087  17.807  1.00  0.00     0.005 C 
ATOM      7  C   UNL     1       1.494  17.252  16.831  1.00  0.00     0.031 C 
ATOM      8  C   UNL     1       1.051  16.871  15.437  1.00  0.00    -0.074 C 
ATOM      9  C   UNL     1       0.193  17.655  14.760  1.00  0.00     0.008 C 
ATOM     10  C   UNL     1       1.646  15.580  14.886  1.00  0.00     0.021 C 
ATOM     11  C   UNL     1       1.312  15.256  13.407  1.00  0.00     0.016 C 
ATOM     12  C   UNL     1      -0.206  14.107  15.919  1.00  0.00     0.012 C 
ENDROOT
BRANCH   1  13
ATOM     13  C   UNL     1       3.413  14.038  12.444  1.00  0.00    -0.077 C 
ATOM     14  C   UNL     1       4.134  15.356  12.281  1.00  0.00     0.039 C 
ATOM     15  C   UNL     1       4.105  12.901  12.245  1.00  0.00     0.008 C 
ENDBRANCH   1  13
TORSDOF 1
ENDMDL
MODEL 5
REMARK VINA RESULT:    -4.773      1.579      3.581
REMARK INTER + INTRA:          -5.363
REMARK INTER:                  -5.187
REMARK INTRA:                  -0.176
REMARK UNBOUND:                -0.312
REMARK SMILES C=C(C)[C@H]1CC[C@@]2(C)CCCC(=C)[C@@H]2C1
REMARK SMILES IDX 4 1 5 2 6 3 7 4 9 5 10 6 11 7 12 8 13 9 14 10 15 11 8 12
REMARK SMILES IDX 2 13 3 14 1 15
REMARK H PARENT
REMARK Flexibility Score: inf
ROOT
ATOM      1  C   UNL     1       0.093  13.058  15.132  1.00  0.00     0.015 C 
ATOM      2  C   UNL     1       0.319  12.760  16.633  1.00  0.00     0.008 C 
ATOM      3  C   UNL     1       1.265  13.761  17.316  1.00  0.00     0.008 C 
ATOM      4  C   UNL     1       0.832  15.239  17.124  1.00  0.00    -0.026 C 
ATOM      5  C   UNL     1       1.938  16.159  17.729  1.00  0.00     0.008 C 
ATOM      6  C   UNL     1       1.696  17.659  17.460  1.00  0.00     0.005 C 
ATOM      7  C   UNL     1       1.481  17.960  15.970  1.00  0.00     0.031 C 
ATOM      8  C   UNL     1       0.461  17.016  15.375  1.00  0.00    -0.074 C 
ATOM      9  C   UNL     1      -0.592  17.498  14.692  1.00  0.00     0.008 C 
ATOM     10  C   UNL     1       0.726  15.531  15.600  1.00  0.00     0.021 C 
ATOM     11  C   UNL     1      -0.232  14.553  14.874  1.00  0.00     0.016 C 
ATOM     12  C   UNL     1      -0.510  15.499  17.867  1.00  0.00     0.012 C 
ENDROOT
BRANCH   1  13
ATOM     13  C   UNL     1       1.204  12.458  14.262  1.00  0.00    -0.077 C 
ATOM     14  C   UNL     1       2.435  13.232  13.851  1.00  0.00     0.039 C 
ATOM     15  C   UNL     1       1.112  11.164  13.905  1.00  0.00     0.008 C 
ENDBRANCH   1  13
TORSDOF 1
ENDMDL
MODEL 6
REMARK VINA RESULT:    -4.694      1.313      4.927
REMARK INTER + INTRA:          -5.280
REMARK INTER:                  -4.986
REMARK INTRA:                  -0.294
REMARK UNBOUND:                -0.312
REMARK SMILES C=C(C)[C@H]1CC[C@@]2(C)CCCC(=C)[C@@H]2C1
REMARK SMILES IDX 4 1 5 2 6 3 7 4 9 5 10 6 11 7 12 8 13 9 14 10 15 11 8 12
REMARK SMILES IDX 2 13 3 14 1 15
REMARK H PARENT
REMARK Flexibility Score: inf
ROOT
ATOM      1  C   UNL     1       0.683  16.765  15.826  1.00  0.00     0.015 C 
ATOM      2  C   UNL     1      -0.305  15.977  16.717  1.00  0.00     0.008 C 
ATOM      3  C   UNL     1      -0.794  14.669  16.073  1.00  0.00     0.008 C 
ATOM      4  C   UNL     1       0.366  13.745  15.612  1.00  0.00    -0.026 C 
ATOM      5  C   UNL     1      -0.246  12.530  14.848  1.00  0.00     0.008 C 
ATOM      6  C   UNL     1       0.819  11.617  14.204  1.00  0.00     0.005 C 
ATOM      7  C   UNL     1       1.795  12.396  13.311  1.00  0.00     0.031 C 
ATOM      8  C   UNL     1       2.327  13.613  14.034  1.00  0.00    -0.074 C 
ATOM      9  C   UNL     1       3.652  13.828  14.115  1.00  0.00     0.008 C 
ATOM     10  C   UNL     1       1.274  14.540  14.630  1.00  0.00     0.021 C 
ATOM     11  C   UNL     1       1.801  15.860  15.247  1.00  0.00     0.016 C 
ATOM     12  C   UNL     1       1.153  13.225  16.849  1.00  0.00     0.012 C 
ENDROOT
BRANCH   1  13
ATOM     13  C   UNL     1      -0.051  17.650  14.812  1.00  0.00    -0.077 C 
ATOM     14  C   UNL     1       0.328  17.714  13.351  1.00  0.00     0.039 C 
ATOM     15  C   UNL     1      -1.125  18.348  15.226  1.00  0.00     0.008 C 
ENDBRANCH   1  13
TORSDOF 1
ENDMDL
MODEL 7
REMARK VINA RESULT:    -4.665      1.282      4.474
REMARK INTER + INTRA:          -5.250
REMARK INTER:                  -4.971
REMARK INTRA:                  -0.279
REMARK UNBOUND:                -0.312
REMARK SMILES C=C(C)[C@H]1CC[C@@]2(C)CCCC(=C)[C@@H]2C1
REMARK SMILES IDX 4 1 5 2 6 3 7 4 9 5 10 6 11 7 12 8 13 9 14 10 15 11 8 12
REMARK SMILES IDX 2 13 3 14 1 15
REMARK H PARENT
REMARK Flexibility Score: inf
ROOT
ATOM      1  C   UNL     1       0.708  16.743  15.712  1.00  0.00     0.015 C 
ATOM      2  C   UNL     1       0.677  17.689  14.490  1.00  0.00     0.008 C 
ATOM      3  C   UNL     1       1.879  17.507  13.549  1.00  0.00     0.008 C 
ATOM      4  C   UNL     1       2.073  16.039  13.084  1.00  0.00    -0.026 C 
ATOM      5  C   UNL     1       3.397  15.953  12.262  1.00  0.00     0.008 C 
ATOM      6  C   UNL     1       3.781  14.509  11.875  1.00  0.00     0.005 C 
ATOM      7  C   UNL     1       3.822  13.569  13.088  1.00  0.00     0.031 C 
ATOM      8  C   UNL     1       2.567  13.712  13.919  1.00  0.00    -0.074 C 
ATOM      9  C   UNL     1       1.845  12.627  14.248  1.00  0.00     0.008 C 
ATOM     10  C   UNL     1       2.214  15.134  14.341  1.00  0.00     0.021 C 
ATOM     11  C   UNL     1       1.013  15.275  15.311  1.00  0.00     0.016 C 
ATOM     12  C   UNL     1       0.883  15.607  12.180  1.00  0.00     0.012 C 
ENDROOT
BRANCH   1  13
ATOM     13  C   UNL     1       1.564  17.314  16.849  1.00  0.00    -0.077 C 
ATOM     14  C   UNL     1       2.009  18.757  16.898  1.00  0.00     0.039 C 
ATOM     15  C   UNL     1       1.876  16.513  17.884  1.00  0.00     0.008 C 
ENDBRANCH   1  13
TORSDOF 1
ENDMDL
MODEL 8
REMARK VINA RESULT:    -4.476      2.389      4.144
REMARK INTER + INTRA:          -5.050
REMARK INTER:                  -4.738
REMARK INTRA:                  -0.312
REMARK UNBOUND:                -0.312
REMARK SMILES C=C(C)[C@H]1CC[C@@]2(C)CCCC(=C)[C@@H]2C1
REMARK SMILES IDX 4 1 5 2 6 3 7 4 9 5 10 6 11 7 12 8 13 9 14 10 15 11 8 12
REMARK SMILES IDX 2 13 3 14 1 15
REMARK H PARENT
REMARK Flexibility Score: inf
ROOT
ATOM      1  C   UNL     1       1.681  14.112  13.470  1.00  0.00     0.015 C 
ATOM      2  C   UNL     1       0.463  13.160  13.498  1.00  0.00     0.008 C 
ATOM      3  C   UNL     1       0.340  12.369  14.810  1.00  0.00     0.008 C 
ATOM      4  C   UNL     1       0.340  13.274  16.071  1.00  0.00    -0.026 C 
ATOM      5  C   UNL     1       0.360  12.359  17.335  1.00  0.00     0.008 C 
ATOM      6  C   UNL     1       0.520  13.146  18.653  1.00  0.00     0.005 C 
ATOM      7  C   UNL     1       1.734  14.085  18.632  1.00  0.00     0.031 C 
ATOM      8  C   UNL     1       1.746  14.915  17.369  1.00  0.00    -0.074 C 
ATOM      9  C   UNL     1       1.857  16.254  17.439  1.00  0.00     0.008 C 
ATOM     10  C   UNL     1       1.636  14.135  16.064  1.00  0.00     0.021 C 
ATOM     11  C   UNL     1       1.792  14.962  14.763  1.00  0.00     0.016 C 
ATOM     12  C   UNL     1      -0.945  14.149  16.096  1.00  0.00     0.012 C 
ENDROOT
BRANCH   1  13
ATOM     13  C   UNL     1       2.960  13.383  13.040  1.00  0.00    -0.077 C 
ATOM     14  C   UNL     1       2.950  12.157  12.157  1.00  0.00     0.039 C 
ATOM     15  C   UNL     1       4.147  13.897  13.408  1.00  0.00     0.008 C 
ENDBRANCH   1  13
TORSDOF 1
ENDMDL
MODEL 9
REMARK VINA RESULT:    -4.452      2.174      4.930
REMARK INTER + INTRA:          -5.024
REMARK INTER:                  -4.879
REMARK INTRA:                  -0.144
REMARK UNBOUND:                -0.312
REMARK SMILES C=C(C)[C@H]1CC[C@@]2(C)CCCC(=C)[C@@H]2C1
REMARK SMILES IDX 4 1 5 2 6 3 7 4 9 5 10 6 11 7 12 8 13 9 14 10 15 11 8 12
REMARK SMILES IDX 2 13 3 14 1 15
REMARK H PARENT
REMARK Flexibility Score: inf
ROOT
ATOM      1  C   UNL     1      -0.864  13.788  17.784  1.00  0.00     0.015 C 
ATOM      2  C   UNL     1      -0.035  15.090  17.696  1.00  0.00     0.008 C 
ATOM      3  C   UNL     1       1.311  14.906  16.977  1.00  0.00     0.008 C 
ATOM      4  C   UNL     1       1.169  14.267  15.569  1.00  0.00    -0.026 C 
ATOM      5  C   UNL     1       2.597  13.997  15.004  1.00  0.00     0.008 C 
ATOM      6  C   UNL     1       2.587  13.217  13.671  1.00  0.00     0.005 C 
ATOM      7  C   UNL     1       1.773  11.919  13.758  1.00  0.00     0.031 C 
ATOM      8  C   UNL     1       0.417  12.179  14.375  1.00  0.00    -0.074 C 
ATOM      9  C   UNL     1      -0.701  11.768  13.750  1.00  0.00     0.008 C 
ATOM     10  C   UNL     1       0.429  12.906  15.714  1.00  0.00     0.021 C 
ATOM     11  C   UNL     1      -0.942  13.049  16.422  1.00  0.00     0.016 C 
ATOM     12  C   UNL     1       0.420  15.243  14.617  1.00  0.00     0.012 C 
ENDROOT
BRANCH   1  13
ATOM     13  C   UNL     1      -0.447  12.931  18.984  1.00  0.00    -0.077 C 
ATOM     14  C   UNL     1       0.739  11.996  18.954  1.00  0.00     0.039 C 
ATOM     15  C   UNL     1      -1.125  13.067  20.138  1.00  0.00     0.008 C 
ENDBRANCH   1  13
TORSDOF 1
ENDMDL
