MODEL 1
REMARK VINA RESULT:    -4.991      0.000      0.000
REMARK INTER + INTRA:          -8.987
REMARK INTER:                  -7.325
REMARK INTRA:                  -1.662
REMARK UNBOUND:                -1.662
REMARK SMILES O=c1c(O[C@H]2O[C@@H](CO)[C@@H](O)[C@H](O)[C@@H]2O)c(-c2ccc(O)c(O)c2)oc2cc(O)cc(O)c12
REMARK SMILES IDX 4 1 3 2 16 3 25 4 2 5 26 6 1 7 33 8 27 9 31 10 28 11 30 12
REMARK SMILES IDX 17 13 18 14 19 15 20 16 24 17 22 18 21 19 23 21 32 23 29 25
REMARK SMILES IDX 5 27 14 28 6 29 12 30 7 31 10 32 15 33 13 35 8 37 9 38 11 40
REMARK H PARENT 21 20 23 22 32 24 29 26 15 34 13 36 9 39 11 41
REMARK Flexibility Score: inf
ROOT
ATOM      1  O   UNL     1      -9.829  -5.707   6.014  1.00  0.00    -0.454 OA
ENDROOT
BRANCH   1   2
ATOM      2  C   UNL     1      -9.258  -4.652   6.742  1.00  0.00     0.214 A 
ATOM      3  C   UNL     1      -8.500  -4.881   7.908  1.00  0.00     0.180 A 
ATOM      4  O   UNL     1      -8.031  -3.846   8.597  1.00  0.00    -0.452 OA
ATOM      5  C   UNL     1      -9.433  -3.337   6.293  1.00  0.00     0.239 A 
ATOM      6  C   UNL     1      -8.221  -2.582   8.241  1.00  0.00     0.146 A 
ATOM      7  O   UNL     1      -9.998  -3.154   5.183  1.00  0.00    -0.285 OA
ATOM      8  C   UNL     1      -8.959  -2.255   7.072  1.00  0.00     0.111 A 
ATOM      9  C   UNL     1      -7.662  -1.575   9.034  1.00  0.00     0.094 A 
ATOM     10  C   UNL     1      -9.153  -0.877   6.753  1.00  0.00     0.134 A 
ATOM     11  C   UNL     1      -7.817  -0.234   8.684  1.00  0.00     0.123 A 
ATOM     12  C   UNL     1      -8.552   0.106   7.548  1.00  0.00     0.093 A 
BRANCH   3  13
ATOM     13  C   UNL     1      -8.184  -6.241   8.402  1.00  0.00     0.025 A 
ATOM     14  C   UNL     1      -9.152  -7.033   9.042  1.00  0.00     0.016 A 
ATOM     15  C   UNL     1      -8.828  -8.312   9.503  1.00  0.00     0.051 A 
ATOM     16  C   UNL     1      -7.541  -8.826   9.314  1.00  0.00     0.157 A 
ATOM     17  C   UNL     1      -6.900  -6.769   8.195  1.00  0.00     0.062 A 
ATOM     18  C   UNL     1      -6.573  -8.053   8.651  1.00  0.00     0.158 A 
BRANCH  16  19
ATOM     19  O   UNL     1      -7.246 -10.105   9.786  1.00  0.00    -0.504 OA
ATOM     20  H   UNL     1      -7.060 -10.287  10.764  1.00  0.00     0.293 HD
ENDBRANCH  16  19
BRANCH  18  21
ATOM     21  O   UNL     1      -5.293  -8.565   8.450  1.00  0.00    -0.504 OA
ATOM     22  H   UNL     1      -4.510  -7.962   8.228  1.00  0.00     0.293 HD
ENDBRANCH  18  21
ENDBRANCH   3  13
BRANCH  10  23
ATOM     23  O   UNL     1      -9.945  -0.422   5.693  1.00  0.00    -0.507 OA
ATOM     24  H   UNL     1     -10.873  -0.754   5.482  1.00  0.00     0.293 HD
ENDBRANCH  10  23
BRANCH  11  25
ATOM     25  O   UNL     1      -7.255   0.773   9.466  1.00  0.00    -0.508 OA
ATOM     26  H   UNL     1      -6.520   0.575  10.136  1.00  0.00     0.293 HD
ENDBRANCH  11  25
ENDBRANCH   1   2
BRANCH   1  27
ATOM     27  C   UNL     1      -9.187  -6.341   4.903  1.00  0.00     0.339 C 
ATOM     28  C   UNL     1     -10.125  -6.387   3.671  1.00  0.00     0.214 C 
ATOM     29  O   UNL     1      -8.793  -7.654   5.250  1.00  0.00    -0.332 OA
ATOM     30  C   UNL     1      -9.760  -7.565   2.730  1.00  0.00     0.180 C 
ATOM     31  C   UNL     1      -7.854  -8.177   4.317  1.00  0.00     0.179 C 
ATOM     32  C   UNL     1      -8.258  -7.890   2.825  1.00  0.00     0.177 C 
BRANCH  28  33
ATOM     33  O   UNL     1     -10.111  -5.151   2.998  1.00  0.00    -0.384 OA
ATOM     34  H   UNL     1      -9.262  -5.094   2.488  1.00  0.00     0.211 HD
ENDBRANCH  28  33
BRANCH  30  35
ATOM     35  O   UNL     1     -10.115  -7.256   1.406  1.00  0.00    -0.387 OA
ATOM     36  H   UNL     1     -10.996  -6.798   1.439  1.00  0.00     0.211 HD
ENDBRANCH  30  35
BRANCH  31  37
ATOM     37  C   UNL     1      -7.696  -9.676   4.624  1.00  0.00     0.191 C 
BRANCH  37  38
ATOM     38  O   UNL     1      -6.422 -10.123   4.247  1.00  0.00    -0.394 OA
ATOM     39  H   UNL     1      -6.305 -11.014   4.669  1.00  0.00     0.210 HD
ENDBRANCH  37  38
ENDBRANCH  31  37
BRANCH  32  40
ATOM     40  O   UNL     1      -7.957  -8.968   1.975  1.00  0.00    -0.387 OA
ATOM     41  H   UNL     1      -8.040  -9.795   2.518  1.00  0.00     0.211 HD
ENDBRANCH  32  40
ENDBRANCH   1  27
TORSDOF 12
ENDMDL
MODEL 2
REMARK VINA RESULT:    -4.961      3.439      7.640
REMARK INTER + INTRA:          -8.943
REMARK INTER:                  -7.362
REMARK INTRA:                  -1.581
REMARK UNBOUND:                -1.662
REMARK SMILES O=c1c(O[C@H]2O[C@@H](CO)[C@@H](O)[C@H](O)[C@@H]2O)c(-c2ccc(O)c(O)c2)oc2cc(O)cc(O)c12
REMARK SMILES IDX 4 1 3 2 16 3 25 4 2 5 26 6 1 7 33 8 27 9 31 10 28 11 30 12
REMARK SMILES IDX 17 13 18 14 19 15 20 16 24 17 22 18 21 19 23 21 32 23 29 25
REMARK SMILES IDX 5 27 14 28 6 29 12 30 7 31 10 32 15 33 13 35 8 37 9 38 11 40
REMARK H PARENT 21 20 23 22 32 24 29 26 15 34 13 36 9 39 11 41
REMARK Flexibility Score: inf
ROOT
ATOM      1  O   UNL     1      -5.817  -9.826   5.723  1.00  0.00    -0.454 OA
ENDROOT
BRANCH   1   2
ATOM      2  C   UNL     1      -6.629  -9.385   4.669  1.00  0.00     0.214 A 
ATOM      3  C   UNL     1      -7.867  -8.753   4.901  1.00  0.00     0.180 A 
ATOM      4  O   UNL     1      -8.629  -8.407   3.870  1.00  0.00    -0.452 OA
ATOM      5  C   UNL     1      -6.196  -9.562   3.349  1.00  0.00     0.239 A 
ATOM      6  C   UNL     1      -8.285  -8.608   2.604  1.00  0.00     0.146 A 
ATOM      7  O   UNL     1      -5.033 -10.007   3.156  1.00  0.00    -0.285 OA
ATOM      8  C   UNL     1      -7.049  -9.224   2.273  1.00  0.00     0.111 A 
ATOM      9  C   UNL     1      -9.160  -8.183   1.599  1.00  0.00     0.094 A 
ATOM     10  C   UNL     1      -6.743  -9.438   0.894  1.00  0.00     0.134 A 
ATOM     11  C   UNL     1      -8.828  -8.355   0.256  1.00  0.00     0.123 A 
ATOM     12  C   UNL     1      -7.624  -8.971  -0.088  1.00  0.00     0.093 A 
BRANCH   3  13
ATOM     13  C   UNL     1      -8.361  -8.437   6.262  1.00  0.00     0.025 A 
ATOM     14  C   UNL     1      -8.820  -9.444   7.128  1.00  0.00     0.016 A 
ATOM     15  C   UNL     1      -9.285  -9.120   8.406  1.00  0.00     0.051 A 
ATOM     16  C   UNL     1      -9.278  -7.793   8.845  1.00  0.00     0.157 A 
ATOM     17  C   UNL     1      -8.335  -7.108   6.714  1.00  0.00     0.062 A 
ATOM     18  C   UNL     1      -8.795  -6.781   7.997  1.00  0.00     0.158 A 
BRANCH  16  19
ATOM     19  O   UNL     1      -9.749  -7.499  10.125  1.00  0.00    -0.504 OA
ATOM     20  H   UNL     1      -9.125  -7.379  10.912  1.00  0.00     0.293 HD
ENDBRANCH  16  19
BRANCH  18  21
ATOM     21  O   UNL     1      -8.775  -5.458   8.433  1.00  0.00    -0.504 OA
ATOM     22  H   UNL     1      -8.799  -5.224   9.418  1.00  0.00     0.293 HD
ENDBRANCH  18  21
ENDBRANCH   3  13
BRANCH  10  23
ATOM     23  O   UNL     1      -5.613 -10.125   0.440  1.00  0.00    -0.507 OA
ATOM     24  H   UNL     1      -4.690  -9.727   0.355  1.00  0.00     0.293 HD
ENDBRANCH  10  23
BRANCH  11  25
ATOM     25  O   UNL     1      -9.692  -7.926  -0.749  1.00  0.00    -0.508 OA
ATOM     26  H   UNL     1      -9.351  -7.672  -1.669  1.00  0.00     0.293 HD
ENDBRANCH  11  25
ENDBRANCH   1   2
BRANCH   1  27
ATOM     27  C   UNL     1      -4.905  -8.978   6.430  1.00  0.00     0.339 C 
ATOM     28  C   UNL     1      -3.501  -9.626   6.524  1.00  0.00     0.214 C 
ATOM     29  O   UNL     1      -5.393  -8.710   7.729  1.00  0.00    -0.332 OA
ATOM     30  C   UNL     1      -2.721  -9.102   7.758  1.00  0.00     0.180 C 
ATOM     31  C   UNL     1      -4.715  -7.607   8.321  1.00  0.00     0.179 C 
ATOM     32  C   UNL     1      -3.158  -7.668   8.107  1.00  0.00     0.177 C 
BRANCH  28  33
ATOM     33  O   UNL     1      -2.788  -9.427   5.326  1.00  0.00    -0.384 OA
ATOM     34  H   UNL     1      -1.837  -9.277   5.562  1.00  0.00     0.211 HD
ENDBRANCH  28  33
BRANCH  30  35
ATOM     35  O   UNL     1      -1.338  -9.151   7.514  1.00  0.00    -0.387 OA
ATOM     36  H   UNL     1      -0.882  -8.975   8.378  1.00  0.00     0.211 HD
ENDBRANCH  30  35
BRANCH  31  37
ATOM     37  C   UNL     1      -5.121  -7.567   9.804  1.00  0.00     0.191 C 
BRANCH  37  38
ATOM     38  O   UNL     1      -5.992  -8.623  10.103  1.00  0.00    -0.394 OA
ATOM     39  H   UNL     1      -6.846  -8.205  10.390  1.00  0.00     0.210 HD
ENDBRANCH  37  38
ENDBRANCH  31  37
BRANCH  32  40
ATOM     40  O   UNL     1      -2.448  -7.223   9.235  1.00  0.00    -0.387 OA
ATOM     41  H   UNL     1      -2.683  -7.834   9.982  1.00  0.00     0.211 HD
ENDBRANCH  32  40
ENDBRANCH   1  27
TORSDOF 12
ENDMDL
MODEL 3
REMARK VINA RESULT:    -4.731      3.303      7.070
REMARK INTER + INTRA:          -8.605
REMARK INTER:                  -6.959
REMARK INTRA:                  -1.646
REMARK UNBOUND:                -1.662
REMARK SMILES O=c1c(O[C@H]2O[C@@H](CO)[C@@H](O)[C@H](O)[C@@H]2O)c(-c2ccc(O)c(O)c2)oc2cc(O)cc(O)c12
REMARK SMILES IDX 4 1 3 2 16 3 25 4 2 5 26 6 1 7 33 8 27 9 31 10 28 11 30 12
REMARK SMILES IDX 17 13 18 14 19 15 20 16 24 17 22 18 21 19 23 21 32 23 29 25
REMARK SMILES IDX 5 27 14 28 6 29 12 30 7 31 10 32 15 33 13 35 8 37 9 38 11 40
REMARK H PARENT 21 20 23 22 32 24 29 26 15 34 13 36 9 39 11 41
REMARK Flexibility Score: inf
ROOT
ATOM      1  O   UNL     1      -5.901  -5.459   9.703  1.00  0.00    -0.454 OA
ENDROOT
BRANCH   1   2
ATOM      2  C   UNL     1      -4.808  -6.274   9.375  1.00  0.00     0.214 A 
ATOM      3  C   UNL     1      -4.969  -7.639   9.063  1.00  0.00     0.180 A 
ATOM      4  O   UNL     1      -3.898  -8.385   8.818  1.00  0.00    -0.452 OA
ATOM      5  C   UNL     1      -3.523  -5.719   9.343  1.00  0.00     0.239 A 
ATOM      6  C   UNL     1      -2.657  -7.914   8.833  1.00  0.00     0.146 A 
ATOM      7  O   UNL     1      -3.406  -4.474   9.495  1.00  0.00    -0.285 OA
ATOM      8  C   UNL     1      -2.399  -6.548   9.123  1.00  0.00     0.111 A 
ATOM      9  C   UNL     1      -1.607  -8.790   8.540  1.00  0.00     0.094 A 
ATOM     10  C   UNL     1      -1.042  -6.104   9.150  1.00  0.00     0.134 A 
ATOM     11  C   UNL     1      -0.290  -8.332   8.523  1.00  0.00     0.123 A 
ATOM     12  C   UNL     1      -0.016  -6.997   8.819  1.00  0.00     0.093 A 
BRANCH   3  13
ATOM     13  C   UNL     1      -6.298  -8.289   8.978  1.00  0.00     0.025 A 
ATOM     14  C   UNL     1      -6.956  -8.766  10.124  1.00  0.00     0.016 A 
ATOM     15  C   UNL     1      -8.208  -9.379  10.018  1.00  0.00     0.051 A 
ATOM     16  C   UNL     1      -8.829  -9.505   8.772  1.00  0.00     0.157 A 
ATOM     17  C   UNL     1      -6.934  -8.397   7.732  1.00  0.00     0.062 A 
ATOM     18  C   UNL     1      -8.192  -9.006   7.623  1.00  0.00     0.158 A 
BRANCH  16  19
ATOM     19  O   UNL     1     -10.078 -10.122   8.696  1.00  0.00    -0.504 OA
ATOM     20  H   UNL     1     -10.529 -10.522   9.509  1.00  0.00     0.293 HD
ENDBRANCH  16  19
BRANCH  18  21
ATOM     21  O   UNL     1      -8.812  -9.119   6.380  1.00  0.00    -0.504 OA
ATOM     22  H   UNL     1      -9.419  -9.898   6.158  1.00  0.00     0.293 HD
ENDBRANCH  18  21
ENDBRANCH   3  13
BRANCH  10  23
ATOM     23  O   UNL     1      -0.648  -4.814   9.523  1.00  0.00    -0.507 OA
ATOM     24  H   UNL     1       0.245  -4.398   9.307  1.00  0.00     0.293 HD
ENDBRANCH  10  23
BRANCH  11  25
ATOM     25  O   UNL     1       0.758  -9.199   8.223  1.00  0.00    -0.508 OA
ATOM     26  H   UNL     1       0.842  -9.634   7.311  1.00  0.00     0.293 HD
ENDBRANCH  11  25
ENDBRANCH   1   2
BRANCH   1  27
ATOM     27  C   UNL     1      -6.613  -4.667   8.747  1.00  0.00     0.339 C 
ATOM     28  C   UNL     1      -6.704  -3.190   9.205  1.00  0.00     0.214 C 
ATOM     29  O   UNL     1      -7.915  -5.186   8.555  1.00  0.00    -0.332 OA
ATOM     30  C   UNL     1      -7.942  -2.485   8.591  1.00  0.00     0.180 C 
ATOM     31  C   UNL     1      -8.514  -4.659   7.377  1.00  0.00     0.179 C 
ATOM     32  C   UNL     1      -8.301  -3.108   7.230  1.00  0.00     0.177 C 
BRANCH  28  33
ATOM     33  O   UNL     1      -5.508  -2.510   8.905  1.00  0.00    -0.384 OA
ATOM     34  H   UNL     1      -5.448  -2.425   7.918  1.00  0.00     0.211 HD
ENDBRANCH  28  33
BRANCH  30  35
ATOM     35  O   UNL     1      -7.698  -1.108   8.455  1.00  0.00    -0.387 OA
ATOM     36  H   UNL     1      -8.574  -0.647   8.538  1.00  0.00     0.211 HD
ENDBRANCH  30  35
BRANCH  31  37
ATOM     37  C   UNL     1      -9.997  -5.067   7.401  1.00  0.00     0.191 C 
BRANCH  37  38
ATOM     38  O   UNL     1     -10.122  -6.463   7.418  1.00  0.00    -0.394 OA
ATOM     39  H   UNL     1     -10.501  -6.717   6.536  1.00  0.00     0.210 HD
ENDBRANCH  37  38
ENDBRANCH  31  37
BRANCH  32  40
ATOM     40  O   UNL     1      -9.432  -2.462   6.703  1.00  0.00    -0.387 OA
ATOM     41  H   UNL     1      -9.455  -1.552   7.101  1.00  0.00     0.211 HD
ENDBRANCH  32  40
ENDBRANCH   1  27
TORSDOF 12
ENDMDL
MODEL 4
REMARK VINA RESULT:    -4.710     14.520     18.672
REMARK INTER + INTRA:          -8.574
REMARK INTER:                  -6.995
REMARK INTRA:                  -1.579
REMARK UNBOUND:                -1.662
REMARK SMILES O=c1c(O[C@H]2O[C@@H](CO)[C@@H](O)[C@H](O)[C@@H]2O)c(-c2ccc(O)c(O)c2)oc2cc(O)cc(O)c12
REMARK SMILES IDX 4 1 3 2 16 3 25 4 2 5 26 6 1 7 33 8 27 9 31 10 28 11 30 12
REMARK SMILES IDX 17 13 18 14 19 15 20 16 24 17 22 18 21 19 23 21 32 23 29 25
REMARK SMILES IDX 5 27 14 28 6 29 12 30 7 31 10 32 15 33 13 35 8 37 9 38 11 40
REMARK H PARENT 21 20 23 22 32 24 29 26 15 34 13 36 9 39 11 41
REMARK Flexibility Score: inf
ROOT
ATOM      1  O   UNL     1     -10.062   5.224  -5.858  1.00  0.00    -0.454 OA
ENDROOT
BRANCH   1   2
ATOM      2  C   UNL     1      -9.551   4.265  -6.745  1.00  0.00     0.214 A 
ATOM      3  C   UNL     1      -9.079   4.617  -8.025  1.00  0.00     0.180 A 
ATOM      4  O   UNL     1      -8.661   3.666  -8.853  1.00  0.00    -0.452 OA
ATOM      5  C   UNL     1      -9.494   2.924  -6.346  1.00  0.00     0.239 A 
ATOM      6  C   UNL     1      -8.642   2.377  -8.538  1.00  0.00     0.146 A 
ATOM      7  O   UNL     1      -9.795   2.641  -5.156  1.00  0.00    -0.285 OA
ATOM      8  C   UNL     1      -9.085   1.929  -7.265  1.00  0.00     0.111 A 
ATOM      9  C   UNL     1      -8.160   1.466  -9.484  1.00  0.00     0.094 A 
ATOM     10  C   UNL     1      -9.066   0.528  -6.992  1.00  0.00     0.134 A 
ATOM     11  C   UNL     1      -8.103   0.105  -9.187  1.00  0.00     0.123 A 
ATOM     12  C   UNL     1      -8.547  -0.354  -7.947  1.00  0.00     0.093 A 
BRANCH   3  13
ATOM     13  C   UNL     1      -9.013   6.020  -8.496  1.00  0.00     0.025 A 
ATOM     14  C   UNL     1     -10.123   6.652  -9.082  1.00  0.00     0.016 A 
ATOM     15  C   UNL     1     -10.034   7.976  -9.521  1.00  0.00     0.051 A 
ATOM     16  C   UNL     1      -8.844   8.694  -9.362  1.00  0.00     0.157 A 
ATOM     17  C   UNL     1      -7.827   6.751  -8.319  1.00  0.00     0.062 A 
ATOM     18  C   UNL     1      -7.737   8.081  -8.753  1.00  0.00     0.158 A 
BRANCH  16  19
ATOM     19  O   UNL     1      -8.784  10.013  -9.811  1.00  0.00    -0.504 OA
ATOM     20  H   UNL     1      -8.069  10.330 -10.453  1.00  0.00     0.293 HD
ENDBRANCH  16  19
BRANCH  18  21
ATOM     21  O   UNL     1      -6.552   8.795  -8.582  1.00  0.00    -0.504 OA
ATOM     22  H   UNL     1      -6.543   9.712  -8.151  1.00  0.00     0.293 HD
ENDBRANCH  18  21
ENDBRANCH   3  13
BRANCH  10  23
ATOM     23  O   UNL     1      -9.571  -0.049  -5.822  1.00  0.00    -0.507 OA
ATOM     24  H   UNL     1      -9.837  -1.016  -5.722  1.00  0.00     0.293 HD
ENDBRANCH  10  23
BRANCH  11  25
ATOM     25  O   UNL     1      -7.616  -0.805 -10.123  1.00  0.00    -0.508 OA
ATOM     26  H   UNL     1      -7.616  -0.596 -11.115  1.00  0.00     0.293 HD
ENDBRANCH  11  25
ENDBRANCH   1   2
BRANCH   1  27
ATOM     27  C   UNL     1      -9.306   5.793  -4.785  1.00  0.00     0.339 C 
ATOM     28  C   UNL     1     -10.125   5.800  -3.470  1.00  0.00     0.214 C 
ATOM     29  O   UNL     1      -8.915   7.113  -5.108  1.00  0.00    -0.332 OA
ATOM     30  C   UNL     1      -9.647   6.926  -2.515  1.00  0.00     0.180 C 
ATOM     31  C   UNL     1      -7.882   7.574  -4.244  1.00  0.00     0.179 C 
ATOM     32  C   UNL     1      -8.153   7.226  -2.735  1.00  0.00     0.177 C 
BRANCH  28  33
ATOM     33  O   UNL     1     -10.077   4.533  -2.857  1.00  0.00    -0.384 OA
ATOM     34  H   UNL     1      -9.123   4.297  -2.725  1.00  0.00     0.211 HD
ENDBRANCH  28  33
BRANCH  30  35
ATOM     35  O   UNL     1      -9.885   6.561  -1.179  1.00  0.00    -0.387 OA
ATOM     36  H   UNL     1     -10.137   5.601  -1.179  1.00  0.00     0.211 HD
ENDBRANCH  30  35
BRANCH  31  37
ATOM     37  C   UNL     1      -7.718   9.082  -4.498  1.00  0.00     0.191 C 
BRANCH  37  38
ATOM     38  O   UNL     1      -7.978   9.386  -5.841  1.00  0.00    -0.394 OA
ATOM     39  H   UNL     1      -8.224   8.528  -6.276  1.00  0.00     0.210 HD
ENDBRANCH  37  38
ENDBRANCH  31  37
BRANCH  32  40
ATOM     40  O   UNL     1      -7.750   8.256  -1.869  1.00  0.00    -0.387 OA
ATOM     41  H   UNL     1      -8.462   8.948  -1.895  1.00  0.00     0.211 HD
ENDBRANCH  32  40
ENDBRANCH   1  27
TORSDOF 12
ENDMDL
MODEL 5
REMARK VINA RESULT:    -4.642     15.536     19.367
REMARK INTER + INTRA:          -8.474
REMARK INTER:                  -6.888
REMARK INTRA:                  -1.586
REMARK UNBOUND:                -1.662
REMARK SMILES O=c1c(O[C@H]2O[C@@H](CO)[C@@H](O)[C@H](O)[C@@H]2O)c(-c2ccc(O)c(O)c2)oc2cc(O)cc(O)c12
REMARK SMILES IDX 4 1 3 2 16 3 25 4 2 5 26 6 1 7 33 8 27 9 31 10 28 11 30 12
REMARK SMILES IDX 17 13 18 14 19 15 20 16 24 17 22 18 21 19 23 21 32 23 29 25
REMARK SMILES IDX 5 27 14 28 6 29 12 30 7 31 10 32 15 33 13 35 8 37 9 38 11 40
REMARK H PARENT 21 20 23 22 32 24 29 26 15 34 13 36 9 39 11 41
REMARK Flexibility Score: inf
ROOT
ATOM      1  O   UNL     1       5.796   5.671  10.118  1.00  0.00    -0.454 OA
ENDROOT
BRANCH   1   2
ATOM      2  C   UNL     1       4.734   6.444   9.625  1.00  0.00     0.214 A 
ATOM      3  C   UNL     1       4.941   7.731   9.089  1.00  0.00     0.180 A 
ATOM      4  O   UNL     1       3.897   8.449   8.692  1.00  0.00    -0.452 OA
ATOM      5  C   UNL     1       3.435   5.921   9.653  1.00  0.00     0.239 A 
ATOM      6  C   UNL     1       2.644   8.017   8.752  1.00  0.00     0.146 A 
ATOM      7  O   UNL     1       3.280   4.723  10.011  1.00  0.00    -0.285 OA
ATOM      8  C   UNL     1       2.340   6.727   9.263  1.00  0.00     0.111 A 
ATOM      9  C   UNL     1       1.626   8.854   8.285  1.00  0.00     0.094 A 
ATOM     10  C   UNL     1       0.971   6.326   9.328  1.00  0.00     0.134 A 
ATOM     11  C   UNL     1       0.297   8.431   8.309  1.00  0.00     0.123 A 
ATOM     12  C   UNL     1      -0.021   7.173   8.822  1.00  0.00     0.093 A 
BRANCH   3  13
ATOM     13  C   UNL     1       6.289   8.325   8.932  1.00  0.00     0.025 A 
ATOM     14  C   UNL     1       6.906   9.032   9.978  1.00  0.00     0.016 A 
ATOM     15  C   UNL     1       8.177   9.586   9.804  1.00  0.00     0.051 A 
ATOM     16  C   UNL     1       8.858   9.425   8.594  1.00  0.00     0.157 A 
ATOM     17  C   UNL     1       6.984   8.147   7.726  1.00  0.00     0.062 A 
ATOM     18  C   UNL     1       8.262   8.697   7.550  1.00  0.00     0.158 A 
BRANCH  16  19
ATOM     19  O   UNL     1      10.125   9.991   8.448  1.00  0.00    -0.504 OA
ATOM     20  H   UNL     1      10.966   9.506   8.734  1.00  0.00     0.293 HD
ENDBRANCH  16  19
BRANCH  18  21
ATOM     21  O   UNL     1       8.940   8.524   6.346  1.00  0.00    -0.504 OA
ATOM     22  H   UNL     1       9.789   9.036   6.137  1.00  0.00     0.293 HD
ENDBRANCH  18  21
ENDBRANCH   3  13
BRANCH  10  23
ATOM     23  O   UNL     1       0.533   5.129   9.904  1.00  0.00    -0.507 OA
ATOM     24  H   UNL     1       1.133   4.369  10.188  1.00  0.00     0.293 HD
ENDBRANCH  10  23
BRANCH  11  25
ATOM     25  O   UNL     1      -0.719   9.259   7.837  1.00  0.00    -0.508 OA
ATOM     26  H   UNL     1      -1.560   8.878   7.416  1.00  0.00     0.293 HD
ENDBRANCH  11  25
ENDBRANCH   1   2
BRANCH   1  27
ATOM     27  C   UNL     1       6.488   4.688   9.340  1.00  0.00     0.339 C 
ATOM     28  C   UNL     1       6.555   3.333  10.087  1.00  0.00     0.214 C 
ATOM     29  O   UNL     1       7.797   5.133   9.043  1.00  0.00    -0.332 OA
ATOM     30  C   UNL     1       7.777   2.496   9.625  1.00  0.00     0.180 C 
ATOM     31  C   UNL     1       8.379   4.367   7.994  1.00  0.00     0.179 C 
ATOM     32  C   UNL     1       8.138   2.823   8.165  1.00  0.00     0.177 C 
BRANCH  28  33
ATOM     33  O   UNL     1       5.346   2.629   9.935  1.00  0.00    -0.384 OA
ATOM     34  H   UNL     1       5.065   2.712   8.987  1.00  0.00     0.211 HD
ENDBRANCH  28  33
BRANCH  30  35
ATOM     35  O   UNL     1       7.508   1.124   9.772  1.00  0.00    -0.387 OA
ATOM     36  H   UNL     1       8.333   0.636   9.513  1.00  0.00     0.211 HD
ENDBRANCH  30  35
BRANCH  31  37
ATOM     37  C   UNL     1       9.869   4.744   7.930  1.00  0.00     0.191 C 
BRANCH  37  38
ATOM     38  O   UNL     1      10.053   6.086   8.291  1.00  0.00    -0.394 OA
ATOM     39  H   UNL     1      10.829   6.411   7.763  1.00  0.00     0.210 HD
ENDBRANCH  37  38
ENDBRANCH  31  37
BRANCH  32  40
ATOM     40  O   UNL     1       9.254   2.063   7.777  1.00  0.00    -0.387 OA
ATOM     41  H   UNL     1       9.457   1.446   8.528  1.00  0.00     0.211 HD
ENDBRANCH  32  40
ENDBRANCH   1  27
TORSDOF 12
ENDMDL
MODEL 6
REMARK VINA RESULT:    -4.379     16.115     19.841
REMARK INTER + INTRA:          -8.089
REMARK INTER:                  -6.380
REMARK INTRA:                  -1.708
REMARK UNBOUND:                -1.662
REMARK SMILES O=c1c(O[C@H]2O[C@@H](CO)[C@@H](O)[C@H](O)[C@@H]2O)c(-c2ccc(O)c(O)c2)oc2cc(O)cc(O)c12
REMARK SMILES IDX 4 1 3 2 16 3 25 4 2 5 26 6 1 7 33 8 27 9 31 10 28 11 30 12
REMARK SMILES IDX 17 13 18 14 19 15 20 16 24 17 22 18 21 19 23 21 32 23 29 25
REMARK SMILES IDX 5 27 14 28 6 29 12 30 7 31 10 32 15 33 13 35 8 37 9 38 11 40
REMARK H PARENT 21 20 23 22 32 24 29 26 15 34 13 36 9 39 11 41
REMARK Flexibility Score: inf
ROOT
ATOM      1  O   UNL     1       5.637   4.155   7.789  1.00  0.00    -0.454 OA
ENDROOT
BRANCH   1   2
ATOM      2  C   UNL     1       6.579   3.173   8.129  1.00  0.00     0.214 A 
ATOM      3  C   UNL     1       7.952   3.338   7.858  1.00  0.00     0.180 A 
ATOM      4  O   UNL     1       8.798   2.355   8.143  1.00  0.00    -0.452 OA
ATOM      5  C   UNL     1       6.149   2.003   8.766  1.00  0.00     0.239 A 
ATOM      6  C   UNL     1       8.428   1.206   8.695  1.00  0.00     0.146 A 
ATOM      7  O   UNL     1       4.943   1.923   9.121  1.00  0.00    -0.285 OA
ATOM      8  C   UNL     1       7.067   0.956   9.017  1.00  0.00     0.111 A 
ATOM      9  C   UNL     1       9.411   0.250   8.969  1.00  0.00     0.094 A 
ATOM     10  C   UNL     1       6.724  -0.308   9.585  1.00  0.00     0.134 A 
ATOM     11  C   UNL     1       9.069  -0.962   9.568  1.00  0.00     0.123 A 
ATOM     12  C   UNL     1       7.735  -1.230   9.878  1.00  0.00     0.093 A 
BRANCH   3  13
ATOM     13  C   UNL     1       8.508   4.581   7.274  1.00  0.00     0.025 A 
ATOM     14  C   UNL     1       8.479   4.820   5.889  1.00  0.00     0.016 A 
ATOM     15  C   UNL     1       9.014   5.998   5.363  1.00  0.00     0.051 A 
ATOM     16  C   UNL     1       9.565   6.964   6.210  1.00  0.00     0.157 A 
ATOM     17  C   UNL     1       9.043   5.563   8.124  1.00  0.00     0.062 A 
ATOM     18  C   UNL     1       9.575   6.749   7.599  1.00  0.00     0.158 A 
BRANCH  16  19
ATOM     19  O   UNL     1      10.093   8.131   5.656  1.00  0.00    -0.504 OA
ATOM     20  H   UNL     1      10.640   8.784   6.201  1.00  0.00     0.293 HD
ENDBRANCH  16  19
BRANCH  18  21
ATOM     21  O   UNL     1      10.113   7.712   8.449  1.00  0.00    -0.504 OA
ATOM     22  H   UNL     1      10.906   7.510   9.045  1.00  0.00     0.293 HD
ENDBRANCH  18  21
ENDBRANCH   3  13
BRANCH  10  23
ATOM     23  O   UNL     1       5.413  -0.717   9.850  1.00  0.00    -0.507 OA
ATOM     24  H   UNL     1       4.603  -0.448   9.313  1.00  0.00     0.293 HD
ENDBRANCH  10  23
BRANCH  11  25
ATOM     25  O   UNL     1      10.046  -1.913   9.851  1.00  0.00    -0.508 OA
ATOM     26  H   UNL     1       9.843  -2.906   9.821  1.00  0.00     0.293 HD
ENDBRANCH  11  25
ENDBRANCH   1   2
BRANCH   1  27
ATOM     27  C   UNL     1       5.347   5.293   8.607  1.00  0.00     0.339 C 
ATOM     28  C   UNL     1       3.825   5.422   8.863  1.00  0.00     0.214 C 
ATOM     29  O   UNL     1       5.829   6.472   7.994  1.00  0.00    -0.332 OA
ATOM     30  C   UNL     1       3.426   6.893   9.154  1.00  0.00     0.180 C 
ATOM     31  C   UNL     1       5.883   7.553   8.918  1.00  0.00     0.179 C 
ATOM     32  C   UNL     1       4.594   7.651   9.812  1.00  0.00     0.177 C 
BRANCH  28  33
ATOM     33  O   UNL     1       3.426   4.554   9.896  1.00  0.00    -0.384 OA
ATOM     34  H   UNL     1       3.974   4.764  10.697  1.00  0.00     0.211 HD
ENDBRANCH  28  33
BRANCH  30  35
ATOM     35  O   UNL     1       2.286   6.933   9.976  1.00  0.00    -0.387 OA
ATOM     36  H   UNL     1       2.592   7.184  10.886  1.00  0.00     0.211 HD
ENDBRANCH  30  35
BRANCH  31  37
ATOM     37  C   UNL     1       6.156   8.831   8.107  1.00  0.00     0.191 C 
BRANCH  37  38
ATOM     38  O   UNL     1       6.922   9.735   8.857  1.00  0.00    -0.394 OA
ATOM     39  H   UNL     1       6.277  10.361   9.278  1.00  0.00     0.210 HD
ENDBRANCH  37  38
ENDBRANCH  31  37
BRANCH  32  40
ATOM     40  O   UNL     1       4.211   8.982  10.053  1.00  0.00    -0.387 OA
ATOM     41  H   UNL     1       4.862   9.355  10.703  1.00  0.00     0.211 HD
ENDBRANCH  32  40
ENDBRANCH   1  27
TORSDOF 12
ENDMDL
MODEL 7
REMARK VINA RESULT:    -4.362      2.880      6.496
REMARK INTER + INTRA:          -8.064
REMARK INTER:                  -6.724
REMARK INTRA:                  -1.340
REMARK UNBOUND:                -1.662
REMARK SMILES O=c1c(O[C@H]2O[C@@H](CO)[C@@H](O)[C@H](O)[C@@H]2O)c(-c2ccc(O)c(O)c2)oc2cc(O)cc(O)c12
REMARK SMILES IDX 4 1 3 2 16 3 25 4 2 5 26 6 1 7 33 8 27 9 31 10 28 11 30 12
REMARK SMILES IDX 17 13 18 14 19 15 20 16 24 17 22 18 21 19 23 21 32 23 29 25
REMARK SMILES IDX 5 27 14 28 6 29 12 30 7 31 10 32 15 33 13 35 8 37 9 38 11 40
REMARK H PARENT 21 20 23 22 32 24 29 26 15 34 13 36 9 39 11 41
REMARK Flexibility Score: inf
ROOT
ATOM      1  O   UNL     1      -7.681  -5.427   9.394  1.00  0.00    -0.454 OA
ENDROOT
BRANCH   1   2
ATOM      2  C   UNL     1      -6.297  -5.207   9.334  1.00  0.00     0.214 A 
ATOM      3  C   UNL     1      -5.760  -3.934   9.057  1.00  0.00     0.180 A 
ATOM      4  O   UNL     1      -4.444  -3.789   8.950  1.00  0.00    -0.452 OA
ATOM      5  C   UNL     1      -5.423  -6.276   9.568  1.00  0.00     0.239 A 
ATOM      6  C   UNL     1      -3.581  -4.785   9.108  1.00  0.00     0.146 A 
ATOM      7  O   UNL     1      -5.910  -7.375   9.944  1.00  0.00    -0.285 OA
ATOM      8  C   UNL     1      -4.030  -6.099   9.404  1.00  0.00     0.111 A 
ATOM      9  C   UNL     1      -2.215  -4.508   8.992  1.00  0.00     0.094 A 
ATOM     10  C   UNL     1      -3.057  -7.136   9.538  1.00  0.00     0.134 A 
ATOM     11  C   UNL     1      -1.273  -5.520   9.172  1.00  0.00     0.123 A 
ATOM     12  C   UNL     1      -1.696  -6.820   9.450  1.00  0.00     0.093 A 
BRANCH   3  13
ATOM     13  C   UNL     1      -6.605  -2.729   8.890  1.00  0.00     0.025 A 
ATOM     14  C   UNL     1      -7.221  -2.106   9.988  1.00  0.00     0.016 A 
ATOM     15  C   UNL     1      -8.016  -0.971   9.804  1.00  0.00     0.051 A 
ATOM     16  C   UNL     1      -8.190  -0.430   8.526  1.00  0.00     0.157 A 
ATOM     17  C   UNL     1      -6.764  -2.170   7.611  1.00  0.00     0.062 A 
ATOM     18  C   UNL     1      -7.556  -1.029   7.424  1.00  0.00     0.158 A 
BRANCH  16  19
ATOM     19  O   UNL     1      -8.990   0.702   8.373  1.00  0.00    -0.504 OA
ATOM     20  H   UNL     1      -8.637   1.636   8.537  1.00  0.00     0.293 HD
ENDBRANCH  16  19
BRANCH  18  21
ATOM     21  O   UNL     1      -7.717  -0.488   6.150  1.00  0.00    -0.504 OA
ATOM     22  H   UNL     1      -6.926  -0.335   5.536  1.00  0.00     0.293 HD
ENDBRANCH  18  21
ENDBRANCH   3  13
BRANCH  10  23
ATOM     23  O   UNL     1      -3.372  -8.486   9.725  1.00  0.00    -0.507 OA
ATOM     24  H   UNL     1      -2.770  -9.164  10.166  1.00  0.00     0.293 HD
ENDBRANCH  10  23
BRANCH  11  25
ATOM     25  O   UNL     1       0.089  -5.248   9.067  1.00  0.00    -0.508 OA
ATOM     26  H   UNL     1       0.497  -4.416   9.478  1.00  0.00     0.293 HD
ENDBRANCH  11  25
ENDBRANCH   1   2
BRANCH   1  27
ATOM     27  C   UNL     1      -8.468  -5.836   8.270  1.00  0.00     0.339 C 
ATOM     28  C   UNL     1      -8.908  -7.315   8.408  1.00  0.00     0.214 C 
ATOM     29  O   UNL     1      -7.737  -5.666   7.072  1.00  0.00    -0.332 OA
ATOM     30  C   UNL     1      -9.169  -7.956   7.019  1.00  0.00     0.180 C 
ATOM     31  C   UNL     1      -8.588  -5.717   5.933  1.00  0.00     0.179 C 
ATOM     32  C   UNL     1      -9.632  -6.890   6.009  1.00  0.00     0.177 C 
BRANCH  28  33
ATOM     33  O   UNL     1     -10.028  -7.416   9.254  1.00  0.00    -0.384 OA
ATOM     34  H   UNL     1     -10.528  -6.561   9.198  1.00  0.00     0.211 HD
ENDBRANCH  28  33
BRANCH  30  35
ATOM     35  O   UNL     1     -10.125  -8.980   7.130  1.00  0.00    -0.387 OA
ATOM     36  H   UNL     1     -10.841  -8.646   7.731  1.00  0.00     0.211 HD
ENDBRANCH  30  35
BRANCH  31  37
ATOM     37  C   UNL     1      -7.682  -5.792   4.692  1.00  0.00     0.191 C 
BRANCH  37  38
ATOM     38  O   UNL     1      -8.154  -4.936   3.687  1.00  0.00    -0.394 OA
ATOM     39  H   UNL     1      -8.615  -5.514   3.025  1.00  0.00     0.210 HD
ENDBRANCH  37  38
ENDBRANCH  31  37
BRANCH  32  40
ATOM     40  O   UNL     1      -9.848  -7.494   4.758  1.00  0.00    -0.387 OA
ATOM     41  H   UNL     1     -10.710  -7.141   4.414  1.00  0.00     0.211 HD
ENDBRANCH  32  40
ENDBRANCH   1  27
TORSDOF 12
ENDMDL
MODEL 8
REMARK VINA RESULT:    -4.287      2.664      6.841
REMARK INTER + INTRA:          -7.954
REMARK INTER:                  -6.350
REMARK INTRA:                  -1.604
REMARK UNBOUND:                -1.662
REMARK SMILES O=c1c(O[C@H]2O[C@@H](CO)[C@@H](O)[C@H](O)[C@@H]2O)c(-c2ccc(O)c(O)c2)oc2cc(O)cc(O)c12
REMARK SMILES IDX 4 1 3 2 16 3 25 4 2 5 26 6 1 7 33 8 27 9 31 10 28 11 30 12
REMARK SMILES IDX 17 13 18 14 19 15 20 16 24 17 22 18 21 19 23 21 32 23 29 25
REMARK SMILES IDX 5 27 14 28 6 29 12 30 7 31 10 32 15 33 13 35 8 37 9 38 11 40
REMARK H PARENT 21 20 23 22 32 24 29 26 15 34 13 36 9 39 11 41
REMARK Flexibility Score: inf
ROOT
ATOM      1  O   UNL     1      -9.942  -2.986   7.359  1.00  0.00    -0.454 OA
ENDROOT
BRANCH   1   2
ATOM      2  C   UNL     1      -8.946  -3.791   7.930  1.00  0.00     0.214 A 
ATOM      3  C   UNL     1      -7.834  -3.235   8.594  1.00  0.00     0.180 A 
ATOM      4  O   UNL     1      -6.886  -4.037   9.065  1.00  0.00    -0.452 OA
ATOM      5  C   UNL     1      -9.063  -5.185   7.853  1.00  0.00     0.239 A 
ATOM      6  C   UNL     1      -6.927  -5.360   8.964  1.00  0.00     0.146 A 
ATOM      7  O   UNL     1     -10.123  -5.670   7.375  1.00  0.00    -0.285 OA
ATOM      8  C   UNL     1      -8.016  -6.010   8.326  1.00  0.00     0.111 A 
ATOM      9  C   UNL     1      -5.880  -6.104   9.518  1.00  0.00     0.094 A 
ATOM     10  C   UNL     1      -7.994  -7.434   8.224  1.00  0.00     0.134 A 
ATOM     11  C   UNL     1      -5.894  -7.497   9.454  1.00  0.00     0.123 A 
ATOM     12  C   UNL     1      -6.948  -8.151   8.817  1.00  0.00     0.093 A 
BRANCH   3  13
ATOM     13  C   UNL     1      -7.676  -1.778   8.806  1.00  0.00     0.025 A 
ATOM     14  C   UNL     1      -8.194  -1.142   9.947  1.00  0.00     0.016 A 
ATOM     15  C   UNL     1      -8.035   0.236  10.123  1.00  0.00     0.051 A 
ATOM     16  C   UNL     1      -7.339   0.993   9.176  1.00  0.00     0.157 A 
ATOM     17  C   UNL     1      -6.960  -1.018   7.868  1.00  0.00     0.062 A 
ATOM     18  C   UNL     1      -6.793   0.363   8.045  1.00  0.00     0.158 A 
BRANCH  16  19
ATOM     19  O   UNL     1      -7.197   2.366   9.377  1.00  0.00    -0.504 OA
ATOM     20  H   UNL     1      -7.991   2.994   9.372  1.00  0.00     0.293 HD
ENDBRANCH  16  19
BRANCH  18  21
ATOM     21  O   UNL     1      -6.090   1.110   7.103  1.00  0.00    -0.504 OA
ATOM     22  H   UNL     1      -5.470   1.862   7.378  1.00  0.00     0.293 HD
ENDBRANCH  18  21
ENDBRANCH   3  13
BRANCH  10  23
ATOM     23  O   UNL     1      -8.949  -8.185   7.530  1.00  0.00    -0.507 OA
ATOM     24  H   UNL     1      -9.074  -9.182   7.616  1.00  0.00     0.293 HD
ENDBRANCH  10  23
BRANCH  11  25
ATOM     25  O   UNL     1      -4.857  -8.243  10.010  1.00  0.00    -0.508 OA
ATOM     26  H   UNL     1      -3.886  -8.022   9.822  1.00  0.00     0.293 HD
ENDBRANCH  11  25
ENDBRANCH   1   2
BRANCH   1  27
ATOM     27  C   UNL     1      -9.889  -2.492   6.016  1.00  0.00     0.339 C 
ATOM     28  C   UNL     1      -8.821  -3.248   5.187  1.00  0.00     0.214 C 
ATOM     29  O   UNL     1      -9.601  -1.108   6.014  1.00  0.00    -0.332 OA
ATOM     30  C   UNL     1      -8.294  -2.374   4.019  1.00  0.00     0.180 C 
ATOM     31  C   UNL     1      -9.891  -0.520   4.751  1.00  0.00     0.179 C 
ATOM     32  C   UNL     1      -9.378  -1.389   3.546  1.00  0.00     0.177 C 
BRANCH  28  33
ATOM     33  O   UNL     1      -9.333  -4.479   4.734  1.00  0.00    -0.384 OA
ATOM     34  H   UNL     1     -10.213  -4.304   4.311  1.00  0.00     0.211 HD
ENDBRANCH  28  33
BRANCH  30  35
ATOM     35  O   UNL     1      -7.871  -3.190   2.955  1.00  0.00    -0.387 OA
ATOM     36  H   UNL     1      -8.246  -4.095   3.115  1.00  0.00     0.211 HD
ENDBRANCH  30  35
BRANCH  31  37
ATOM     37  C   UNL     1      -9.302   0.901   4.767  1.00  0.00     0.191 C 
BRANCH  37  38
ATOM     38  O   UNL     1      -7.901   0.852   4.778  1.00  0.00    -0.394 OA
ATOM     39  H   UNL     1      -7.627   0.576   3.864  1.00  0.00     0.210 HD
ENDBRANCH  37  38
ENDBRANCH  31  37
BRANCH  32  40
ATOM     40  O   UNL     1      -8.871  -0.601   2.499  1.00  0.00    -0.387 OA
ATOM     41  H   UNL     1      -9.605  -0.491   1.840  1.00  0.00     0.211 HD
ENDBRANCH  32  40
ENDBRANCH   1  27
TORSDOF 12
ENDMDL
MODEL 9
REMARK VINA RESULT:    -4.253      2.436      7.178
REMARK INTER + INTRA:          -7.903
REMARK INTER:                  -6.159
REMARK INTRA:                  -1.744
REMARK UNBOUND:                -1.662
REMARK SMILES O=c1c(O[C@H]2O[C@@H](CO)[C@@H](O)[C@H](O)[C@@H]2O)c(-c2ccc(O)c(O)c2)oc2cc(O)cc(O)c12
REMARK SMILES IDX 4 1 3 2 16 3 25 4 2 5 26 6 1 7 33 8 27 9 31 10 28 11 30 12
REMARK SMILES IDX 17 13 18 14 19 15 20 16 24 17 22 18 21 19 23 21 32 23 29 25
REMARK SMILES IDX 5 27 14 28 6 29 12 30 7 31 10 32 15 33 13 35 8 37 9 38 11 40
REMARK H PARENT 21 20 23 22 32 24 29 26 15 34 13 36 9 39 11 41
REMARK Flexibility Score: inf
ROOT
ATOM      1  O   UNL     1      -7.833  -5.452   3.485  1.00  0.00    -0.454 OA
ENDROOT
BRANCH   1   2
ATOM      2  C   UNL     1      -8.191  -6.347   2.466  1.00  0.00     0.214 A 
ATOM      3  C   UNL     1      -7.938  -7.729   2.572  1.00  0.00     0.180 A 
ATOM      4  O   UNL     1      -8.240  -8.529   1.555  1.00  0.00    -0.452 OA
ATOM      5  C   UNL     1      -8.829  -5.860   1.319  1.00  0.00     0.239 A 
ATOM      6  C   UNL     1      -8.793  -8.103   0.427  1.00  0.00     0.146 A 
ATOM      7  O   UNL     1      -9.168  -4.647   1.293  1.00  0.00    -0.285 OA
ATOM      8  C   UNL     1      -9.098  -6.729   0.236  1.00  0.00     0.111 A 
ATOM      9  C   UNL     1      -9.086  -9.042  -0.568  1.00  0.00     0.094 A 
ATOM     10  C   UNL     1      -9.669  -6.326  -1.009  1.00  0.00     0.134 A 
ATOM     11  C   UNL     1      -9.688  -8.641  -1.761  1.00  0.00     0.123 A 
ATOM     12  C   UNL     1      -9.981  -7.293  -1.971  1.00  0.00     0.093 A 
BRANCH   3  13
ATOM     13  C   UNL     1      -7.355  -8.346   3.787  1.00  0.00     0.025 A 
ATOM     14  C   UNL     1      -5.971  -8.321   4.031  1.00  0.00     0.016 A 
ATOM     15  C   UNL     1      -5.445  -8.913   5.182  1.00  0.00     0.051 A 
ATOM     16  C   UNL     1      -6.293  -9.518   6.116  1.00  0.00     0.157 A 
ATOM     17  C   UNL     1      -8.204  -8.934   4.737  1.00  0.00     0.062 A 
ATOM     18  C   UNL     1      -7.680  -9.524   5.896  1.00  0.00     0.158 A 
BRANCH  16  19
ATOM     19  O   UNL     1      -5.739 -10.101   7.256  1.00  0.00    -0.504 OA
ATOM     20  H   UNL     1      -6.302 -10.609   7.927  1.00  0.00     0.293 HD
ENDBRANCH  16  19
BRANCH  18  21
ATOM     21  O   UNL     1      -8.531 -10.115   6.828  1.00  0.00    -0.504 OA
ATOM     22  H   UNL     1      -8.584 -11.121   6.934  1.00  0.00     0.293 HD
ENDBRANCH  18  21
ENDBRANCH   3  13
BRANCH  10  23
ATOM     23  O   UNL     1      -9.918  -4.995  -1.361  1.00  0.00    -0.507 OA
ATOM     24  H   UNL     1      -9.212  -4.284  -1.470  1.00  0.00     0.293 HD
ENDBRANCH  10  23
BRANCH  11  25
ATOM     25  O   UNL     1      -9.989  -9.573  -2.751  1.00  0.00    -0.508 OA
ATOM     26  H   UNL     1      -9.857 -10.567  -2.601  1.00  0.00     0.293 HD
ENDBRANCH  11  25
ENDBRANCH   1   2
BRANCH   1  27
ATOM     27  C   UNL     1      -8.656  -5.175   4.622  1.00  0.00     0.339 C 
ATOM     28  C   UNL     1      -8.958  -3.659   4.734  1.00  0.00     0.214 C 
ATOM     29  O   UNL     1      -8.025  -5.623   5.805  1.00  0.00    -0.332 OA
ATOM     30  C   UNL     1      -9.257  -3.252   6.201  1.00  0.00     0.180 C 
ATOM     31  C   UNL     1      -8.944  -5.692   6.889  1.00  0.00     0.179 C 
ATOM     32  C   UNL     1      -9.877  -4.430   6.975  1.00  0.00     0.177 C 
BRANCH  28  33
ATOM     33  O   UNL     1     -10.006  -3.303   3.864  1.00  0.00    -0.384 OA
ATOM     34  H   UNL     1      -9.721  -2.496   3.363  1.00  0.00     0.211 HD
ENDBRANCH  28  33
BRANCH  30  35
ATOM     35  O   UNL     1     -10.113  -2.138   6.230  1.00  0.00    -0.387 OA
ATOM     36  H   UNL     1     -10.008  -1.667   5.362  1.00  0.00     0.211 HD
ENDBRANCH  30  35
BRANCH  31  37
ATOM     37  C   UNL     1      -8.121  -5.926   8.168  1.00  0.00     0.191 C 
BRANCH  37  38
ATOM     38  O   UNL     1      -8.909  -6.533   9.155  1.00  0.00    -0.394 OA
ATOM     39  H   UNL     1      -9.822  -6.155   9.053  1.00  0.00     0.210 HD
ENDBRANCH  37  38
ENDBRANCH  31  37
BRANCH  32  40
ATOM     40  O   UNL     1     -10.125  -4.040   8.302  1.00  0.00    -0.387 OA
ATOM     41  H   UNL     1      -9.258  -3.738   8.680  1.00  0.00     0.211 HD
ENDBRANCH  32  40
ENDBRANCH   1  27
TORSDOF 12
ENDMDL
