MODEL 1
REMARK VINA RESULT:    -4.716      0.000      0.000
REMARK INTER + INTRA:          -7.015
REMARK INTER:                  -6.370
REMARK INTRA:                  -0.646
REMARK UNBOUND:                -0.646
REMARK SMILES CC(=O)CCC=C(C)CCC=C(C)C
REMARK SMILES IDX 7 1 6 2 8 3 9 4 10 5 11 6 13 7 12 8 14 9 5 10 4 11 2 12 3 13
REMARK SMILES IDX 1 14
REMARK H PARENT
REMARK Flexibility Score: inf
ROOT
ATOM      1  C   UNL     1      76.042  34.706  52.078  1.00  0.00    -0.077 C 
ATOM      2  C   UNL     1      77.286  34.421  51.630  1.00  0.00    -0.028 C 
ATOM      3  C   UNL     1      75.500  36.117  52.084  1.00  0.00     0.039 C 
ENDROOT
BRANCH   1   4
ATOM      4  C   UNL     1      75.174  33.583  52.599  1.00  0.00     0.034 C 
BRANCH   4   5
ATOM      5  C   UNL     1      73.691  33.969  52.531  1.00  0.00     0.032 C 
BRANCH   5   6
ATOM      6  C   UNL     1      72.962  33.509  53.769  1.00  0.00    -0.028 C 
ATOM      7  C   UNL     1      72.154  33.613  56.088  1.00  0.00     0.039 C 
ATOM      8  C   UNL     1      72.885  34.219  54.918  1.00  0.00    -0.080 C 
ATOM      9  C   UNL     1      73.493  35.595  55.051  1.00  0.00     0.039 C 
ENDBRANCH   5   6
ENDBRANCH   4   5
ENDBRANCH   1   4
BRANCH   2  10
ATOM     10  C   UNL     1      78.234  35.435  51.042  1.00  0.00     0.035 C 
BRANCH  10  11
ATOM     11  C   UNL     1      79.564  34.776  50.661  1.00  0.00     0.079 C 
BRANCH  11  12
ATOM     12  C   UNL     1      80.261  34.242  51.884  1.00  0.00     0.130 C 
ATOM     13  O   UNL     1      80.594  35.013  52.770  1.00  0.00    -0.300 OA
ATOM     14  C   UNL     1      80.568  32.782  52.034  1.00  0.00     0.087 C 
ENDBRANCH  11  12
ENDBRANCH  10  11
ENDBRANCH   2  10
TORSDOF 6
ENDMDL
MODEL 2
REMARK VINA RESULT:    -4.702      1.385      2.337
REMARK INTER + INTRA:          -6.997
REMARK INTER:                  -6.563
REMARK INTRA:                  -0.434
REMARK UNBOUND:                -0.646
REMARK SMILES CC(=O)CCC=C(C)CCC=C(C)C
REMARK SMILES IDX 7 1 6 2 8 3 9 4 10 5 11 6 13 7 12 8 14 9 5 10 4 11 2 12 3 13
REMARK SMILES IDX 1 14
REMARK H PARENT
REMARK Flexibility Score: inf
ROOT
ATOM      1  C   UNL     1      74.342  34.732  53.168  1.00  0.00    -0.077 C 
ATOM      2  C   UNL     1      75.423  34.648  52.359  1.00  0.00    -0.028 C 
ATOM      3  C   UNL     1      74.071  35.957  54.010  1.00  0.00     0.039 C 
ENDROOT
BRANCH   1   4
ATOM      4  C   UNL     1      73.386  33.563  53.240  1.00  0.00     0.034 C 
BRANCH   4   5
ATOM      5  C   UNL     1      72.283  33.829  54.272  1.00  0.00     0.032 C 
BRANCH   5   6
ATOM      6  C   UNL     1      72.591  33.133  55.575  1.00  0.00    -0.028 C 
ATOM      7  C   UNL     1      72.331  32.565  57.952  1.00  0.00     0.039 C 
ATOM      8  C   UNL     1      71.881  33.296  56.714  1.00  0.00    -0.080 C 
ATOM      9  C   UNL     1      70.651  34.171  56.772  1.00  0.00     0.039 C 
ENDBRANCH   5   6
ENDBRANCH   4   5
ENDBRANCH   1   4
BRANCH   2  10
ATOM     10  C   UNL     1      76.426  35.755  52.157  1.00  0.00     0.035 C 
BRANCH  10  11
ATOM     11  C   UNL     1      77.460  35.362  51.097  1.00  0.00     0.079 C 
BRANCH  11  12
ATOM     12  C   UNL     1      78.709  34.827  51.746  1.00  0.00     0.130 C 
ATOM     13  O   UNL     1      78.862  33.620  51.851  1.00  0.00    -0.300 OA
ATOM     14  C   UNL     1      79.769  35.745  52.279  1.00  0.00     0.087 C 
ENDBRANCH  11  12
ENDBRANCH  10  11
ENDBRANCH   2  10
TORSDOF 6
ENDMDL
MODEL 3
REMARK VINA RESULT:    -4.571      2.765      6.839
REMARK INTER + INTRA:          -6.820
REMARK INTER:                  -6.437
REMARK INTRA:                  -0.383
REMARK UNBOUND:                -0.646
REMARK SMILES CC(=O)CCC=C(C)CCC=C(C)C
REMARK SMILES IDX 7 1 6 2 8 3 9 4 10 5 11 6 13 7 12 8 14 9 5 10 4 11 2 12 3 13
REMARK SMILES IDX 1 14
REMARK H PARENT
REMARK Flexibility Score: inf
ROOT
ATOM      1  C   UNL     1      74.076  35.331  53.226  1.00  0.00    -0.077 C 
ATOM      2  C   UNL     1      73.372  34.201  52.984  1.00  0.00    -0.028 C 
ATOM      3  C   UNL     1      73.894  36.125  54.498  1.00  0.00     0.039 C 
ENDROOT
BRANCH   1   4
ATOM      4  C   UNL     1      75.060  35.820  52.188  1.00  0.00     0.034 C 
BRANCH   4   5
ATOM      5  C   UNL     1      76.204  34.814  52.009  1.00  0.00     0.032 C 
BRANCH   5   6
ATOM      6  C   UNL     1      77.242  35.348  51.055  1.00  0.00    -0.028 C 
ATOM      7  C   UNL     1      79.460  35.574  50.020  1.00  0.00     0.039 C 
ATOM      8  C   UNL     1      78.523  34.918  51.000  1.00  0.00    -0.080 C 
ATOM      9  C   UNL     1      79.028  33.796  51.877  1.00  0.00     0.039 C 
ENDBRANCH   5   6
ENDBRANCH   4   5
ENDBRANCH   1   4
BRANCH   2  10
ATOM     10  C   UNL     1      72.397  33.579  53.950  1.00  0.00     0.035 C 
BRANCH  10  11
ATOM     11  C   UNL     1      73.135  32.970  55.147  1.00  0.00     0.079 C 
BRANCH  11  12
ATOM     12  C   UNL     1      72.335  33.146  56.410  1.00  0.00     0.130 C 
ATOM     13  O   UNL     1      72.548  32.413  57.363  1.00  0.00    -0.300 OA
ATOM     14  C   UNL     1      71.271  34.198  56.522  1.00  0.00     0.087 C 
ENDBRANCH  11  12
ENDBRANCH  10  11
ENDBRANCH   2  10
TORSDOF 6
ENDMDL
MODEL 4
REMARK VINA RESULT:    -4.469      2.425      6.947
REMARK INTER + INTRA:          -6.683
REMARK INTER:                  -6.195
REMARK INTRA:                  -0.488
REMARK UNBOUND:                -0.646
REMARK SMILES CC(=O)CCC=C(C)CCC=C(C)C
REMARK SMILES IDX 7 1 6 2 8 3 9 4 10 5 11 6 13 7 12 8 14 9 5 10 4 11 2 12 3 13
REMARK SMILES IDX 1 14
REMARK H PARENT
REMARK Flexibility Score: inf
ROOT
ATOM      1  C   UNL     1      76.202  35.047  51.987  1.00  0.00    -0.077 C 
ATOM      2  C   UNL     1      75.009  35.552  52.377  1.00  0.00    -0.028 C 
ATOM      3  C   UNL     1      76.485  33.562  52.014  1.00  0.00     0.039 C 
ENDROOT
BRANCH   1   4
ATOM      4  C   UNL     1      77.286  35.994  51.526  1.00  0.00     0.034 C 
BRANCH   4   5
ATOM      5  C   UNL     1      78.674  35.387  51.768  1.00  0.00     0.032 C 
BRANCH   5   6
ATOM      6  C   UNL     1      79.325  35.003  50.463  1.00  0.00    -0.028 C 
ATOM      7  C   UNL     1      80.810  33.748  48.959  1.00  0.00     0.039 C 
ATOM      8  C   UNL     1      80.210  33.991  50.319  1.00  0.00    -0.080 C 
ATOM      9  C   UNL     1      80.598  33.097  51.474  1.00  0.00     0.039 C 
ENDBRANCH   5   6
ENDBRANCH   4   5
ENDBRANCH   1   4
BRANCH   2  10
ATOM     10  C   UNL     1      73.830  34.720  52.812  1.00  0.00     0.035 C 
BRANCH  10  11
ATOM     11  C   UNL     1      73.514  34.961  54.291  1.00  0.00     0.079 C 
BRANCH  11  12
ATOM     12  C   UNL     1      72.768  33.789  54.873  1.00  0.00     0.130 C 
ATOM     13  O   UNL     1      72.778  32.719  54.285  1.00  0.00    -0.300 OA
ATOM     14  C   UNL     1      72.001  33.910  56.157  1.00  0.00     0.087 C 
ENDBRANCH  11  12
ENDBRANCH  10  11
ENDBRANCH   2  10
TORSDOF 6
ENDMDL
MODEL 5
REMARK VINA RESULT:    -4.405      0.912      1.516
REMARK INTER + INTRA:          -6.596
REMARK INTER:                  -5.743
REMARK INTRA:                  -0.852
REMARK UNBOUND:                -0.646
REMARK SMILES CC(=O)CCC=C(C)CCC=C(C)C
REMARK SMILES IDX 7 1 6 2 8 3 9 4 10 5 11 6 13 7 12 8 14 9 5 10 4 11 2 12 3 13
REMARK SMILES IDX 1 14
REMARK H PARENT
REMARK Flexibility Score: inf
ROOT
ATOM      1  C   UNL     1      76.553  35.168  51.960  1.00  0.00    -0.077 C 
ATOM      2  C   UNL     1      77.437  35.867  51.212  1.00  0.00    -0.028 C 
ATOM      3  C   UNL     1      76.575  33.658  52.015  1.00  0.00     0.039 C 
ENDROOT
BRANCH   1   4
ATOM      4  C   UNL     1      75.505  35.917  52.752  1.00  0.00     0.034 C 
BRANCH   4   5
ATOM      5  C   UNL     1      74.143  35.223  52.640  1.00  0.00     0.032 C 
BRANCH   5   6
ATOM      6  C   UNL     1      73.414  35.260  53.960  1.00  0.00    -0.028 C 
ATOM      7  C   UNL     1      72.335  34.355  55.974  1.00  0.00     0.039 C 
ATOM      8  C   UNL     1      73.102  34.166  54.691  1.00  0.00    -0.080 C 
ATOM      9  C   UNL     1      73.515  32.776  54.268  1.00  0.00     0.039 C 
ENDBRANCH   5   6
ENDBRANCH   4   5
ENDBRANCH   1   4
BRANCH   2  10
ATOM     10  C   UNL     1      78.558  35.249  50.416  1.00  0.00     0.035 C 
BRANCH  10  11
ATOM     11  C   UNL     1      79.919  35.666  50.983  1.00  0.00     0.079 C 
BRANCH  11  12
ATOM     12  C   UNL     1      80.372  34.698  52.043  1.00  0.00     0.130 C 
ATOM     13  O   UNL     1      80.803  35.126  53.103  1.00  0.00    -0.300 OA
ATOM     14  C   UNL     1      80.318  33.216  51.823  1.00  0.00     0.087 C 
ENDBRANCH  11  12
ENDBRANCH  10  11
ENDBRANCH   2  10
TORSDOF 6
ENDMDL
MODEL 6
REMARK VINA RESULT:    -3.950      1.448      2.505
REMARK INTER + INTRA:          -5.981
REMARK INTER:                  -5.819
REMARK INTRA:                  -0.162
REMARK UNBOUND:                -0.646
REMARK SMILES CC(=O)CCC=C(C)CCC=C(C)C
REMARK SMILES IDX 7 1 6 2 8 3 9 4 10 5 11 6 13 7 12 8 14 9 5 10 4 11 2 12 3 13
REMARK SMILES IDX 1 14
REMARK H PARENT
REMARK Flexibility Score: inf
ROOT
ATOM      1  C   UNL     1      78.063  35.589  51.101  1.00  0.00    -0.077 C 
ATOM      2  C   UNL     1      79.221  34.914  51.287  1.00  0.00    -0.028 C 
ATOM      3  C   UNL     1      77.662  36.125  49.747  1.00  0.00     0.039 C 
ENDROOT
BRANCH   1   4
ATOM      4  C   UNL     1      77.151  35.824  52.284  1.00  0.00     0.034 C 
BRANCH   4   5
ATOM      5  C   UNL     1      75.687  35.894  51.834  1.00  0.00     0.032 C 
BRANCH   5   6
ATOM      6  C   UNL     1      74.837  34.935  52.629  1.00  0.00    -0.028 C 
ATOM      7  C   UNL     1      72.768  33.919  53.481  1.00  0.00     0.039 C 
ATOM      8  C   UNL     1      73.485  34.909  52.601  1.00  0.00    -0.080 C 
ATOM      9  C   UNL     1      72.685  35.827  51.707  1.00  0.00     0.039 C 
ENDBRANCH   5   6
ENDBRANCH   4   5
ENDBRANCH   1   4
BRANCH   2  10
ATOM     10  C   UNL     1      80.194  34.570  50.189  1.00  0.00     0.035 C 
BRANCH  10  11
ATOM     11  C   UNL     1      80.717  33.140  50.357  1.00  0.00     0.079 C 
BRANCH  11  12
ATOM     12  C   UNL     1      80.642  32.713  51.799  1.00  0.00     0.130 C 
ATOM     13  O   UNL     1      81.481  33.118  52.589  1.00  0.00    -0.300 OA
ATOM     14  C   UNL     1      79.565  31.790  52.287  1.00  0.00     0.087 C 
ENDBRANCH  11  12
ENDBRANCH  10  11
ENDBRANCH   2  10
TORSDOF 6
ENDMDL
MODEL 7
REMARK VINA RESULT:    -3.771     14.932     16.840
REMARK INTER + INTRA:          -5.740
REMARK INTER:                  -5.195
REMARK INTRA:                  -0.545
REMARK UNBOUND:                -0.646
REMARK SMILES CC(=O)CCC=C(C)CCC=C(C)C
REMARK SMILES IDX 7 1 6 2 8 3 9 4 10 5 11 6 13 7 12 8 14 9 5 10 4 11 2 12 3 13
REMARK SMILES IDX 1 14
REMARK H PARENT
REMARK Flexibility Score: inf
ROOT
ATOM      1  C   UNL     1      87.586  30.845  65.223  1.00  0.00    -0.077 C 
ATOM      2  C   UNL     1      87.933  29.883  64.337  1.00  0.00    -0.028 C 
ATOM      3  C   UNL     1      87.289  30.526  66.670  1.00  0.00     0.039 C 
ENDROOT
BRANCH   1   4
ATOM      4  C   UNL     1      87.481  32.277  64.749  1.00  0.00     0.034 C 
BRANCH   4   5
ATOM      5  C   UNL     1      86.041  32.787  64.882  1.00  0.00     0.032 C 
BRANCH   5   6
ATOM      6  C   UNL     1      85.060  31.758  64.379  1.00  0.00    -0.028 C 
ATOM      7  C   UNL     1      83.185  30.174  64.496  1.00  0.00     0.039 C 
ATOM      8  C   UNL     1      84.065  31.224  65.122  1.00  0.00    -0.080 C 
ATOM      9  C   UNL     1      83.805  31.661  66.545  1.00  0.00     0.039 C 
ENDBRANCH   5   6
ENDBRANCH   4   5
ENDBRANCH   1   4
BRANCH   2  10
ATOM     10  C   UNL     1      88.120  28.429  64.686  1.00  0.00     0.035 C 
BRANCH  10  11
ATOM     11  C   UNL     1      88.081  27.560  63.425  1.00  0.00     0.079 C 
BRANCH  11  12
ATOM     12  C   UNL     1      87.997  26.101  63.787  1.00  0.00     0.130 C 
ATOM     13  O   UNL     1      88.102  25.765  64.957  1.00  0.00    -0.300 OA
ATOM     14  C   UNL     1      87.799  25.046  62.740  1.00  0.00     0.087 C 
ENDBRANCH  11  12
ENDBRANCH  10  11
ENDBRANCH   2  10
TORSDOF 6
ENDMDL
MODEL 8
REMARK VINA RESULT:    -3.401     15.068     17.496
REMARK INTER + INTRA:          -5.239
REMARK INTER:                  -4.729
REMARK INTRA:                  -0.510
REMARK UNBOUND:                -0.646
REMARK SMILES CC(=O)CCC=C(C)CCC=C(C)C
REMARK SMILES IDX 7 1 6 2 8 3 9 4 10 5 11 6 13 7 12 8 14 9 5 10 4 11 2 12 3 13
REMARK SMILES IDX 1 14
REMARK H PARENT
REMARK Flexibility Score: inf
ROOT
ATOM      1  C   UNL     1      87.095  31.353  66.750  1.00  0.00    -0.077 C 
ATOM      2  C   UNL     1      85.783  31.053  66.613  1.00  0.00    -0.028 C 
ATOM      3  C   UNL     1      87.559  32.566  67.523  1.00  0.00     0.039 C 
ENDROOT
BRANCH   1   4
ATOM      4  C   UNL     1      88.125  30.455  66.102  1.00  0.00     0.034 C 
BRANCH   4   5
ATOM      5  C   UNL     1      87.593  29.886  64.782  1.00  0.00     0.032 C 
BRANCH   5   6
ATOM      6  C   UNL     1      88.080  28.474  64.573  1.00  0.00    -0.028 C 
ATOM      7  C   UNL     1      87.920  26.027  64.407  1.00  0.00     0.039 C 
ATOM      8  C   UNL     1      87.285  27.381  64.591  1.00  0.00    -0.080 C 
ATOM      9  C   UNL     1      85.788  27.483  64.772  1.00  0.00     0.039 C 
ENDBRANCH   5   6
ENDBRANCH   4   5
ENDBRANCH   1   4
BRANCH   2  10
ATOM     10  C   UNL     1      84.659  31.834  67.245  1.00  0.00     0.035 C 
BRANCH  10  11
ATOM     11  C   UNL     1      83.344  31.592  66.497  1.00  0.00     0.079 C 
BRANCH  11  12
ATOM     12  C   UNL     1      83.605  31.313  65.041  1.00  0.00     0.130 C 
ATOM     13  O   UNL     1      84.183  32.148  64.363  1.00  0.00    -0.300 OA
ATOM     14  C   UNL     1      83.160  30.032  64.398  1.00  0.00     0.087 C 
ENDBRANCH  11  12
ENDBRANCH  10  11
ENDBRANCH   2  10
TORSDOF 6
ENDMDL
MODEL 9
REMARK VINA RESULT:    -3.245     15.627     17.159
REMARK INTER + INTRA:          -5.029
REMARK INTER:                  -4.487
REMARK INTRA:                  -0.542
REMARK UNBOUND:                -0.646
REMARK SMILES CC(=O)CCC=C(C)CCC=C(C)C
REMARK SMILES IDX 7 1 6 2 8 3 9 4 10 5 11 6 13 7 12 8 14 9 5 10 4 11 2 12 3 13
REMARK SMILES IDX 1 14
REMARK H PARENT
REMARK Flexibility Score: inf
ROOT
ATOM      1  C   UNL     1      87.152  28.597  64.891  1.00  0.00    -0.077 C 
ATOM      2  C   UNL     1      88.070  27.682  64.505  1.00  0.00    -0.028 C 
ATOM      3  C   UNL     1      85.668  28.341  64.763  1.00  0.00     0.039 C 
ENDROOT
BRANCH   1   4
ATOM      4  C   UNL     1      87.624  29.919  65.455  1.00  0.00     0.034 C 
BRANCH   4   5
ATOM      5  C   UNL     1      86.563  31.006  65.246  1.00  0.00     0.032 C 
BRANCH   5   6
ATOM      6  C   UNL     1      85.923  31.388  66.557  1.00  0.00    -0.028 C 
ATOM      7  C   UNL     1      84.106  32.003  68.094  1.00  0.00     0.039 C 
ATOM      8  C   UNL     1      84.597  31.585  66.732  1.00  0.00    -0.080 C 
ATOM      9  C   UNL     1      83.603  31.382  65.612  1.00  0.00     0.039 C 
ENDBRANCH   5   6
ENDBRANCH   4   5
ENDBRANCH   1   4
BRANCH   2  10
ATOM     10  C   UNL     1      87.737  26.311  63.973  1.00  0.00     0.035 C 
BRANCH  10  11
ATOM     11  C   UNL     1      88.125  26.195  62.496  1.00  0.00     0.079 C 
BRANCH  11  12
ATOM     12  C   UNL     1      87.774  24.832  61.960  1.00  0.00     0.130 C 
ATOM     13  O   UNL     1      87.797  23.868  62.710  1.00  0.00    -0.300 OA
ATOM     14  C   UNL     1      87.408  24.628  60.520  1.00  0.00     0.087 C 
ENDBRANCH  11  12
ENDBRANCH  10  11
ENDBRANCH   2  10
TORSDOF 6
ENDMDL
