MODEL 1
REMARK VINA RESULT:    -4.006      0.000      0.000
REMARK INTER + INTRA:          -8.599
REMARK INTER:                  -7.519
REMARK INTRA:                  -1.080
REMARK UNBOUND:                -1.080
REMARK SMILES CCCCCCCCC=CCCCCCCCC(=O)[O-]
REMARK SMILES IDX 10 1 9 2 11 3 12 4 13 5 14 6 15 7 16 8 17 9 18 10 19 11
REMARK SMILES IDX 20 12 8 13 7 14 6 15 5 16 4 17 3 18 2 19 1 20
REMARK H PARENT
REMARK Flexibility Score: inf
ROOT
ATOM      1  C   UNL     1     -44.691 -27.859  -1.815  1.00  0.00    -0.031 C 
ATOM      2  C   UNL     1     -45.889 -28.442  -1.974  1.00  0.00    -0.031 C 
ENDROOT
BRANCH   1   3
ATOM      3  C   UNL     1     -43.975 -27.877  -0.493  1.00  0.00     0.027 C 
BRANCH   3   4
ATOM      4  C   UNL     1     -44.972 -27.870   0.676  1.00  0.00     0.004 C 
BRANCH   4   5
ATOM      5  C   UNL     1     -45.312 -26.449   1.153  1.00  0.00     0.000 C 
BRANCH   5   6
ATOM      6  C   UNL     1     -46.136 -26.446   2.453  1.00  0.00     0.000 C 
BRANCH   6   7
ATOM      7  C   UNL     1     -46.366 -27.860   3.008  1.00  0.00     0.000 C 
BRANCH   7   8
ATOM      8  C   UNL     1     -46.662 -27.859   4.519  1.00  0.00     0.006 C 
BRANCH   8   9
ATOM      9  C   UNL     1     -46.086 -26.622   5.221  1.00  0.00     0.053 C 
BRANCH   9  10
ATOM     10  C   UNL     1     -45.620 -26.942   6.609  1.00  0.00     0.041 C 
ATOM     11  O   UNL     1     -45.763 -26.103   7.536  1.00  0.00    -0.550 OA
ATOM     12  O   UNL     1     -44.998 -28.157   6.871  1.00  0.00    -0.550 OA
ENDBRANCH   9  10
ENDBRANCH   8   9
ENDBRANCH   7   8
ENDBRANCH   6   7
ENDBRANCH   5   6
ENDBRANCH   4   5
ENDBRANCH   3   4
ENDBRANCH   1   3
BRANCH   2  13
ATOM     13  C   UNL     1     -46.605 -28.424  -3.296  1.00  0.00     0.027 C 
BRANCH  13  14
ATOM     14  C   UNL     1     -45.643 -28.728  -4.451  1.00  0.00     0.004 C 
BRANCH  14  15
ATOM     15  C   UNL     1     -45.392 -27.477  -5.301  1.00  0.00     0.000 C 
BRANCH  15  16
ATOM     16  C   UNL     1     -46.194 -27.530  -6.610  1.00  0.00     0.000 C 
BRANCH  16  17
ATOM     17  C   UNL     1     -45.299 -27.536  -7.858  1.00  0.00    -0.000 C 
BRANCH  17  18
ATOM     18  C   UNL     1     -43.800 -27.562  -7.510  1.00  0.00    -0.000 C 
BRANCH  18  19
ATOM     19  C   UNL     1     -43.041 -28.671  -8.256  1.00  0.00    -0.003 C 
ATOM     20  C   UNL     1     -42.988 -29.983  -7.472  1.00  0.00     0.004 C 
ENDBRANCH  18  19
ENDBRANCH  17  18
ENDBRANCH  16  17
ENDBRANCH  15  16
ENDBRANCH  14  15
ENDBRANCH  13  14
ENDBRANCH   2  13
TORSDOF 15
ENDMDL
MODEL 2
REMARK VINA RESULT:    -3.983      4.971     10.392
REMARK INTER + INTRA:          -8.556
REMARK INTER:                  -7.345
REMARK INTRA:                  -1.211
REMARK UNBOUND:                -1.080
REMARK SMILES CCCCCCCCC=CCCCCCCCC(=O)[O-]
REMARK SMILES IDX 10 1 9 2 11 3 12 4 13 5 14 6 15 7 16 8 17 9 18 10 19 11
REMARK SMILES IDX 20 12 8 13 7 14 6 15 5 16 4 17 3 18 2 19 1 20
REMARK H PARENT
REMARK Flexibility Score: inf
ROOT
ATOM      1  C   UNL     1     -44.134 -27.122   0.387  1.00  0.00    -0.031 C 
ATOM      2  C   UNL     1     -45.375 -26.914   0.854  1.00  0.00    -0.031 C 
ENDROOT
BRANCH   1   3
ATOM      3  C   UNL     1     -43.878 -28.011  -0.799  1.00  0.00     0.027 C 
BRANCH   3   4
ATOM      4  C   UNL     1     -44.899 -27.750  -1.917  1.00  0.00     0.004 C 
BRANCH   4   5
ATOM      5  C   UNL     1     -45.500 -29.047  -2.481  1.00  0.00     0.000 C 
BRANCH   5   6
ATOM      6  C   UNL     1     -46.930 -28.850  -3.015  1.00  0.00     0.000 C 
BRANCH   6   7
ATOM      7  C   UNL     1     -46.953 -28.291  -4.446  1.00  0.00     0.000 C 
BRANCH   7   8
ATOM      8  C   UNL     1     -45.713 -28.700  -5.260  1.00  0.00     0.006 C 
BRANCH   8   9
ATOM      9  C   UNL     1     -45.017 -27.492  -5.903  1.00  0.00     0.053 C 
BRANCH   9  10
ATOM     10  C   UNL     1     -45.124 -27.524  -7.397  1.00  0.00     0.041 C 
ATOM     11  O   UNL     1     -46.252 -27.505  -7.954  1.00  0.00    -0.550 OA
ATOM     12  O   UNL     1     -43.975 -27.608  -8.174  1.00  0.00    -0.550 OA
ENDBRANCH   9  10
ENDBRANCH   8   9
ENDBRANCH   7   8
ENDBRANCH   6   7
ENDBRANCH   5   6
ENDBRANCH   4   5
ENDBRANCH   3   4
ENDBRANCH   1   3
BRANCH   2  13
ATOM     13  C   UNL     1     -45.631 -26.025   2.040  1.00  0.00     0.027 C 
BRANCH  13  14
ATOM     14  C   UNL     1     -46.371 -26.782   3.150  1.00  0.00     0.004 C 
BRANCH  14  15
ATOM     15  C   UNL     1     -46.387 -28.289   2.871  1.00  0.00     0.000 C 
BRANCH  15  16
ATOM     16  C   UNL     1     -45.976 -29.085   4.119  1.00  0.00     0.000 C 
BRANCH  16  17
ATOM     17  C   UNL     1     -46.513 -28.469   5.421  1.00  0.00    -0.000 C 
BRANCH  17  18
ATOM     18  C   UNL     1     -45.427 -28.336   6.503  1.00  0.00    -0.000 C 
BRANCH  18  19
ATOM     19  C   UNL     1     -45.209 -26.880   6.943  1.00  0.00    -0.003 C 
ATOM     20  C   UNL     1     -46.494 -26.051   6.905  1.00  0.00     0.004 C 
ENDBRANCH  18  19
ENDBRANCH  17  18
ENDBRANCH  16  17
ENDBRANCH  15  16
ENDBRANCH  14  15
ENDBRANCH  13  14
ENDBRANCH   2  13
TORSDOF 15
ENDMDL
MODEL 3
REMARK VINA RESULT:    -3.974      4.903     10.446
REMARK INTER + INTRA:          -8.539
REMARK INTER:                  -7.608
REMARK INTRA:                  -0.931
REMARK UNBOUND:                -1.080
REMARK SMILES CCCCCCCCC=CCCCCCCCC(=O)[O-]
REMARK SMILES IDX 10 1 9 2 11 3 12 4 13 5 14 6 15 7 16 8 17 9 18 10 19 11
REMARK SMILES IDX 20 12 8 13 7 14 6 15 5 16 4 17 3 18 2 19 1 20
REMARK H PARENT
REMARK Flexibility Score: inf
ROOT
ATOM      1  C   UNL     1     -44.354 -28.837  -0.624  1.00  0.00    -0.031 C 
ATOM      2  C   UNL     1     -44.933 -27.655  -0.358  1.00  0.00    -0.031 C 
ENDROOT
BRANCH   1   3
ATOM      3  C   UNL     1     -44.882 -29.749  -1.697  1.00  0.00     0.027 C 
BRANCH   3   4
ATOM      4  C   UNL     1     -46.140 -29.160  -2.354  1.00  0.00     0.004 C 
BRANCH   4   5
ATOM      5  C   UNL     1     -46.125 -29.297  -3.884  1.00  0.00     0.000 C 
BRANCH   5   6
ATOM      6  C   UNL     1     -46.278 -27.942  -4.598  1.00  0.00     0.000 C 
BRANCH   6   7
ATOM      7  C   UNL     1     -45.070 -27.603  -5.485  1.00  0.00     0.000 C 
BRANCH   7   8
ATOM      8  C   UNL     1     -45.353 -27.828  -6.980  1.00  0.00     0.006 C 
BRANCH   8   9
ATOM      9  C   UNL     1     -44.101 -27.628  -7.844  1.00  0.00     0.053 C 
BRANCH   9  10
ATOM     10  C   UNL     1     -43.135 -28.763  -7.689  1.00  0.00     0.041 C 
ATOM     11  O   UNL     1     -43.549 -29.952  -7.683  1.00  0.00    -0.550 OA
ATOM     12  O   UNL     1     -41.780 -28.505  -7.519  1.00  0.00    -0.550 OA
ENDBRANCH   9  10
ENDBRANCH   8   9
ENDBRANCH   7   8
ENDBRANCH   6   7
ENDBRANCH   5   6
ENDBRANCH   4   5
ENDBRANCH   3   4
ENDBRANCH   1   3
BRANCH   2  13
ATOM     13  C   UNL     1     -44.405 -26.743   0.715  1.00  0.00     0.027 C 
BRANCH  13  14
ATOM     14  C   UNL     1     -45.549 -26.048   1.463  1.00  0.00     0.004 C 
BRANCH  14  15
ATOM     15  C   UNL     1     -46.569 -27.070   1.978  1.00  0.00     0.000 C 
BRANCH  15  16
ATOM     16  C   UNL     1     -47.039 -26.712   3.396  1.00  0.00     0.000 C 
BRANCH  16  17
ATOM     17  C   UNL     1     -46.139 -27.306   4.490  1.00  0.00    -0.000 C 
BRANCH  17  18
ATOM     18  C   UNL     1     -46.222 -26.524   5.814  1.00  0.00    -0.000 C 
BRANCH  18  19
ATOM     19  C   UNL     1     -45.369 -27.156   6.925  1.00  0.00    -0.003 C 
ATOM     20  C   UNL     1     -45.138 -28.653   6.716  1.00  0.00     0.004 C 
ENDBRANCH  18  19
ENDBRANCH  17  18
ENDBRANCH  16  17
ENDBRANCH  15  16
ENDBRANCH  14  15
ENDBRANCH  13  14
ENDBRANCH   2  13
TORSDOF 15
ENDMDL
MODEL 4
REMARK VINA RESULT:    -3.940      4.850     10.675
REMARK INTER + INTRA:          -8.476
REMARK INTER:                  -7.603
REMARK INTRA:                  -0.872
REMARK UNBOUND:                -1.080
REMARK SMILES CCCCCCCCC=CCCCCCCCC(=O)[O-]
REMARK SMILES IDX 10 1 9 2 11 3 12 4 13 5 14 6 15 7 16 8 17 9 18 10 19 11
REMARK SMILES IDX 20 12 8 13 7 14 6 15 5 16 4 17 3 18 2 19 1 20
REMARK H PARENT
REMARK Flexibility Score: inf
ROOT
ATOM      1  C   UNL     1     -45.501 -27.906  -1.665  1.00  0.00    -0.031 C 
ATOM      2  C   UNL     1     -45.549 -27.829  -0.326  1.00  0.00    -0.031 C 
ENDROOT
BRANCH   1   3
ATOM      3  C   UNL     1     -46.546 -28.649  -2.450  1.00  0.00     0.027 C 
BRANCH   3   4
ATOM      4  C   UNL     1     -46.008 -29.072  -3.826  1.00  0.00     0.004 C 
BRANCH   4   5
ATOM      5  C   UNL     1     -45.639 -27.870  -4.709  1.00  0.00     0.000 C 
BRANCH   5   6
ATOM      6  C   UNL     1     -46.304 -27.933  -6.096  1.00  0.00     0.000 C 
BRANCH   6   7
ATOM      7  C   UNL     1     -45.518 -27.154  -7.162  1.00  0.00     0.000 C 
BRANCH   7   8
ATOM      8  C   UNL     1     -45.339 -27.953  -8.465  1.00  0.00     0.006 C 
BRANCH   8   9
ATOM      9  C   UNL     1     -43.871 -28.015  -8.909  1.00  0.00     0.053 C 
BRANCH   9  10
ATOM     10  C   UNL     1     -43.060 -28.902  -8.014  1.00  0.00     0.041 C 
ATOM     11  O   UNL     1     -41.846 -28.651  -7.802  1.00  0.00    -0.550 OA
ATOM     12  O   UNL     1     -43.641 -30.026  -7.439  1.00  0.00    -0.550 OA
ENDBRANCH   9  10
ENDBRANCH   8   9
ENDBRANCH   7   8
ENDBRANCH   6   7
ENDBRANCH   5   6
ENDBRANCH   4   5
ENDBRANCH   3   4
ENDBRANCH   1   3
BRANCH   2  13
ATOM     13  C   UNL     1     -44.504 -27.086   0.459  1.00  0.00     0.027 C 
BRANCH  13  14
ATOM     14  C   UNL     1     -45.147 -26.109   1.451  1.00  0.00     0.004 C 
BRANCH  14  15
ATOM     15  C   UNL     1     -46.669 -26.288   1.491  1.00  0.00     0.000 C 
BRANCH  15  16
ATOM     16  C   UNL     1     -47.121 -26.865   2.841  1.00  0.00     0.000 C 
BRANCH  16  17
ATOM     17  C   UNL     1     -46.066 -26.694   3.945  1.00  0.00    -0.000 C 
BRANCH  17  18
ATOM     18  C   UNL     1     -46.692 -26.558   5.344  1.00  0.00    -0.000 C 
BRANCH  18  19
ATOM     19  C   UNL     1     -45.650 -26.673   6.468  1.00  0.00    -0.003 C 
ATOM     20  C   UNL     1     -45.277 -28.122   6.784  1.00  0.00     0.004 C 
ENDBRANCH  18  19
ENDBRANCH  17  18
ENDBRANCH  16  17
ENDBRANCH  15  16
ENDBRANCH  14  15
ENDBRANCH  13  14
ENDBRANCH   2  13
TORSDOF 15
ENDMDL
MODEL 5
REMARK VINA RESULT:    -3.899      5.218      9.628
REMARK INTER + INTRA:          -8.398
REMARK INTER:                  -7.057
REMARK INTRA:                  -1.341
REMARK UNBOUND:                -1.080
REMARK SMILES CCCCCCCCC=CCCCCCCCC(=O)[O-]
REMARK SMILES IDX 10 1 9 2 11 3 12 4 13 5 14 6 15 7 16 8 17 9 18 10 19 11
REMARK SMILES IDX 20 12 8 13 7 14 6 15 5 16 4 17 3 18 2 19 1 20
REMARK H PARENT
REMARK Flexibility Score: inf
ROOT
ATOM      1  C   UNL     1     -46.198 -28.269  -3.317  1.00  0.00    -0.031 C 
ATOM      2  C   UNL     1     -46.172 -29.379  -2.563  1.00  0.00    -0.031 C 
ENDROOT
BRANCH   1   3
ATOM      3  C   UNL     1     -45.612 -28.245  -4.702  1.00  0.00     0.027 C 
BRANCH   3   4
ATOM      4  C   UNL     1     -46.266 -29.308  -5.598  1.00  0.00     0.004 C 
BRANCH   4   5
ATOM      5  C   UNL     1     -46.803 -28.721  -6.913  1.00  0.00     0.000 C 
BRANCH   5   6
ATOM      6  C   UNL     1     -45.966 -27.530  -7.412  1.00  0.00     0.000 C 
BRANCH   6   7
ATOM      7  C   UNL     1     -45.742 -27.562  -8.931  1.00  0.00     0.000 C 
BRANCH   7   8
ATOM      8  C   UNL     1     -44.337 -28.063  -9.311  1.00  0.00     0.006 C 
BRANCH   8   9
ATOM      9  C   UNL     1     -43.342 -27.929  -8.150  1.00  0.00     0.053 C 
BRANCH   9  10
ATOM     10  C   UNL     1     -42.451 -29.130  -8.046  1.00  0.00     0.041 C 
ATOM     11  O   UNL     1     -42.683 -30.020  -7.187  1.00  0.00    -0.550 OA
ATOM     12  O   UNL     1     -41.344 -29.248  -8.877  1.00  0.00    -0.550 OA
ENDBRANCH   9  10
ENDBRANCH   8   9
ENDBRANCH   7   8
ENDBRANCH   6   7
ENDBRANCH   5   6
ENDBRANCH   4   5
ENDBRANCH   3   4
ENDBRANCH   1   3
BRANCH   2  13
ATOM     13  C   UNL     1     -46.758 -29.404  -1.178  1.00  0.00     0.027 C 
BRANCH  13  14
ATOM     14  C   UNL     1     -46.887 -27.988  -0.605  1.00  0.00     0.004 C 
BRANCH  14  15
ATOM     15  C   UNL     1     -46.126 -27.858   0.719  1.00  0.00     0.000 C 
BRANCH  15  16
ATOM     16  C   UNL     1     -44.741 -27.230   0.499  1.00  0.00     0.000 C 
BRANCH  16  17
ATOM     17  C   UNL     1     -43.691 -28.252   0.037  1.00  0.00    -0.000 C 
BRANCH  17  18
ATOM     18  C   UNL     1     -42.518 -27.596  -0.713  1.00  0.00    -0.000 C 
BRANCH  18  19
ATOM     19  C   UNL     1     -41.156 -28.174  -0.298  1.00  0.00    -0.003 C 
ATOM     20  C   UNL     1     -41.218 -29.669   0.013  1.00  0.00     0.004 C 
ENDBRANCH  18  19
ENDBRANCH  17  18
ENDBRANCH  16  17
ENDBRANCH  15  16
ENDBRANCH  14  15
ENDBRANCH  13  14
ENDBRANCH   2  13
TORSDOF 15
ENDMDL
MODEL 6
REMARK VINA RESULT:    -3.595      1.189      2.258
REMARK INTER + INTRA:          -7.828
REMARK INTER:                  -6.682
REMARK INTRA:                  -1.146
REMARK UNBOUND:                -1.080
REMARK SMILES CCCCCCCCC=CCCCCCCCC(=O)[O-]
REMARK SMILES IDX 10 1 9 2 11 3 12 4 13 5 14 6 15 7 16 8 17 9 18 10 19 11
REMARK SMILES IDX 20 12 8 13 7 14 6 15 5 16 4 17 3 18 2 19 1 20
REMARK H PARENT
REMARK Flexibility Score: inf
ROOT
ATOM      1  C   UNL     1     -44.370 -27.192   0.486  1.00  0.00    -0.031 C 
ATOM      2  C   UNL     1     -45.131 -28.027  -0.239  1.00  0.00    -0.031 C 
ENDROOT
BRANCH   1   3
ATOM      3  C   UNL     1     -44.966 -26.028   1.229  1.00  0.00     0.027 C 
BRANCH   3   4
ATOM      4  C   UNL     1     -46.469 -26.236   1.469  1.00  0.00     0.004 C 
BRANCH   4   5
ATOM      5  C   UNL     1     -46.804 -26.449   2.954  1.00  0.00     0.000 C 
BRANCH   5   6
ATOM      6  C   UNL     1     -47.124 -27.918   3.281  1.00  0.00     0.000 C 
BRANCH   6   7
ATOM      7  C   UNL     1     -45.990 -28.611   4.052  1.00  0.00     0.000 C 
BRANCH   7   8
ATOM      8  C   UNL     1     -46.372 -28.924   5.509  1.00  0.00     0.006 C 
BRANCH   8   9
ATOM      9  C   UNL     1     -45.334 -28.393   6.507  1.00  0.00     0.053 C 
BRANCH   9  10
ATOM     10  C   UNL     1     -45.709 -27.038   7.026  1.00  0.00     0.041 C 
ATOM     11  O   UNL     1     -45.345 -26.000   6.413  1.00  0.00    -0.550 OA
ATOM     12  O   UNL     1     -46.434 -26.922   8.205  1.00  0.00    -0.550 OA
ENDBRANCH   9  10
ENDBRANCH   8   9
ENDBRANCH   7   8
ENDBRANCH   6   7
ENDBRANCH   5   6
ENDBRANCH   4   5
ENDBRANCH   3   4
ENDBRANCH   1   3
BRANCH   2  13
ATOM     13  C   UNL     1     -44.535 -29.191  -0.982  1.00  0.00     0.027 C 
BRANCH  13  14
ATOM     14  C   UNL     1     -45.351 -29.523  -2.237  1.00  0.00     0.004 C 
BRANCH  14  15
ATOM     15  C   UNL     1     -45.991 -28.260  -2.827  1.00  0.00     0.000 C 
BRANCH  15  16
ATOM     16  C   UNL     1     -46.731 -28.577  -4.135  1.00  0.00     0.000 C 
BRANCH  16  17
ATOM     17  C   UNL     1     -46.506 -27.512  -5.219  1.00  0.00    -0.000 C 
BRANCH  17  18
ATOM     18  C   UNL     1     -45.927 -28.103  -6.517  1.00  0.00    -0.000 C 
BRANCH  18  19
ATOM     19  C   UNL     1     -44.671 -27.357  -6.995  1.00  0.00    -0.003 C 
ATOM     20  C   UNL     1     -43.541 -28.302  -7.404  1.00  0.00     0.004 C 
ENDBRANCH  18  19
ENDBRANCH  17  18
ENDBRANCH  16  17
ENDBRANCH  15  16
ENDBRANCH  14  15
ENDBRANCH  13  14
ENDBRANCH   2  13
TORSDOF 15
ENDMDL
MODEL 7
REMARK VINA RESULT:    -3.425      1.022      1.758
REMARK INTER + INTRA:          -7.508
REMARK INTER:                  -6.673
REMARK INTRA:                  -0.835
REMARK UNBOUND:                -1.080
REMARK SMILES CCCCCCCCC=CCCCCCCCC(=O)[O-]
REMARK SMILES IDX 10 1 9 2 11 3 12 4 13 5 14 6 15 7 16 8 17 9 18 10 19 11
REMARK SMILES IDX 20 12 8 13 7 14 6 15 5 16 4 17 3 18 2 19 1 20
REMARK H PARENT
REMARK Flexibility Score: inf
ROOT
ATOM      1  C   UNL     1     -45.309 -28.225  -2.992  1.00  0.00    -0.031 C 
ATOM      2  C   UNL     1     -46.078 -28.218  -4.092  1.00  0.00    -0.031 C 
ENDROOT
BRANCH   1   3
ATOM      3  C   UNL     1     -45.850 -28.651  -1.655  1.00  0.00     0.027 C 
BRANCH   3   4
ATOM      4  C   UNL     1     -45.158 -27.894  -0.511  1.00  0.00     0.004 C 
BRANCH   4   5
ATOM      5  C   UNL     1     -45.979 -27.909   0.788  1.00  0.00     0.000 C 
BRANCH   5   6
ATOM      6  C   UNL     1     -45.743 -26.656   1.649  1.00  0.00     0.000 C 
BRANCH   6   7
ATOM      7  C   UNL     1     -46.784 -26.506   2.769  1.00  0.00     0.000 C 
BRANCH   7   8
ATOM      8  C   UNL     1     -46.402 -27.287   4.038  1.00  0.00     0.006 C 
BRANCH   8   9
ATOM      9  C   UNL     1     -46.531 -26.431   5.306  1.00  0.00     0.053 C 
BRANCH   9  10
ATOM     10  C   UNL     1     -45.750 -27.011   6.446  1.00  0.00     0.041 C 
ATOM     11  O   UNL     1     -45.574 -26.345   7.499  1.00  0.00    -0.550 OA
ATOM     12  O   UNL     1     -45.189 -28.277   6.331  1.00  0.00    -0.550 OA
ENDBRANCH   9  10
ENDBRANCH   8   9
ENDBRANCH   7   8
ENDBRANCH   6   7
ENDBRANCH   5   6
ENDBRANCH   4   5
ENDBRANCH   3   4
ENDBRANCH   1   3
BRANCH   2  13
ATOM     13  C   UNL     1     -45.537 -27.791  -5.429  1.00  0.00     0.027 C 
BRANCH  13  14
ATOM     14  C   UNL     1     -46.568 -28.018  -6.541  1.00  0.00     0.004 C 
BRANCH  14  15
ATOM     15  C   UNL     1     -46.072 -27.447  -7.875  1.00  0.00     0.000 C 
BRANCH  15  16
ATOM     16  C   UNL     1     -46.343 -28.425  -9.028  1.00  0.00     0.000 C 
BRANCH  16  17
ATOM     17  C   UNL     1     -45.060 -28.867  -9.749  1.00  0.00    -0.000 C 
BRANCH  17  18
ATOM     18  C   UNL     1     -44.139 -29.712  -8.851  1.00  0.00    -0.000 C 
BRANCH  18  19
ATOM     19  C   UNL     1     -42.720 -29.131  -8.752  1.00  0.00    -0.003 C 
ATOM     20  C   UNL     1     -42.539 -28.212  -7.544  1.00  0.00     0.004 C 
ENDBRANCH  18  19
ENDBRANCH  17  18
ENDBRANCH  16  17
ENDBRANCH  15  16
ENDBRANCH  14  15
ENDBRANCH  13  14
ENDBRANCH   2  13
TORSDOF 15
ENDMDL
MODEL 8
REMARK VINA RESULT:    -3.184      5.213     10.428
REMARK INTER + INTRA:          -7.057
REMARK INTER:                  -5.933
REMARK INTRA:                  -1.124
REMARK UNBOUND:                -1.080
REMARK SMILES CCCCCCCCC=CCCCCCCCC(=O)[O-]
REMARK SMILES IDX 10 1 9 2 11 3 12 4 13 5 14 6 15 7 16 8 17 9 18 10 19 11
REMARK SMILES IDX 20 12 8 13 7 14 6 15 5 16 4 17 3 18 2 19 1 20
REMARK H PARENT
REMARK Flexibility Score: inf
ROOT
ATOM      1  C   UNL     1     -45.247 -28.032  -2.940  1.00  0.00    -0.031 C 
ATOM      2  C   UNL     1     -46.033 -29.118  -2.908  1.00  0.00    -0.031 C 
ENDROOT
BRANCH   1   3
ATOM      3  C   UNL     1     -45.234 -27.102  -4.123  1.00  0.00     0.027 C 
BRANCH   3   4
ATOM      4  C   UNL     1     -45.926 -27.743  -5.336  1.00  0.00     0.004 C 
BRANCH   4   5
ATOM      5  C   UNL     1     -45.062 -27.683  -6.606  1.00  0.00     0.000 C 
BRANCH   5   6
ATOM      6  C   UNL     1     -45.531 -28.675  -7.685  1.00  0.00     0.000 C 
BRANCH   6   7
ATOM      7  C   UNL     1     -45.500 -28.069  -9.096  1.00  0.00     0.000 C 
BRANCH   7   8
ATOM      8  C   UNL     1     -44.171 -28.337  -9.824  1.00  0.00     0.006 C 
BRANCH   8   9
ATOM      9  C   UNL     1     -43.472 -29.601  -9.307  1.00  0.00     0.053 C 
BRANCH   9  10
ATOM     10  C   UNL     1     -42.067 -29.316  -8.871  1.00  0.00     0.041 C 
ATOM     11  O   UNL     1     -41.094 -29.718  -9.561  1.00  0.00    -0.550 OA
ATOM     12  O   UNL     1     -41.832 -28.633  -7.684  1.00  0.00    -0.550 OA
ENDBRANCH   9  10
ENDBRANCH   8   9
ENDBRANCH   7   8
ENDBRANCH   6   7
ENDBRANCH   5   6
ENDBRANCH   4   5
ENDBRANCH   3   4
ENDBRANCH   1   3
BRANCH   2  13
ATOM     13  C   UNL     1     -46.046 -30.048  -1.726  1.00  0.00     0.027 C 
BRANCH  13  14
ATOM     14  C   UNL     1     -44.664 -30.120  -1.065  1.00  0.00     0.004 C 
BRANCH  14  15
ATOM     15  C   UNL     1     -44.702 -29.535   0.352  1.00  0.00     0.000 C 
BRANCH  15  16
ATOM     16  C   UNL     1     -46.126 -29.104   0.732  1.00  0.00     0.000 C 
BRANCH  16  17
ATOM     17  C   UNL     1     -46.369 -29.122   2.249  1.00  0.00    -0.000 C 
BRANCH  17  18
ATOM     18  C   UNL     1     -46.300 -27.719   2.877  1.00  0.00    -0.000 C 
BRANCH  18  19
ATOM     19  C   UNL     1     -46.489 -26.601   1.839  1.00  0.00    -0.003 C 
ATOM     20  C   UNL     1     -45.219 -25.777   1.619  1.00  0.00     0.004 C 
ENDBRANCH  18  19
ENDBRANCH  17  18
ENDBRANCH  16  17
ENDBRANCH  15  16
ENDBRANCH  14  15
ENDBRANCH  13  14
ENDBRANCH   2  13
TORSDOF 15
ENDMDL
MODEL 9
REMARK VINA RESULT:    -3.114      5.165      9.784
REMARK INTER + INTRA:          -6.924
REMARK INTER:                  -5.524
REMARK INTRA:                  -1.401
REMARK UNBOUND:                -1.080
REMARK SMILES CCCCCCCCC=CCCCCCCCC(=O)[O-]
REMARK SMILES IDX 10 1 9 2 11 3 12 4 13 5 14 6 15 7 16 8 17 9 18 10 19 11
REMARK SMILES IDX 20 12 8 13 7 14 6 15 5 16 4 17 3 18 2 19 1 20
REMARK H PARENT
REMARK Flexibility Score: inf
ROOT
ATOM      1  C   UNL     1     -44.044 -28.074   0.063  1.00  0.00    -0.031 C 
ATOM      2  C   UNL     1     -44.049 -29.413   0.157  1.00  0.00    -0.031 C 
ENDROOT
BRANCH   1   3
ATOM      3  C   UNL     1     -43.263 -27.362  -1.007  1.00  0.00     0.027 C 
BRANCH   3   4
ATOM      4  C   UNL     1     -44.125 -27.128  -2.257  1.00  0.00     0.004 C 
BRANCH   4   5
ATOM      5  C   UNL     1     -45.460 -27.888  -2.203  1.00  0.00     0.000 C 
BRANCH   5   6
ATOM      6  C   UNL     1     -45.744 -28.670  -3.498  1.00  0.00     0.000 C 
BRANCH   6   7
ATOM      7  C   UNL     1     -45.753 -27.767  -4.742  1.00  0.00     0.000 C 
BRANCH   7   8
ATOM      8  C   UNL     1     -45.206 -28.479  -5.992  1.00  0.00     0.006 C 
BRANCH   8   9
ATOM      9  C   UNL     1     -45.124 -27.540  -7.203  1.00  0.00     0.053 C 
BRANCH   9  10
ATOM     10  C   UNL     1     -44.486 -28.213  -8.381  1.00  0.00     0.041 C 
ATOM     11  O   UNL     1     -44.263 -27.567  -9.437  1.00  0.00    -0.550 OA
ATOM     12  O   UNL     1     -44.168 -29.564  -8.321  1.00  0.00    -0.550 OA
ENDBRANCH   9  10
ENDBRANCH   8   9
ENDBRANCH   7   8
ENDBRANCH   6   7
ENDBRANCH   5   6
ENDBRANCH   4   5
ENDBRANCH   3   4
ENDBRANCH   1   3
BRANCH   2  13
ATOM     13  C   UNL     1     -44.830 -30.125   1.227  1.00  0.00     0.027 C 
BRANCH  13  14
ATOM     14  C   UNL     1     -46.338 -30.047   0.957  1.00  0.00     0.004 C 
BRANCH  14  15
ATOM     15  C   UNL     1     -47.098 -29.594   2.209  1.00  0.00     0.000 C 
BRANCH  15  16
ATOM     16  C   UNL     1     -46.165 -29.529   3.427  1.00  0.00     0.000 C 
BRANCH  16  17
ATOM     17  C   UNL     1     -46.423 -28.300   4.311  1.00  0.00    -0.000 C 
BRANCH  17  18
ATOM     18  C   UNL     1     -47.051 -27.131   3.531  1.00  0.00    -0.000 C 
BRANCH  18  19
ATOM     19  C   UNL     1     -46.019 -26.365   2.688  1.00  0.00    -0.003 C 
ATOM     20  C   UNL     1     -46.628 -25.734   1.435  1.00  0.00     0.004 C 
ENDBRANCH  18  19
ENDBRANCH  17  18
ENDBRANCH  16  17
ENDBRANCH  15  16
ENDBRANCH  14  15
ENDBRANCH  13  14
ENDBRANCH   2  13
TORSDOF 15
ENDMDL
