MODEL 1
REMARK VINA RESULT:    -7.066      0.000      0.000
REMARK INTER + INTRA:          -9.037
REMARK INTER:                  -8.718
REMARK INTRA:                  -0.319
REMARK UNBOUND:                -0.319
REMARK SMILES Oc1cc(O)c2cc(O)c(-c3cc(O)c(O)c(O)c3)[o+]c2c1
REMARK SMILES IDX 10 1 20 2 21 3 22 4 2 5 3 6 4 7 6 8 7 9 8 10 11 11 12 12
REMARK SMILES IDX 13 13 19 14 15 15 17 16 14 17 16 19 18 21 9 23 1 25 5 27
REMARK H PARENT 14 18 16 20 18 22 9 24 1 26 5 28
REMARK Flexibility Score: inf
ROOT
ATOM      1  C   UNL     1     181.048 -18.390  25.599  1.00  0.00     0.402 A 
ATOM      2  O   UNL     1     182.231 -17.802  25.750  1.00  0.00    -0.202 OA
ATOM      3  C   UNL     1     182.375 -16.548  26.168  1.00  0.00     0.368 A 
ATOM      4  C   UNL     1     183.661 -16.019  26.299  1.00  0.00     0.162 A 
ATOM      5  C   UNL     1     183.842 -14.707  26.738  1.00  0.00     0.128 A 
ATOM      6  C   UNL     1     182.730 -13.916  27.048  1.00  0.00     0.093 A 
ATOM      7  C   UNL     1     181.430 -14.423  26.925  1.00  0.00     0.136 A 
ATOM      8  C   UNL     1     181.243 -15.757  26.476  1.00  0.00     0.125 A 
ATOM      9  C   UNL     1     179.978 -16.344  26.310  1.00  0.00     0.078 A 
ATOM     10  C   UNL     1     179.871 -17.664  25.860  1.00  0.00     0.223 A 
ENDROOT
BRANCH   1  11
ATOM     11  C   UNL     1     181.018 -19.797  25.136  1.00  0.00     0.091 A 
ATOM     12  C   UNL     1     180.700 -20.815  26.045  1.00  0.00     0.068 A 
ATOM     13  C   UNL     1     180.645 -22.150  25.628  1.00  0.00     0.162 A 
ATOM     14  C   UNL     1     181.244 -20.129  23.790  1.00  0.00     0.068 A 
ATOM     15  C   UNL     1     180.895 -22.484  24.289  1.00  0.00     0.200 A 
ATOM     16  C   UNL     1     181.190 -21.460  23.359  1.00  0.00     0.162 A 
BRANCH  13  17
ATOM     17  O   UNL     1     180.345 -23.158  26.544  1.00  0.00    -0.504 OA
ATOM     18  H   UNL     1     179.607 -23.830  26.371  1.00  0.00     0.293 HD
ENDBRANCH  13  17
BRANCH  15  19
ATOM     19  O   UNL     1     180.835 -23.833  23.927  1.00  0.00    -0.502 OA
ATOM     20  H   UNL     1     180.273 -24.522  24.404  1.00  0.00     0.293 HD
ENDBRANCH  15  19
BRANCH  16  21
ATOM     21  O   UNL     1     181.428 -21.714  22.006  1.00  0.00    -0.504 OA
ATOM     22  H   UNL     1     180.781 -22.197  21.400  1.00  0.00     0.293 HD
ENDBRANCH  16  21
ENDBRANCH   1  11
BRANCH  10  23
ATOM     23  O   UNL     1     178.615 -18.231  25.648  1.00  0.00    -0.500 OA
ATOM     24  H   UNL     1     178.489 -19.035  25.044  1.00  0.00     0.294 HD
ENDBRANCH  10  23
BRANCH   5  25
ATOM     25  O   UNL     1     185.133 -14.197  26.862  1.00  0.00    -0.507 OA
ATOM     26  H   UNL     1     185.357 -13.480  27.544  1.00  0.00     0.293 HD
ENDBRANCH   5  25
BRANCH   7  27
ATOM     27  O   UNL     1     180.373 -13.572  27.258  1.00  0.00    -0.507 OA
ATOM     28  H   UNL     1     180.283 -12.620  26.933  1.00  0.00     0.293 HD
ENDBRANCH   7  27
TORSDOF 7
ENDMDL
MODEL 2
REMARK VINA RESULT:    -7.035      0.216      1.810
REMARK INTER + INTRA:          -8.999
REMARK INTER:                  -8.676
REMARK INTRA:                  -0.323
REMARK UNBOUND:                -0.319
REMARK SMILES Oc1cc(O)c2cc(O)c(-c3cc(O)c(O)c(O)c3)[o+]c2c1
REMARK SMILES IDX 10 1 20 2 21 3 22 4 2 5 3 6 4 7 6 8 7 9 8 10 11 11 12 12
REMARK SMILES IDX 13 13 19 14 15 15 17 16 14 17 16 19 18 21 9 23 1 25 5 27
REMARK H PARENT 14 18 16 20 18 22 9 24 1 26 5 28
REMARK Flexibility Score: inf
ROOT
ATOM      1  C   UNL     1     181.038 -18.366  25.576  1.00  0.00     0.402 A 
ATOM      2  O   UNL     1     182.258 -17.850  25.691  1.00  0.00    -0.202 OA
ATOM      3  C   UNL     1     182.489 -16.607  26.106  1.00  0.00     0.368 A 
ATOM      4  C   UNL     1     183.808 -16.156  26.198  1.00  0.00     0.162 A 
ATOM      5  C   UNL     1     184.080 -14.858  26.633  1.00  0.00     0.128 A 
ATOM      6  C   UNL     1     183.026 -14.004  26.979  1.00  0.00     0.093 A 
ATOM      7  C   UNL     1     181.696 -14.433  26.896  1.00  0.00     0.136 A 
ATOM      8  C   UNL     1     181.415 -15.751  26.451  1.00  0.00     0.125 A 
ATOM      9  C   UNL     1     180.113 -16.263  26.323  1.00  0.00     0.078 A 
ATOM     10  C   UNL     1     179.915 -17.572  25.875  1.00  0.00     0.223 A 
ENDROOT
BRANCH   1  11
ATOM     11  C   UNL     1     180.910 -19.767  25.112  1.00  0.00     0.091 A 
ATOM     12  C   UNL     1     181.229 -20.085  23.785  1.00  0.00     0.068 A 
ATOM     13  C   UNL     1     181.137 -21.405  23.328  1.00  0.00     0.162 A 
ATOM     14  C   UNL     1     180.533 -20.796  25.989  1.00  0.00     0.068 A 
ATOM     15  C   UNL     1     180.737 -22.429  24.198  1.00  0.00     0.200 A 
ATOM     16  C   UNL     1     180.439 -22.121  25.546  1.00  0.00     0.162 A 
BRANCH  13  17
ATOM     17  O   UNL     1     181.440 -21.710  22.001  1.00  0.00    -0.504 OA
ATOM     18  H   UNL     1     182.330 -21.457  21.588  1.00  0.00     0.293 HD
ENDBRANCH  13  17
BRANCH  15  19
ATOM     19  O   UNL     1     180.653 -23.728  23.689  1.00  0.00    -0.502 OA
ATOM     20  H   UNL     1     181.435 -24.363  23.627  1.00  0.00     0.293 HD
ENDBRANCH  15  19
BRANCH  16  21
ATOM     21  O   UNL     1     180.056 -23.091  26.476  1.00  0.00    -0.504 OA
ATOM     22  H   UNL     1     180.193 -23.004  27.472  1.00  0.00     0.293 HD
ENDBRANCH  16  21
ENDBRANCH   1  11
BRANCH  10  23
ATOM     23  O   UNL     1     178.621 -18.063  25.701  1.00  0.00    -0.500 OA
ATOM     24  H   UNL     1     178.271 -18.331  24.788  1.00  0.00     0.294 HD
ENDBRANCH  10  23
BRANCH   5  25
ATOM     25  O   UNL     1     185.402 -14.426  26.718  1.00  0.00    -0.507 OA
ATOM     26  H   UNL     1     186.120 -14.791  26.103  1.00  0.00     0.293 HD
ENDBRANCH   5  25
BRANCH   7  27
ATOM     27  O   UNL     1     180.702 -13.522  27.262  1.00  0.00    -0.507 OA
ATOM     28  H   UNL     1     180.688 -12.551  26.986  1.00  0.00     0.293 HD
ENDBRANCH   7  27
TORSDOF 7
ENDMDL
MODEL 3
REMARK VINA RESULT:    -7.015      3.284      4.515
REMARK INTER + INTRA:          -8.974
REMARK INTER:                  -8.639
REMARK INTRA:                  -0.335
REMARK UNBOUND:                -0.319
REMARK SMILES Oc1cc(O)c2cc(O)c(-c3cc(O)c(O)c(O)c3)[o+]c2c1
REMARK SMILES IDX 10 1 20 2 21 3 22 4 2 5 3 6 4 7 6 8 7 9 8 10 11 11 12 12
REMARK SMILES IDX 13 13 19 14 15 15 17 16 14 17 16 19 18 21 9 23 1 25 5 27
REMARK H PARENT 14 18 16 20 18 22 9 24 1 26 5 28
REMARK Flexibility Score: inf
ROOT
ATOM      1  C   UNL     1     183.765 -19.236  23.954  1.00  0.00     0.402 A 
ATOM      2  O   UNL     1     185.046 -19.368  23.623  1.00  0.00    -0.202 OA
ATOM      3  C   UNL     1     185.889 -18.342  23.544  1.00  0.00     0.368 A 
ATOM      4  C   UNL     1     187.219 -18.582  23.192  1.00  0.00     0.162 A 
ATOM      5  C   UNL     1     188.126 -17.525  23.103  1.00  0.00     0.128 A 
ATOM      6  C   UNL     1     187.702 -16.218  23.369  1.00  0.00     0.093 A 
ATOM      7  C   UNL     1     186.374 -15.952  23.725  1.00  0.00     0.136 A 
ATOM      8  C   UNL     1     185.448 -17.024  23.813  1.00  0.00     0.125 A 
ATOM      9  C   UNL     1     184.095 -16.850  24.149  1.00  0.00     0.078 A 
ATOM     10  C   UNL     1     183.241 -17.955  24.212  1.00  0.00     0.223 A 
ENDROOT
BRANCH   1  11
ATOM     11  C   UNL     1     182.928 -20.456  24.018  1.00  0.00     0.091 A 
ATOM     12  C   UNL     1     182.577 -21.114  22.832  1.00  0.00     0.068 A 
ATOM     13  C   UNL     1     181.804 -22.281  22.866  1.00  0.00     0.162 A 
ATOM     14  C   UNL     1     182.526 -21.004  25.247  1.00  0.00     0.068 A 
ATOM     15  C   UNL     1     181.383 -22.814  24.093  1.00  0.00     0.200 A 
ATOM     16  C   UNL     1     181.756 -22.172  25.297  1.00  0.00     0.162 A 
BRANCH  13  17
ATOM     17  O   UNL     1     181.445 -22.919  21.680  1.00  0.00    -0.504 OA
ATOM     18  H   UNL     1     180.475 -23.057  21.422  1.00  0.00     0.293 HD
ENDBRANCH  13  17
BRANCH  15  19
ATOM     19  O   UNL     1     180.606 -23.976  24.071  1.00  0.00    -0.502 OA
ATOM     20  H   UNL     1     179.852 -24.141  23.421  1.00  0.00     0.293 HD
ENDBRANCH  15  19
BRANCH  16  21
ATOM     21  O   UNL     1     181.392 -22.656  26.555  1.00  0.00    -0.504 OA
ATOM     22  H   UNL     1     181.108 -22.070  27.326  1.00  0.00     0.293 HD
ENDBRANCH  16  21
ENDBRANCH   1  11
BRANCH  10  23
ATOM     23  O   UNL     1     181.887 -17.777  24.497  1.00  0.00    -0.500 OA
ATOM     24  H   UNL     1     181.472 -16.855  24.560  1.00  0.00     0.294 HD
ENDBRANCH  10  23
BRANCH   5  25
ATOM     25  O   UNL     1     189.449 -17.784  22.750  1.00  0.00    -0.507 OA
ATOM     26  H   UNL     1     189.716 -17.961  21.788  1.00  0.00     0.293 HD
ENDBRANCH   5  25
BRANCH   7  27
ATOM     27  O   UNL     1     186.030 -14.621  23.979  1.00  0.00    -0.507 OA
ATOM     28  H   UNL     1     185.162 -14.193  23.694  1.00  0.00     0.293 HD
ENDBRANCH   7  27
TORSDOF 7
ENDMDL
MODEL 4
REMARK VINA RESULT:    -6.771      3.261      6.784
REMARK INTER + INTRA:          -8.673
REMARK INTER:                  -8.329
REMARK INTRA:                  -0.343
REMARK UNBOUND:                -0.319
REMARK SMILES Oc1cc(O)c2cc(O)c(-c3cc(O)c(O)c(O)c3)[o+]c2c1
REMARK SMILES IDX 10 1 20 2 21 3 22 4 2 5 3 6 4 7 6 8 7 9 8 10 11 11 12 12
REMARK SMILES IDX 13 13 19 14 15 15 17 16 14 17 16 19 18 21 9 23 1 25 5 27
REMARK H PARENT 14 18 16 20 18 22 9 24 1 26 5 28
REMARK Flexibility Score: inf
ROOT
ATOM      1  C   UNL     1     182.846 -20.088  24.623  1.00  0.00     0.402 A 
ATOM      2  O   UNL     1     182.895 -20.637  25.833  1.00  0.00    -0.202 OA
ATOM      3  C   UNL     1     181.944 -21.434  26.312  1.00  0.00     0.368 A 
ATOM      4  C   UNL     1     182.087 -21.967  27.595  1.00  0.00     0.162 A 
ATOM      5  C   UNL     1     181.106 -22.808  28.123  1.00  0.00     0.128 A 
ATOM      6  C   UNL     1     179.973 -23.119  27.362  1.00  0.00     0.093 A 
ATOM      7  C   UNL     1     179.806 -22.598  26.073  1.00  0.00     0.136 A 
ATOM      8  C   UNL     1     180.801 -21.740  25.535  1.00  0.00     0.125 A 
ATOM      9  C   UNL     1     180.712 -21.161  24.258  1.00  0.00     0.078 A 
ATOM     10  C   UNL     1     181.731 -20.321  23.797  1.00  0.00     0.223 A 
ENDROOT
BRANCH   1  11
ATOM     11  C   UNL     1     183.973 -19.225  24.199  1.00  0.00     0.091 A 
ATOM     12  C   UNL     1     183.845 -17.833  24.283  1.00  0.00     0.068 A 
ATOM     13  C   UNL     1     184.903 -16.996  23.908  1.00  0.00     0.162 A 
ATOM     14  C   UNL     1     185.192 -19.774  23.768  1.00  0.00     0.068 A 
ATOM     15  C   UNL     1     186.112 -17.544  23.455  1.00  0.00     0.200 A 
ATOM     16  C   UNL     1     186.259 -18.949  23.392  1.00  0.00     0.162 A 
BRANCH  13  17
ATOM     17  O   UNL     1     184.760 -15.611  23.979  1.00  0.00    -0.504 OA
ATOM     18  H   UNL     1     183.918 -15.182  24.346  1.00  0.00     0.293 HD
ENDBRANCH  13  17
BRANCH  15  19
ATOM     19  O   UNL     1     187.133 -16.665  23.085  1.00  0.00    -0.502 OA
ATOM     20  H   UNL     1     186.987 -15.693  22.853  1.00  0.00     0.293 HD
ENDBRANCH  15  19
BRANCH  16  21
ATOM     21  O   UNL     1     187.440 -19.567  22.972  1.00  0.00    -0.504 OA
ATOM     22  H   UNL     1     187.491 -20.515  22.628  1.00  0.00     0.293 HD
ENDBRANCH  16  21
ENDBRANCH   1  11
BRANCH  10  23
ATOM     23  O   UNL     1     181.620 -19.707  22.550  1.00  0.00    -0.500 OA
ATOM     24  H   UNL     1     181.276 -18.759  22.451  1.00  0.00     0.294 HD
ENDBRANCH  10  23
BRANCH   5  25
ATOM     25  O   UNL     1     181.266 -23.329  29.405  1.00  0.00    -0.507 OA
ATOM     26  H   UNL     1     182.147 -23.258  29.900  1.00  0.00     0.293 HD
ENDBRANCH   5  25
BRANCH   7  27
ATOM     27  O   UNL     1     178.650 -22.959  25.377  1.00  0.00    -0.507 OA
ATOM     28  H   UNL     1     178.504 -22.799  24.391  1.00  0.00     0.293 HD
ENDBRANCH   7  27
TORSDOF 7
ENDMDL
MODEL 5
REMARK VINA RESULT:    -6.724     10.999     13.804
REMARK INTER + INTRA:          -8.615
REMARK INTER:                  -8.284
REMARK INTRA:                  -0.331
REMARK UNBOUND:                -0.319
REMARK SMILES Oc1cc(O)c2cc(O)c(-c3cc(O)c(O)c(O)c3)[o+]c2c1
REMARK SMILES IDX 10 1 20 2 21 3 22 4 2 5 3 6 4 7 6 8 7 9 8 10 11 11 12 12
REMARK SMILES IDX 13 13 19 14 15 15 17 16 14 17 16 19 18 21 9 23 1 25 5 27
REMARK H PARENT 14 18 16 20 18 22 9 24 1 26 5 28
REMARK Flexibility Score: inf
ROOT
ATOM      1  C   UNL     1     183.481 -25.737  35.639  1.00  0.00     0.402 A 
ATOM      2  O   UNL     1     182.716 -25.131  34.735  1.00  0.00    -0.202 OA
ATOM      3  C   UNL     1     182.908 -25.243  33.424  1.00  0.00     0.368 A 
ATOM      4  C   UNL     1     182.048 -24.571  32.552  1.00  0.00     0.162 A 
ATOM      5  C   UNL     1     182.223 -24.672  31.172  1.00  0.00     0.128 A 
ATOM      6  C   UNL     1     183.265 -25.452  30.657  1.00  0.00     0.093 A 
ATOM      7  C   UNL     1     184.140 -26.136  31.510  1.00  0.00     0.136 A 
ATOM      8  C   UNL     1     183.967 -26.032  32.915  1.00  0.00     0.125 A 
ATOM      9  C   UNL     1     184.803 -26.671  33.845  1.00  0.00     0.078 A 
ATOM     10  C   UNL     1     184.571 -26.520  35.216  1.00  0.00     0.223 A 
ENDROOT
BRANCH   1  11
ATOM     11  C   UNL     1     183.161 -25.542  37.072  1.00  0.00     0.091 A 
ATOM     12  C   UNL     1     183.390 -24.295  37.666  1.00  0.00     0.068 A 
ATOM     13  C   UNL     1     183.077 -24.079  39.014  1.00  0.00     0.162 A 
ATOM     14  C   UNL     1     182.576 -26.565  37.836  1.00  0.00     0.068 A 
ATOM     15  C   UNL     1     182.514 -25.108  39.782  1.00  0.00     0.200 A 
ATOM     16  C   UNL     1     182.254 -26.362  39.183  1.00  0.00     0.162 A 
BRANCH  13  17
ATOM     17  O   UNL     1     183.325 -22.839  39.601  1.00  0.00    -0.504 OA
ATOM     18  H   UNL     1     182.816 -22.527  40.420  1.00  0.00     0.293 HD
ENDBRANCH  13  17
BRANCH  15  19
ATOM     19  O   UNL     1     182.228 -24.843  41.125  1.00  0.00    -0.502 OA
ATOM     20  H   UNL     1     182.205 -23.917  41.526  1.00  0.00     0.293 HD
ENDBRANCH  15  19
BRANCH  16  21
ATOM     21  O   UNL     1     181.677 -27.427  39.880  1.00  0.00    -0.504 OA
ATOM     22  H   UNL     1     180.809 -27.870  39.617  1.00  0.00     0.293 HD
ENDBRANCH  16  21
ENDBRANCH   1  11
BRANCH  10  23
ATOM     23  O   UNL     1     185.430 -27.114  36.140  1.00  0.00    -0.500 OA
ATOM     24  H   UNL     1     186.364 -26.756  36.306  1.00  0.00     0.294 HD
ENDBRANCH  10  23
BRANCH   5  25
ATOM     25  O   UNL     1     181.356 -23.993  30.318  1.00  0.00    -0.507 OA
ATOM     26  H   UNL     1     181.681 -23.244  29.717  1.00  0.00     0.293 HD
ENDBRANCH   5  25
BRANCH   7  27
ATOM     27  O   UNL     1     185.153 -26.896  30.918  1.00  0.00    -0.507 OA
ATOM     28  H   UNL     1     185.900 -26.513  30.358  1.00  0.00     0.293 HD
ENDBRANCH   7  27
TORSDOF 7
ENDMDL
MODEL 6
REMARK VINA RESULT:    -6.714      1.377      2.745
REMARK INTER + INTRA:          -8.603
REMARK INTER:                  -8.400
REMARK INTRA:                  -0.203
REMARK UNBOUND:                -0.319
REMARK SMILES Oc1cc(O)c2cc(O)c(-c3cc(O)c(O)c(O)c3)[o+]c2c1
REMARK SMILES IDX 10 1 20 2 21 3 22 4 2 5 3 6 4 7 6 8 7 9 8 10 11 11 12 12
REMARK SMILES IDX 13 13 19 14 15 15 17 16 14 17 16 19 18 21 9 23 1 25 5 27
REMARK H PARENT 14 18 16 20 18 22 9 24 1 26 5 28
REMARK Flexibility Score: inf
ROOT
ATOM      1  C   UNL     1     182.579 -18.827  24.715  1.00  0.00     0.402 A 
ATOM      2  O   UNL     1     181.743 -18.015  25.355  1.00  0.00    -0.202 OA
ATOM      3  C   UNL     1     182.047 -16.760  25.674  1.00  0.00     0.368 A 
ATOM      4  C   UNL     1     181.099 -15.982  26.345  1.00  0.00     0.162 A 
ATOM      5  C   UNL     1     181.389 -14.662  26.690  1.00  0.00     0.128 A 
ATOM      6  C   UNL     1     182.634 -14.113  26.364  1.00  0.00     0.093 A 
ATOM      7  C   UNL     1     183.601 -14.872  25.692  1.00  0.00     0.136 A 
ATOM      8  C   UNL     1     183.310 -16.216  25.341  1.00  0.00     0.125 A 
ATOM      9  C   UNL     1     184.222 -17.056  24.679  1.00  0.00     0.078 A 
ATOM     10  C   UNL     1     183.866 -18.372  24.370  1.00  0.00     0.223 A 
ENDROOT
BRANCH   1  11
ATOM     11  C   UNL     1     182.122 -20.202  24.405  1.00  0.00     0.091 A 
ATOM     12  C   UNL     1     181.683 -21.032  25.445  1.00  0.00     0.068 A 
ATOM     13  C   UNL     1     181.227 -22.328  25.177  1.00  0.00     0.162 A 
ATOM     14  C   UNL     1     182.062 -20.673  23.084  1.00  0.00     0.068 A 
ATOM     15  C   UNL     1     181.190 -22.806  23.859  1.00  0.00     0.200 A 
ATOM     16  C   UNL     1     181.605 -21.965  22.801  1.00  0.00     0.162 A 
BRANCH  13  17
ATOM     17  O   UNL     1     180.808 -23.153  26.220  1.00  0.00    -0.504 OA
ATOM     18  H   UNL     1     179.856 -23.132  26.566  1.00  0.00     0.293 HD
ENDBRANCH  13  17
BRANCH  15  19
ATOM     19  O   UNL     1     180.733 -24.111  23.647  1.00  0.00    -0.502 OA
ATOM     20  H   UNL     1     181.286 -24.938  23.818  1.00  0.00     0.293 HD
ENDBRANCH  15  19
BRANCH  16  21
ATOM     21  O   UNL     1     181.576 -22.365  21.463  1.00  0.00    -0.504 OA
ATOM     22  H   UNL     1     181.438 -21.734  20.687  1.00  0.00     0.293 HD
ENDBRANCH  16  21
ENDBRANCH   1  11
BRANCH  10  23
ATOM     23  O   UNL     1     184.787 -19.220  23.757  1.00  0.00    -0.500 OA
ATOM     24  H   UNL     1     185.095 -19.073  22.803  1.00  0.00     0.294 HD
ENDBRANCH  10  23
BRANCH   5  25
ATOM     25  O   UNL     1     180.432 -13.902  27.359  1.00  0.00    -0.507 OA
ATOM     26  H   UNL     1     180.692 -13.114  27.942  1.00  0.00     0.293 HD
ENDBRANCH   5  25
BRANCH   7  27
ATOM     27  O   UNL     1     184.818 -14.250  25.398  1.00  0.00    -0.507 OA
ATOM     28  H   UNL     1     185.179 -13.444  25.887  1.00  0.00     0.293 HD
ENDBRANCH   7  27
TORSDOF 7
ENDMDL
MODEL 7
REMARK VINA RESULT:    -6.708      1.360      7.052
REMARK INTER + INTRA:          -8.596
REMARK INTER:                  -8.212
REMARK INTRA:                  -0.384
REMARK UNBOUND:                -0.319
REMARK SMILES Oc1cc(O)c2cc(O)c(-c3cc(O)c(O)c(O)c3)[o+]c2c1
REMARK SMILES IDX 10 1 20 2 21 3 22 4 2 5 3 6 4 7 6 8 7 9 8 10 11 11 12 12
REMARK SMILES IDX 13 13 19 14 15 15 17 16 14 17 16 19 18 21 9 23 1 25 5 27
REMARK H PARENT 14 18 16 20 18 22 9 24 1 26 5 28
REMARK Flexibility Score: inf
ROOT
ATOM      1  C   UNL     1     180.525 -18.159  26.332  1.00  0.00     0.402 A 
ATOM      2  O   UNL     1     180.995 -18.635  25.182  1.00  0.00    -0.202 OA
ATOM      3  C   UNL     1     180.806 -19.889  24.780  1.00  0.00     0.368 A 
ATOM      4  C   UNL     1     181.336 -20.295  23.553  1.00  0.00     0.162 A 
ATOM      5  C   UNL     1     181.152 -21.603  23.105  1.00  0.00     0.128 A 
ATOM      6  C   UNL     1     180.432 -22.514  23.887  1.00  0.00     0.093 A 
ATOM      7  C   UNL     1     179.890 -22.130  25.120  1.00  0.00     0.136 A 
ATOM      8  C   UNL     1     180.079 -20.801  25.581  1.00  0.00     0.125 A 
ATOM      9  C   UNL     1     179.584 -20.332  26.809  1.00  0.00     0.078 A 
ATOM     10  C   UNL     1     179.812 -19.009  27.198  1.00  0.00     0.223 A 
ENDROOT
BRANCH   1  11
ATOM     11  C   UNL     1     180.793 -16.741  26.665  1.00  0.00     0.091 A 
ATOM     12  C   UNL     1     182.006 -16.393  27.274  1.00  0.00     0.068 A 
ATOM     13  C   UNL     1     182.292 -15.057  27.580  1.00  0.00     0.162 A 
ATOM     14  C   UNL     1     179.881 -15.726  26.330  1.00  0.00     0.068 A 
ATOM     15  C   UNL     1     181.370 -14.047  27.267  1.00  0.00     0.200 A 
ATOM     16  C   UNL     1     180.155 -14.386  26.628  1.00  0.00     0.162 A 
BRANCH  13  17
ATOM     17  O   UNL     1     183.494 -14.723  28.201  1.00  0.00    -0.504 OA
ATOM     18  H   UNL     1     183.782 -15.157  29.070  1.00  0.00     0.293 HD
ENDBRANCH  13  17
BRANCH  15  19
ATOM     19  O   UNL     1     181.701 -12.731  27.602  1.00  0.00    -0.502 OA
ATOM     20  H   UNL     1     181.024 -11.995  27.739  1.00  0.00     0.293 HD
ENDBRANCH  15  19
BRANCH  16  21
ATOM     21  O   UNL     1     179.200 -13.433  26.267  1.00  0.00    -0.504 OA
ATOM     22  H   UNL     1     178.269 -13.391  26.656  1.00  0.00     0.293 HD
ENDBRANCH  16  21
ENDBRANCH   1  11
BRANCH  10  23
ATOM     23  O   UNL     1     179.364 -18.557  28.439  1.00  0.00    -0.500 OA
ATOM     24  H   UNL     1     179.208 -19.193  29.213  1.00  0.00     0.294 HD
ENDBRANCH  10  23
BRANCH   5  25
ATOM     25  O   UNL     1     181.689 -21.991  21.878  1.00  0.00    -0.507 OA
ATOM     26  H   UNL     1     182.334 -22.769  21.804  1.00  0.00     0.293 HD
ENDBRANCH   5  25
BRANCH   7  27
ATOM     27  O   UNL     1     179.182 -23.096  25.840  1.00  0.00    -0.507 OA
ATOM     28  H   UNL     1     178.186 -23.067  26.006  1.00  0.00     0.293 HD
ENDBRANCH   7  27
TORSDOF 7
ENDMDL
MODEL 8
REMARK VINA RESULT:    -6.694      1.386      3.278
REMARK INTER + INTRA:          -8.579
REMARK INTER:                  -8.416
REMARK INTRA:                  -0.162
REMARK UNBOUND:                -0.319
REMARK SMILES Oc1cc(O)c2cc(O)c(-c3cc(O)c(O)c(O)c3)[o+]c2c1
REMARK SMILES IDX 10 1 20 2 21 3 22 4 2 5 3 6 4 7 6 8 7 9 8 10 11 11 12 12
REMARK SMILES IDX 13 13 19 14 15 15 17 16 14 17 16 19 18 21 9 23 1 25 5 27
REMARK H PARENT 14 18 16 20 18 22 9 24 1 26 5 28
REMARK Flexibility Score: inf
ROOT
ATOM      1  C   UNL     1     182.578 -18.805  24.708  1.00  0.00     0.402 A 
ATOM      2  O   UNL     1     181.781 -17.959  25.355  1.00  0.00    -0.202 OA
ATOM      3  C   UNL     1     182.134 -16.714  25.663  1.00  0.00     0.368 A 
ATOM      4  C   UNL     1     181.225 -15.899  26.341  1.00  0.00     0.162 A 
ATOM      5  C   UNL     1     181.568 -14.588  26.675  1.00  0.00     0.128 A 
ATOM      6  C   UNL     1     182.828 -14.087  26.329  1.00  0.00     0.093 A 
ATOM      7  C   UNL     1     183.756 -14.884  25.648  1.00  0.00     0.136 A 
ATOM      8  C   UNL     1     183.412 -16.219  25.310  1.00  0.00     0.125 A 
ATOM      9  C   UNL     1     184.283 -17.095  24.641  1.00  0.00     0.078 A 
ATOM     10  C   UNL     1     183.875 -18.399  24.343  1.00  0.00     0.223 A 
ENDROOT
BRANCH   1  11
ATOM     11  C   UNL     1     182.066 -20.163  24.413  1.00  0.00     0.091 A 
ATOM     12  C   UNL     1     182.015 -20.607  23.085  1.00  0.00     0.068 A 
ATOM     13  C   UNL     1     181.555 -21.894  22.781  1.00  0.00     0.162 A 
ATOM     14  C   UNL     1     181.684 -21.040  25.441  1.00  0.00     0.068 A 
ATOM     15  C   UNL     1     181.152 -22.761  23.807  1.00  0.00     0.200 A 
ATOM     16  C   UNL     1     181.225 -22.331  25.152  1.00  0.00     0.162 A 
BRANCH  13  17
ATOM     17  O   UNL     1     181.493 -22.320  21.456  1.00  0.00    -0.504 OA
ATOM     18  H   UNL     1     182.230 -22.107  20.793  1.00  0.00     0.293 HD
ENDBRANCH  13  17
BRANCH  15  19
ATOM     19  O   UNL     1     180.692 -24.032  23.449  1.00  0.00    -0.502 OA
ATOM     20  H   UNL     1     181.250 -24.718  22.961  1.00  0.00     0.293 HD
ENDBRANCH  15  19
BRANCH  16  21
ATOM     21  O   UNL     1     180.861 -23.146  26.227  1.00  0.00    -0.504 OA
ATOM     22  H   UNL     1     180.453 -22.802  27.084  1.00  0.00     0.293 HD
ENDBRANCH  16  21
ENDBRANCH   1  11
BRANCH  10  23
ATOM     23  O   UNL     1     184.756 -19.283  23.723  1.00  0.00    -0.500 OA
ATOM     24  H   UNL     1     184.699 -19.485  22.732  1.00  0.00     0.294 HD
ENDBRANCH  10  23
BRANCH   5  25
ATOM     25  O   UNL     1     180.648 -13.789  27.353  1.00  0.00    -0.507 OA
ATOM     26  H   UNL     1     180.894 -12.864  27.687  1.00  0.00     0.293 HD
ENDBRANCH   5  25
BRANCH   7  27
ATOM     27  O   UNL     1     184.991 -14.310  25.335  1.00  0.00    -0.507 OA
ATOM     28  H   UNL     1     185.323 -13.432  25.708  1.00  0.00     0.293 HD
ENDBRANCH   7  27
TORSDOF 7
ENDMDL
MODEL 9
REMARK VINA RESULT:    -6.599      2.287      6.579
REMARK INTER + INTRA:          -8.461
REMARK INTER:                  -8.200
REMARK INTRA:                  -0.262
REMARK UNBOUND:                -0.319
REMARK SMILES Oc1cc(O)c2cc(O)c(-c3cc(O)c(O)c(O)c3)[o+]c2c1
REMARK SMILES IDX 10 1 20 2 21 3 22 4 2 5 3 6 4 7 6 8 7 9 8 10 11 11 12 12
REMARK SMILES IDX 13 13 19 14 15 15 17 16 14 17 16 19 18 21 9 23 1 25 5 27
REMARK H PARENT 14 18 16 20 18 22 9 24 1 26 5 28
REMARK Flexibility Score: inf
ROOT
ATOM      1  C   UNL     1     180.598 -18.062  26.012  1.00  0.00     0.402 A 
ATOM      2  O   UNL     1     181.863 -18.473  25.985  1.00  0.00    -0.202 OA
ATOM      3  C   UNL     1     182.265 -19.555  25.325  1.00  0.00     0.368 A 
ATOM      4  C   UNL     1     183.617 -19.905  25.353  1.00  0.00     0.162 A 
ATOM      5  C   UNL     1     184.067 -21.034  24.667  1.00  0.00     0.128 A 
ATOM      6  C   UNL     1     183.160 -21.820  23.947  1.00  0.00     0.093 A 
ATOM      7  C   UNL     1     181.800 -21.490  23.904  1.00  0.00     0.136 A 
ATOM      8  C   UNL     1     181.338 -20.344  24.602  1.00  0.00     0.125 A 
ATOM      9  C   UNL     1     179.991 -19.945  24.626  1.00  0.00     0.078 A 
ATOM     10  C   UNL     1     179.610 -18.805  25.340  1.00  0.00     0.223 A 
ENDROOT
BRANCH   1  11
ATOM     11  C   UNL     1     180.277 -16.834  26.775  1.00  0.00     0.091 A 
ATOM     12  C   UNL     1     180.507 -16.801  28.157  1.00  0.00     0.068 A 
ATOM     13  C   UNL     1     180.231 -15.645  28.898  1.00  0.00     0.162 A 
ATOM     14  C   UNL     1     179.799 -15.678  26.135  1.00  0.00     0.068 A 
ATOM     15  C   UNL     1     179.732 -14.500  28.261  1.00  0.00     0.200 A 
ATOM     16  C   UNL     1     179.522 -14.516  26.863  1.00  0.00     0.162 A 
BRANCH  13  17
ATOM     17  O   UNL     1     180.448 -15.628  30.275  1.00  0.00    -0.504 OA
ATOM     18  H   UNL     1     179.754 -15.266  30.918  1.00  0.00     0.293 HD
ENDBRANCH  13  17
BRANCH  15  19
ATOM     19  O   UNL     1     179.465 -13.376  29.048  1.00  0.00    -0.502 OA
ATOM     20  H   UNL     1     180.177 -12.787  29.454  1.00  0.00     0.293 HD
ENDBRANCH  15  19
BRANCH  16  21
ATOM     21  O   UNL     1     179.047 -13.406  26.158  1.00  0.00    -0.504 OA
ATOM     22  H   UNL     1     179.630 -12.800  25.599  1.00  0.00     0.293 HD
ENDBRANCH  16  21
ENDBRANCH   1  11
BRANCH  10  23
ATOM     23  O   UNL     1     178.267 -18.437  25.404  1.00  0.00    -0.500 OA
ATOM     24  H   UNL     1     177.605 -18.934  25.989  1.00  0.00     0.294 HD
ENDBRANCH  10  23
BRANCH   5  25
ATOM     25  O   UNL     1     185.420 -21.367  24.707  1.00  0.00    -0.507 OA
ATOM     26  H   UNL     1     185.979 -21.416  23.863  1.00  0.00     0.293 HD
ENDBRANCH   5  25
BRANCH   7  27
ATOM     27  O   UNL     1     180.959 -22.324  23.160  1.00  0.00    -0.507 OA
ATOM     28  H   UNL     1     181.163 -22.655  22.229  1.00  0.00     0.293 HD
ENDBRANCH   7  27
TORSDOF 7
ENDMDL
