MODEL 1
REMARK VINA RESULT:    -6.317      0.000      0.000
REMARK INTER + INTRA:         -12.505
REMARK INTER:                 -11.486
REMARK INTRA:                  -1.018
REMARK UNBOUND:                -1.018
REMARK SMILES CCCCCCCCCCCCCCCC(=O)[O-]
REMARK SMILES IDX 9 1 10 2 11 3 12 4 13 5 14 6 15 7 16 8 17 9 18 10 8 11 7 12
REMARK SMILES IDX 6 13 5 14 4 15 3 16 2 17 1 18
REMARK H PARENT
REMARK Flexibility Score: inf
ROOT
ATOM      1  C   UNL     1      92.938 122.326 122.167  1.00  0.00     0.000 C 
ENDROOT
BRANCH   1   2
ATOM      2  C   UNL     1      92.890 123.477 123.189  1.00  0.00     0.000 C 
BRANCH   2   3
ATOM      3  C   UNL     1      92.841 122.982 124.642  1.00  0.00     0.000 C 
BRANCH   3   4
ATOM      4  C   UNL     1      94.256 122.880 125.233  1.00  0.00     0.000 C 
BRANCH   4   5
ATOM      5  C   UNL     1      95.216 123.935 124.659  1.00  0.00     0.000 C 
BRANCH   5   6
ATOM      6  C   UNL     1      96.680 123.463 124.657  1.00  0.00     0.006 C 
BRANCH   6   7
ATOM      7  C   UNL     1      97.438 123.923 125.910  1.00  0.00     0.053 C 
BRANCH   7   8
ATOM      8  C   UNL     1      97.448 125.417 126.035  1.00  0.00     0.041 C 
ATOM      9  O   UNL     1      97.588 126.138 125.013  1.00  0.00    -0.550 OA
ATOM     10  O   UNL     1      97.277 126.010 127.279  1.00  0.00    -0.550 OA
ENDBRANCH   7   8
ENDBRANCH   6   7
ENDBRANCH   5   6
ENDBRANCH   4   5
ENDBRANCH   3   4
ENDBRANCH   2   3
ENDBRANCH   1   2
BRANCH   1  11
ATOM     11  C   UNL     1      94.242 122.237 121.349  1.00  0.00     0.000 C 
BRANCH  11  12
ATOM     12  C   UNL     1      94.259 121.145 120.264  1.00  0.00    -0.000 C 
BRANCH  12  13
ATOM     13  C   UNL     1      94.636 121.635 118.851  1.00  0.00    -0.000 C 
BRANCH  13  14
ATOM     14  C   UNL     1      94.062 123.012 118.467  1.00  0.00    -0.000 C 
BRANCH  14  15
ATOM     15  C   UNL     1      92.527 123.024 118.410  1.00  0.00    -0.000 C 
BRANCH  15  16
ATOM     16  C   UNL     1      91.997 121.788 117.670  1.00  0.00    -0.000 C 
BRANCH  16  17
ATOM     17  C   UNL     1      92.126 121.912 116.144  1.00  0.00    -0.003 C 
ATOM     18  C   UNL     1      93.025 120.834 115.537  1.00  0.00     0.004 C 
ENDBRANCH  16  17
ENDBRANCH  15  16
ENDBRANCH  14  15
ENDBRANCH  13  14
ENDBRANCH  12  13
ENDBRANCH  11  12
ENDBRANCH   1  11
TORSDOF 14
ENDMDL
MODEL 2
REMARK VINA RESULT:    -6.084      1.210      1.806
REMARK INTER + INTRA:         -12.082
REMARK INTER:                 -10.753
REMARK INTRA:                  -1.328
REMARK UNBOUND:                -1.018
REMARK SMILES CCCCCCCCCCCCCCCC(=O)[O-]
REMARK SMILES IDX 9 1 10 2 11 3 12 4 13 5 14 6 15 7 16 8 17 9 18 10 8 11 7 12
REMARK SMILES IDX 6 13 5 14 4 15 3 16 2 17 1 18
REMARK H PARENT
REMARK Flexibility Score: inf
ROOT
ATOM      1  C   UNL     1      93.114 122.342 121.146  1.00  0.00     0.000 C 
ENDROOT
BRANCH   1   2
ATOM      2  C   UNL     1      92.758 122.213 122.638  1.00  0.00     0.000 C 
BRANCH   2   3
ATOM      3  C   UNL     1      93.536 123.197 123.525  1.00  0.00     0.000 C 
BRANCH   3   4
ATOM      4  C   UNL     1      93.701 122.638 124.947  1.00  0.00     0.000 C 
BRANCH   4   5
ATOM      5  C   UNL     1      95.047 123.024 125.582  1.00  0.00     0.000 C 
BRANCH   5   6
ATOM      6  C   UNL     1      96.103 123.419 124.535  1.00  0.00     0.006 C 
BRANCH   6   7
ATOM      7  C   UNL     1      96.682 124.816 124.795  1.00  0.00     0.053 C 
BRANCH   7   8
ATOM      8  C   UNL     1      97.508 124.851 126.045  1.00  0.00     0.041 C 
ATOM      9  O   UNL     1      97.347 125.773 126.886  1.00  0.00    -0.550 OA
ATOM     10  O   UNL     1      98.437 123.848 126.292  1.00  0.00    -0.550 OA
ENDBRANCH   7   8
ENDBRANCH   6   7
ENDBRANCH   5   6
ENDBRANCH   4   5
ENDBRANCH   3   4
ENDBRANCH   2   3
ENDBRANCH   1   2
BRANCH   1  11
ATOM     11  C   UNL     1      94.618 122.498 120.847  1.00  0.00     0.000 C 
BRANCH  11  12
ATOM     12  C   UNL     1      95.225 121.396 119.958  1.00  0.00    -0.000 C 
BRANCH  12  13
ATOM     13  C   UNL     1      94.200 120.553 119.173  1.00  0.00    -0.000 C 
BRANCH  13  14
ATOM     14  C   UNL     1      93.940 121.024 117.730  1.00  0.00    -0.000 C 
BRANCH  14  15
ATOM     15  C   UNL     1      92.444 121.103 117.388  1.00  0.00    -0.000 C 
BRANCH  15  16
ATOM     16  C   UNL     1      92.044 122.538 117.015  1.00  0.00    -0.000 C 
BRANCH  16  17
ATOM     17  C   UNL     1      92.847 123.596 117.787  1.00  0.00    -0.003 C 
ATOM     18  C   UNL     1      93.061 124.879 116.984  1.00  0.00     0.004 C 
ENDBRANCH  16  17
ENDBRANCH  15  16
ENDBRANCH  14  15
ENDBRANCH  13  14
ENDBRANCH  12  13
ENDBRANCH  11  12
ENDBRANCH   1  11
TORSDOF 14
ENDMDL
MODEL 3
REMARK VINA RESULT:    -6.015      3.336      8.218
REMARK INTER + INTRA:         -11.957
REMARK INTER:                 -10.996
REMARK INTRA:                  -0.961
REMARK UNBOUND:                -1.018
REMARK SMILES CCCCCCCCCCCCCCCC(=O)[O-]
REMARK SMILES IDX 9 1 10 2 11 3 12 4 13 5 14 6 15 7 16 8 17 9 18 10 8 11 7 12
REMARK SMILES IDX 6 13 5 14 4 15 3 16 2 17 1 18
REMARK H PARENT
REMARK Flexibility Score: inf
ROOT
ATOM      1  C   UNL     1      93.282 122.336 120.998  1.00  0.00     0.000 C 
ENDROOT
BRANCH   1   2
ATOM      2  C   UNL     1      94.790 122.350 120.683  1.00  0.00     0.000 C 
BRANCH   2   3
ATOM      3  C   UNL     1      95.093 122.060 119.206  1.00  0.00     0.000 C 
BRANCH   3   4
ATOM      4  C   UNL     1      94.447 120.737 118.765  1.00  0.00     0.000 C 
BRANCH   4   5
ATOM      5  C   UNL     1      93.710 120.858 117.421  1.00  0.00     0.000 C 
BRANCH   5   6
ATOM      6  C   UNL     1      92.343 121.551 117.557  1.00  0.00     0.006 C 
BRANCH   6   7
ATOM      7  C   UNL     1      92.094 122.565 116.434  1.00  0.00     0.053 C 
BRANCH   7   8
ATOM      8  C   UNL     1      92.475 123.955 116.846  1.00  0.00     0.041 C 
ATOM      9  O   UNL     1      93.033 124.157 117.956  1.00  0.00    -0.550 OA
ATOM     10  O   UNL     1      92.238 125.023 115.991  1.00  0.00    -0.550 OA
ENDBRANCH   7   8
ENDBRANCH   6   7
ENDBRANCH   5   6
ENDBRANCH   4   5
ENDBRANCH   3   4
ENDBRANCH   2   3
ENDBRANCH   1   2
BRANCH   1  11
ATOM     11  C   UNL     1      92.931 122.169 122.490  1.00  0.00     0.000 C 
BRANCH  11  12
ATOM     12  C   UNL     1      93.431 123.299 123.409  1.00  0.00    -0.000 C 
BRANCH  12  13
ATOM     13  C   UNL     1      93.423 122.967 124.915  1.00  0.00    -0.000 C 
BRANCH  13  14
ATOM     14  C   UNL     1      94.814 122.763 125.543  1.00  0.00    -0.000 C 
BRANCH  14  15
ATOM     15  C   UNL     1      95.942 123.399 124.716  1.00  0.00    -0.000 C 
BRANCH  15  16
ATOM     16  C   UNL     1      97.234 123.498 125.539  1.00  0.00    -0.000 C 
BRANCH  16  17
ATOM     17  C   UNL     1      97.477 124.912 126.089  1.00  0.00    -0.003 C 
ATOM     18  C   UNL     1      97.321 125.997 125.022  1.00  0.00     0.004 C 
ENDBRANCH  16  17
ENDBRANCH  15  16
ENDBRANCH  14  15
ENDBRANCH  13  14
ENDBRANCH  12  13
ENDBRANCH  11  12
ENDBRANCH   1  11
TORSDOF 14
ENDMDL
MODEL 4
REMARK VINA RESULT:    -5.880      4.061      8.570
REMARK INTER + INTRA:         -11.710
REMARK INTER:                 -10.975
REMARK INTRA:                  -0.735
REMARK UNBOUND:                -1.018
REMARK SMILES CCCCCCCCCCCCCCCC(=O)[O-]
REMARK SMILES IDX 9 1 10 2 11 3 12 4 13 5 14 6 15 7 16 8 17 9 18 10 8 11 7 12
REMARK SMILES IDX 6 13 5 14 4 15 3 16 2 17 1 18
REMARK H PARENT
REMARK Flexibility Score: inf
ROOT
ATOM      1  C   UNL     1      93.092 121.852 122.204  1.00  0.00     0.000 C 
ENDROOT
BRANCH   1   2
ATOM      2  C   UNL     1      93.474 121.343 120.801  1.00  0.00     0.000 C 
BRANCH   2   3
ATOM      3  C   UNL     1      94.684 122.080 120.208  1.00  0.00     0.000 C 
BRANCH   3   4
ATOM      4  C   UNL     1      94.345 122.666 118.828  1.00  0.00     0.000 C 
BRANCH   4   5
ATOM      5  C   UNL     1      92.860 123.039 118.691  1.00  0.00     0.000 C 
BRANCH   5   6
ATOM      6  C   UNL     1      92.049 121.971 117.937  1.00  0.00     0.006 C 
BRANCH   6   7
ATOM      7  C   UNL     1      92.192 122.105 116.415  1.00  0.00     0.053 C 
BRANCH   7   8
ATOM      8  C   UNL     1      92.869 120.910 115.814  1.00  0.00     0.041 C 
ATOM      9  O   UNL     1      93.944 120.477 116.304  1.00  0.00    -0.550 OA
ATOM     10  O   UNL     1      92.296 120.260 114.728  1.00  0.00    -0.550 OA
ENDBRANCH   7   8
ENDBRANCH   6   7
ENDBRANCH   5   6
ENDBRANCH   4   5
ENDBRANCH   3   4
ENDBRANCH   2   3
ENDBRANCH   1   2
BRANCH   1  11
ATOM     11  C   UNL     1      93.116 123.385 122.368  1.00  0.00     0.000 C 
BRANCH  11  12
ATOM     12  C   UNL     1      92.966 123.889 123.816  1.00  0.00    -0.000 C 
BRANCH  12  13
ATOM     13  C   UNL     1      93.221 122.828 124.906  1.00  0.00    -0.000 C 
BRANCH  13  14
ATOM     14  C   UNL     1      94.678 122.740 125.397  1.00  0.00    -0.000 C 
BRANCH  14  15
ATOM     15  C   UNL     1      95.544 123.913 124.912  1.00  0.00    -0.000 C 
BRANCH  15  16
ATOM     16  C   UNL     1      97.002 123.738 125.361  1.00  0.00    -0.000 C 
BRANCH  16  17
ATOM     17  C   UNL     1      97.571 125.000 126.028  1.00  0.00    -0.003 C 
ATOM     18  C   UNL     1      97.553 126.217 125.103  1.00  0.00     0.004 C 
ENDBRANCH  16  17
ENDBRANCH  15  16
ENDBRANCH  14  15
ENDBRANCH  13  14
ENDBRANCH  12  13
ENDBRANCH  11  12
ENDBRANCH   1  11
TORSDOF 14
ENDMDL
MODEL 5
REMARK VINA RESULT:    -5.686      3.773      8.239
REMARK INTER + INTRA:         -11.358
REMARK INTER:                 -10.716
REMARK INTRA:                  -0.642
REMARK UNBOUND:                -1.018
REMARK SMILES CCCCCCCCCCCCCCCC(=O)[O-]
REMARK SMILES IDX 9 1 10 2 11 3 12 4 13 5 14 6 15 7 16 8 17 9 18 10 8 11 7 12
REMARK SMILES IDX 6 13 5 14 4 15 3 16 2 17 1 18
REMARK H PARENT
REMARK Flexibility Score: inf
ROOT
ATOM      1  C   UNL     1      93.470 123.047 122.584  1.00  0.00     0.000 C 
ENDROOT
BRANCH   1   2
ATOM      2  C   UNL     1      92.802 121.774 122.031  1.00  0.00     0.000 C 
BRANCH   2   3
ATOM      3  C   UNL     1      93.467 121.262 120.745  1.00  0.00     0.000 C 
BRANCH   3   4
ATOM      4  C   UNL     1      94.486 122.281 120.213  1.00  0.00     0.000 C 
BRANCH   4   5
ATOM      5  C   UNL     1      94.813 122.072 118.726  1.00  0.00     0.000 C 
BRANCH   5   6
ATOM      6  C   UNL     1      94.149 120.810 118.147  1.00  0.00     0.006 C 
BRANCH   6   7
ATOM      7  C   UNL     1      93.371 121.104 116.858  1.00  0.00     0.053 C 
BRANCH   7   8
ATOM      8  C   UNL     1      92.179 121.976 117.117  1.00  0.00     0.041 C 
ATOM      9  O   UNL     1      91.398 121.717 118.068  1.00  0.00    -0.550 OA
ATOM     10  O   UNL     1      91.949 123.091 116.321  1.00  0.00    -0.550 OA
ENDBRANCH   7   8
ENDBRANCH   6   7
ENDBRANCH   5   6
ENDBRANCH   4   5
ENDBRANCH   3   4
ENDBRANCH   2   3
ENDBRANCH   1   2
BRANCH   1  11
ATOM     11  C   UNL     1      92.857 123.587 123.891  1.00  0.00     0.000 C 
BRANCH  11  12
ATOM     12  C   UNL     1      93.177 122.763 125.153  1.00  0.00    -0.000 C 
BRANCH  12  13
ATOM     13  C   UNL     1      94.670 122.705 125.532  1.00  0.00    -0.000 C 
BRANCH  13  14
ATOM     14  C   UNL     1      95.534 123.837 124.946  1.00  0.00    -0.000 C 
BRANCH  14  15
ATOM     15  C   UNL     1      97.021 123.465 124.846  1.00  0.00    -0.000 C 
BRANCH  15  16
ATOM     16  C   UNL     1      97.810 124.044 126.029  1.00  0.00    -0.000 C 
BRANCH  16  17
ATOM     17  C   UNL     1      97.454 125.511 126.316  1.00  0.00    -0.003 C 
ATOM     18  C   UNL     1      97.718 126.428 125.122  1.00  0.00     0.004 C 
ENDBRANCH  16  17
ENDBRANCH  15  16
ENDBRANCH  14  15
ENDBRANCH  13  14
ENDBRANCH  12  13
ENDBRANCH  11  12
ENDBRANCH   1  11
TORSDOF 14
ENDMDL
MODEL 6
REMARK VINA RESULT:    -5.223      3.829      8.293
REMARK INTER + INTRA:         -10.516
REMARK INTER:                  -9.617
REMARK INTRA:                  -0.899
REMARK UNBOUND:                -1.018
REMARK SMILES CCCCCCCCCCCCCCCC(=O)[O-]
REMARK SMILES IDX 9 1 10 2 11 3 12 4 13 5 14 6 15 7 16 8 17 9 18 10 8 11 7 12
REMARK SMILES IDX 6 13 5 14 4 15 3 16 2 17 1 18
REMARK H PARENT
REMARK Flexibility Score: inf
ROOT
ATOM      1  C   UNL     1      92.993 123.561 123.780  1.00  0.00     0.000 C 
ENDROOT
BRANCH   1   2
ATOM      2  C   UNL     1      93.157 123.240 122.283  1.00  0.00     0.000 C 
BRANCH   2   3
ATOM      3  C   UNL     1      92.781 121.791 121.939  1.00  0.00     0.000 C 
BRANCH   3   4
ATOM      4  C   UNL     1      93.693 121.237 120.833  1.00  0.00     0.000 C 
BRANCH   4   5
ATOM      5  C   UNL     1      94.726 122.265 120.346  1.00  0.00     0.000 C 
BRANCH   5   6
ATOM      6  C   UNL     1      94.584 122.581 118.847  1.00  0.00     0.006 C 
BRANCH   6   7
ATOM      7  C   UNL     1      93.780 121.508 118.103  1.00  0.00     0.053 C 
BRANCH   7   8
ATOM      8  C   UNL     1      92.459 122.034 117.627  1.00  0.00     0.041 C 
ATOM      9  O   UNL     1      92.413 122.908 116.723  1.00  0.00    -0.550 OA
ATOM     10  O   UNL     1      91.279 121.537 118.167  1.00  0.00    -0.550 OA
ENDBRANCH   7   8
ENDBRANCH   6   7
ENDBRANCH   5   6
ENDBRANCH   4   5
ENDBRANCH   3   4
ENDBRANCH   2   3
ENDBRANCH   1   2
BRANCH   1  11
ATOM     11  C   UNL     1      94.005 122.861 124.709  1.00  0.00     0.000 C 
BRANCH  11  12
ATOM     12  C   UNL     1      95.453 123.376 124.606  1.00  0.00    -0.000 C 
BRANCH  12  13
ATOM     13  C   UNL     1      96.171 123.575 125.956  1.00  0.00    -0.000 C 
BRANCH  13  14
ATOM     14  C   UNL     1      97.327 124.593 125.933  1.00  0.00    -0.000 C 
BRANCH  14  15
ATOM     15  C   UNL     1      98.700 123.943 126.163  1.00  0.00    -0.000 C 
BRANCH  15  16
ATOM     16  C   UNL     1      98.562 122.426 126.355  1.00  0.00    -0.000 C 
BRANCH  16  17
ATOM     17  C   UNL     1      99.858 121.668 126.028  1.00  0.00    -0.003 C 
ATOM     18  C   UNL     1      99.901 120.274 126.653  1.00  0.00     0.004 C 
ENDBRANCH  16  17
ENDBRANCH  15  16
ENDBRANCH  14  15
ENDBRANCH  13  14
ENDBRANCH  12  13
ENDBRANCH  11  12
ENDBRANCH   1  11
TORSDOF 14
ENDMDL
MODEL 7
REMARK VINA RESULT:    -5.214      2.863      3.658
REMARK INTER + INTRA:         -10.499
REMARK INTER:                  -9.793
REMARK INTRA:                  -0.706
REMARK UNBOUND:                -1.018
REMARK SMILES CCCCCCCCCCCCCCCC(=O)[O-]
REMARK SMILES IDX 9 1 10 2 11 3 12 4 13 5 14 6 15 7 16 8 17 9 18 10 8 11 7 12
REMARK SMILES IDX 6 13 5 14 4 15 3 16 2 17 1 18
REMARK H PARENT
REMARK Flexibility Score: inf
ROOT
ATOM      1  C   UNL     1      94.213 124.053 124.392  1.00  0.00     0.000 C 
ENDROOT
BRANCH   1   2
ATOM      2  C   UNL     1      94.930 122.809 124.947  1.00  0.00     0.000 C 
BRANCH   2   3
ATOM      3  C   UNL     1      95.979 123.151 126.016  1.00  0.00     0.000 C 
BRANCH   3   4
ATOM      4  C   UNL     1      97.118 123.988 125.414  1.00  0.00     0.000 C 
BRANCH   4   5
ATOM      5  C   UNL     1      98.464 123.752 126.119  1.00  0.00     0.000 C 
BRANCH   5   6
ATOM      6  C   UNL     1      98.759 122.259 126.344  1.00  0.00     0.006 C 
BRANCH   6   7
ATOM      7  C   UNL     1     100.125 121.848 125.781  1.00  0.00     0.053 C 
BRANCH   7   8
ATOM      8  C   UNL     1     100.486 120.445 126.167  1.00  0.00     0.041 C 
ATOM      9  O   UNL     1     101.407 119.837 125.563  1.00  0.00    -0.550 OA
ATOM     10  O   UNL     1      99.819 119.820 127.214  1.00  0.00    -0.550 OA
ENDBRANCH   7   8
ENDBRANCH   6   7
ENDBRANCH   5   6
ENDBRANCH   4   5
ENDBRANCH   3   4
ENDBRANCH   2   3
ENDBRANCH   1   2
BRANCH   1  11
ATOM     11  C   UNL     1      93.086 123.758 123.382  1.00  0.00     0.000 C 
BRANCH  11  12
ATOM     12  C   UNL     1      93.203 122.408 122.649  1.00  0.00    -0.000 C 
BRANCH  12  13
ATOM     13  C   UNL     1      93.052 122.482 121.116  1.00  0.00    -0.000 C 
BRANCH  13  14
ATOM     14  C   UNL     1      94.279 122.001 120.320  1.00  0.00    -0.000 C 
BRANCH  14  15
ATOM     15  C   UNL     1      94.091 122.127 118.800  1.00  0.00    -0.000 C 
BRANCH  15  16
ATOM     16  C   UNL     1      92.686 122.649 118.464  1.00  0.00    -0.000 C 
BRANCH  16  17
ATOM     17  C   UNL     1      92.305 122.417 116.994  1.00  0.00    -0.003 C 
ATOM     18  C   UNL     1      92.834 121.090 116.448  1.00  0.00     0.004 C 
ENDBRANCH  16  17
ENDBRANCH  15  16
ENDBRANCH  14  15
ENDBRANCH  13  14
ENDBRANCH  12  13
ENDBRANCH  11  12
ENDBRANCH   1  11
TORSDOF 14
ENDMDL
MODEL 8
REMARK VINA RESULT:    -4.746     11.332     13.799
REMARK INTER + INTRA:          -9.648
REMARK INTER:                  -7.569
REMARK INTRA:                  -2.079
REMARK UNBOUND:                -1.018
REMARK SMILES CCCCCCCCCCCCCCCC(=O)[O-]
REMARK SMILES IDX 9 1 10 2 11 3 12 4 13 5 14 6 15 7 16 8 17 9 18 10 8 11 7 12
REMARK SMILES IDX 6 13 5 14 4 15 3 16 2 17 1 18
REMARK H PARENT
REMARK Flexibility Score: inf
ROOT
ATOM      1  C   UNL     1      85.649 126.120 128.233  1.00  0.00     0.000 C 
ENDROOT
BRANCH   1   2
ATOM      2  C   UNL     1      84.560 125.096 127.862  1.00  0.00     0.000 C 
BRANCH   2   3
ATOM      3  C   UNL     1      85.123 123.688 127.622  1.00  0.00     0.000 C 
BRANCH   3   4
ATOM      4  C   UNL     1      84.333 122.640 128.422  1.00  0.00     0.000 C 
BRANCH   4   5
ATOM      5  C   UNL     1      83.733 121.541 127.530  1.00  0.00     0.000 C 
BRANCH   5   6
ATOM      6  C   UNL     1      84.395 121.481 126.142  1.00  0.00     0.006 C 
BRANCH   6   7
ATOM      7  C   UNL     1      83.408 121.050 125.049  1.00  0.00     0.053 C 
BRANCH   7   8
ATOM      8  C   UNL     1      82.865 122.228 124.296  1.00  0.00     0.041 C 
ATOM      9  O   UNL     1      82.151 122.053 123.275  1.00  0.00    -0.550 OA
ATOM     10  O   UNL     1      83.128 123.517 124.740  1.00  0.00    -0.550 OA
ENDBRANCH   7   8
ENDBRANCH   6   7
ENDBRANCH   5   6
ENDBRANCH   4   5
ENDBRANCH   3   4
ENDBRANCH   2   3
ENDBRANCH   1   2
BRANCH   1  11
ATOM     11  C   UNL     1      85.267 127.096 129.364  1.00  0.00     0.000 C 
BRANCH  11  12
ATOM     12  C   UNL     1      84.244 126.551 130.379  1.00  0.00    -0.000 C 
BRANCH  12  13
ATOM     13  C   UNL     1      84.855 125.864 131.616  1.00  0.00    -0.000 C 
BRANCH  13  14
ATOM     14  C   UNL     1      84.789 124.326 131.604  1.00  0.00    -0.000 C 
BRANCH  14  15
ATOM     15  C   UNL     1      86.132 123.666 131.953  1.00  0.00    -0.000 C 
BRANCH  15  16
ATOM     16  C   UNL     1      87.188 123.978 130.883  1.00  0.00    -0.000 C 
BRANCH  16  17
ATOM     17  C   UNL     1      87.609 122.733 130.087  1.00  0.00    -0.003 C 
ATOM     18  C   UNL     1      87.227 121.428 130.786  1.00  0.00     0.004 C 
ENDBRANCH  16  17
ENDBRANCH  15  16
ENDBRANCH  14  15
ENDBRANCH  13  14
ENDBRANCH  12  13
ENDBRANCH  11  12
ENDBRANCH   1  11
TORSDOF 14
ENDMDL
MODEL 9
REMARK VINA RESULT:    -4.705     10.897     12.082
REMARK INTER + INTRA:          -9.575
REMARK INTER:                  -7.614
REMARK INTRA:                  -1.960
REMARK UNBOUND:                -1.018
REMARK SMILES CCCCCCCCCCCCCCCC(=O)[O-]
REMARK SMILES IDX 9 1 10 2 11 3 12 4 13 5 14 6 15 7 16 8 17 9 18 10 8 11 7 12
REMARK SMILES IDX 6 13 5 14 4 15 3 16 2 17 1 18
REMARK H PARENT
REMARK Flexibility Score: inf
ROOT
ATOM      1  C   UNL     1      85.250 125.966 127.915  1.00  0.00     0.000 C 
ENDROOT
BRANCH   1   2
ATOM      2  C   UNL     1      85.761 126.374 129.309  1.00  0.00     0.000 C 
BRANCH   2   3
ATOM      3  C   UNL     1      84.624 126.655 130.302  1.00  0.00     0.000 C 
BRANCH   3   4
ATOM      4  C   UNL     1      84.708 125.711 131.512  1.00  0.00     0.000 C 
BRANCH   4   5
ATOM      5  C   UNL     1      86.098 125.074 131.671  1.00  0.00     0.000 C 
BRANCH   5   6
ATOM      6  C   UNL     1      86.026 123.567 131.970  1.00  0.00     0.006 C 
BRANCH   6   7
ATOM      7  C   UNL     1      85.929 122.726 130.690  1.00  0.00     0.053 C 
BRANCH   7   8
ATOM      8  C   UNL     1      87.263 122.573 130.024  1.00  0.00     0.041 C 
ATOM      9  O   UNL     1      87.646 123.415 129.170  1.00  0.00    -0.550 OA
ATOM     10  O   UNL     1      88.094 121.515 130.368  1.00  0.00    -0.550 OA
ENDBRANCH   7   8
ENDBRANCH   6   7
ENDBRANCH   5   6
ENDBRANCH   4   5
ENDBRANCH   3   4
ENDBRANCH   2   3
ENDBRANCH   1   2
BRANCH   1  11
ATOM     11  C   UNL     1      84.599 124.570 127.844  1.00  0.00     0.000 C 
BRANCH  11  12
ATOM     12  C   UNL     1      83.059 124.568 127.812  1.00  0.00    -0.000 C 
BRANCH  12  13
ATOM     13  C   UNL     1      82.435 124.351 126.419  1.00  0.00    -0.000 C 
BRANCH  13  14
ATOM     14  C   UNL     1      83.437 123.981 125.310  1.00  0.00    -0.000 C 
BRANCH  14  15
ATOM     15  C   UNL     1      83.004 122.749 124.500  1.00  0.00    -0.000 C 
BRANCH  15  16
ATOM     16  C   UNL     1      83.013 121.488 125.377  1.00  0.00    -0.000 C 
BRANCH  16  17
ATOM     17  C   UNL     1      84.398 121.189 125.969  1.00  0.00    -0.003 C 
ATOM     18  C   UNL     1      84.344 120.851 127.459  1.00  0.00     0.004 C 
ENDBRANCH  16  17
ENDBRANCH  15  16
ENDBRANCH  14  15
ENDBRANCH  13  14
ENDBRANCH  12  13
ENDBRANCH  11  12
ENDBRANCH   1  11
TORSDOF 14
ENDMDL
