MODEL 1
REMARK VINA RESULT:    -5.145      0.000      0.000
REMARK INTER + INTRA:          -5.145
REMARK INTER:                  -5.145
REMARK INTRA:                   0.000
REMARK UNBOUND:                 0.000
REMARK SMILES C=C1CCC[C@]2(C)CC(=O)C(=C(C)C)C[C@H]12
REMARK SMILES IDX 13 1 12 2 11 3 15 4 16 5 2 6 1 7 3 8 4 9 5 10 6 11 8 12 9 13
REMARK SMILES IDX 10 14 7 15 14 16
REMARK H PARENT
REMARK Flexibility Score: inf
ROOT
ATOM      1  C   UNL     1      29.555 -35.744 -12.864  1.00  0.00     0.039 C 
ATOM      2  C   UNL     1      29.474 -34.939 -14.141  1.00  0.00    -0.070 C 
ATOM      3  C   UNL     1      28.869 -33.717 -14.170  1.00  0.00    -0.006 C 
ATOM      4  C   UNL     1      28.242 -33.098 -12.937  1.00  0.00     0.047 C 
ATOM      5  C   UNL     1      28.373 -31.553 -12.890  1.00  0.00     0.025 C 
ATOM      6  C   UNL     1      27.511 -31.025 -11.754  1.00  0.00    -0.073 C 
ATOM      7  C   UNL     1      28.056 -30.734 -10.563  1.00  0.00     0.008 C 
ATOM      8  C   UNL     1      26.008 -30.988 -11.938  1.00  0.00     0.031 C 
ATOM      9  C   UNL     1      25.620 -30.379 -13.293  1.00  0.00     0.005 C 
ATOM     10  C   UNL     1      26.446 -30.950 -14.461  1.00  0.00     0.008 C 
ATOM     11  C   UNL     1      27.982 -30.843 -14.226  1.00  0.00    -0.018 C 
ATOM     12  C   UNL     1      28.748 -31.476 -15.416  1.00  0.00     0.088 C 
ATOM     13  C   UNL     1      28.660 -32.969 -15.430  1.00  0.00     0.159 C 
ATOM     14  O   UNL     1      28.407 -33.564 -16.512  1.00  0.00    -0.295 OA
ATOM     15  C   UNL     1      28.401 -29.349 -14.165  1.00  0.00     0.012 C 
ATOM     16  C   UNL     1      30.124 -35.527 -15.372  1.00  0.00     0.039 C 
ENDROOT
TORSDOF 0
ENDMDL
MODEL 2
REMARK VINA RESULT:    -5.113     11.134     13.231
REMARK INTER + INTRA:          -5.113
REMARK INTER:                  -5.113
REMARK INTRA:                   0.000
REMARK UNBOUND:                 0.000
REMARK SMILES C=C1CCC[C@]2(C)CC(=O)C(=C(C)C)C[C@H]12
REMARK SMILES IDX 13 1 12 2 11 3 15 4 16 5 2 6 1 7 3 8 4 9 5 10 6 11 8 12 9 13
REMARK SMILES IDX 10 14 7 15 14 16
REMARK H PARENT
REMARK Flexibility Score: inf
ROOT
ATOM      1  C   UNL     1      29.375 -45.363 -18.753  1.00  0.00     0.039 C 
ATOM      2  C   UNL     1      29.030 -43.904 -18.558  1.00  0.00    -0.070 C 
ATOM      3  C   UNL     1      28.385 -43.194 -19.527  1.00  0.00    -0.006 C 
ATOM      4  C   UNL     1      27.981 -43.815 -20.849  1.00  0.00     0.047 C 
ATOM      5  C   UNL     1      26.653 -43.249 -21.415  1.00  0.00     0.025 C 
ATOM      6  C   UNL     1      26.473 -43.757 -22.837  1.00  0.00    -0.073 C 
ATOM      7  C   UNL     1      25.692 -44.819 -23.087  1.00  0.00     0.008 C 
ATOM      8  C   UNL     1      27.313 -43.147 -23.939  1.00  0.00     0.031 C 
ATOM      9  C   UNL     1      27.313 -41.614 -23.865  1.00  0.00     0.005 C 
ATOM     10  C   UNL     1      27.555 -41.085 -22.439  1.00  0.00     0.008 C 
ATOM     11  C   UNL     1      26.569 -41.689 -21.395  1.00  0.00    -0.018 C 
ATOM     12  C   UNL     1      26.898 -41.150 -19.978  1.00  0.00     0.088 C 
ATOM     13  C   UNL     1      28.155 -41.735 -19.417  1.00  0.00     0.159 C 
ATOM     14  O   UNL     1      28.996 -40.978 -18.862  1.00  0.00    -0.295 OA
ATOM     15  C   UNL     1      25.119 -41.239 -21.721  1.00  0.00     0.012 C 
ATOM     16  C   UNL     1      29.395 -43.278 -17.232  1.00  0.00     0.039 C 
ENDROOT
TORSDOF 0
ENDMDL
MODEL 3
REMARK VINA RESULT:    -4.941      2.348      4.845
REMARK INTER + INTRA:          -4.941
REMARK INTER:                  -4.941
REMARK INTRA:                   0.000
REMARK UNBOUND:                 0.000
REMARK SMILES C=C1CCC[C@]2(C)CC(=O)C(=C(C)C)C[C@H]12
REMARK SMILES IDX 13 1 12 2 11 3 15 4 16 5 2 6 1 7 3 8 4 9 5 10 6 11 8 12 9 13
REMARK SMILES IDX 10 14 7 15 14 16
REMARK H PARENT
REMARK Flexibility Score: inf
ROOT
ATOM      1  C   UNL     1      27.218 -29.876  -8.690  1.00  0.00     0.039 C 
ATOM      2  C   UNL     1      27.603 -31.328  -8.859  1.00  0.00    -0.070 C 
ATOM      3  C   UNL     1      27.737 -31.885 -10.096  1.00  0.00    -0.006 C 
ATOM      4  C   UNL     1      27.507 -31.093 -11.367  1.00  0.00     0.047 C 
ATOM      5  C   UNL     1      28.434 -31.519 -12.535  1.00  0.00     0.025 C 
ATOM      6  C   UNL     1      27.959 -30.838 -13.809  1.00  0.00    -0.073 C 
ATOM      7  C   UNL     1      28.551 -29.715 -14.243  1.00  0.00     0.008 C 
ATOM      8  C   UNL     1      26.708 -31.357 -14.486  1.00  0.00     0.031 C 
ATOM      9  C   UNL     1      26.730 -32.886 -14.618  1.00  0.00     0.005 C 
ATOM     10  C   UNL     1      27.152 -33.590 -13.316  1.00  0.00     0.008 C 
ATOM     11  C   UNL     1      28.507 -33.064 -12.755  1.00  0.00    -0.018 C 
ATOM     12  C   UNL     1      28.847 -33.782 -11.423  1.00  0.00     0.088 C 
ATOM     13  C   UNL     1      27.982 -33.333 -10.289  1.00  0.00     0.159 C 
ATOM     14  O   UNL     1      27.475 -34.192  -9.518  1.00  0.00    -0.295 OA
ATOM     15  C   UNL     1      29.652 -33.397 -13.750  1.00  0.00     0.012 C 
ATOM     16  C   UNL     1      27.870 -32.125  -7.602  1.00  0.00     0.039 C 
ENDROOT
TORSDOF 0
ENDMDL
MODEL 4
REMARK VINA RESULT:    -4.880     11.180     13.460
REMARK INTER + INTRA:          -4.880
REMARK INTER:                  -4.880
REMARK INTRA:                   0.000
REMARK UNBOUND:                 0.000
REMARK SMILES C=C1CCC[C@]2(C)CC(=O)C(=C(C)C)C[C@H]12
REMARK SMILES IDX 13 1 12 2 11 3 15 4 16 5 2 6 1 7 3 8 4 9 5 10 6 11 8 12 9 13
REMARK SMILES IDX 10 14 7 15 14 16
REMARK H PARENT
REMARK Flexibility Score: inf
ROOT
ATOM      1  C   UNL     1      23.057 -44.459 -19.695  1.00  0.00     0.039 C 
ATOM      2  C   UNL     1      23.659 -43.963 -18.400  1.00  0.00    -0.070 C 
ATOM      3  C   UNL     1      25.010 -43.884 -18.232  1.00  0.00    -0.006 C 
ATOM      4  C   UNL     1      25.983 -44.290 -19.319  1.00  0.00     0.047 C 
ATOM      5  C   UNL     1      27.274 -43.430 -19.343  1.00  0.00     0.025 C 
ATOM      6  C   UNL     1      28.269 -44.070 -20.297  1.00  0.00    -0.073 C 
ATOM      7  C   UNL     1      28.394 -43.619 -21.555  1.00  0.00     0.008 C 
ATOM      8  C   UNL     1      28.997 -45.323 -19.857  1.00  0.00     0.031 C 
ATOM      9  C   UNL     1      29.565 -45.176 -18.439  1.00  0.00     0.005 C 
ATOM     10  C   UNL     1      28.546 -44.585 -17.447  1.00  0.00     0.008 C 
ATOM     11  C   UNL     1      27.934 -43.239 -17.939  1.00  0.00    -0.018 C 
ATOM     12  C   UNL     1      26.886 -42.726 -16.917  1.00  0.00     0.088 C 
ATOM     13  C   UNL     1      25.625 -43.528 -16.932  1.00  0.00     0.159 C 
ATOM     14  O   UNL     1      25.108 -43.890 -15.841  1.00  0.00    -0.295 OA
ATOM     15  C   UNL     1      29.044 -42.158 -18.026  1.00  0.00     0.012 C 
ATOM     16  C   UNL     1      22.702 -43.521 -17.317  1.00  0.00     0.039 C 
ENDROOT
TORSDOF 0
ENDMDL
MODEL 5
REMARK VINA RESULT:    -4.824      2.084      4.462
REMARK INTER + INTRA:          -4.824
REMARK INTER:                  -4.824
REMARK INTRA:                   0.000
REMARK UNBOUND:                 0.000
REMARK SMILES C=C1CCC[C@]2(C)CC(=O)C(=C(C)C)C[C@H]12
REMARK SMILES IDX 13 1 12 2 11 3 15 4 16 5 2 6 1 7 3 8 4 9 5 10 6 11 8 12 9 13
REMARK SMILES IDX 10 14 7 15 14 16
REMARK H PARENT
REMARK Flexibility Score: inf
ROOT
ATOM      1  C   UNL     1      27.418 -29.234 -14.291  1.00  0.00     0.039 C 
ATOM      2  C   UNL     1      27.896 -30.656 -14.104  1.00  0.00    -0.070 C 
ATOM      3  C   UNL     1      27.839 -31.266 -12.886  1.00  0.00    -0.006 C 
ATOM      4  C   UNL     1      27.305 -30.564 -11.655  1.00  0.00     0.047 C 
ATOM      5  C   UNL     1      26.557 -31.512 -10.681  1.00  0.00     0.025 C 
ATOM      6  C   UNL     1      26.281 -30.762  -9.387  1.00  0.00    -0.073 C 
ATOM      7  C   UNL     1      25.082 -30.201  -9.167  1.00  0.00     0.008 C 
ATOM      8  C   UNL     1      27.427 -30.523  -8.426  1.00  0.00     0.031 C 
ATOM      9  C   UNL     1      28.245 -31.801  -8.194  1.00  0.00     0.005 C 
ATOM     10  C   UNL     1      28.583 -32.538  -9.503  1.00  0.00     0.008 C 
ATOM     11  C   UNL     1      27.325 -32.837 -10.372  1.00  0.00    -0.018 C 
ATOM     12  C   UNL     1      27.743 -33.537 -11.692  1.00  0.00     0.088 C 
ATOM     13  C   UNL     1      28.421 -32.608 -12.647  1.00  0.00     0.159 C 
ATOM     14  O   UNL     1      29.474 -32.980 -13.231  1.00  0.00    -0.295 OA
ATOM     15  C   UNL     1      26.389 -33.820  -9.619  1.00  0.00     0.012 C 
ATOM     16  C   UNL     1      28.400 -31.383 -15.329  1.00  0.00     0.039 C 
ENDROOT
TORSDOF 0
ENDMDL
MODEL 6
REMARK VINA RESULT:    -4.812      1.893      3.633
REMARK INTER + INTRA:          -4.812
REMARK INTER:                  -4.812
REMARK INTRA:                   0.000
REMARK UNBOUND:                 0.000
REMARK SMILES C=C1CCC[C@]2(C)CC(=O)C(=C(C)C)C[C@H]12
REMARK SMILES IDX 13 1 12 2 11 3 15 4 16 5 2 6 1 7 3 8 4 9 5 10 6 11 8 12 9 13
REMARK SMILES IDX 10 14 7 15 14 16
REMARK H PARENT
REMARK Flexibility Score: inf
ROOT
ATOM      1  C   UNL     1      28.989 -32.979 -16.067  1.00  0.00     0.039 C 
ATOM      2  C   UNL     1      29.165 -34.067 -15.032  1.00  0.00    -0.070 C 
ATOM      3  C   UNL     1      28.786 -33.878 -13.736  1.00  0.00    -0.006 C 
ATOM      4  C   UNL     1      28.176 -32.578 -13.255  1.00  0.00     0.047 C 
ATOM      5  C   UNL     1      27.112 -32.771 -12.144  1.00  0.00     0.025 C 
ATOM      6  C   UNL     1      26.749 -31.409 -11.573  1.00  0.00    -0.073 C 
ATOM      7  C   UNL     1      25.649 -30.765 -11.994  1.00  0.00     0.008 C 
ATOM      8  C   UNL     1      27.730 -30.724 -10.646  1.00  0.00     0.031 C 
ATOM      9  C   UNL     1      28.254 -31.683  -9.569  1.00  0.00     0.005 C 
ATOM     10  C   UNL     1      28.682 -33.047 -10.143  1.00  0.00     0.008 C 
ATOM     11  C   UNL     1      27.565 -33.724 -10.991  1.00  0.00    -0.018 C 
ATOM     12  C   UNL     1      28.078 -35.067 -11.573  1.00  0.00     0.088 C 
ATOM     13  C   UNL     1      29.068 -34.875 -12.677  1.00  0.00     0.159 C 
ATOM     14  O   UNL     1      30.125 -35.562 -12.688  1.00  0.00    -0.295 OA
ATOM     15  C   UNL     1      26.350 -34.063 -10.085  1.00  0.00     0.012 C 
ATOM     16  C   UNL     1      29.740 -35.383 -15.503  1.00  0.00     0.039 C 
ENDROOT
TORSDOF 0
ENDMDL
MODEL 7
REMARK VINA RESULT:    -4.713     17.225     18.515
REMARK INTER + INTRA:          -4.713
REMARK INTER:                  -4.713
REMARK INTRA:                   0.000
REMARK UNBOUND:                 0.000
REMARK SMILES C=C1CCC[C@]2(C)CC(=O)C(=C(C)C)C[C@H]12
REMARK SMILES IDX 13 1 12 2 11 3 15 4 16 5 2 6 1 7 3 8 4 9 5 10 6 11 8 12 9 13
REMARK SMILES IDX 10 14 7 15 14 16
REMARK H PARENT
REMARK Flexibility Score: inf
ROOT
ATOM      1  C   UNL     1      17.741 -43.258  -9.856  1.00  0.00     0.039 C 
ATOM      2  C   UNL     1      16.894 -44.184  -9.012  1.00  0.00    -0.070 C 
ATOM      3  C   UNL     1      15.739 -43.753  -8.430  1.00  0.00    -0.006 C 
ATOM      4  C   UNL     1      15.238 -42.331  -8.587  1.00  0.00     0.047 C 
ATOM      5  C   UNL     1      13.692 -42.225  -8.631  1.00  0.00     0.025 C 
ATOM      6  C   UNL     1      13.301 -40.758  -8.546  1.00  0.00    -0.073 C 
ATOM      7  C   UNL     1      13.007 -40.065  -9.657  1.00  0.00     0.008 C 
ATOM      8  C   UNL     1      13.407 -40.054  -7.210  1.00  0.00     0.031 C 
ATOM      9  C   UNL     1      12.783 -40.887  -6.082  1.00  0.00     0.005 C 
ATOM     10  C   UNL     1      13.219 -42.364  -6.121  1.00  0.00     0.008 C 
ATOM     11  C   UNL     1      12.968 -43.032  -7.506  1.00  0.00    -0.018 C 
ATOM     12  C   UNL     1      13.471 -44.499  -7.488  1.00  0.00     0.088 C 
ATOM     13  C   UNL     1      14.963 -44.598  -7.494  1.00  0.00     0.159 C 
ATOM     14  O   UNL     1      15.534 -45.395  -6.702  1.00  0.00    -0.295 OA
ATOM     15  C   UNL     1      11.444 -43.083  -7.796  1.00  0.00     0.012 C 
ATOM     16  C   UNL     1      17.362 -45.615  -8.873  1.00  0.00     0.039 C 
ENDROOT
TORSDOF 0
ENDMDL
MODEL 8
REMARK VINA RESULT:    -4.698     16.199     17.991
REMARK INTER + INTRA:          -4.698
REMARK INTER:                  -4.698
REMARK INTRA:                   0.000
REMARK UNBOUND:                 0.000
REMARK SMILES C=C1CCC[C@]2(C)CC(=O)C(=C(C)C)C[C@H]12
REMARK SMILES IDX 13 1 12 2 11 3 15 4 16 5 2 6 1 7 3 8 4 9 5 10 6 11 8 12 9 13
REMARK SMILES IDX 10 14 7 15 14 16
REMARK H PARENT
REMARK Flexibility Score: inf
ROOT
ATOM      1  C   UNL     1      13.911 -41.318  -8.888  1.00  0.00     0.039 C 
ATOM      2  C   UNL     1      14.123 -42.436  -7.893  1.00  0.00    -0.070 C 
ATOM      3  C   UNL     1      15.188 -43.280  -7.993  1.00  0.00    -0.006 C 
ATOM      4  C   UNL     1      16.214 -43.157  -9.102  1.00  0.00     0.047 C 
ATOM      5  C   UNL     1      17.650 -43.538  -8.657  1.00  0.00     0.025 C 
ATOM      6  C   UNL     1      18.539 -43.612  -9.888  1.00  0.00    -0.073 C 
ATOM      7  C   UNL     1      19.321 -42.575 -10.227  1.00  0.00     0.008 C 
ATOM      8  C   UNL     1      18.406 -44.805 -10.811  1.00  0.00     0.031 C 
ATOM      9  C   UNL     1      18.388 -46.125 -10.028  1.00  0.00     0.005 C 
ATOM     10  C   UNL     1      17.445 -46.083  -8.811  1.00  0.00     0.008 C 
ATOM     11  C   UNL     1      17.732 -44.881  -7.863  1.00  0.00    -0.018 C 
ATOM     12  C   UNL     1      16.720 -44.875  -6.688  1.00  0.00     0.088 C 
ATOM     13  C   UNL     1      15.347 -44.461  -7.113  1.00  0.00     0.159 C 
ATOM     14  O   UNL     1      14.350 -45.123  -6.717  1.00  0.00    -0.295 OA
ATOM     15  C   UNL     1      19.145 -45.033  -7.237  1.00  0.00     0.012 C 
ATOM     16  C   UNL     1      13.128 -42.552  -6.761  1.00  0.00     0.039 C 
ENDROOT
TORSDOF 0
ENDMDL
MODEL 9
REMARK VINA RESULT:    -4.695     15.667     17.452
REMARK INTER + INTRA:          -4.695
REMARK INTER:                  -4.695
REMARK INTRA:                   0.000
REMARK UNBOUND:                 0.000
REMARK SMILES C=C1CCC[C@]2(C)CC(=O)C(=C(C)C)C[C@H]12
REMARK SMILES IDX 13 1 12 2 11 3 15 4 16 5 2 6 1 7 3 8 4 9 5 10 6 11 8 12 9 13
REMARK SMILES IDX 10 14 7 15 14 16
REMARK H PARENT
REMARK Flexibility Score: inf
ROOT
ATOM      1  C   UNL     1      15.433 -43.986  -4.877  1.00  0.00     0.039 C 
ATOM      2  C   UNL     1      15.379 -44.176  -6.375  1.00  0.00    -0.070 C 
ATOM      3  C   UNL     1      16.518 -44.285  -7.116  1.00  0.00    -0.006 C 
ATOM      4  C   UNL     1      17.897 -44.217  -6.492  1.00  0.00     0.047 C 
ATOM      5  C   UNL     1      18.938 -45.125  -7.196  1.00  0.00     0.025 C 
ATOM      6  C   UNL     1      20.319 -44.798  -6.650  1.00  0.00    -0.073 C 
ATOM      7  C   UNL     1      20.867 -45.554  -5.687  1.00  0.00     0.008 C 
ATOM      8  C   UNL     1      20.993 -43.518  -7.096  1.00  0.00     0.031 C 
ATOM      9  C   UNL     1      20.913 -43.337  -8.618  1.00  0.00     0.005 C 
ATOM     10  C   UNL     1      19.503 -43.607  -9.176  1.00  0.00     0.008 C 
ATOM     11  C   UNL     1      18.940 -44.996  -8.754  1.00  0.00    -0.018 C 
ATOM     12  C   UNL     1      17.504 -45.181  -9.311  1.00  0.00     0.088 C 
ATOM     13  C   UNL     1      16.496 -44.339  -8.596  1.00  0.00     0.159 C 
ATOM     14  O   UNL     1      15.647 -43.689  -9.264  1.00  0.00    -0.295 OA
ATOM     15  C   UNL     1      19.809 -46.125  -9.370  1.00  0.00     0.012 C 
ATOM     16  C   UNL     1      14.011 -44.281  -7.011  1.00  0.00     0.039 C 
ENDROOT
TORSDOF 0
ENDMDL
