MODEL 1
REMARK VINA RESULT:    -8.771      0.000      0.000
REMARK INTER + INTRA:         -13.434
REMARK INTER:                 -12.103
REMARK INTRA:                  -1.331
REMARK UNBOUND:                -1.331
REMARK SMILES O=C([O-])[C@H]1O[C@@H](Oc2cc3oc(-c4ccccc4)cc(=O)c3c(O)c2O)[C@@H](O)[C@H](O)[C@H]1O
REMARK SMILES IDX 7 1 6 2 4 3 31 4 5 5 29 6 27 7 2 8 1 9 3 10 32 11 30 13
REMARK SMILES IDX 28 15 8 17 25 18 9 19 23 20 10 21 22 22 11 23 20 24 12 25
REMARK SMILES IDX 19 26 21 27 26 28 24 30 13 32 14 33 18 34 15 35 17 36 16 37
REMARK H PARENT 32 12 30 14 28 16 26 29 24 31
REMARK Flexibility Score: inf
ROOT
ATOM      1  O   UNL     1      36.799   1.036  -3.413  1.00  0.00    -0.458 OA
ENDROOT
BRANCH   1   2
ATOM      2  C   UNL     1      36.864  -0.346  -3.708  1.00  0.00     0.339 C 
ATOM      3  C   UNL     1      38.045  -2.332  -3.109  1.00  0.00     0.199 C 
ATOM      4  C   UNL     1      36.832  -3.179  -3.766  1.00  0.00     0.180 C 
ATOM      5  O   UNL     1      38.138  -0.962  -3.499  1.00  0.00    -0.328 OA
ATOM      6  C   UNL     1      36.030  -2.540  -5.000  1.00  0.00     0.181 C 
ATOM      7  C   UNL     1      35.798  -1.053  -4.812  1.00  0.00     0.214 C 
BRANCH   3   8
ATOM      8  C   UNL     1      39.442  -2.914  -3.072  1.00  0.00     0.073 C 
ATOM      9  O   UNL     1      39.600  -4.078  -2.473  1.00  0.00    -0.547 OA
ATOM     10  O   UNL     1      40.309  -2.668  -4.147  1.00  0.00    -0.547 OA
ENDBRANCH   3   8
BRANCH   4  11
ATOM     11  O   UNL     1      36.973  -4.613  -3.883  1.00  0.00    -0.387 OA
ATOM     12  H   UNL     1      37.971  -4.783  -3.740  1.00  0.00     0.211 HD
ENDBRANCH   4  11
BRANCH   6  13
ATOM     13  O   UNL     1      34.758  -3.240  -5.189  1.00  0.00    -0.387 OA
ATOM     14  H   UNL     1      34.959  -4.076  -5.786  1.00  0.00     0.211 HD
ENDBRANCH   6  13
BRANCH   7  15
ATOM     15  O   UNL     1      35.341  -0.259  -5.966  1.00  0.00    -0.384 OA
ATOM     16  H   UNL     1      35.573   0.724  -5.786  1.00  0.00     0.211 HD
ENDBRANCH   7  15
ENDBRANCH   1   2
BRANCH   1  17
ATOM     17  C   UNL     1      37.660   1.394  -2.360  1.00  0.00     0.172 A 
ATOM     18  C   UNL     1      37.076   1.492  -0.978  1.00  0.00     0.201 A 
ATOM     19  C   UNL     1      38.738   2.332  -2.753  1.00  0.00     0.098 A 
ATOM     20  C   UNL     1      36.931   2.959  -0.705  1.00  0.00     0.176 A 
ATOM     21  C   UNL     1      38.776   3.723  -2.376  1.00  0.00     0.146 A 
ATOM     22  C   UNL     1      37.599   4.059  -1.608  1.00  0.00     0.111 A 
ATOM     23  O   UNL     1      39.861   4.592  -2.395  1.00  0.00    -0.456 OA
ATOM     24  C   UNL     1      37.477   5.500  -1.505  1.00  0.00     0.197 A 
ATOM     25  C   UNL     1      39.875   5.574  -1.476  1.00  0.00     0.138 A 
ATOM     26  C   UNL     1      38.643   6.205  -1.207  1.00  0.00     0.100 A 
ATOM     27  O   UNL     1      36.472   6.117  -1.965  1.00  0.00    -0.289 OA
BRANCH  18  28
ATOM     28  O   UNL     1      37.309   0.500   0.038  1.00  0.00    -0.502 OA
ATOM     29  H   UNL     1      36.418   0.621   0.624  1.00  0.00     0.293 HD
ENDBRANCH  18  28
BRANCH  20  30
ATOM     30  O   UNL     1      36.095   3.328   0.350  1.00  0.00    -0.504 OA
ATOM     31  H   UNL     1      36.305   3.155   1.318  1.00  0.00     0.293 HD
ENDBRANCH  20  30
BRANCH  25  32
ATOM     32  C   UNL     1      40.722   5.264  -0.364  1.00  0.00     0.017 A 
ATOM     33  C   UNL     1      40.303   5.111   0.995  1.00  0.00     0.012 A 
ATOM     34  C   UNL     1      42.146   5.188  -0.573  1.00  0.00     0.012 A 
ATOM     35  C   UNL     1      41.286   5.185   2.087  1.00  0.00     0.001 A 
ATOM     36  C   UNL     1      43.098   4.996   0.453  1.00  0.00     0.001 A 
ATOM     37  C   UNL     1      42.665   5.202   1.756  1.00  0.00     0.000 A 
ENDBRANCH  25  32
ENDBRANCH   1  17
TORSDOF 9
ENDMDL
MODEL 2
REMARK VINA RESULT:    -8.219      0.930      2.593
REMARK INTER + INTRA:         -12.673
REMARK INTER:                 -11.970
REMARK INTRA:                  -0.703
REMARK UNBOUND:                -1.331
REMARK SMILES O=C([O-])[C@H]1O[C@@H](Oc2cc3oc(-c4ccccc4)cc(=O)c3c(O)c2O)[C@@H](O)[C@H](O)[C@H]1O
REMARK SMILES IDX 7 1 6 2 4 3 31 4 5 5 29 6 27 7 2 8 1 9 3 10 32 11 30 13
REMARK SMILES IDX 28 15 8 17 25 18 9 19 23 20 10 21 22 22 11 23 20 24 12 25
REMARK SMILES IDX 19 26 21 27 26 28 24 30 13 32 14 33 18 34 15 35 17 36 16 37
REMARK H PARENT 32 12 30 14 28 16 26 29 24 31
REMARK Flexibility Score: inf
ROOT
ATOM      1  O   UNL     1      36.998   1.358  -3.501  1.00  0.00    -0.458 OA
ENDROOT
BRANCH   1   2
ATOM      2  C   UNL     1      36.882  -0.037  -3.707  1.00  0.00     0.339 C 
ATOM      3  C   UNL     1      35.434  -1.669  -4.674  1.00  0.00     0.199 C 
ATOM      4  C   UNL     1      36.684  -2.697  -4.661  1.00  0.00     0.180 C 
ATOM      5  O   UNL     1      35.545  -0.534  -3.815  1.00  0.00    -0.328 OA
ATOM      6  C   UNL     1      37.788  -2.550  -3.506  1.00  0.00     0.181 C 
ATOM      7  C   UNL     1      38.099  -1.096  -3.206  1.00  0.00     0.214 C 
BRANCH   3   8
ATOM      8  C   UNL     1      34.018  -2.199  -4.584  1.00  0.00     0.073 C 
ATOM      9  O   UNL     1      33.068  -1.496  -5.171  1.00  0.00    -0.547 OA
ATOM     10  O   UNL     1      33.812  -3.586  -4.559  1.00  0.00    -0.547 OA
ENDBRANCH   3   8
BRANCH   4  11
ATOM     11  O   UNL     1      36.451  -4.077  -5.028  1.00  0.00    -0.387 OA
ATOM     12  H   UNL     1      36.500  -4.586  -4.143  1.00  0.00     0.211 HD
ENDBRANCH   4  11
BRANCH   6  13
ATOM     13  O   UNL     1      39.006  -3.271  -3.880  1.00  0.00    -0.387 OA
ATOM     14  H   UNL     1      39.342  -3.762  -3.019  1.00  0.00     0.211 HD
ENDBRANCH   6  13
BRANCH   7  15
ATOM     15  O   UNL     1      38.863  -0.774  -1.988  1.00  0.00    -0.384 OA
ATOM     16  H   UNL     1      39.005  -1.644  -1.465  1.00  0.00     0.211 HD
ENDBRANCH   7  15
ENDBRANCH   1   2
BRANCH   1  17
ATOM     17  C   UNL     1      37.815   1.666  -2.399  1.00  0.00     0.172 A 
ATOM     18  C   UNL     1      37.167   1.749  -1.045  1.00  0.00     0.201 A 
ATOM     19  C   UNL     1      38.938   2.581  -2.715  1.00  0.00     0.098 A 
ATOM     20  C   UNL     1      37.049   3.213  -0.743  1.00  0.00     0.176 A 
ATOM     21  C   UNL     1      38.997   3.960  -2.302  1.00  0.00     0.146 A 
ATOM     22  C   UNL     1      37.793   4.313  -1.585  1.00  0.00     0.111 A 
ATOM     23  O   UNL     1      40.105   4.797  -2.247  1.00  0.00    -0.456 OA
ATOM     24  C   UNL     1      37.707   5.755  -1.453  1.00  0.00     0.197 A 
ATOM     25  C   UNL     1      40.101   5.757  -1.305  1.00  0.00     0.138 A 
ATOM     26  C   UNL     1      38.876   6.418  -1.080  1.00  0.00     0.100 A 
ATOM     27  O   UNL     1      36.744   6.411  -1.945  1.00  0.00    -0.289 OA
BRANCH  18  28
ATOM     28  O   UNL     1      37.321   0.727  -0.044  1.00  0.00    -0.502 OA
ATOM     29  H   UNL     1      37.305  -0.147  -0.666  1.00  0.00     0.293 HD
ENDBRANCH  18  28
BRANCH  20  30
ATOM     30  O   UNL     1      36.173   3.581   0.279  1.00  0.00    -0.504 OA
ATOM     31  H   UNL     1      36.448   3.693   1.239  1.00  0.00     0.293 HD
ENDBRANCH  20  30
BRANCH  25  32
ATOM     32  C   UNL     1      40.883   5.396  -0.161  1.00  0.00     0.017 A 
ATOM     33  C   UNL     1      40.404   5.281   1.183  1.00  0.00     0.012 A 
ATOM     34  C   UNL     1      42.305   5.221  -0.316  1.00  0.00     0.012 A 
ATOM     35  C   UNL     1      41.349   5.293   2.310  1.00  0.00     0.001 A 
ATOM     36  C   UNL     1      43.203   4.971   0.746  1.00  0.00     0.001 A 
ATOM     37  C   UNL     1      42.737   5.214   2.031  1.00  0.00     0.000 A 
ENDBRANCH  25  32
ENDBRANCH   1  17
TORSDOF 9
ENDMDL
MODEL 3
REMARK VINA RESULT:    -7.291      2.450      7.891
REMARK INTER + INTRA:         -11.393
REMARK INTER:                  -9.997
REMARK INTRA:                  -1.396
REMARK UNBOUND:                -1.331
REMARK SMILES O=C([O-])[C@H]1O[C@@H](Oc2cc3oc(-c4ccccc4)cc(=O)c3c(O)c2O)[C@@H](O)[C@H](O)[C@H]1O
REMARK SMILES IDX 7 1 6 2 4 3 31 4 5 5 29 6 27 7 2 8 1 9 3 10 32 11 30 13
REMARK SMILES IDX 28 15 8 17 25 18 9 19 23 20 10 21 22 22 11 23 20 24 12 25
REMARK SMILES IDX 19 26 21 27 26 28 24 30 13 32 14 33 18 34 15 35 17 36 16 37
REMARK H PARENT 32 12 30 14 28 16 26 29 24 31
REMARK Flexibility Score: inf
ROOT
ATOM      1  O   UNL     1      38.360   1.516   0.285  1.00  0.00    -0.458 OA
ENDROOT
BRANCH   1   2
ATOM      2  C   UNL     1      38.331   2.930   0.224  1.00  0.00     0.339 C 
ATOM      3  C   UNL     1      39.767   4.834   0.321  1.00  0.00     0.199 C 
ATOM      4  C   UNL     1      38.577   5.690  -0.363  1.00  0.00     0.180 C 
ATOM      5  O   UNL     1      39.385   3.597   0.924  1.00  0.00    -0.328 OA
ATOM      6  C   UNL     1      37.058   5.269  -0.064  1.00  0.00     0.181 C 
ATOM      7  C   UNL     1      36.885   3.762  -0.041  1.00  0.00     0.214 C 
BRANCH   3   8
ATOM      8  C   UNL     1      40.768   5.518   1.228  1.00  0.00     0.073 C 
ATOM      9  O   UNL     1      41.448   4.759   2.066  1.00  0.00    -0.547 OA
ATOM     10  O   UNL     1      41.446   6.652   0.758  1.00  0.00    -0.547 OA
ENDBRANCH   3   8
BRANCH   4  11
ATOM     11  O   UNL     1      38.737   7.122  -0.487  1.00  0.00    -0.387 OA
ATOM     12  H   UNL     1      38.982   7.433   0.455  1.00  0.00     0.211 HD
ENDBRANCH   4  11
BRANCH   6  13
ATOM     13  O   UNL     1      36.164   5.875  -1.053  1.00  0.00    -0.387 OA
ATOM     14  H   UNL     1      35.512   6.501  -0.527  1.00  0.00     0.211 HD
ENDBRANCH   6  13
BRANCH   7  15
ATOM     15  O   UNL     1      35.634   3.203   0.500  1.00  0.00    -0.384 OA
ATOM     16  H   UNL     1      35.638   2.193   0.326  1.00  0.00     0.211 HD
ENDBRANCH   7  15
ENDBRANCH   1   2
BRANCH   1  17
ATOM     17  C   UNL     1      38.301   0.930  -0.992  1.00  0.00     0.172 A 
ATOM     18  C   UNL     1      39.098   1.570  -2.096  1.00  0.00     0.201 A 
ATOM     19  C   UNL     1      36.993   0.313  -1.316  1.00  0.00     0.098 A 
ATOM     20  C   UNL     1      38.102   2.317  -2.931  1.00  0.00     0.176 A 
ATOM     21  C   UNL     1      36.048   0.866  -2.253  1.00  0.00     0.146 A 
ATOM     22  C   UNL     1      36.550   2.114  -2.782  1.00  0.00     0.111 A 
ATOM     23  O   UNL     1      34.977   0.233  -2.872  1.00  0.00    -0.456 OA
ATOM     24  C   UNL     1      35.483   2.821  -3.463  1.00  0.00     0.197 A 
ATOM     25  C   UNL     1      34.635   0.668  -4.098  1.00  0.00     0.138 A 
ATOM     26  C   UNL     1      34.673   2.062  -4.308  1.00  0.00     0.100 A 
ATOM     27  O   UNL     1      35.098   3.966  -3.088  1.00  0.00    -0.289 OA
BRANCH  18  28
ATOM     28  O   UNL     1      40.317   1.002  -2.607  1.00  0.00    -0.502 OA
ATOM     29  H   UNL     1      39.946   0.063  -2.971  1.00  0.00     0.293 HD
ENDBRANCH  18  28
BRANCH  20  30
ATOM     30  O   UNL     1      38.605   3.281  -3.806  1.00  0.00    -0.504 OA
ATOM     31  H   UNL     1      39.584   3.471  -3.927  1.00  0.00     0.293 HD
ENDBRANCH  20  30
BRANCH  25  32
ATOM     32  C   UNL     1      35.147  -0.176  -5.135  1.00  0.00     0.017 A 
ATOM     33  C   UNL     1      35.963  -1.337  -4.948  1.00  0.00     0.012 A 
ATOM     34  C   UNL     1      34.927   0.196  -6.510  1.00  0.00     0.012 A 
ATOM     35  C   UNL     1      36.741  -1.884  -6.070  1.00  0.00     0.001 A 
ATOM     36  C   UNL     1      35.466  -0.487  -7.623  1.00  0.00     0.001 A 
ATOM     37  C   UNL     1      36.507  -1.370  -7.371  1.00  0.00     0.000 A 
ENDBRANCH  25  32
ENDBRANCH   1  17
TORSDOF 9
ENDMDL
MODEL 4
REMARK VINA RESULT:    -7.254      2.636      8.252
REMARK INTER + INTRA:         -11.342
REMARK INTER:                 -10.634
REMARK INTRA:                  -0.708
REMARK UNBOUND:                -1.331
REMARK SMILES O=C([O-])[C@H]1O[C@@H](Oc2cc3oc(-c4ccccc4)cc(=O)c3c(O)c2O)[C@@H](O)[C@H](O)[C@H]1O
REMARK SMILES IDX 7 1 6 2 4 3 31 4 5 5 29 6 27 7 2 8 1 9 3 10 32 11 30 13
REMARK SMILES IDX 28 15 8 17 25 18 9 19 23 20 10 21 22 22 11 23 20 24 12 25
REMARK SMILES IDX 19 26 21 27 26 28 24 30 13 32 14 33 18 34 15 35 17 36 16 37
REMARK H PARENT 32 12 30 14 28 16 26 29 24 31
REMARK Flexibility Score: inf
ROOT
ATOM      1  O   UNL     1      39.082   3.550   0.625  1.00  0.00    -0.458 OA
ENDROOT
BRANCH   1   2
ATOM      2  C   UNL     1      40.201   4.410   0.521  1.00  0.00     0.339 C 
ATOM      3  C   UNL     1      42.373   4.770   1.442  1.00  0.00     0.199 C 
ATOM      4  C   UNL     1      42.709   5.671   0.141  1.00  0.00     0.180 C 
ATOM      5  O   UNL     1      40.988   4.541   1.707  1.00  0.00    -0.328 OA
ATOM      6  C   UNL     1      41.514   6.477  -0.565  1.00  0.00     0.181 C 
ATOM      7  C   UNL     1      40.236   5.661  -0.613  1.00  0.00     0.214 C 
BRANCH   3   8
ATOM      8  C   UNL     1      43.071   5.048   2.757  1.00  0.00     0.073 C 
ATOM      9  O   UNL     1      43.638   4.029   3.372  1.00  0.00    -0.547 OA
ATOM     10  O   UNL     1      43.699   6.288   2.943  1.00  0.00    -0.547 OA
ENDBRANCH   3   8
BRANCH   4  11
ATOM     11  O   UNL     1      43.959   6.397   0.105  1.00  0.00    -0.387 OA
ATOM     12  H   UNL     1      44.659   5.712   0.400  1.00  0.00     0.211 HD
ENDBRANCH   4  11
BRANCH   6  13
ATOM     13  O   UNL     1      41.913   6.890  -1.912  1.00  0.00    -0.387 OA
ATOM     14  H   UNL     1      41.630   7.892  -2.016  1.00  0.00     0.211 HD
ENDBRANCH   6  13
BRANCH   7  15
ATOM     15  O   UNL     1      38.977   6.343  -0.959  1.00  0.00    -0.384 OA
ATOM     16  H   UNL     1      38.587   6.742  -0.099  1.00  0.00     0.211 HD
ENDBRANCH   7  15
ENDBRANCH   1   2
BRANCH   1  17
ATOM     17  C   UNL     1      39.098   2.539  -0.353  1.00  0.00     0.172 A 
ATOM     18  C   UNL     1      39.858   2.803  -1.624  1.00  0.00     0.201 A 
ATOM     19  C   UNL     1      37.854   1.736  -0.414  1.00  0.00     0.098 A 
ATOM     20  C   UNL     1      38.818   3.108  -2.660  1.00  0.00     0.176 A 
ATOM     21  C   UNL     1      36.883   1.829  -1.475  1.00  0.00     0.146 A 
ATOM     22  C   UNL     1      37.286   2.840  -2.426  1.00  0.00     0.111 A 
ATOM     23  O   UNL     1      35.882   0.924  -1.809  1.00  0.00    -0.456 OA
ATOM     24  C   UNL     1      36.175   3.157  -3.303  1.00  0.00     0.197 A 
ATOM     25  C   UNL     1      35.527   0.855  -3.104  1.00  0.00     0.138 A 
ATOM     26  C   UNL     1      35.449   2.077  -3.805  1.00  0.00     0.100 A 
ATOM     27  O   UNL     1      35.686   4.322  -3.362  1.00  0.00    -0.289 OA
BRANCH  18  28
ATOM     28  O   UNL     1      41.130   2.196  -1.912  1.00  0.00    -0.502 OA
ATOM     29  H   UNL     1      41.782   3.024  -1.708  1.00  0.00     0.293 HD
ENDBRANCH  18  28
BRANCH  20  30
ATOM     30  O   UNL     1      39.252   3.731  -3.831  1.00  0.00    -0.504 OA
ATOM     31  H   UNL     1      38.666   3.885  -4.633  1.00  0.00     0.293 HD
ENDBRANCH  20  30
BRANCH  25  32
ATOM     32  C   UNL     1      36.129  -0.259  -3.772  1.00  0.00     0.017 A 
ATOM     33  C   UNL     1      35.605  -0.934  -4.921  1.00  0.00     0.012 A 
ATOM     34  C   UNL     1      37.319  -0.847  -3.213  1.00  0.00     0.012 A 
ATOM     35  C   UNL     1      36.087  -2.278  -5.274  1.00  0.00     0.001 A 
ATOM     36  C   UNL     1      37.950  -2.010  -3.710  1.00  0.00     0.001 A 
ATOM     37  C   UNL     1      37.213  -2.796  -4.586  1.00  0.00     0.000 A 
ENDBRANCH  25  32
ENDBRANCH   1  17
TORSDOF 9
ENDMDL
MODEL 5
REMARK VINA RESULT:    -6.805      1.985      3.612
REMARK INTER + INTRA:         -10.722
REMARK INTER:                 -10.172
REMARK INTRA:                  -0.550
REMARK UNBOUND:                -1.331
REMARK SMILES O=C([O-])[C@H]1O[C@@H](Oc2cc3oc(-c4ccccc4)cc(=O)c3c(O)c2O)[C@@H](O)[C@H](O)[C@H]1O
REMARK SMILES IDX 7 1 6 2 4 3 31 4 5 5 29 6 27 7 2 8 1 9 3 10 32 11 30 13
REMARK SMILES IDX 28 15 8 17 25 18 9 19 23 20 10 21 22 22 11 23 20 24 12 25
REMARK SMILES IDX 19 26 21 27 26 28 24 30 13 32 14 33 18 34 15 35 17 36 16 37
REMARK H PARENT 32 12 30 14 28 16 26 29 24 31
REMARK Flexibility Score: inf
ROOT
ATOM      1  O   UNL     1      39.360  -1.030  -3.231  1.00  0.00    -0.458 OA
ENDROOT
BRANCH   1   2
ATOM      2  C   UNL     1      38.272  -1.876  -3.552  1.00  0.00     0.339 C 
ATOM      3  C   UNL     1      36.292  -1.950  -4.883  1.00  0.00     0.199 C 
ATOM      4  C   UNL     1      36.310  -3.559  -4.712  1.00  0.00     0.180 C 
ATOM      5  O   UNL     1      37.067  -1.209  -3.940  1.00  0.00    -0.328 OA
ATOM      6  C   UNL     1      36.921  -4.182  -3.365  1.00  0.00     0.181 C 
ATOM      7  C   UNL     1      38.160  -3.434  -2.911  1.00  0.00     0.214 C 
BRANCH   3   8
ATOM      8  C   UNL     1      34.979  -1.226  -5.095  1.00  0.00     0.073 C 
ATOM      9  O   UNL     1      34.337  -0.805  -4.023  1.00  0.00    -0.547 OA
ATOM     10  O   UNL     1      34.817  -0.436  -6.242  1.00  0.00    -0.547 OA
ENDBRANCH   3   8
BRANCH   4  11
ATOM     11  O   UNL     1      35.187  -4.321  -5.212  1.00  0.00    -0.387 OA
ATOM     12  H   UNL     1      35.458  -5.296  -5.066  1.00  0.00     0.211 HD
ENDBRANCH   4  11
BRANCH   6  13
ATOM     13  O   UNL     1      37.217  -5.603  -3.557  1.00  0.00    -0.387 OA
ATOM     14  H   UNL     1      36.563  -6.134  -2.937  1.00  0.00     0.211 HD
ENDBRANCH   6  13
BRANCH   7  15
ATOM     15  O   UNL     1      38.675  -3.682  -1.553  1.00  0.00    -0.384 OA
ATOM     16  H   UNL     1      39.198  -4.564  -1.569  1.00  0.00     0.211 HD
ENDBRANCH   7  15
ENDBRANCH   1   2
BRANCH   1  17
ATOM     17  C   UNL     1      39.045  -0.131  -2.196  1.00  0.00     0.172 A 
ATOM     18  C   UNL     1      37.808  -0.401  -1.384  1.00  0.00     0.201 A 
ATOM     19  C   UNL     1      39.427   1.273  -2.477  1.00  0.00     0.098 A 
ATOM     20  C   UNL     1      36.780   0.572  -1.878  1.00  0.00     0.176 A 
ATOM     21  C   UNL     1      38.486   2.322  -2.779  1.00  0.00     0.146 A 
ATOM     22  C   UNL     1      37.143   1.788  -2.807  1.00  0.00     0.111 A 
ATOM     23  O   UNL     1      38.683   3.697  -2.730  1.00  0.00    -0.456 OA
ATOM     24  C   UNL     1      36.247   2.751  -3.416  1.00  0.00     0.197 A 
ATOM     25  C   UNL     1      37.615   4.458  -2.430  1.00  0.00     0.138 A 
ATOM     26  C   UNL     1      36.386   4.078  -3.008  1.00  0.00     0.100 A 
ATOM     27  O   UNL     1      35.602   2.485  -4.472  1.00  0.00    -0.289 OA
BRANCH  18  28
ATOM     28  O   UNL     1      37.855  -0.913  -0.040  1.00  0.00    -0.502 OA
ATOM     29  H   UNL     1      38.897  -0.773   0.176  1.00  0.00     0.293 HD
ENDBRANCH  18  28
BRANCH  20  30
ATOM     30  O   UNL     1      35.449   0.310  -1.551  1.00  0.00    -0.504 OA
ATOM     31  H   UNL     1      35.149  -0.018  -0.650  1.00  0.00     0.293 HD
ENDBRANCH  20  30
BRANCH  25  32
ATOM     32  C   UNL     1      37.609   4.867  -1.058  1.00  0.00     0.017 A 
ATOM     33  C   UNL     1      36.474   4.869  -0.187  1.00  0.00     0.012 A 
ATOM     34  C   UNL     1      38.810   5.426  -0.492  1.00  0.00     0.012 A 
ATOM     35  C   UNL     1      36.492   5.663   1.052  1.00  0.00     0.001 A 
ATOM     36  C   UNL     1      38.909   5.964   0.811  1.00  0.00     0.001 A 
ATOM     37  C   UNL     1      37.716   6.249   1.462  1.00  0.00     0.000 A 
ENDBRANCH  25  32
ENDBRANCH   1  17
TORSDOF 9
ENDMDL
MODEL 6
REMARK VINA RESULT:    -6.733     12.449     15.257
REMARK INTER + INTRA:         -10.623
REMARK INTER:                  -9.281
REMARK INTRA:                  -1.343
REMARK UNBOUND:                -1.331
REMARK SMILES O=C([O-])[C@H]1O[C@@H](Oc2cc3oc(-c4ccccc4)cc(=O)c3c(O)c2O)[C@@H](O)[C@H](O)[C@H]1O
REMARK SMILES IDX 7 1 6 2 4 3 31 4 5 5 29 6 27 7 2 8 1 9 3 10 32 11 30 13
REMARK SMILES IDX 28 15 8 17 25 18 9 19 23 20 10 21 22 22 11 23 20 24 12 25
REMARK SMILES IDX 19 26 21 27 26 28 24 30 13 32 14 33 18 34 15 35 17 36 16 37
REMARK H PARENT 32 12 30 14 28 16 26 29 24 31
REMARK Flexibility Score: inf
ROOT
ATOM      1  O   UNL     1      30.931  -9.858   6.611  1.00  0.00    -0.458 OA
ENDROOT
BRANCH   1   2
ATOM      2  C   UNL     1      29.637  -9.653   6.077  1.00  0.00     0.339 C 
ATOM      3  C   UNL     1      28.184  -7.920   5.314  1.00  0.00     0.199 C 
ATOM      4  C   UNL     1      27.322  -9.060   4.555  1.00  0.00     0.180 C 
ATOM      5  O   UNL     1      29.054  -8.376   6.350  1.00  0.00    -0.328 OA
ATOM      6  C   UNL     1      27.267 -10.532   5.191  1.00  0.00     0.181 C 
ATOM      7  C   UNL     1      28.612 -10.955   5.751  1.00  0.00     0.214 C 
BRANCH   3   8
ATOM      8  C   UNL     1      27.509  -6.648   5.782  1.00  0.00     0.073 C 
ATOM      9  O   UNL     1      27.833  -5.526   5.168  1.00  0.00    -0.547 OA
ATOM     10  O   UNL     1      26.192  -6.713   6.260  1.00  0.00    -0.547 OA
ENDBRANCH   3   8
BRANCH   4  11
ATOM     11  O   UNL     1      26.074  -8.683   3.928  1.00  0.00    -0.387 OA
ATOM     12  H   UNL     1      25.451  -9.473   4.108  1.00  0.00     0.211 HD
ENDBRANCH   4  11
BRANCH   6  13
ATOM     13  O   UNL     1      26.799 -11.494   4.192  1.00  0.00    -0.387 OA
ATOM     14  H   UNL     1      27.288 -12.398   4.391  1.00  0.00     0.211 HD
ENDBRANCH   6  13
BRANCH   7  15
ATOM     15  O   UNL     1      28.673 -12.142   6.621  1.00  0.00    -0.384 OA
ATOM     16  H   UNL     1      29.585 -12.145   7.089  1.00  0.00     0.211 HD
ENDBRANCH   7  15
ENDBRANCH   1   2
BRANCH   1  17
ATOM     17  C   UNL     1      31.880  -8.982   6.053  1.00  0.00     0.172 A 
ATOM     18  C   UNL     1      32.445  -9.326   4.703  1.00  0.00     0.201 A 
ATOM     19  C   UNL     1      32.755  -8.322   7.052  1.00  0.00     0.098 A 
ATOM     20  C   UNL     1      33.820  -9.863   4.966  1.00  0.00     0.176 A 
ATOM     21  C   UNL     1      34.145  -8.645   7.246  1.00  0.00     0.146 A 
ATOM     22  C   UNL     1      34.531  -9.722   6.362  1.00  0.00     0.111 A 
ATOM     23  O   UNL     1      35.123  -7.895   7.890  1.00  0.00    -0.456 OA
ATOM     24  C   UNL     1      35.814 -10.257   6.774  1.00  0.00     0.197 A 
ATOM     25  C   UNL     1      36.385  -8.026   7.446  1.00  0.00     0.138 A 
ATOM     26  C   UNL     1      36.803  -9.328   7.099  1.00  0.00     0.100 A 
ATOM     27  O   UNL     1      35.948 -11.464   7.130  1.00  0.00    -0.289 OA
BRANCH  18  28
ATOM     28  O   UNL     1      32.065  -8.635   3.500  1.00  0.00    -0.502 OA
ATOM     29  H   UNL     1      31.306  -9.301   3.135  1.00  0.00     0.293 HD
ENDBRANCH  18  28
BRANCH  20  30
ATOM     30  O   UNL     1      34.430 -10.581   3.937  1.00  0.00    -0.504 OA
ATOM     31  H   UNL     1      34.043 -10.671   3.013  1.00  0.00     0.293 HD
ENDBRANCH  20  30
BRANCH  25  32
ATOM     32  C   UNL     1      36.771  -6.950   6.584  1.00  0.00     0.017 A 
ATOM     33  C   UNL     1      36.731  -6.963   5.154  1.00  0.00     0.012 A 
ATOM     34  C   UNL     1      37.351  -5.765   7.164  1.00  0.00     0.012 A 
ATOM     35  C   UNL     1      37.504  -5.978   4.381  1.00  0.00     0.001 A 
ATOM     36  C   UNL     1      37.869  -4.680   6.423  1.00  0.00     0.001 A 
ATOM     37  C   UNL     1      38.114  -4.903   5.075  1.00  0.00     0.000 A 
ENDBRANCH  25  32
ENDBRANCH   1  17
TORSDOF 9
ENDMDL
MODEL 7
REMARK VINA RESULT:    -6.627      2.705      8.715
REMARK INTER + INTRA:         -10.476
REMARK INTER:                  -9.305
REMARK INTRA:                  -1.170
REMARK UNBOUND:                -1.331
REMARK SMILES O=C([O-])[C@H]1O[C@@H](Oc2cc3oc(-c4ccccc4)cc(=O)c3c(O)c2O)[C@@H](O)[C@H](O)[C@H]1O
REMARK SMILES IDX 7 1 6 2 4 3 31 4 5 5 29 6 27 7 2 8 1 9 3 10 32 11 30 13
REMARK SMILES IDX 28 15 8 17 25 18 9 19 23 20 10 21 22 22 11 23 20 24 12 25
REMARK SMILES IDX 19 26 21 27 26 28 24 30 13 32 14 33 18 34 15 35 17 36 16 37
REMARK H PARENT 32 12 30 14 28 16 26 29 24 31
REMARK Flexibility Score: inf
ROOT
ATOM      1  O   UNL     1      38.068   1.863  -1.514  1.00  0.00    -0.458 OA
ENDROOT
BRANCH   1   2
ATOM      2  C   UNL     1      37.388   3.093  -1.677  1.00  0.00     0.339 C 
ATOM      3  C   UNL     1      36.026   4.284  -3.234  1.00  0.00     0.199 C 
ATOM      4  C   UNL     1      35.566   5.237  -2.009  1.00  0.00     0.180 C 
ATOM      5  O   UNL     1      37.222   3.531  -3.028  1.00  0.00    -0.328 OA
ATOM      6  C   UNL     1      36.600   5.503  -0.812  1.00  0.00     0.181 C 
ATOM      7  C   UNL     1      37.374   4.250  -0.446  1.00  0.00     0.214 C 
BRANCH   3   8
ATOM      8  C   UNL     1      36.038   4.823  -4.649  1.00  0.00     0.073 C 
ATOM      9  O   UNL     1      35.538   4.054  -5.596  1.00  0.00    -0.547 OA
ATOM     10  O   UNL     1      35.889   6.202  -4.852  1.00  0.00    -0.547 OA
ENDBRANCH   3   8
BRANCH   4  11
ATOM     11  O   UNL     1      34.751   6.395  -2.302  1.00  0.00    -0.387 OA
ATOM     12  H   UNL     1      34.125   6.475  -1.498  1.00  0.00     0.211 HD
ENDBRANCH   4  11
BRANCH   6  13
ATOM     13  O   UNL     1      35.893   6.032   0.356  1.00  0.00    -0.387 OA
ATOM     14  H   UNL     1      34.961   5.557   0.385  1.00  0.00     0.211 HD
ENDBRANCH   6  13
BRANCH   7  15
ATOM     15  O   UNL     1      38.557   4.379   0.421  1.00  0.00    -0.384 OA
ATOM     16  H   UNL     1      39.264   3.714   0.093  1.00  0.00     0.211 HD
ENDBRANCH   7  15
ENDBRANCH   1   2
BRANCH   1  17
ATOM     17  C   UNL     1      37.203   0.760  -1.629  1.00  0.00     0.172 A 
ATOM     18  C   UNL     1      37.102  -0.179  -0.459  1.00  0.00     0.201 A 
ATOM     19  C   UNL     1      37.104   0.209  -3.002  1.00  0.00     0.098 A 
ATOM     20  C   UNL     1      37.901  -1.388  -0.842  1.00  0.00     0.176 A 
ATOM     21  C   UNL     1      37.684  -1.044  -3.414  1.00  0.00     0.146 A 
ATOM     22  C   UNL     1      38.400  -1.643  -2.311  1.00  0.00     0.111 A 
ATOM     23  O   UNL     1      37.386  -1.803  -4.540  1.00  0.00    -0.456 OA
ATOM     24  C   UNL     1      39.239  -2.720  -2.800  1.00  0.00     0.197 A 
ATOM     25  C   UNL     1      37.533  -3.135  -4.435  1.00  0.00     0.138 A 
ATOM     26  C   UNL     1      38.659  -3.594  -3.721  1.00  0.00     0.100 A 
ATOM     27  O   UNL     1      40.497  -2.698  -2.664  1.00  0.00    -0.289 OA
BRANCH  18  28
ATOM     28  O   UNL     1      35.964  -0.208   0.421  1.00  0.00    -0.502 OA
ATOM     29  H   UNL     1      35.573   0.777   0.252  1.00  0.00     0.293 HD
ENDBRANCH  18  28
BRANCH  20  30
ATOM     30  O   UNL     1      38.269  -2.258   0.186  1.00  0.00    -0.504 OA
ATOM     31  H   UNL     1      38.295  -1.998   1.156  1.00  0.00     0.293 HD
ENDBRANCH  20  30
BRANCH  25  32
ATOM     32  C   UNL     1      36.286  -3.803  -4.213  1.00  0.00     0.017 A 
ATOM     33  C   UNL     1      36.121  -5.129  -3.701  1.00  0.00     0.012 A 
ATOM     34  C   UNL     1      35.066  -3.154  -4.621  1.00  0.00     0.012 A 
ATOM     35  C   UNL     1      34.847  -5.841  -3.883  1.00  0.00     0.001 A 
ATOM     36  C   UNL     1      33.783  -3.743  -4.557  1.00  0.00     0.001 A 
ATOM     37  C   UNL     1      33.734  -5.120  -4.385  1.00  0.00     0.000 A 
ENDBRANCH  25  32
ENDBRANCH   1  17
TORSDOF 9
ENDMDL
MODEL 8
REMARK VINA RESULT:    -6.556      2.278      4.165
REMARK INTER + INTRA:         -10.378
REMARK INTER:                  -9.515
REMARK INTRA:                  -0.863
REMARK UNBOUND:                -1.331
REMARK SMILES O=C([O-])[C@H]1O[C@@H](Oc2cc3oc(-c4ccccc4)cc(=O)c3c(O)c2O)[C@@H](O)[C@H](O)[C@H]1O
REMARK SMILES IDX 7 1 6 2 4 3 31 4 5 5 29 6 27 7 2 8 1 9 3 10 32 11 30 13
REMARK SMILES IDX 28 15 8 17 25 18 9 19 23 20 10 21 22 22 11 23 20 24 12 25
REMARK SMILES IDX 19 26 21 27 26 28 24 30 13 32 14 33 18 34 15 35 17 36 16 37
REMARK H PARENT 32 12 30 14 28 16 26 29 24 31
REMARK Flexibility Score: inf
ROOT
ATOM      1  O   UNL     1      39.290   1.786  -2.995  1.00  0.00    -0.458 OA
ENDROOT
BRANCH   1   2
ATOM      2  C   UNL     1      37.882   1.722  -3.116  1.00  0.00     0.339 C 
ATOM      3  C   UNL     1      35.976   3.102  -3.518  1.00  0.00     0.199 C 
ATOM      4  C   UNL     1      35.156   1.757  -3.887  1.00  0.00     0.180 C 
ATOM      5  O   UNL     1      37.179   2.919  -2.771  1.00  0.00    -0.328 OA
ATOM      6  C   UNL     1      35.560   0.386  -3.158  1.00  0.00     0.181 C 
ATOM      7  C   UNL     1      37.064   0.248  -3.012  1.00  0.00     0.214 C 
BRANCH   3   8
ATOM      8  C   UNL     1      35.246   4.305  -2.960  1.00  0.00     0.073 C 
ATOM      9  O   UNL     1      33.976   4.450  -3.284  1.00  0.00    -0.547 OA
ATOM     10  O   UNL     1      35.601   4.788  -1.692  1.00  0.00    -0.547 OA
ENDBRANCH   3   8
BRANCH   4  11
ATOM     11  O   UNL     1      33.732   1.857  -4.123  1.00  0.00    -0.387 OA
ATOM     12  H   UNL     1      33.324   1.918  -3.189  1.00  0.00     0.211 HD
ENDBRANCH   4  11
BRANCH   6  13
ATOM     13  O   UNL     1      35.006  -0.755  -3.890  1.00  0.00    -0.387 OA
ATOM     14  H   UNL     1      35.002  -0.491  -4.902  1.00  0.00     0.211 HD
ENDBRANCH   6  13
BRANCH   7  15
ATOM     15  O   UNL     1      37.593  -0.796  -2.118  1.00  0.00    -0.384 OA
ATOM     16  H   UNL     1      36.805  -1.368  -1.798  1.00  0.00     0.211 HD
ENDBRANCH   7  15
ENDBRANCH   1   2
BRANCH   1  17
ATOM     17  C   UNL     1      39.700   1.960  -1.661  1.00  0.00     0.172 A 
ATOM     18  C   UNL     1      38.634   2.023  -0.602  1.00  0.00     0.201 A 
ATOM     19  C   UNL     1      40.917   2.791  -1.505  1.00  0.00     0.098 A 
ATOM     20  C   UNL     1      38.512   3.472  -0.238  1.00  0.00     0.176 A 
ATOM     21  C   UNL     1      40.917   4.134  -0.985  1.00  0.00     0.146 A 
ATOM     22  C   UNL     1      39.565   4.549  -0.688  1.00  0.00     0.111 A 
ATOM     23  O   UNL     1      41.990   4.868  -0.492  1.00  0.00    -0.456 OA
ATOM     24  C   UNL     1      39.529   5.983  -0.474  1.00  0.00     0.197 A 
ATOM     25  C   UNL     1      41.724   5.770   0.470  1.00  0.00     0.138 A 
ATOM     26  C   UNL     1      40.539   6.521   0.323  1.00  0.00     0.100 A 
ATOM     27  O   UNL     1      38.835   6.747  -1.207  1.00  0.00    -0.289 OA
BRANCH  18  28
ATOM     28  O   UNL     1      38.373   0.937   0.306  1.00  0.00    -0.502 OA
ATOM     29  H   UNL     1      38.463   1.453   1.243  1.00  0.00     0.293 HD
ENDBRANCH  18  28
BRANCH  20  30
ATOM     30  O   UNL     1      37.364   3.857   0.456  1.00  0.00    -0.504 OA
ATOM     31  H   UNL     1      36.977   3.341   1.227  1.00  0.00     0.293 HD
ENDBRANCH  20  30
BRANCH  25  32
ATOM     32  C   UNL     1      42.044   5.280   1.776  1.00  0.00     0.017 A 
ATOM     33  C   UNL     1      41.360   5.610   2.989  1.00  0.00     0.012 A 
ATOM     34  C   UNL     1      43.214   4.455   1.944  1.00  0.00     0.012 A 
ATOM     35  C   UNL     1      42.002   5.370   4.291  1.00  0.00     0.001 A 
ATOM     36  C   UNL     1      43.700   3.996   3.189  1.00  0.00     0.001 A 
ATOM     37  C   UNL     1      43.208   4.625   4.324  1.00  0.00     0.000 A 
ENDBRANCH  25  32
ENDBRANCH   1  17
TORSDOF 9
ENDMDL
MODEL 9
REMARK VINA RESULT:    -6.253      9.547     13.460
REMARK INTER + INTRA:          -9.960
REMARK INTER:                  -8.595
REMARK INTRA:                  -1.365
REMARK UNBOUND:                -1.331
REMARK SMILES O=C([O-])[C@H]1O[C@@H](Oc2cc3oc(-c4ccccc4)cc(=O)c3c(O)c2O)[C@@H](O)[C@H](O)[C@H]1O
REMARK SMILES IDX 7 1 6 2 4 3 31 4 5 5 29 6 27 7 2 8 1 9 3 10 32 11 30 13
REMARK SMILES IDX 28 15 8 17 25 18 9 19 23 20 10 21 22 22 11 23 20 24 12 25
REMARK SMILES IDX 19 26 21 27 26 28 24 30 13 32 14 33 18 34 15 35 17 36 16 37
REMARK H PARENT 32 12 30 14 28 16 26 29 24 31
REMARK Flexibility Score: inf
ROOT
ATOM      1  O   UNL     1      38.192  -6.514   3.281  1.00  0.00    -0.458 OA
ENDROOT
BRANCH   1   2
ATOM      2  C   UNL     1      39.125  -5.471   3.488  1.00  0.00     0.339 C 
ATOM      3  C   UNL     1      39.252  -3.182   4.151  1.00  0.00     0.199 C 
ATOM      4  C   UNL     1      40.828  -3.414   4.436  1.00  0.00     0.180 C 
ATOM      5  O   UNL     1      38.616  -4.146   3.312  1.00  0.00    -0.328 OA
ATOM      6  C   UNL     1      41.618  -4.492   3.548  1.00  0.00     0.181 C 
ATOM      7  C   UNL     1      40.782  -5.731   3.290  1.00  0.00     0.214 C 
BRANCH   3   8
ATOM      8  C   UNL     1      38.747  -1.807   3.767  1.00  0.00     0.073 C 
ATOM      9  O   UNL     1      39.283  -0.769   4.379  1.00  0.00    -0.547 OA
ATOM     10  O   UNL     1      38.337  -1.579   2.445  1.00  0.00    -0.547 OA
ENDBRANCH   3   8
BRANCH   4  11
ATOM     11  O   UNL     1      41.647  -2.271   4.774  1.00  0.00    -0.387 OA
ATOM     12  H   UNL     1      41.197  -1.487   4.298  1.00  0.00     0.211 HD
ENDBRANCH   4  11
BRANCH   6  13
ATOM     13  O   UNL     1      42.882  -4.848   4.196  1.00  0.00    -0.387 OA
ATOM     14  H   UNL     1      42.698  -5.707   4.764  1.00  0.00     0.211 HD
ENDBRANCH   6  13
BRANCH   7  15
ATOM     15  O   UNL     1      41.234  -6.685   2.262  1.00  0.00    -0.384 OA
ATOM     16  H   UNL     1      42.196  -6.443   2.006  1.00  0.00     0.211 HD
ENDBRANCH   7  15
ENDBRANCH   1   2
BRANCH   1  17
ATOM     17  C   UNL     1      37.039  -6.358   4.071  1.00  0.00     0.172 A 
ATOM     18  C   UNL     1      37.224  -6.070   5.535  1.00  0.00     0.201 A 
ATOM     19  C   UNL     1      35.895  -7.198   3.644  1.00  0.00     0.098 A 
ATOM     20  C   UNL     1      36.937  -7.361   6.241  1.00  0.00     0.176 A 
ATOM     21  C   UNL     1      35.428  -8.355   4.365  1.00  0.00     0.146 A 
ATOM     22  C   UNL     1      36.263  -8.586   5.522  1.00  0.00     0.111 A 
ATOM     23  O   UNL     1      34.203  -9.003   4.255  1.00  0.00    -0.456 OA
ATOM     24  C   UNL     1      36.001  -9.908   6.057  1.00  0.00     0.197 A 
ATOM     25  C   UNL     1      33.726  -9.601   5.361  1.00  0.00     0.138 A 
ATOM     26  C   UNL     1      34.662 -10.284   6.166  1.00  0.00     0.100 A 
ATOM     27  O   UNL     1      36.906 -10.790   6.125  1.00  0.00    -0.289 OA
BRANCH  18  28
ATOM     28  O   UNL     1      36.999  -4.769   6.108  1.00  0.00    -0.502 OA
ATOM     29  H   UNL     1      36.328  -4.358   5.378  1.00  0.00     0.293 HD
ENDBRANCH  18  28
BRANCH  20  30
ATOM     30  O   UNL     1      37.373  -7.473   7.562  1.00  0.00    -0.504 OA
ATOM     31  H   UNL     1      36.772  -7.366   8.360  1.00  0.00     0.293 HD
ENDBRANCH  20  30
BRANCH  25  32
ATOM     32  C   UNL     1      32.734  -8.807   6.022  1.00  0.00     0.017 A 
ATOM     33  C   UNL     1      32.894  -8.131   7.273  1.00  0.00     0.012 A 
ATOM     34  C   UNL     1      31.409  -8.737   5.459  1.00  0.00     0.012 A 
ATOM     35  C   UNL     1      31.714  -7.686   8.031  1.00  0.00     0.001 A 
ATOM     36  C   UNL     1      30.314  -8.079   6.063  1.00  0.00     0.001 A 
ATOM     37  C   UNL     1      30.443  -7.754   7.406  1.00  0.00     0.000 A 
ENDBRANCH  25  32
ENDBRANCH   1  17
TORSDOF 9
ENDMDL
