MODEL 1
REMARK VINA RESULT:    -9.712      0.000      0.000
REMARK INTER + INTRA:         -11.767
REMARK INTER:                 -10.564
REMARK INTRA:                  -1.203
REMARK UNBOUND:                -1.203
REMARK SMILES OC[C@@H]1O[C@@H](O[C@H]2[C@H](O)[C@H](O)[C@@H](O[C@H]3[C@H](O)[C@H](O)[C@@H](O)O[C@H]3CO)O[C@@H]2CO)[C@H](O)[C@@H](O)[C@@H]1O
REMARK SMILES IDX 7 1 26 2 25 3 12 4 10 5 8 6 6 7 5 8 3 9 33 10 4 11 31 12
REMARK SMILES IDX 29 13 2 14 1 15 34 17 32 19 30 21 27 23 28 24 9 26 11 28
REMARK SMILES IDX 13 30 14 31 22 32 15 33 21 34 17 35 19 36 23 37 24 38 16 40
REMARK SMILES IDX 18 42 20 44
REMARK H PARENT 1 16 34 18 32 20 30 22 28 25 9 27 11 29 24 39 16 41 18 43
REMARK H PARENT 20 45
REMARK Flexibility Score: inf
ROOT
ATOM      1  C   UNL     1     236.555 234.037 236.123  1.00  0.00     0.184 C 
ATOM      2  C   UNL     1     235.410 236.889 234.256  1.00  0.00     0.178 C 
ATOM      3  O   UNL     1     235.586 235.425 236.256  1.00  0.00    -0.341 OA
ATOM      4  C   UNL     1     236.945 234.010 238.483  1.00  0.00     0.282 C 
ATOM      5  C   UNL     1     237.992 231.959 240.459  1.00  0.00     0.202 C 
ATOM      6  C   UNL     1     236.795 231.758 238.314  1.00  0.00     0.180 C 
ENDROOT
BRANCH   1   7
ATOM      7  O   UNL     1     238.525 233.762 235.940  1.00  0.00    -0.341 OA
BRANCH   7   8
ATOM      8  C   UNL     1     239.663 233.629 234.566  1.00  0.00     0.282 C 
ATOM      9  C   UNL     1     241.138 235.209 232.646  1.00  0.00     0.178 C 
ATOM     10  C   UNL     1     239.919 234.439 231.869  1.00  0.00     0.177 C 
ATOM     11  O   UNL     1     240.718 234.799 234.236  1.00  0.00    -0.341 OA
ATOM     12  C   UNL     1     240.398 232.961 231.867  1.00  0.00     0.179 C 
ATOM     13  C   UNL     1     239.946 232.457 233.410  1.00  0.00     0.202 C 
BRANCH   9  14
ATOM     14  C   UNL     1     243.271 235.626 232.123  1.00  0.00     0.191 C 
BRANCH  14  15
ATOM     15  O   UNL     1     243.690 236.444 230.630  1.00  0.00    -0.394 OA
ATOM     16  H   UNL     1     243.972 237.344 229.812  1.00  0.00     0.210 HD
ENDBRANCH  14  15
ENDBRANCH   9  14
BRANCH  10  17
ATOM     17  O   UNL     1     239.228 235.485 230.582  1.00  0.00    -0.387 OA
ATOM     18  H   UNL     1     238.610 235.716 231.369  1.00  0.00     0.211 HD
ENDBRANCH  10  17
BRANCH  12  19
ATOM     19  O   UNL     1     239.262 232.519 231.368  1.00  0.00    -0.387 OA
ATOM     20  H   UNL     1     238.677 232.516 232.243  1.00  0.00     0.211 HD
ENDBRANCH  12  19
BRANCH  13  21
ATOM     21  O   UNL     1     241.148 231.589 233.619  1.00  0.00    -0.385 OA
ATOM     22  H   UNL     1     242.304 231.462 233.170  1.00  0.00     0.211 HD
ENDBRANCH  13  21
ENDBRANCH   7   8
ENDBRANCH   1   7
BRANCH   2  23
ATOM     23  C   UNL     1     234.872 236.927 229.936  1.00  0.00     0.191 C 
BRANCH  23  24
ATOM     24  O   UNL     1     236.864 233.716 230.196  1.00  0.00    -0.394 OA
ATOM     25  H   UNL     1     237.367 232.692 229.374  1.00  0.00     0.210 HD
ENDBRANCH  23  24
ENDBRANCH   2  23
BRANCH   6  26
ATOM     26  O   UNL     1     236.118 229.878 238.790  1.00  0.00    -0.387 OA
ATOM     27  H   UNL     1     236.201 227.899 237.687  1.00  0.00     0.211 HD
ENDBRANCH   6  26
BRANCH   5  28
ATOM     28  O   UNL     1     237.120 231.712 241.250  1.00  0.00    -0.385 OA
ATOM     29  H   UNL     1     236.456 232.087 240.649  1.00  0.00     0.211 HD
ENDBRANCH   5  28
BRANCH   4  30
ATOM     30  O   UNL     1     237.800 235.337 239.109  1.00  0.00    -0.341 OA
BRANCH  30  31
ATOM     31  C   UNL     1     236.426 235.834 239.389  1.00  0.00     0.184 C 
ATOM     32  C   UNL     1     233.456 237.915 240.001  1.00  0.00     0.178 C 
ATOM     33  C   UNL     1     236.523 237.682 240.404  1.00  0.00     0.180 C 
ATOM     34  O   UNL     1     231.537 239.515 241.119  1.00  0.00    -0.342 OA
ATOM     35  C   UNL     1     234.872 239.896 240.602  1.00  0.00     0.201 C 
ATOM     36  C   UNL     1     232.902 240.365 241.372  1.00  0.00     0.279 C 
BRANCH  32  37
ATOM     37  C   UNL     1     233.670 238.958 238.416  1.00  0.00     0.191 C 
BRANCH  37  38
ATOM     38  O   UNL     1     232.793 238.790 237.421  1.00  0.00    -0.394 OA
ATOM     39  H   UNL     1     232.809 237.766 237.113  1.00  0.00     0.210 HD
ENDBRANCH  37  38
ENDBRANCH  32  37
BRANCH  33  40
ATOM     40  O   UNL     1     238.162 237.103 241.201  1.00  0.00    -0.387 OA
ATOM     41  H   UNL     1     239.229 237.828 241.307  1.00  0.00     0.211 HD
ENDBRANCH  33  40
BRANCH  35  42
ATOM     42  O   UNL     1     235.689 240.990 240.671  1.00  0.00    -0.385 OA
ATOM     43  H   UNL     1     235.158 240.851 241.696  1.00  0.00     0.211 HD
ENDBRANCH  35  42
BRANCH  36  44
ATOM     44  O   UNL     1     232.777 241.793 241.718  1.00  0.00    -0.366 OA
ATOM     45  H   UNL     1     232.336 242.661 241.267  1.00  0.00     0.213 HD
ENDBRANCH  36  44
ENDBRANCH  30  31
ENDBRANCH   4  30
TORSDOF 18
ENDMDL
MODEL 2
REMARK VINA RESULT:    -9.588      3.320      9.812
REMARK INTER + INTRA:         -11.631
REMARK INTER:                 -10.748
REMARK INTRA:                  -0.884
REMARK UNBOUND:                -1.203
REMARK SMILES OC[C@@H]1O[C@@H](O[C@H]2[C@H](O)[C@H](O)[C@@H](O[C@H]3[C@H](O)[C@H](O)[C@@H](O)O[C@H]3CO)O[C@@H]2CO)[C@H](O)[C@@H](O)[C@@H]1O
REMARK SMILES IDX 7 1 26 2 25 3 12 4 10 5 8 6 6 7 5 8 3 9 33 10 4 11 31 12
REMARK SMILES IDX 29 13 2 14 1 15 34 17 32 19 30 21 27 23 28 24 9 26 11 28
REMARK SMILES IDX 13 30 14 31 22 32 15 33 21 34 17 35 19 36 23 37 24 38 16 40
REMARK SMILES IDX 18 42 20 44
REMARK H PARENT 1 16 34 18 32 20 30 22 28 25 9 27 11 29 24 39 16 41 18 43
REMARK H PARENT 20 45
REMARK Flexibility Score: inf
ROOT
ATOM      1  C   UNL     1     237.624 236.704 237.099  1.00  0.00     0.184 C 
ATOM      2  C   UNL     1     235.263 236.834 234.391  1.00  0.00     0.178 C 
ATOM      3  O   UNL     1     236.839 235.722 235.958  1.00  0.00    -0.341 OA
ATOM      4  C   UNL     1     237.902 234.854 238.589  1.00  0.00     0.282 C 
ATOM      5  C   UNL     1     239.618 234.307 241.030  1.00  0.00     0.202 C 
ATOM      6  C   UNL     1     239.929 235.748 239.056  1.00  0.00     0.180 C 
ENDROOT
BRANCH   1   7
ATOM      7  O   UNL     1     236.985 237.712 238.701  1.00  0.00    -0.341 OA
BRANCH   7   8
ATOM      8  C   UNL     1     235.733 238.954 238.999  1.00  0.00     0.282 C 
ATOM      9  C   UNL     1     234.105 240.118 241.086  1.00  0.00     0.178 C 
ATOM     10  C   UNL     1     233.147 239.211 240.115  1.00  0.00     0.177 C 
ATOM     11  O   UNL     1     235.606 239.690 240.425  1.00  0.00    -0.341 OA
ATOM     12  C   UNL     1     233.083 240.058 238.815  1.00  0.00     0.179 C 
ATOM     13  C   UNL     1     234.528 239.628 238.059  1.00  0.00     0.202 C 
BRANCH   9  14
ATOM     14  C   UNL     1     233.844 242.103 242.080  1.00  0.00     0.191 C 
BRANCH  14  15
ATOM     15  O   UNL     1     232.411 242.454 243.030  1.00  0.00    -0.394 OA
ATOM     16  H   UNL     1     231.217 242.610 243.358  1.00  0.00     0.210 HD
ENDBRANCH  14  15
ENDBRANCH   9  14
BRANCH  10  17
ATOM     17  O   UNL     1     231.878 238.378 241.076  1.00  0.00    -0.387 OA
ATOM     18  H   UNL     1     232.138 239.135 241.719  1.00  0.00     0.211 HD
ENDBRANCH  10  17
BRANCH  12  19
ATOM     19  O   UNL     1     232.435 239.123 238.152  1.00  0.00    -0.387 OA
ATOM     20  H   UNL     1     231.486 239.574 238.096  1.00  0.00     0.211 HD
ENDBRANCH  12  19
BRANCH  13  21
ATOM     21  O   UNL     1     234.796 240.994 237.508  1.00  0.00    -0.385 OA
ATOM     22  H   UNL     1     234.206 241.874 236.850  1.00  0.00     0.211 HD
ENDBRANCH  13  21
ENDBRANCH   7   8
ENDBRANCH   1   7
BRANCH   2  23
ATOM     23  C   UNL     1     234.688 240.293 231.812  1.00  0.00     0.191 C 
BRANCH  23  24
ATOM     24  O   UNL     1     233.310 237.652 229.473  1.00  0.00    -0.394 OA
ATOM     25  H   UNL     1     232.252 237.462 228.567  1.00  0.00     0.210 HD
ENDBRANCH  23  24
ENDBRANCH   2  23
BRANCH   6  26
ATOM     26  O   UNL     1     241.968 235.759 239.298  1.00  0.00    -0.387 OA
ATOM     27  H   UNL     1     243.587 237.167 238.568  1.00  0.00     0.211 HD
ENDBRANCH   6  26
BRANCH   5  28
ATOM     28  O   UNL     1     240.354 233.388 240.781  1.00  0.00    -0.385 OA
ATOM     29  H   UNL     1     240.247 233.548 239.830  1.00  0.00     0.211 HD
ENDBRANCH   5  28
BRANCH   4  30
ATOM     30  O   UNL     1     236.472 234.172 239.200  1.00  0.00    -0.341 OA
BRANCH  30  31
ATOM     31  C   UNL     1     237.160 232.903 238.835  1.00  0.00     0.184 C 
ATOM     32  C   UNL     1     238.778 230.125 237.049  1.00  0.00     0.178 C 
ATOM     33  C   UNL     1     236.562 232.291 236.905  1.00  0.00     0.180 C 
ATOM     34  O   UNL     1     239.294 227.875 235.578  1.00  0.00    -0.342 OA
ATOM     35  C   UNL     1     237.718 230.800 234.879  1.00  0.00     0.201 C 
ATOM     36  C   UNL     1     238.382 228.762 234.564  1.00  0.00     0.279 C 
BRANCH  32  37
ATOM     37  C   UNL     1     240.028 231.239 236.132  1.00  0.00     0.191 C 
BRANCH  37  38
ATOM     38  O   UNL     1     240.342 232.421 236.672  1.00  0.00    -0.394 OA
ATOM     39  H   UNL     1     241.282 232.335 237.174  1.00  0.00     0.210 HD
ENDBRANCH  37  38
ENDBRANCH  32  37
BRANCH  33  40
ATOM     40  O   UNL     1     234.861 233.103 237.227  1.00  0.00    -0.387 OA
ATOM     41  H   UNL     1     233.949 232.621 238.009  1.00  0.00     0.211 HD
ENDBRANCH  33  40
BRANCH  35  42
ATOM     42  O   UNL     1     237.317 231.364 233.699  1.00  0.00    -0.385 OA
ATOM     43  H   UNL     1     236.420 230.789 234.166  1.00  0.00     0.211 HD
ENDBRANCH  35  42
BRANCH  36  44
ATOM     44  O   UNL     1     238.384 228.403 233.133  1.00  0.00    -0.366 OA
ATOM     45  H   UNL     1     238.075 228.873 232.219  1.00  0.00     0.213 HD
ENDBRANCH  36  44
ENDBRANCH  30  31
ENDBRANCH   4  30
TORSDOF 18
ENDMDL
MODEL 3
REMARK VINA RESULT:    -9.297      0.918      1.192
REMARK INTER + INTRA:         -11.315
REMARK INTER:                 -10.177
REMARK INTRA:                  -1.138
REMARK UNBOUND:                -1.203
REMARK SMILES OC[C@@H]1O[C@@H](O[C@H]2[C@H](O)[C@H](O)[C@@H](O[C@H]3[C@H](O)[C@H](O)[C@@H](O)O[C@H]3CO)O[C@@H]2CO)[C@H](O)[C@@H](O)[C@@H]1O
REMARK SMILES IDX 7 1 26 2 25 3 12 4 10 5 8 6 6 7 5 8 3 9 33 10 4 11 31 12
REMARK SMILES IDX 29 13 2 14 1 15 34 17 32 19 30 21 27 23 28 24 9 26 11 28
REMARK SMILES IDX 13 30 14 31 22 32 15 33 21 34 17 35 19 36 23 37 24 38 16 40
REMARK SMILES IDX 18 42 20 44
REMARK H PARENT 1 16 34 18 32 20 30 22 28 25 9 27 11 29 24 39 16 41 18 43
REMARK H PARENT 20 45
REMARK Flexibility Score: inf
ROOT
ATOM      1  C   UNL     1     236.897 233.834 236.144  1.00  0.00     0.184 C 
ATOM      2  C   UNL     1     235.977 236.657 234.116  1.00  0.00     0.178 C 
ATOM      3  O   UNL     1     235.943 235.239 236.156  1.00  0.00    -0.341 OA
ATOM      4  C   UNL     1     237.067 233.857 238.530  1.00  0.00     0.282 C 
ATOM      5  C   UNL     1     237.892 231.838 240.639  1.00  0.00     0.202 C 
ATOM      6  C   UNL     1     236.896 231.604 238.398  1.00  0.00     0.180 C 
ENDROOT
BRANCH   1   7
ATOM      7  O   UNL     1     238.870 233.526 236.151  1.00  0.00    -0.341 OA
BRANCH   7   8
ATOM      8  C   UNL     1     240.069 232.966 234.947  1.00  0.00     0.282 C 
ATOM      9  C   UNL     1     241.416 233.749 232.512  1.00  0.00     0.178 C 
ATOM     10  C   UNL     1     240.330 232.575 232.158  1.00  0.00     0.177 C 
ATOM     11  O   UNL     1     240.987 234.006 234.131  1.00  0.00    -0.341 OA
ATOM     12  C   UNL     1     240.984 231.310 232.780  1.00  0.00     0.179 C 
ATOM     13  C   UNL     1     240.536 231.459 234.398  1.00  0.00     0.202 C 
BRANCH   9  14
ATOM     14  C   UNL     1     243.501 234.169 231.825  1.00  0.00     0.191 C 
BRANCH  14  15
ATOM     15  O   UNL     1     244.144 235.801 231.838  1.00  0.00    -0.394 OA
ATOM     16  H   UNL     1     244.717 236.845 232.212  1.00  0.00     0.210 HD
ENDBRANCH  14  15
ENDBRANCH   9  14
BRANCH  10  17
ATOM     17  O   UNL     1     239.568 232.877 230.560  1.00  0.00    -0.387 OA
ATOM     18  H   UNL     1     239.520 231.853 230.603  1.00  0.00     0.211 HD
ENDBRANCH  10  17
BRANCH  12  19
ATOM     19  O   UNL     1     239.930 230.559 232.536  1.00  0.00    -0.387 OA
ATOM     20  H   UNL     1     239.561 230.455 233.516  1.00  0.00     0.211 HD
ENDBRANCH  12  19
BRANCH  13  21
ATOM     21  O   UNL     1     241.826 230.922 234.938  1.00  0.00    -0.385 OA
ATOM     22  H   UNL     1     242.284 230.481 236.010  1.00  0.00     0.211 HD
ENDBRANCH  13  21
ENDBRANCH   7   8
ENDBRANCH   1   7
BRANCH   2  23
ATOM     23  C   UNL     1     235.842 236.601 229.765  1.00  0.00     0.191 C 
BRANCH  23  24
ATOM     24  O   UNL     1     239.525 235.832 230.192  1.00  0.00    -0.394 OA
ATOM     25  H   UNL     1     240.547 235.959 231.149  1.00  0.00     0.210 HD
ENDBRANCH  23  24
ENDBRANCH   2  23
BRANCH   6  26
ATOM     26  O   UNL     1     236.146 229.745 238.850  1.00  0.00    -0.387 OA
ATOM     27  H   UNL     1     237.140 227.807 239.475  1.00  0.00     0.211 HD
ENDBRANCH   6  26
BRANCH   5  28
ATOM     28  O   UNL     1     236.946 231.623 241.351  1.00  0.00    -0.385 OA
ATOM     29  H   UNL     1     236.614 232.522 241.198  1.00  0.00     0.211 HD
ENDBRANCH   5  28
BRANCH   4  30
ATOM     30  O   UNL     1     237.882 235.185 239.203  1.00  0.00    -0.341 OA
BRANCH  30  31
ATOM     31  C   UNL     1     236.493 235.656 239.453  1.00  0.00     0.184 C 
ATOM     32  C   UNL     1     233.473 237.678 240.016  1.00  0.00     0.178 C 
ATOM     33  C   UNL     1     236.531 237.489 240.500  1.00  0.00     0.180 C 
ATOM     34  O   UNL     1     231.499 239.229 241.107  1.00  0.00    -0.342 OA
ATOM     35  C   UNL     1     234.839 239.671 240.688  1.00  0.00     0.201 C 
ATOM     36  C   UNL     1     232.841 240.096 241.410  1.00  0.00     0.279 C 
BRANCH  32  37
ATOM     37  C   UNL     1     233.713 238.750 238.455  1.00  0.00     0.191 C 
BRANCH  37  38
ATOM     38  O   UNL     1     232.647 239.375 237.943  1.00  0.00    -0.394 OA
ATOM     39  H   UNL     1     232.653 240.394 238.268  1.00  0.00     0.210 HD
ENDBRANCH  37  38
ENDBRANCH  32  37
BRANCH  33  40
ATOM     40  O   UNL     1     238.157 236.922 241.333  1.00  0.00    -0.387 OA
ATOM     41  H   UNL     1     238.799 237.595 242.233  1.00  0.00     0.211 HD
ENDBRANCH  33  40
BRANCH  35  42
ATOM     42  O   UNL     1     235.636 240.777 240.796  1.00  0.00    -0.385 OA
ATOM     43  H   UNL     1     235.830 240.272 239.767  1.00  0.00     0.211 HD
ENDBRANCH  35  42
BRANCH  36  44
ATOM     44  O   UNL     1     232.683 241.516 241.776  1.00  0.00    -0.366 OA
ATOM     45  H   UNL     1     233.316 242.383 241.797  1.00  0.00     0.213 HD
ENDBRANCH  36  44
ENDBRANCH  30  31
ENDBRANCH   4  30
TORSDOF 18
ENDMDL
MODEL 4
REMARK VINA RESULT:    -9.204      3.019      4.967
REMARK INTER + INTRA:         -11.214
REMARK INTER:                  -9.848
REMARK INTRA:                  -1.366
REMARK UNBOUND:                -1.203
REMARK SMILES OC[C@@H]1O[C@@H](O[C@H]2[C@H](O)[C@H](O)[C@@H](O[C@H]3[C@H](O)[C@H](O)[C@@H](O)O[C@H]3CO)O[C@@H]2CO)[C@H](O)[C@@H](O)[C@@H]1O
REMARK SMILES IDX 7 1 26 2 25 3 12 4 10 5 8 6 6 7 5 8 3 9 33 10 4 11 31 12
REMARK SMILES IDX 29 13 2 14 1 15 34 17 32 19 30 21 27 23 28 24 9 26 11 28
REMARK SMILES IDX 13 30 14 31 22 32 15 33 21 34 17 35 19 36 23 37 24 38 16 40
REMARK SMILES IDX 18 42 20 44
REMARK H PARENT 1 16 34 18 32 20 30 22 28 25 9 27 11 29 24 39 16 41 18 43
REMARK H PARENT 20 45
REMARK Flexibility Score: inf
ROOT
ATOM      1  C   UNL     1     237.843 233.713 236.698  1.00  0.00     0.184 C 
ATOM      2  C   UNL     1     236.991 235.731 233.847  1.00  0.00     0.178 C 
ATOM      3  O   UNL     1     236.794 234.952 236.198  1.00  0.00    -0.341 OA
ATOM      4  C   UNL     1     237.696 234.427 238.976  1.00  0.00     0.282 C 
ATOM      5  C   UNL     1     238.384 233.189 241.659  1.00  0.00     0.202 C 
ATOM      6  C   UNL     1     237.711 232.223 239.494  1.00  0.00     0.180 C 
ENDROOT
BRANCH   1   7
ATOM      7  O   UNL     1     239.816 233.638 237.001  1.00  0.00    -0.341 OA
BRANCH   7   8
ATOM      8  C   UNL     1     240.926 232.514 237.841  1.00  0.00     0.282 C 
ATOM      9  C   UNL     1     241.227 229.750 238.635  1.00  0.00     0.178 C 
ATOM     10  C   UNL     1     240.935 230.652 239.970  1.00  0.00     0.177 C 
ATOM     11  O   UNL     1     240.978 230.949 237.464  1.00  0.00    -0.341 OA
ATOM     12  C   UNL     1     242.265 231.435 240.148  1.00  0.00     0.179 C 
ATOM     13  C   UNL     1     242.061 232.701 239.053  1.00  0.00     0.202 C 
BRANCH   9  14
ATOM     14  C   UNL     1     242.598 228.036 238.209  1.00  0.00     0.191 C 
BRANCH  14  15
ATOM     15  O   UNL     1     244.091 228.275 237.320  1.00  0.00    -0.394 OA
ATOM     16  H   UNL     1     245.022 228.823 236.695  1.00  0.00     0.210 HD
ENDBRANCH  14  15
ENDBRANCH   9  14
BRANCH  10  17
ATOM     17  O   UNL     1     239.901 229.750 241.131  1.00  0.00    -0.387 OA
ATOM     18  H   UNL     1     240.710 229.122 241.068  1.00  0.00     0.211 HD
ENDBRANCH  10  17
BRANCH  12  19
ATOM     19  O   UNL     1     241.781 232.175 241.124  1.00  0.00    -0.387 OA
ATOM     20  H   UNL     1     241.032 231.527 241.479  1.00  0.00     0.211 HD
ENDBRANCH  12  19
BRANCH  13  21
ATOM     21  O   UNL     1     243.495 232.733 238.625  1.00  0.00    -0.385 OA
ATOM     22  H   UNL     1     244.321 231.995 238.053  1.00  0.00     0.211 HD
ENDBRANCH  13  21
ENDBRANCH   7   8
ENDBRANCH   1   7
BRANCH   2  23
ATOM     23  C   UNL     1     237.434 234.435 229.715  1.00  0.00     0.191 C 
BRANCH  23  24
ATOM     24  O   UNL     1     235.227 237.449 229.093  1.00  0.00    -0.394 OA
ATOM     25  H   UNL     1     234.598 238.487 229.802  1.00  0.00     0.210 HD
ENDBRANCH  23  24
ENDBRANCH   2  23
BRANCH   6  26
ATOM     26  O   UNL     1     237.049 230.498 240.391  1.00  0.00    -0.387 OA
ATOM     27  H   UNL     1     238.092 228.937 241.660  1.00  0.00     0.211 HD
ENDBRANCH   6  26
BRANCH   5  28
ATOM     28  O   UNL     1     237.371 233.081 242.301  1.00  0.00    -0.385 OA
ATOM     29  H   UNL     1     236.897 233.638 241.663  1.00  0.00     0.211 HD
ENDBRANCH   5  28
BRANCH   4  30
ATOM     30  O   UNL     1     238.315 235.972 239.312  1.00  0.00    -0.341 OA
BRANCH  30  31
ATOM     31  C   UNL     1     236.873 236.289 239.497  1.00  0.00     0.184 C 
ATOM     32  C   UNL     1     233.639 237.970 239.991  1.00  0.00     0.178 C 
ATOM     33  C   UNL     1     236.665 238.031 240.672  1.00  0.00     0.180 C 
ATOM     34  O   UNL     1     231.457 239.240 241.049  1.00  0.00    -0.342 OA
ATOM     35  C   UNL     1     234.757 240.024 240.897  1.00  0.00     0.201 C 
ATOM     36  C   UNL     1     232.686 240.202 241.507  1.00  0.00     0.279 C 
BRANCH  32  37
ATOM     37  C   UNL     1     233.869 239.178 238.531  1.00  0.00     0.191 C 
BRANCH  37  38
ATOM     38  O   UNL     1     233.069 239.049 237.467  1.00  0.00    -0.394 OA
ATOM     39  H   UNL     1     233.494 238.329 236.799  1.00  0.00     0.210 HD
ENDBRANCH  37  38
ENDBRANCH  32  37
BRANCH  33  40
ATOM     40  O   UNL     1     238.283 237.557 241.573  1.00  0.00    -0.387 OA
ATOM     41  H   UNL     1     239.212 238.393 241.912  1.00  0.00     0.211 HD
ENDBRANCH  33  40
BRANCH  35  42
ATOM     42  O   UNL     1     235.432 241.188 241.139  1.00  0.00    -0.385 OA
ATOM     43  H   UNL     1     234.299 241.426 241.027  1.00  0.00     0.211 HD
ENDBRANCH  35  42
BRANCH  36  44
ATOM     44  O   UNL     1     232.366 241.569 241.961  1.00  0.00    -0.366 OA
ATOM     45  H   UNL     1     232.657 242.564 241.680  1.00  0.00     0.213 HD
ENDBRANCH  36  44
ENDBRANCH  30  31
ENDBRANCH   4  30
TORSDOF 18
ENDMDL
MODEL 5
REMARK VINA RESULT:    -9.193      3.009      9.720
REMARK INTER + INTRA:         -11.202
REMARK INTER:                 -10.093
REMARK INTRA:                  -1.109
REMARK UNBOUND:                -1.203
REMARK SMILES OC[C@@H]1O[C@@H](O[C@H]2[C@H](O)[C@H](O)[C@@H](O[C@H]3[C@H](O)[C@H](O)[C@@H](O)O[C@H]3CO)O[C@@H]2CO)[C@H](O)[C@@H](O)[C@@H]1O
REMARK SMILES IDX 7 1 26 2 25 3 12 4 10 5 8 6 6 7 5 8 3 9 33 10 4 11 31 12
REMARK SMILES IDX 29 13 2 14 1 15 34 17 32 19 30 21 27 23 28 24 9 26 11 28
REMARK SMILES IDX 13 30 14 31 22 32 15 33 21 34 17 35 19 36 23 37 24 38 16 40
REMARK SMILES IDX 18 42 20 44
REMARK H PARENT 1 16 34 18 32 20 30 22 28 25 9 27 11 29 24 39 16 41 18 43
REMARK H PARENT 20 45
REMARK Flexibility Score: inf
ROOT
ATOM      1  C   UNL     1     238.734 235.655 237.504  1.00  0.00     0.184 C 
ATOM      2  C   UNL     1     239.551 232.968 235.260  1.00  0.00     0.178 C 
ATOM      3  O   UNL     1     239.520 234.151 237.444  1.00  0.00    -0.341 OA
ATOM      4  C   UNL     1     238.305 235.406 239.844  1.00  0.00     0.282 C 
ATOM      5  C   UNL     1     237.484 237.280 242.084  1.00  0.00     0.202 C 
ATOM      6  C   UNL     1     238.737 237.623 239.990  1.00  0.00     0.180 C 
ENDROOT
BRANCH   1   7
ATOM      7  O   UNL     1     236.818 236.199 237.358  1.00  0.00    -0.341 OA
BRANCH   7   8
ATOM      8  C   UNL     1     235.886 237.674 237.752  1.00  0.00     0.282 C 
ATOM      9  C   UNL     1     234.616 239.071 239.942  1.00  0.00     0.178 C 
ATOM     10  C   UNL     1     233.454 238.450 238.969  1.00  0.00     0.177 C 
ATOM     11  O   UNL     1     235.964 238.350 239.211  1.00  0.00    -0.341 OA
ATOM     12  C   UNL     1     233.550 239.352 237.708  1.00  0.00     0.179 C 
ATOM     13  C   UNL     1     234.841 238.646 236.884  1.00  0.00     0.202 C 
BRANCH   9  14
ATOM     14  C   UNL     1     234.834 241.013 241.026  1.00  0.00     0.191 C 
BRANCH  14  15
ATOM     15  O   UNL     1     233.454 241.779 241.791  1.00  0.00    -0.394 OA
ATOM     16  H   UNL     1     232.527 242.021 242.591  1.00  0.00     0.210 HD
ENDBRANCH  14  15
ENDBRANCH   9  14
BRANCH  10  17
ATOM     17  O   UNL     1     232.055 237.877 239.939  1.00  0.00    -0.387 OA
ATOM     18  H   UNL     1     232.750 238.029 240.678  1.00  0.00     0.211 HD
ENDBRANCH  10  17
BRANCH  12  19
ATOM     19  O   UNL     1     232.691 238.619 237.030  1.00  0.00    -0.387 OA
ATOM     20  H   UNL     1     231.804 239.141 237.251  1.00  0.00     0.211 HD
ENDBRANCH  12  19
BRANCH  13  21
ATOM     21  O   UNL     1     235.396 239.943 236.381  1.00  0.00    -0.385 OA
ATOM     22  H   UNL     1     235.278 240.695 235.394  1.00  0.00     0.211 HD
ENDBRANCH  13  21
ENDBRANCH   7   8
ENDBRANCH   1   7
BRANCH   2  23
ATOM     23  C   UNL     1     240.162 233.458 230.978  1.00  0.00     0.191 C 
BRANCH  23  24
ATOM     24  O   UNL     1     242.726 235.977 232.173  1.00  0.00    -0.394 OA
ATOM     25  H   UNL     1     243.236 237.240 231.826  1.00  0.00     0.210 HD
ENDBRANCH  23  24
ENDBRANCH   2  23
BRANCH   6  26
ATOM     26  O   UNL     1     239.635 239.319 240.724  1.00  0.00    -0.387 OA
ATOM     27  H   UNL     1     239.226 241.525 240.404  1.00  0.00     0.211 HD
ENDBRANCH   6  26
BRANCH   5  28
ATOM     28  O   UNL     1     238.365 237.304 242.904  1.00  0.00    -0.385 OA
ATOM     29  H   UNL     1     238.933 236.772 242.322  1.00  0.00     0.211 HD
ENDBRANCH   5  28
BRANCH   4  30
ATOM     30  O   UNL     1     237.280 234.124 240.277  1.00  0.00    -0.341 OA
BRANCH  30  31
ATOM     31  C   UNL     1     238.561 233.517 240.728  1.00  0.00     0.184 C 
ATOM     32  C   UNL     1     241.699 231.615 240.974  1.00  0.00     0.178 C 
ATOM     33  C   UNL     1     238.819 231.626 239.824  1.00  0.00     0.180 C 
ATOM     34  O   UNL     1     243.579 229.650 241.292  1.00  0.00    -0.342 OA
ATOM     35  C   UNL     1     240.999 230.071 239.125  1.00  0.00     0.201 C 
ATOM     36  C   UNL     1     242.623 229.043 240.124  1.00  0.00     0.279 C 
BRANCH  32  37
ATOM     37  C   UNL     1     242.428 232.310 239.352  1.00  0.00     0.191 C 
BRANCH  37  38
ATOM     38  O   UNL     1     242.111 233.559 238.996  1.00  0.00    -0.394 OA
ATOM     39  H   UNL     1     241.076 233.591 238.727  1.00  0.00     0.210 HD
ENDBRANCH  37  38
ENDBRANCH  32  37
BRANCH  33  40
ATOM     40  O   UNL     1     236.917 231.425 239.819  1.00  0.00    -0.387 OA
ATOM     41  H   UNL     1     236.135 231.768 240.793  1.00  0.00     0.211 HD
ENDBRANCH  33  40
BRANCH  35  42
ATOM     42  O   UNL     1     240.671 229.435 237.960  1.00  0.00    -0.385 OA
ATOM     43  H   UNL     1     239.899 229.142 238.780  1.00  0.00     0.211 HD
ENDBRANCH  35  42
BRANCH  36  44
ATOM     44  O   UNL     1     243.142 227.924 239.314  1.00  0.00    -0.366 OA
ATOM     45  H   UNL     1     243.828 227.817 238.495  1.00  0.00     0.213 HD
ENDBRANCH  36  44
ENDBRANCH  30  31
ENDBRANCH   4  30
TORSDOF 18
ENDMDL
MODEL 6
REMARK VINA RESULT:    -9.077      3.363      4.349
REMARK INTER + INTRA:         -11.076
REMARK INTER:                  -9.781
REMARK INTRA:                  -1.295
REMARK UNBOUND:                -1.203
REMARK SMILES OC[C@@H]1O[C@@H](O[C@H]2[C@H](O)[C@H](O)[C@@H](O[C@H]3[C@H](O)[C@H](O)[C@@H](O)O[C@H]3CO)O[C@@H]2CO)[C@H](O)[C@@H](O)[C@@H]1O
REMARK SMILES IDX 7 1 26 2 25 3 12 4 10 5 8 6 6 7 5 8 3 9 33 10 4 11 31 12
REMARK SMILES IDX 29 13 2 14 1 15 34 17 32 19 30 21 27 23 28 24 9 26 11 28
REMARK SMILES IDX 13 30 14 31 22 32 15 33 21 34 17 35 19 36 23 37 24 38 16 40
REMARK SMILES IDX 18 42 20 44
REMARK H PARENT 1 16 34 18 32 20 30 22 28 25 9 27 11 29 24 39 16 41 18 43
REMARK H PARENT 20 45
REMARK Flexibility Score: inf
ROOT
ATOM      1  C   UNL     1     236.953 234.386 237.000  1.00  0.00     0.184 C 
ATOM      2  C   UNL     1     236.105 237.554 235.528  1.00  0.00     0.178 C 
ATOM      3  O   UNL     1     235.976 235.754 237.236  1.00  0.00    -0.341 OA
ATOM      4  C   UNL     1     236.983 233.928 239.348  1.00  0.00     0.282 C 
ATOM      5  C   UNL     1     237.718 231.530 241.055  1.00  0.00     0.202 C 
ATOM      6  C   UNL     1     236.859 231.747 238.756  1.00  0.00     0.180 C 
ENDROOT
BRANCH   1   7
ATOM      7  O   UNL     1     238.928 234.093 237.065  1.00  0.00    -0.341 OA
BRANCH   7   8
ATOM      8  C   UNL     1     239.992 232.666 237.241  1.00  0.00     0.282 C 
ATOM      9  C   UNL     1     240.102 229.814 236.778  1.00  0.00     0.178 C 
ATOM     10  C   UNL     1     239.990 230.081 238.390  1.00  0.00     0.177 C 
ATOM     11  O   UNL     1     239.876 231.407 236.245  1.00  0.00    -0.341 OA
ATOM     12  C   UNL     1     241.394 230.649 238.738  1.00  0.00     0.179 C 
ATOM     13  C   UNL     1     241.224 232.267 238.296  1.00  0.00     0.202 C 
BRANCH   9  14
ATOM     14  C   UNL     1     241.280 228.374 235.538  1.00  0.00     0.191 C 
BRANCH  14  15
ATOM     15  O   UNL     1     242.191 228.921 234.143  1.00  0.00    -0.394 OA
ATOM     16  H   UNL     1     242.929 228.920 233.136  1.00  0.00     0.210 HD
ENDBRANCH  14  15
ENDBRANCH   9  14
BRANCH  10  17
ATOM     17  O   UNL     1     238.968 228.827 239.171  1.00  0.00    -0.387 OA
ATOM     18  H   UNL     1     239.589 228.240 238.602  1.00  0.00     0.211 HD
ENDBRANCH  10  17
BRANCH  12  19
ATOM     19  O   UNL     1     241.052 230.930 239.978  1.00  0.00    -0.387 OA
ATOM     20  H   UNL     1     240.058 231.238 239.818  1.00  0.00     0.211 HD
ENDBRANCH  12  19
BRANCH  13  21
ATOM     21  O   UNL     1     242.621 232.405 237.774  1.00  0.00    -0.385 OA
ATOM     22  H   UNL     1     243.547 231.677 237.366  1.00  0.00     0.211 HD
ENDBRANCH  13  21
ENDBRANCH   7   8
ENDBRANCH   1   7
BRANCH   2  23
ATOM     23  C   UNL     1     236.226 238.376 231.255  1.00  0.00     0.191 C 
BRANCH  23  24
ATOM     24  O   UNL     1     232.675 239.516 231.915  1.00  0.00    -0.394 OA
ATOM     25  H   UNL     1     231.475 239.756 231.222  1.00  0.00     0.210 HD
ENDBRANCH  23  24
ENDBRANCH   2  23
BRANCH   6  26
ATOM     26  O   UNL     1     236.117 229.831 238.779  1.00  0.00    -0.387 OA
ATOM     27  H   UNL     1     234.134 228.969 239.458  1.00  0.00     0.211 HD
ENDBRANCH   6  26
BRANCH   5  28
ATOM     28  O   UNL     1     236.736 231.170 241.651  1.00  0.00    -0.385 OA
ATOM     29  H   UNL     1     236.955 231.763 242.388  1.00  0.00     0.211 HD
ENDBRANCH   5  28
BRANCH   4  30
ATOM     30  O   UNL     1     237.734 235.098 240.323  1.00  0.00    -0.341 OA
BRANCH  30  31
ATOM     31  C   UNL     1     236.357 235.661 240.359  1.00  0.00     0.184 C 
ATOM     32  C   UNL     1     233.419 237.872 240.287  1.00  0.00     0.178 C 
ATOM     33  C   UNL     1     236.410 237.645 241.079  1.00  0.00     0.180 C 
ATOM     34  O   UNL     1     231.450 239.669 240.910  1.00  0.00    -0.342 OA
ATOM     35  C   UNL     1     234.834 239.894 240.735  1.00  0.00     0.201 C 
ATOM     36  C   UNL     1     232.809 240.520 241.186  1.00  0.00     0.279 C 
BRANCH  32  37
ATOM     37  C   UNL     1     233.850 238.646 238.596  1.00  0.00     0.191 C 
BRANCH  37  38
ATOM     38  O   UNL     1     232.867 239.203 237.882  1.00  0.00    -0.394 OA
ATOM     39  H   UNL     1     232.415 239.981 238.461  1.00  0.00     0.210 HD
ENDBRANCH  37  38
ENDBRANCH  32  37
BRANCH  33  40
ATOM     40  O   UNL     1     237.925 237.166 242.143  1.00  0.00    -0.387 OA
ATOM     41  H   UNL     1     238.042 236.060 242.806  1.00  0.00     0.211 HD
ENDBRANCH  33  40
BRANCH  35  42
ATOM     42  O   UNL     1     235.679 240.969 240.728  1.00  0.00    -0.385 OA
ATOM     43  H   UNL     1     236.165 240.104 240.121  1.00  0.00     0.211 HD
ENDBRANCH  35  42
BRANCH  36  44
ATOM     44  O   UNL     1     232.701 241.988 241.290  1.00  0.00    -0.366 OA
ATOM     45  H   UNL     1     231.977 242.683 241.669  1.00  0.00     0.213 HD
ENDBRANCH  36  44
ENDBRANCH  30  31
ENDBRANCH   4  30
TORSDOF 18
ENDMDL
MODEL 7
REMARK VINA RESULT:    -8.988      2.527     10.151
REMARK INTER + INTRA:         -10.979
REMARK INTER:                  -9.980
REMARK INTRA:                  -0.998
REMARK UNBOUND:                -1.203
REMARK SMILES OC[C@@H]1O[C@@H](O[C@H]2[C@H](O)[C@H](O)[C@@H](O[C@H]3[C@H](O)[C@H](O)[C@@H](O)O[C@H]3CO)O[C@@H]2CO)[C@H](O)[C@@H](O)[C@@H]1O
REMARK SMILES IDX 7 1 26 2 25 3 12 4 10 5 8 6 6 7 5 8 3 9 33 10 4 11 31 12
REMARK SMILES IDX 29 13 2 14 1 15 34 17 32 19 30 21 27 23 28 24 9 26 11 28
REMARK SMILES IDX 13 30 14 31 22 32 15 33 21 34 17 35 19 36 23 37 24 38 16 40
REMARK SMILES IDX 18 42 20 44
REMARK H PARENT 1 16 34 18 32 20 30 22 28 25 9 27 11 29 24 39 16 41 18 43
REMARK H PARENT 20 45
REMARK Flexibility Score: inf
ROOT
ATOM      1  C   UNL     1     237.432 236.834 236.617  1.00  0.00     0.184 C 
ATOM      2  C   UNL     1     236.091 236.834 233.281  1.00  0.00     0.178 C 
ATOM      3  O   UNL     1     237.481 235.975 235.153  1.00  0.00    -0.341 OA
ATOM      4  C   UNL     1     238.030 234.877 237.855  1.00  0.00     0.282 C 
ATOM      5  C   UNL     1     239.060 234.346 240.659  1.00  0.00     0.202 C 
ATOM      6  C   UNL     1     239.277 236.268 239.133  1.00  0.00     0.180 C 
ENDROOT
BRANCH   1   7
ATOM      7  O   UNL     1     236.011 237.096 237.997  1.00  0.00    -0.341 OA
BRANCH   7   8
ATOM      8  C   UNL     1     235.159 238.511 238.684  1.00  0.00     0.282 C 
ATOM      9  C   UNL     1     234.202 239.628 241.173  1.00  0.00     0.178 C 
ATOM     10  C   UNL     1     232.915 239.128 240.293  1.00  0.00     0.177 C 
ATOM     11  O   UNL     1     235.434 239.005 240.191  1.00  0.00    -0.341 OA
ATOM     12  C   UNL     1     232.859 240.176 239.148  1.00  0.00     0.179 C 
ATOM     13  C   UNL     1     234.023 239.579 238.084  1.00  0.00     0.202 C 
BRANCH   9  14
ATOM     14  C   UNL     1     234.585 241.425 242.447  1.00  0.00     0.191 C 
BRANCH  14  15
ATOM     15  O   UNL     1     234.889 241.264 244.166  1.00  0.00    -0.394 OA
ATOM     16  H   UNL     1     235.026 241.541 245.376  1.00  0.00     0.210 HD
ENDBRANCH  14  15
ENDBRANCH   9  14
BRANCH  10  17
ATOM     17  O   UNL     1     231.646 238.438 241.360  1.00  0.00    -0.387 OA
ATOM     18  H   UNL     1     231.807 239.344 241.816  1.00  0.00     0.211 HD
ENDBRANCH  10  17
BRANCH  12  19
ATOM     19  O   UNL     1     231.910 239.529 238.504  1.00  0.00    -0.387 OA
ATOM     20  H   UNL     1     231.246 240.325 238.326  1.00  0.00     0.211 HD
ENDBRANCH  12  19
BRANCH  13  21
ATOM     21  O   UNL     1     234.526 240.928 237.673  1.00  0.00    -0.385 OA
ATOM     22  H   UNL     1     234.260 241.815 236.838  1.00  0.00     0.211 HD
ENDBRANCH  13  21
ENDBRANCH   7   8
ENDBRANCH   1   7
BRANCH   2  23
ATOM     23  C   UNL     1     234.868 240.419 231.137  1.00  0.00     0.191 C 
BRANCH  23  24
ATOM     24  O   UNL     1     237.581 239.276 228.755  1.00  0.00    -0.394 OA
ATOM     25  H   UNL     1     238.317 239.749 227.655  1.00  0.00     0.210 HD
ENDBRANCH  23  24
ENDBRANCH   2  23
BRANCH   6  26
ATOM     26  O   UNL     1     240.969 236.928 240.093  1.00  0.00    -0.387 OA
ATOM     27  H   UNL     1     241.431 237.325 242.276  1.00  0.00     0.211 HD
ENDBRANCH   6  26
BRANCH   5  28
ATOM     28  O   UNL     1     240.151 233.843 240.575  1.00  0.00    -0.385 OA
ATOM     29  H   UNL     1     240.494 234.638 240.138  1.00  0.00     0.211 HD
ENDBRANCH   5  28
BRANCH   4  30
ATOM     30  O   UNL     1     236.908 233.603 237.816  1.00  0.00    -0.341 OA
BRANCH  30  31
ATOM     31  C   UNL     1     238.088 232.847 237.315  1.00  0.00     0.184 C 
ATOM     32  C   UNL     1     240.796 231.437 235.263  1.00  0.00     0.178 C 
ATOM     33  C   UNL     1     237.861 232.441 235.255  1.00  0.00     0.180 C 
ATOM     34  O   UNL     1     242.274 229.965 233.492  1.00  0.00    -0.342 OA
ATOM     35  C   UNL     1     239.595 232.022 233.140  1.00  0.00     0.201 C 
ATOM     36  C   UNL     1     241.089 230.566 232.553  1.00  0.00     0.279 C 
BRANCH  32  37
ATOM     37  C   UNL     1     241.455 233.136 234.691  1.00  0.00     0.191 C 
BRANCH  37  38
ATOM     38  O   UNL     1     242.671 233.192 234.140  1.00  0.00    -0.394 OA
ATOM     39  H   UNL     1     242.848 232.288 233.596  1.00  0.00     0.210 HD
ENDBRANCH  37  38
ENDBRANCH  32  37
BRANCH  33  40
ATOM     40  O   UNL     1     235.969 232.374 235.528  1.00  0.00    -0.387 OA
ATOM     41  H   UNL     1     235.278 233.281 236.142  1.00  0.00     0.211 HD
ENDBRANCH  33  40
BRANCH  35  42
ATOM     42  O   UNL     1     239.016 232.587 232.038  1.00  0.00    -0.385 OA
ATOM     43  H   UNL     1     238.376 231.676 232.375  1.00  0.00     0.211 HD
ENDBRANCH  35  42
BRANCH  36  44
ATOM     44  O   UNL     1     241.280 230.538 231.091  1.00  0.00    -0.366 OA
ATOM     45  H   UNL     1     240.879 231.071 230.250  1.00  0.00     0.213 HD
ENDBRANCH  36  44
ENDBRANCH  30  31
ENDBRANCH   4  30
TORSDOF 18
ENDMDL
MODEL 8
REMARK VINA RESULT:    -8.863      1.290      2.115
REMARK INTER + INTRA:         -10.843
REMARK INTER:                 -10.193
REMARK INTRA:                  -0.650
REMARK UNBOUND:                -1.203
REMARK SMILES OC[C@@H]1O[C@@H](O[C@H]2[C@H](O)[C@H](O)[C@@H](O[C@H]3[C@H](O)[C@H](O)[C@@H](O)O[C@H]3CO)O[C@@H]2CO)[C@H](O)[C@@H](O)[C@@H]1O
REMARK SMILES IDX 7 1 26 2 25 3 12 4 10 5 8 6 6 7 5 8 3 9 33 10 4 11 31 12
REMARK SMILES IDX 29 13 2 14 1 15 34 17 32 19 30 21 27 23 28 24 9 26 11 28
REMARK SMILES IDX 13 30 14 31 22 32 15 33 21 34 17 35 19 36 23 37 24 38 16 40
REMARK SMILES IDX 18 42 20 44
REMARK H PARENT 1 16 34 18 32 20 30 22 28 25 9 27 11 29 24 39 16 41 18 43
REMARK H PARENT 20 45
REMARK Flexibility Score: inf
ROOT
ATOM      1  C   UNL     1     236.344 234.056 236.144  1.00  0.00     0.184 C 
ATOM      2  C   UNL     1     235.043 236.879 234.337  1.00  0.00     0.178 C 
ATOM      3  O   UNL     1     235.363 235.430 236.330  1.00  0.00    -0.341 OA
ATOM      4  C   UNL     1     236.876 234.048 238.476  1.00  0.00     0.282 C 
ATOM      5  C   UNL     1     238.073 232.024 240.394  1.00  0.00     0.202 C 
ATOM      6  C   UNL     1     236.753 231.792 238.326  1.00  0.00     0.180 C 
ENDROOT
BRANCH   1   7
ATOM      7  O   UNL     1     238.304 233.812 235.844  1.00  0.00    -0.341 OA
BRANCH   7   8
ATOM      8  C   UNL     1     239.432 234.156 234.499  1.00  0.00     0.282 C 
ATOM      9  C   UNL     1     239.686 234.014 231.623  1.00  0.00     0.178 C 
ATOM     10  C   UNL     1     240.643 232.867 232.293  1.00  0.00     0.177 C 
ATOM     11  O   UNL     1     238.894 234.530 233.029  1.00  0.00    -0.341 OA
ATOM     12  C   UNL     1     241.792 233.706 232.917  1.00  0.00     0.179 C 
ATOM     13  C   UNL     1     241.097 234.202 234.371  1.00  0.00     0.202 C 
BRANCH   9  14
ATOM     14  C   UNL     1     239.947 235.419 229.904  1.00  0.00     0.191 C 
BRANCH  14  15
ATOM     15  O   UNL     1     239.487 234.950 228.278  1.00  0.00    -0.394 OA
ATOM     16  H   UNL     1     238.830 234.502 227.316  1.00  0.00     0.210 HD
ENDBRANCH  14  15
ENDBRANCH   9  14
BRANCH  10  17
ATOM     17  O   UNL     1     240.646 231.377 231.288  1.00  0.00    -0.387 OA
ATOM     18  H   UNL     1     239.639 231.496 231.451  1.00  0.00     0.211 HD
ENDBRANCH  10  17
BRANCH  12  19
ATOM     19  O   UNL     1     242.331 232.660 233.509  1.00  0.00    -0.387 OA
ATOM     20  H   UNL     1     242.671 233.116 234.394  1.00  0.00     0.211 HD
ENDBRANCH  12  19
BRANCH  13  21
ATOM     21  O   UNL     1     241.729 235.559 234.359  1.00  0.00    -0.385 OA
ATOM     22  H   UNL     1     242.062 236.447 235.168  1.00  0.00     0.211 HD
ENDBRANCH  13  21
ENDBRANCH   7   8
ENDBRANCH   1   7
BRANCH   2  23
ATOM     23  C   UNL     1     234.246 236.887 230.058  1.00  0.00     0.191 C 
BRANCH  23  24
ATOM     24  O   UNL     1     236.584 239.864 230.168  1.00  0.00    -0.394 OA
ATOM     25  H   UNL     1     237.959 240.154 230.163  1.00  0.00     0.210 HD
ENDBRANCH  23  24
ENDBRANCH   2  23
BRANCH   6  26
ATOM     26  O   UNL     1     236.136 229.904 238.850  1.00  0.00    -0.387 OA
ATOM     27  H   UNL     1     234.440 228.592 238.115  1.00  0.00     0.211 HD
ENDBRANCH   6  26
BRANCH   5  28
ATOM     28  O   UNL     1     237.254 231.767 241.238  1.00  0.00    -0.385 OA
ATOM     29  H   UNL     1     237.622 230.874 241.335  1.00  0.00     0.211 HD
ENDBRANCH   5  28
BRANCH   4  30
ATOM     30  O   UNL     1     237.746 235.391 239.044  1.00  0.00    -0.341 OA
BRANCH  30  31
ATOM     31  C   UNL     1     236.378 235.899 239.336  1.00  0.00     0.184 C 
ATOM     32  C   UNL     1     233.435 238.004 239.992  1.00  0.00     0.178 C 
ATOM     33  C   UNL     1     236.500 237.729 240.382  1.00  0.00     0.180 C 
ATOM     34  O   UNL     1     231.538 239.608 241.142  1.00  0.00    -0.342 OA
ATOM     35  C   UNL     1     234.876 239.958 240.622  1.00  0.00     0.201 C 
ATOM     36  C   UNL     1     232.913 240.437 241.405  1.00  0.00     0.279 C 
BRANCH  32  37
ATOM     37  C   UNL     1     233.656 239.071 238.424  1.00  0.00     0.191 C 
BRANCH  37  38
ATOM     38  O   UNL     1     232.851 238.845 237.382  1.00  0.00    -0.394 OA
ATOM     39  H   UNL     1     232.784 239.737 236.794  1.00  0.00     0.210 HD
ENDBRANCH  37  38
ENDBRANCH  32  37
BRANCH  33  40
ATOM     40  O   UNL     1     238.134 237.117 241.165  1.00  0.00    -0.387 OA
ATOM     41  H   UNL     1     238.215 236.244 242.117  1.00  0.00     0.211 HD
ENDBRANCH  33  40
BRANCH  35  42
ATOM     42  O   UNL     1     235.705 241.041 240.706  1.00  0.00    -0.385 OA
ATOM     43  H   UNL     1     236.346 240.091 240.507  1.00  0.00     0.211 HD
ENDBRANCH  35  42
BRANCH  36  44
ATOM     44  O   UNL     1     232.806 241.861 241.776  1.00  0.00    -0.366 OA
ATOM     45  H   UNL     1     232.391 242.745 241.331  1.00  0.00     0.213 HD
ENDBRANCH  36  44
ENDBRANCH  30  31
ENDBRANCH   4  30
TORSDOF 18
ENDMDL
MODEL 9
REMARK VINA RESULT:    -8.816      3.479      8.912
REMARK INTER + INTRA:         -10.792
REMARK INTER:                  -9.577
REMARK INTRA:                  -1.215
REMARK UNBOUND:                -1.203
REMARK SMILES OC[C@@H]1O[C@@H](O[C@H]2[C@H](O)[C@H](O)[C@@H](O[C@H]3[C@H](O)[C@H](O)[C@@H](O)O[C@H]3CO)O[C@@H]2CO)[C@H](O)[C@@H](O)[C@@H]1O
REMARK SMILES IDX 7 1 26 2 25 3 12 4 10 5 8 6 6 7 5 8 3 9 33 10 4 11 31 12
REMARK SMILES IDX 29 13 2 14 1 15 34 17 32 19 30 21 27 23 28 24 9 26 11 28
REMARK SMILES IDX 13 30 14 31 22 32 15 33 21 34 17 35 19 36 23 37 24 38 16 40
REMARK SMILES IDX 18 42 20 44
REMARK H PARENT 1 16 34 18 32 20 30 22 28 25 9 27 11 29 24 39 16 41 18 43
REMARK H PARENT 20 45
REMARK Flexibility Score: inf
ROOT
ATOM      1  C   UNL     1     239.055 235.759 236.071  1.00  0.00     0.184 C 
ATOM      2  C   UNL     1     241.754 234.213 234.268  1.00  0.00     0.178 C 
ATOM      3  O   UNL     1     240.342 234.667 236.261  1.00  0.00    -0.341 OA
ATOM      4  C   UNL     1     237.850 234.744 237.871  1.00  0.00     0.282 C 
ATOM      5  C   UNL     1     235.487 235.553 239.593  1.00  0.00     0.202 C 
ATOM      6  C   UNL     1     237.221 236.849 238.417  1.00  0.00     0.180 C 
ENDROOT
BRANCH   1   7
ATOM      7  O   UNL     1     237.333 235.674 235.063  1.00  0.00    -0.341 OA
BRANCH   7   8
ATOM      8  C   UNL     1     235.948 236.782 234.827  1.00  0.00     0.282 C 
ATOM      9  C   UNL     1     234.959 238.888 233.111  1.00  0.00     0.178 C 
ATOM     10  C   UNL     1     235.393 239.541 234.549  1.00  0.00     0.177 C 
ATOM     11  O   UNL     1     235.543 237.318 233.364  1.00  0.00    -0.341 OA
ATOM     12  C   UNL     1     234.281 239.026 235.504  1.00  0.00     0.179 C 
ATOM     13  C   UNL     1     234.833 237.474 235.861  1.00  0.00     0.202 C 
BRANCH   9  14
ATOM     14  C   UNL     1     233.242 239.235 231.722  1.00  0.00     0.191 C 
BRANCH  14  15
ATOM     15  O   UNL     1     232.763 238.015 230.558  1.00  0.00    -0.394 OA
ATOM     16  H   UNL     1     232.622 237.393 229.484  1.00  0.00     0.210 HD
ENDBRANCH  14  15
ENDBRANCH   9  14
BRANCH  10  17
ATOM     17  O   UNL     1     236.124 241.165 234.313  1.00  0.00    -0.387 OA
ATOM     18  H   UNL     1     236.793 240.748 234.970  1.00  0.00     0.211 HD
ENDBRANCH  10  17
BRANCH  12  19
ATOM     19  O   UNL     1     234.879 239.507 236.574  1.00  0.00    -0.387 OA
ATOM     20  H   UNL     1     234.331 239.005 237.320  1.00  0.00     0.211 HD
ENDBRANCH  12  19
BRANCH  13  21
ATOM     21  O   UNL     1     233.470 236.855 235.885  1.00  0.00    -0.385 OA
ATOM     22  H   UNL     1     232.296 237.179 236.152  1.00  0.00     0.211 HD
ENDBRANCH  13  21
ENDBRANCH   7   8
ENDBRANCH   1   7
BRANCH   2  23
ATOM     23  C   UNL     1     243.804 236.044 230.892  1.00  0.00     0.191 C 
BRANCH  23  24
ATOM     24  O   UNL     1     240.290 236.110 229.480  1.00  0.00    -0.394 OA
ATOM     25  H   UNL     1     239.190 235.256 229.292  1.00  0.00     0.210 HD
ENDBRANCH  23  24
ENDBRANCH   2  23
BRANCH   6  26
ATOM     26  O   UNL     1     236.945 238.469 239.650  1.00  0.00    -0.387 OA
ATOM     27  H   UNL     1     236.536 238.646 241.872  1.00  0.00     0.211 HD
ENDBRANCH   6  26
BRANCH   5  28
ATOM     28  O   UNL     1     235.856 235.630 240.736  1.00  0.00    -0.385 OA
ATOM     29  H   UNL     1     235.671 234.686 240.869  1.00  0.00     0.211 HD
ENDBRANCH   5  28
BRANCH   4  30
ATOM     30  O   UNL     1     237.371 233.133 237.629  1.00  0.00    -0.341 OA
BRANCH  30  31
ATOM     31  C   UNL     1     238.431 232.877 238.641  1.00  0.00     0.184 C 
ATOM     32  C   UNL     1     241.406 231.691 240.448  1.00  0.00     0.178 C 
ATOM     33  C   UNL     1     239.223 230.938 238.378  1.00  0.00     0.180 C 
ATOM     34  O   UNL     1     243.210 230.218 241.886  1.00  0.00    -0.342 OA
ATOM     35  C   UNL     1     241.656 229.729 238.906  1.00  0.00     0.201 C 
ATOM     36  C   UNL     1     242.859 229.233 240.639  1.00  0.00     0.279 C 
BRANCH  32  37
ATOM     37  C   UNL     1     242.633 232.202 239.077  1.00  0.00     0.191 C 
BRANCH  37  38
ATOM     38  O   UNL     1     242.214 233.051 238.133  1.00  0.00    -0.394 OA
ATOM     39  H   UNL     1     242.704 233.992 238.270  1.00  0.00     0.210 HD
ENDBRANCH  37  38
ENDBRANCH  32  37
BRANCH  33  40
ATOM     40  O   UNL     1     237.508 230.377 237.743  1.00  0.00    -0.387 OA
ATOM     41  H   UNL     1     236.691 229.616 238.397  1.00  0.00     0.211 HD
ENDBRANCH  33  40
BRANCH  35  42
ATOM     42  O   UNL     1     241.880 228.838 237.894  1.00  0.00    -0.385 OA
ATOM     43  H   UNL     1     240.851 229.352 237.722  1.00  0.00     0.211 HD
ENDBRANCH  35  42
BRANCH  36  44
ATOM     44  O   UNL     1     243.771 228.105 240.366  1.00  0.00    -0.366 OA
ATOM     45  H   UNL     1     244.195 227.650 239.492  1.00  0.00     0.213 HD
ENDBRANCH  36  44
ENDBRANCH  30  31
ENDBRANCH   4  30
TORSDOF 18
ENDMDL
