MODEL 1
REMARK VINA RESULT:    -4.792      0.000      0.000
REMARK INTER + INTRA:         -13.824
REMARK INTER:                 -12.075
REMARK INTRA:                  -1.749
REMARK UNBOUND:                -1.749
REMARK SMILES CCCCCCCCCCCCCCCCCCCCCCCCCCCC(=O)[O-]
REMARK SMILES IDX 15 1 16 2 17 3 18 4 19 5 20 6 21 7 22 8 23 9 24 10 25 11
REMARK SMILES IDX 26 12 27 13 28 14 29 15 30 16 14 17 13 18 12 19 11 20 10 21
REMARK SMILES IDX 9 22 8 23 7 24 6 25 5 26 4 27 3 28 2 29 1 30
REMARK H PARENT
REMARK Flexibility Score: inf
ROOT
ATOM      1  C   UNL     1       2.821  55.217  23.946  1.00  0.00     0.000 C 
ENDROOT
BRANCH   1   2
ATOM      2  C   UNL     1       2.171  55.160  22.551  1.00  0.00     0.000 C 
BRANCH   2   3
ATOM      3  C   UNL     1       2.366  53.831  21.796  1.00  0.00     0.000 C 
BRANCH   3   4
ATOM      4  C   UNL     1       1.663  52.645  22.479  1.00  0.00     0.000 C 
BRANCH   4   5
ATOM      5  C   UNL     1       2.578  51.417  22.615  1.00  0.00     0.000 C 
BRANCH   5   6
ATOM      6  C   UNL     1       1.784  50.115  22.827  1.00  0.00     0.000 C 
BRANCH   6   7
ATOM      7  C   UNL     1       2.700  48.885  22.946  1.00  0.00     0.000 C 
BRANCH   7   8
ATOM      8  C   UNL     1       1.970  47.661  23.515  1.00  0.00     0.000 C 
BRANCH   8   9
ATOM      9  C   UNL     1       2.302  47.470  25.003  1.00  0.00     0.000 C 
BRANCH   9  10
ATOM     10  C   UNL     1       3.577  48.223  25.416  1.00  0.00     0.000 C 
BRANCH  10  11
ATOM     11  C   UNL     1       4.752  47.284  25.777  1.00  0.00     0.000 C 
BRANCH  11  12
ATOM     12  C   UNL     1       6.042  47.590  24.991  1.00  0.00     0.006 C 
BRANCH  12  13
ATOM     13  C   UNL     1       6.461  49.068  25.040  1.00  0.00     0.053 C 
BRANCH  13  14
ATOM     14  C   UNL     1       7.576  49.306  26.012  1.00  0.00     0.041 C 
ATOM     15  O   UNL     1       7.574  48.731  27.134  1.00  0.00    -0.550 OA
ATOM     16  O   UNL     1       8.617  50.165  25.683  1.00  0.00    -0.550 OA
ENDBRANCH  13  14
ENDBRANCH  12  13
ENDBRANCH  11  12
ENDBRANCH  10  11
ENDBRANCH   9  10
ENDBRANCH   8   9
ENDBRANCH   7   8
ENDBRANCH   6   7
ENDBRANCH   5   6
ENDBRANCH   4   5
ENDBRANCH   3   4
ENDBRANCH   2   3
ENDBRANCH   1   2
BRANCH   1  17
ATOM     17  C   UNL     1       3.126  56.649  24.408  1.00  0.00     0.000 C 
BRANCH  17  18
ATOM     18  C   UNL     1       3.246  57.600  23.210  1.00  0.00     0.000 C 
BRANCH  18  19
ATOM     19  C   UNL     1       2.368  58.845  23.408  1.00  0.00     0.000 C 
BRANCH  19  20
ATOM     20  C   UNL     1       0.905  58.496  23.733  1.00  0.00     0.000 C 
BRANCH  20  21
ATOM     21  C   UNL     1       0.413  58.977  25.113  1.00  0.00     0.000 C 
BRANCH  21  22
ATOM     22  C   UNL     1      -0.230  60.379  25.128  1.00  0.00    -0.000 C 
BRANCH  22  23
ATOM     23  C   UNL     1      -0.056  61.193  23.833  1.00  0.00    -0.000 C 
BRANCH  23  24
ATOM     24  C   UNL     1      -1.362  61.502  23.074  1.00  0.00    -0.000 C 
BRANCH  24  25
ATOM     25  C   UNL     1      -1.623  63.009  22.866  1.00  0.00    -0.000 C 
BRANCH  25  26
ATOM     26  C   UNL     1      -0.662  63.897  23.675  1.00  0.00    -0.000 C 
BRANCH  26  27
ATOM     27  C   UNL     1      -0.986  65.400  23.527  1.00  0.00    -0.000 C 
BRANCH  27  28
ATOM     28  C   UNL     1      -2.030  65.708  22.436  1.00  0.00    -0.000 C 
BRANCH  28  29
ATOM     29  C   UNL     1      -3.402  66.158  22.962  1.00  0.00    -0.003 C 
ATOM     30  C   UNL     1      -4.565  65.432  22.285  1.00  0.00     0.004 C 
ENDBRANCH  28  29
ENDBRANCH  27  28
ENDBRANCH  26  27
ENDBRANCH  25  26
ENDBRANCH  24  25
ENDBRANCH  23  24
ENDBRANCH  22  23
ENDBRANCH  21  22
ENDBRANCH  20  21
ENDBRANCH  19  20
ENDBRANCH  18  19
ENDBRANCH  17  18
ENDBRANCH   1  17
TORSDOF 26
ENDMDL
MODEL 2
REMARK VINA RESULT:    -4.768      2.316      3.759
REMARK INTER + INTRA:         -13.764
REMARK INTER:                 -11.467
REMARK INTRA:                  -2.297
REMARK UNBOUND:                -1.749
REMARK SMILES CCCCCCCCCCCCCCCCCCCCCCCCCCCC(=O)[O-]
REMARK SMILES IDX 15 1 16 2 17 3 18 4 19 5 20 6 21 7 22 8 23 9 24 10 25 11
REMARK SMILES IDX 26 12 27 13 28 14 29 15 30 16 14 17 13 18 12 19 11 20 10 21
REMARK SMILES IDX 9 22 8 23 7 24 6 25 5 26 4 27 3 28 2 29 1 30
REMARK H PARENT
REMARK Flexibility Score: inf
ROOT
ATOM      1  C   UNL     1       3.447  53.926  23.994  1.00  0.00     0.000 C 
ENDROOT
BRANCH   1   2
ATOM      2  C   UNL     1       2.360  54.155  22.927  1.00  0.00     0.000 C 
BRANCH   2   3
ATOM      3  C   UNL     1       1.663  52.878  22.424  1.00  0.00     0.000 C 
BRANCH   3   4
ATOM      4  C   UNL     1       2.519  51.613  22.614  1.00  0.00     0.000 C 
BRANCH   4   5
ATOM      5  C   UNL     1       1.667  50.355  22.848  1.00  0.00     0.000 C 
BRANCH   5   6
ATOM      6  C   UNL     1       2.519  49.075  22.919  1.00  0.00     0.000 C 
BRANCH   6   7
ATOM      7  C   UNL     1       1.671  47.823  23.204  1.00  0.00     0.000 C 
BRANCH   7   8
ATOM      8  C   UNL     1       1.909  47.259  24.610  1.00  0.00     0.000 C 
BRANCH   8   9
ATOM      9  C   UNL     1       3.115  47.940  25.275  1.00  0.00     0.000 C 
BRANCH   9  10
ATOM     10  C   UNL     1       4.309  46.983  25.434  1.00  0.00     0.000 C 
BRANCH  10  11
ATOM     11  C   UNL     1       5.551  47.416  24.621  1.00  0.00     0.000 C 
BRANCH  11  12
ATOM     12  C   UNL     1       6.095  48.800  25.026  1.00  0.00     0.006 C 
BRANCH  12  13
ATOM     13  C   UNL     1       7.142  48.749  26.151  1.00  0.00     0.053 C 
BRANCH  13  14
ATOM     14  C   UNL     1       8.335  49.603  25.848  1.00  0.00     0.041 C 
ATOM     15  O   UNL     1       8.237  50.859  25.863  1.00  0.00    -0.550 OA
ATOM     16  O   UNL     1       9.556  49.013  25.544  1.00  0.00    -0.550 OA
ENDBRANCH  13  14
ENDBRANCH  12  13
ENDBRANCH  11  12
ENDBRANCH  10  11
ENDBRANCH   9  10
ENDBRANCH   8   9
ENDBRANCH   7   8
ENDBRANCH   6   7
ENDBRANCH   5   6
ENDBRANCH   4   5
ENDBRANCH   3   4
ENDBRANCH   2   3
ENDBRANCH   1   2
BRANCH   1  17
ATOM     17  C   UNL     1       3.256  54.799  25.243  1.00  0.00     0.000 C 
BRANCH  17  18
ATOM     18  C   UNL     1       3.235  56.288  24.877  1.00  0.00     0.000 C 
BRANCH  18  19
ATOM     19  C   UNL     1       2.110  57.022  25.623  1.00  0.00     0.000 C 
BRANCH  19  20
ATOM     20  C   UNL     1       0.911  57.352  24.717  1.00  0.00     0.000 C 
BRANCH  20  21
ATOM     21  C   UNL     1      -0.215  58.156  25.396  1.00  0.00     0.000 C 
BRANCH  21  22
ATOM     22  C   UNL     1       0.173  59.582  25.840  1.00  0.00    -0.000 C 
BRANCH  22  23
ATOM     23  C   UNL     1      -0.573  60.718  25.116  1.00  0.00    -0.000 C 
BRANCH  23  24
ATOM     24  C   UNL     1       0.297  61.577  24.178  1.00  0.00    -0.000 C 
BRANCH  24  25
ATOM     25  C   UNL     1       1.105  60.759  23.149  1.00  0.00    -0.000 C 
BRANCH  25  26
ATOM     26  C   UNL     1       2.617  61.032  23.227  1.00  0.00    -0.000 C 
BRANCH  26  27
ATOM     27  C   UNL     1       3.293  60.991  21.839  1.00  0.00    -0.000 C 
BRANCH  27  28
ATOM     28  C   UNL     1       3.845  59.604  21.455  1.00  0.00    -0.000 C 
BRANCH  28  29
ATOM     29  C   UNL     1       3.336  58.442  22.323  1.00  0.00    -0.003 C 
ATOM     30  C   UNL     1       2.476  57.449  21.541  1.00  0.00     0.004 C 
ENDBRANCH  28  29
ENDBRANCH  27  28
ENDBRANCH  26  27
ENDBRANCH  25  26
ENDBRANCH  24  25
ENDBRANCH  23  24
ENDBRANCH  22  23
ENDBRANCH  21  22
ENDBRANCH  20  21
ENDBRANCH  19  20
ENDBRANCH  18  19
ENDBRANCH  17  18
ENDBRANCH   1  17
TORSDOF 26
ENDMDL
MODEL 3
REMARK VINA RESULT:    -4.748      5.451     14.597
REMARK INTER + INTRA:         -13.714
REMARK INTER:                 -11.656
REMARK INTRA:                  -2.058
REMARK UNBOUND:                -1.749
REMARK SMILES CCCCCCCCCCCCCCCCCCCCCCCCCCCC(=O)[O-]
REMARK SMILES IDX 15 1 16 2 17 3 18 4 19 5 20 6 21 7 22 8 23 9 24 10 25 11
REMARK SMILES IDX 26 12 27 13 28 14 29 15 30 16 14 17 13 18 12 19 11 20 10 21
REMARK SMILES IDX 9 22 8 23 7 24 6 25 5 26 4 27 3 28 2 29 1 30
REMARK H PARENT
REMARK Flexibility Score: inf
ROOT
ATOM      1  C   UNL     1       3.227  55.176  24.785  1.00  0.00     0.000 C 
ENDROOT
BRANCH   1   2
ATOM      2  C   UNL     1       2.976  56.566  24.173  1.00  0.00     0.000 C 
BRANCH   2   3
ATOM      3  C   UNL     1       1.893  57.402  24.880  1.00  0.00     0.000 C 
BRANCH   3   4
ATOM      4  C   UNL     1       0.561  57.431  24.110  1.00  0.00     0.000 C 
BRANCH   4   5
ATOM      5  C   UNL     1       0.425  58.672  23.212  1.00  0.00     0.000 C 
BRANCH   5   6
ATOM      6  C   UNL     1       1.287  59.849  23.704  1.00  0.00     0.000 C 
BRANCH   6   7
ATOM      7  C   UNL     1       0.450  61.110  23.981  1.00  0.00     0.000 C 
BRANCH   7   8
ATOM      8  C   UNL     1      -0.868  61.125  23.197  1.00  0.00     0.000 C 
BRANCH   8   9
ATOM      9  C   UNL     1      -1.476  62.536  23.175  1.00  0.00     0.000 C 
BRANCH   9  10
ATOM     10  C   UNL     1      -0.457  63.614  23.582  1.00  0.00     0.000 C 
BRANCH  10  11
ATOM     11  C   UNL     1      -1.043  65.045  23.563  1.00  0.00     0.000 C 
BRANCH  11  12
ATOM     12  C   UNL     1      -2.035  65.284  22.409  1.00  0.00     0.006 C 
BRANCH  12  13
ATOM     13  C   UNL     1      -3.302  66.047  22.829  1.00  0.00     0.053 C 
BRANCH  13  14
ATOM     14  C   UNL     1      -4.545  65.424  22.270  1.00  0.00     0.041 C 
ATOM     15  O   UNL     1      -5.388  66.130  21.654  1.00  0.00    -0.550 OA
ATOM     16  O   UNL     1      -4.778  64.064  22.432  1.00  0.00    -0.550 OA
ENDBRANCH  13  14
ENDBRANCH  12  13
ENDBRANCH  11  12
ENDBRANCH  10  11
ENDBRANCH   9  10
ENDBRANCH   8   9
ENDBRANCH   7   8
ENDBRANCH   6   7
ENDBRANCH   5   6
ENDBRANCH   4   5
ENDBRANCH   3   4
ENDBRANCH   2   3
ENDBRANCH   1   2
BRANCH   1  17
ATOM     17  C   UNL     1       3.421  54.079  23.728  1.00  0.00     0.000 C 
BRANCH  17  18
ATOM     18  C   UNL     1       2.350  54.174  22.633  1.00  0.00     0.000 C 
BRANCH  18  19
ATOM     19  C   UNL     1       1.513  52.888  22.570  1.00  0.00     0.000 C 
BRANCH  19  20
ATOM     20  C   UNL     1       2.377  51.615  22.565  1.00  0.00     0.000 C 
BRANCH  20  21
ATOM     21  C   UNL     1       1.591  50.296  22.700  1.00  0.00     0.000 C 
BRANCH  21  22
ATOM     22  C   UNL     1       2.425  49.078  23.147  1.00  0.00    -0.000 C 
BRANCH  22  23
ATOM     23  C   UNL     1       1.989  47.729  22.544  1.00  0.00    -0.000 C 
BRANCH  23  24
ATOM     24  C   UNL     1       2.923  47.167  21.455  1.00  0.00    -0.000 C 
BRANCH  24  25
ATOM     25  C   UNL     1       4.316  47.831  21.422  1.00  0.00    -0.000 C 
BRANCH  25  26
ATOM     26  C   UNL     1       5.351  47.087  22.284  1.00  0.00    -0.000 C 
BRANCH  26  27
ATOM     27  C   UNL     1       6.520  48.000  22.715  1.00  0.00    -0.000 C 
BRANCH  27  28
ATOM     28  C   UNL     1       6.311  48.678  24.083  1.00  0.00    -0.000 C 
BRANCH  28  29
ATOM     29  C   UNL     1       5.326  47.959  25.018  1.00  0.00    -0.003 C 
ATOM     30  C   UNL     1       5.899  47.718  26.415  1.00  0.00     0.004 C 
ENDBRANCH  28  29
ENDBRANCH  27  28
ENDBRANCH  26  27
ENDBRANCH  25  26
ENDBRANCH  24  25
ENDBRANCH  23  24
ENDBRANCH  22  23
ENDBRANCH  21  22
ENDBRANCH  20  21
ENDBRANCH  19  20
ENDBRANCH  18  19
ENDBRANCH  17  18
ENDBRANCH   1  17
TORSDOF 26
ENDMDL
MODEL 4
REMARK VINA RESULT:    -4.736      5.449     14.914
REMARK INTER + INTRA:         -13.683
REMARK INTER:                 -11.836
REMARK INTRA:                  -1.847
REMARK UNBOUND:                -1.749
REMARK SMILES CCCCCCCCCCCCCCCCCCCCCCCCCCCC(=O)[O-]
REMARK SMILES IDX 15 1 16 2 17 3 18 4 19 5 20 6 21 7 22 8 23 9 24 10 25 11
REMARK SMILES IDX 26 12 27 13 28 14 29 15 30 16 14 17 13 18 12 19 11 20 10 21
REMARK SMILES IDX 9 22 8 23 7 24 6 25 5 26 4 27 3 28 2 29 1 30
REMARK H PARENT
REMARK Flexibility Score: inf
ROOT
ATOM      1  C   UNL     1       2.462  55.168  21.602  1.00  0.00     0.000 C 
ENDROOT
BRANCH   1   2
ATOM      2  C   UNL     1       2.004  55.657  22.988  1.00  0.00     0.000 C 
BRANCH   2   3
ATOM      3  C   UNL     1       1.289  57.021  22.994  1.00  0.00     0.000 C 
BRANCH   3   4
ATOM      4  C   UNL     1       1.608  57.859  24.244  1.00  0.00     0.000 C 
BRANCH   4   5
ATOM      5  C   UNL     1       0.561  58.955  24.502  1.00  0.00     0.000 C 
BRANCH   5   6
ATOM      6  C   UNL     1       0.782  60.197  23.620  1.00  0.00     0.000 C 
BRANCH   6   7
ATOM      7  C   UNL     1      -0.507  61.013  23.425  1.00  0.00     0.000 C 
BRANCH   7   8
ATOM      8  C   UNL     1      -0.395  62.434  23.991  1.00  0.00     0.000 C 
BRANCH   8   9
ATOM      9  C   UNL     1      -1.142  63.438  23.099  1.00  0.00     0.000 C 
BRANCH   9  10
ATOM     10  C   UNL     1      -1.019  64.881  23.617  1.00  0.00     0.000 C 
BRANCH  10  11
ATOM     11  C   UNL     1      -0.907  65.929  22.486  1.00  0.00     0.000 C 
BRANCH  11  12
ATOM     12  C   UNL     1      -2.274  66.383  21.937  1.00  0.00     0.006 C 
BRANCH  12  13
ATOM     13  C   UNL     1      -3.431  66.208  22.935  1.00  0.00     0.053 C 
BRANCH  13  14
ATOM     14  C   UNL     1      -4.589  65.475  22.330  1.00  0.00     0.041 C 
ATOM     15  O   UNL     1      -5.483  66.106  21.705  1.00  0.00    -0.550 OA
ATOM     16  O   UNL     1      -4.686  64.095  22.459  1.00  0.00    -0.550 OA
ENDBRANCH  13  14
ENDBRANCH  12  13
ENDBRANCH  11  12
ENDBRANCH  10  11
ENDBRANCH   9  10
ENDBRANCH   8   9
ENDBRANCH   7   8
ENDBRANCH   6   7
ENDBRANCH   5   6
ENDBRANCH   4   5
ENDBRANCH   3   4
ENDBRANCH   2   3
ENDBRANCH   1   2
BRANCH   1  17
ATOM     17  C   UNL     1       2.383  53.642  21.446  1.00  0.00     0.000 C 
BRANCH  17  18
ATOM     18  C   UNL     1       1.898  52.981  22.743  1.00  0.00     0.000 C 
BRANCH  18  19
ATOM     19  C   UNL     1       1.430  51.541  22.483  1.00  0.00     0.000 C 
BRANCH  19  20
ATOM     20  C   UNL     1       2.449  50.489  22.957  1.00  0.00     0.000 C 
BRANCH  20  21
ATOM     21  C   UNL     1       2.031  49.026  22.714  1.00  0.00     0.000 C 
BRANCH  21  22
ATOM     22  C   UNL     1       1.521  48.273  23.960  1.00  0.00    -0.000 C 
BRANCH  22  23
ATOM     23  C   UNL     1       2.470  47.189  24.504  1.00  0.00    -0.000 C 
BRANCH  23  24
ATOM     24  C   UNL     1       3.111  47.506  25.869  1.00  0.00    -0.000 C 
BRANCH  24  25
ATOM     25  C   UNL     1       4.379  48.383  25.777  1.00  0.00    -0.000 C 
BRANCH  25  26
ATOM     26  C   UNL     1       5.588  47.621  25.208  1.00  0.00    -0.000 C 
BRANCH  26  27
ATOM     27  C   UNL     1       6.496  48.524  24.344  1.00  0.00    -0.000 C 
BRANCH  27  28
ATOM     28  C   UNL     1       6.493  48.161  22.846  1.00  0.00    -0.000 C 
BRANCH  28  29
ATOM     29  C   UNL     1       5.374  47.199  22.417  1.00  0.00    -0.003 C 
ATOM     30  C   UNL     1       4.698  47.619  21.111  1.00  0.00     0.004 C 
ENDBRANCH  28  29
ENDBRANCH  27  28
ENDBRANCH  26  27
ENDBRANCH  25  26
ENDBRANCH  24  25
ENDBRANCH  23  24
ENDBRANCH  22  23
ENDBRANCH  21  22
ENDBRANCH  20  21
ENDBRANCH  19  20
ENDBRANCH  18  19
ENDBRANCH  17  18
ENDBRANCH   1  17
TORSDOF 26
ENDMDL
MODEL 5
REMARK VINA RESULT:    -4.703      5.402     14.722
REMARK INTER + INTRA:         -13.599
REMARK INTER:                 -11.960
REMARK INTRA:                  -1.640
REMARK UNBOUND:                -1.749
REMARK SMILES CCCCCCCCCCCCCCCCCCCCCCCCCCCC(=O)[O-]
REMARK SMILES IDX 15 1 16 2 17 3 18 4 19 5 20 6 21 7 22 8 23 9 24 10 25 11
REMARK SMILES IDX 26 12 27 13 28 14 29 15 30 16 14 17 13 18 12 19 11 20 10 21
REMARK SMILES IDX 9 22 8 23 7 24 6 25 5 26 4 27 3 28 2 29 1 30
REMARK H PARENT
REMARK Flexibility Score: inf
ROOT
ATOM      1  C   UNL     1       2.501  55.776  22.809  1.00  0.00     0.000 C 
ENDROOT
BRANCH   1   2
ATOM      2  C   UNL     1       1.793  56.983  22.167  1.00  0.00     0.000 C 
BRANCH   2   3
ATOM      3  C   UNL     1       0.681  57.616  23.025  1.00  0.00     0.000 C 
BRANCH   3   4
ATOM      4  C   UNL     1       1.210  58.681  24.001  1.00  0.00     0.000 C 
BRANCH   4   5
ATOM      5  C   UNL     1       0.240  58.949  25.163  1.00  0.00     0.000 C 
BRANCH   5   6
ATOM      6  C   UNL     1      -0.111  60.442  25.302  1.00  0.00     0.000 C 
BRANCH   6   7
ATOM      7  C   UNL     1       0.158  61.227  24.007  1.00  0.00     0.000 C 
BRANCH   7   8
ATOM      8  C   UNL     1      -1.062  61.267  23.078  1.00  0.00     0.000 C 
BRANCH   8   9
ATOM      9  C   UNL     1      -1.610  62.697  22.957  1.00  0.00     0.000 C 
BRANCH   9  10
ATOM     10  C   UNL     1      -0.732  63.722  23.694  1.00  0.00     0.000 C 
BRANCH  10  11
ATOM     11  C   UNL     1      -1.142  65.188  23.420  1.00  0.00     0.000 C 
BRANCH  11  12
ATOM     12  C   UNL     1      -1.941  65.365  22.114  1.00  0.00     0.006 C 
BRANCH  12  13
ATOM     13  C   UNL     1      -3.146  66.309  22.248  1.00  0.00     0.053 C 
BRANCH  13  14
ATOM     14  C   UNL     1      -4.448  65.568  22.212  1.00  0.00     0.041 C 
ATOM     15  O   UNL     1      -4.484  64.334  22.462  1.00  0.00    -0.550 OA
ATOM     16  O   UNL     1      -5.624  66.239  21.896  1.00  0.00    -0.550 OA
ENDBRANCH  13  14
ENDBRANCH  12  13
ENDBRANCH  11  12
ENDBRANCH  10  11
ENDBRANCH   9  10
ENDBRANCH   8   9
ENDBRANCH   7   8
ENDBRANCH   6   7
ENDBRANCH   5   6
ENDBRANCH   4   5
ENDBRANCH   3   4
ENDBRANCH   2   3
ENDBRANCH   1   2
BRANCH   1  17
ATOM     17  C   UNL     1       1.625  54.515  22.847  1.00  0.00     0.000 C 
BRANCH  17  18
ATOM     18  C   UNL     1       2.404  53.288  22.357  1.00  0.00     0.000 C 
BRANCH  18  19
ATOM     19  C   UNL     1       1.594  52.001  22.574  1.00  0.00     0.000 C 
BRANCH  19  20
ATOM     20  C   UNL     1       2.480  50.744  22.642  1.00  0.00     0.000 C 
BRANCH  20  21
ATOM     21  C   UNL     1       1.729  49.438  22.968  1.00  0.00     0.000 C 
BRANCH  21  22
ATOM     22  C   UNL     1       2.442  48.143  22.525  1.00  0.00    -0.000 C 
BRANCH  22  23
ATOM     23  C   UNL     1       2.694  47.119  23.646  1.00  0.00    -0.000 C 
BRANCH  23  24
ATOM     24  C   UNL     1       2.352  47.607  25.068  1.00  0.00    -0.000 C 
BRANCH  24  25
ATOM     25  C   UNL     1       3.560  47.637  26.028  1.00  0.00    -0.000 C 
BRANCH  25  26
ATOM     26  C   UNL     1       4.909  47.621  25.287  1.00  0.00    -0.000 C 
BRANCH  26  27
ATOM     27  C   UNL     1       5.372  49.038  24.882  1.00  0.00    -0.000 C 
BRANCH  27  28
ATOM     28  C   UNL     1       6.888  49.150  24.629  1.00  0.00    -0.000 C 
BRANCH  28  29
ATOM     29  C   UNL     1       7.738  49.393  25.886  1.00  0.00    -0.003 C 
ATOM     30  C   UNL     1       9.238  49.420  25.594  1.00  0.00     0.004 C 
ENDBRANCH  28  29
ENDBRANCH  27  28
ENDBRANCH  26  27
ENDBRANCH  25  26
ENDBRANCH  24  25
ENDBRANCH  23  24
ENDBRANCH  22  23
ENDBRANCH  21  22
ENDBRANCH  20  21
ENDBRANCH  19  20
ENDBRANCH  18  19
ENDBRANCH  17  18
ENDBRANCH   1  17
TORSDOF 26
ENDMDL
MODEL 6
REMARK VINA RESULT:    -4.638      2.460      5.445
REMARK INTER + INTRA:         -13.437
REMARK INTER:                 -10.807
REMARK INTRA:                  -2.630
REMARK UNBOUND:                -1.749
REMARK SMILES CCCCCCCCCCCCCCCCCCCCCCCCCCCC(=O)[O-]
REMARK SMILES IDX 15 1 16 2 17 3 18 4 19 5 20 6 21 7 22 8 23 9 24 10 25 11
REMARK SMILES IDX 26 12 27 13 28 14 29 15 30 16 14 17 13 18 12 19 11 20 10 21
REMARK SMILES IDX 9 22 8 23 7 24 6 25 5 26 4 27 3 28 2 29 1 30
REMARK H PARENT
REMARK Flexibility Score: inf
ROOT
ATOM      1  C   UNL     1       2.244  57.476  21.475  1.00  0.00     0.000 C 
ENDROOT
BRANCH   1   2
ATOM      2  C   UNL     1       2.209  55.992  21.886  1.00  0.00     0.000 C 
BRANCH   2   3
ATOM      3  C   UNL     1       2.355  54.992  20.724  1.00  0.00     0.000 C 
BRANCH   3   4
ATOM      4  C   UNL     1       2.557  53.544  21.202  1.00  0.00     0.000 C 
BRANCH   4   5
ATOM      5  C   UNL     1       1.760  53.227  22.478  1.00  0.00     0.000 C 
BRANCH   5   6
ATOM      6  C   UNL     1       1.190  51.797  22.474  1.00  0.00     0.000 C 
BRANCH   6   7
ATOM      7  C   UNL     1       2.249  50.745  22.843  1.00  0.00     0.000 C 
BRANCH   7   8
ATOM      8  C   UNL     1       1.692  49.316  22.824  1.00  0.00     0.000 C 
BRANCH   8   9
ATOM      9  C   UNL     1       2.720  48.320  23.381  1.00  0.00     0.000 C 
BRANCH   9  10
ATOM     10  C   UNL     1       2.246  47.663  24.687  1.00  0.00     0.000 C 
BRANCH  10  11
ATOM     11  C   UNL     1       3.399  47.366  25.675  1.00  0.00     0.000 C 
BRANCH  11  12
ATOM     12  C   UNL     1       4.797  47.510  25.043  1.00  0.00     0.006 C 
BRANCH  12  13
ATOM     13  C   UNL     1       5.375  48.931  25.136  1.00  0.00     0.053 C 
BRANCH  13  14
ATOM     14  C   UNL     1       6.815  48.981  24.724  1.00  0.00     0.041 C 
ATOM     15  O   UNL     1       7.169  48.540  23.598  1.00  0.00    -0.550 OA
ATOM     16  O   UNL     1       7.769  49.510  25.585  1.00  0.00    -0.550 OA
ENDBRANCH  13  14
ENDBRANCH  12  13
ENDBRANCH  11  12
ENDBRANCH  10  11
ENDBRANCH   9  10
ENDBRANCH   8   9
ENDBRANCH   7   8
ENDBRANCH   6   7
ENDBRANCH   5   6
ENDBRANCH   4   5
ENDBRANCH   3   4
ENDBRANCH   2   3
ENDBRANCH   1   2
BRANCH   1  17
ATOM     17  C   UNL     1       3.357  58.267  22.178  1.00  0.00     0.000 C 
BRANCH  17  18
ATOM     18  C   UNL     1       3.118  59.778  22.059  1.00  0.00     0.000 C 
BRANCH  18  19
ATOM     19  C   UNL     1       2.833  60.399  23.435  1.00  0.00     0.000 C 
BRANCH  19  20
ATOM     20  C   UNL     1       1.756  61.497  23.382  1.00  0.00     0.000 C 
BRANCH  20  21
ATOM     21  C   UNL     1       0.317  61.008  23.638  1.00  0.00     0.000 C 
BRANCH  21  22
ATOM     22  C   UNL     1      -0.044  60.777  25.120  1.00  0.00    -0.000 C 
BRANCH  22  23
ATOM     23  C   UNL     1      -0.038  59.306  25.574  1.00  0.00    -0.000 C 
BRANCH  23  24
ATOM     24  C   UNL     1       0.077  58.271  24.437  1.00  0.00    -0.000 C 
BRANCH  24  25
ATOM     25  C   UNL     1       0.892  57.015  24.814  1.00  0.00    -0.000 C 
BRANCH  25  26
ATOM     26  C   UNL     1       2.333  57.346  25.236  1.00  0.00    -0.000 C 
BRANCH  26  27
ATOM     27  C   UNL     1       2.850  56.404  26.346  1.00  0.00    -0.000 C 
BRANCH  27  28
ATOM     28  C   UNL     1       2.997  54.935  25.899  1.00  0.00    -0.000 C 
BRANCH  28  29
ATOM     29  C   UNL     1       3.795  54.731  24.602  1.00  0.00    -0.003 C 
ATOM     30  C   UNL     1       4.895  53.678  24.740  1.00  0.00     0.004 C 
ENDBRANCH  28  29
ENDBRANCH  27  28
ENDBRANCH  26  27
ENDBRANCH  25  26
ENDBRANCH  24  25
ENDBRANCH  23  24
ENDBRANCH  22  23
ENDBRANCH  21  22
ENDBRANCH  20  21
ENDBRANCH  19  20
ENDBRANCH  18  19
ENDBRANCH  17  18
ENDBRANCH   1  17
TORSDOF 26
ENDMDL
MODEL 7
REMARK VINA RESULT:    -4.586      4.348     12.530
REMARK INTER + INTRA:         -13.305
REMARK INTER:                 -10.470
REMARK INTRA:                  -2.835
REMARK UNBOUND:                -1.749
REMARK SMILES CCCCCCCCCCCCCCCCCCCCCCCCCCCC(=O)[O-]
REMARK SMILES IDX 15 1 16 2 17 3 18 4 19 5 20 6 21 7 22 8 23 9 24 10 25 11
REMARK SMILES IDX 26 12 27 13 28 14 29 15 30 16 14 17 13 18 12 19 11 20 10 21
REMARK SMILES IDX 9 22 8 23 7 24 6 25 5 26 4 27 3 28 2 29 1 30
REMARK H PARENT
REMARK Flexibility Score: inf
ROOT
ATOM      1  C   UNL     1       3.158  54.845  23.999  1.00  0.00     0.000 C 
ENDROOT
BRANCH   1   2
ATOM      2  C   UNL     1       3.096  54.764  25.535  1.00  0.00     0.000 C 
BRANCH   2   3
ATOM      3  C   UNL     1       2.894  56.113  26.250  1.00  0.00     0.000 C 
BRANCH   3   4
ATOM      4  C   UNL     1       2.530  57.254  25.285  1.00  0.00     0.000 C 
BRANCH   4   5
ATOM      5  C   UNL     1       1.105  57.787  25.513  1.00  0.00     0.000 C 
BRANCH   5   6
ATOM      6  C   UNL     1       0.226  57.666  24.256  1.00  0.00     0.000 C 
BRANCH   6   7
ATOM      7  C   UNL     1       0.850  56.746  23.193  1.00  0.00     0.000 C 
BRANCH   7   8
ATOM      8  C   UNL     1       1.131  57.477  21.874  1.00  0.00     0.000 C 
BRANCH   8   9
ATOM      9  C   UNL     1       2.629  57.436  21.535  1.00  0.00     0.000 C 
BRANCH   9  10
ATOM     10  C   UNL     1       3.460  58.341  22.459  1.00  0.00     0.000 C 
BRANCH  10  11
ATOM     11  C   UNL     1       3.157  59.846  22.273  1.00  0.00     0.000 C 
BRANCH  11  12
ATOM     12  C   UNL     1       2.543  60.505  23.523  1.00  0.00     0.006 C 
BRANCH  12  13
ATOM     13  C   UNL     1       1.478  61.566  23.204  1.00  0.00     0.053 C 
BRANCH  13  14
ATOM     14  C   UNL     1       0.202  61.327  23.952  1.00  0.00     0.041 C 
ATOM     15  O   UNL     1       0.223  61.134  25.198  1.00  0.00    -0.550 OA
ATOM     16  O   UNL     1      -1.012  61.312  23.276  1.00  0.00    -0.550 OA
ENDBRANCH  13  14
ENDBRANCH  12  13
ENDBRANCH  11  12
ENDBRANCH  10  11
ENDBRANCH   9  10
ENDBRANCH   8   9
ENDBRANCH   7   8
ENDBRANCH   6   7
ENDBRANCH   5   6
ENDBRANCH   4   5
ENDBRANCH   3   4
ENDBRANCH   2   3
ENDBRANCH   1   2
BRANCH   1  17
ATOM     17  C   UNL     1       3.129  53.467  23.322  1.00  0.00     0.000 C 
BRANCH  17  18
ATOM     18  C   UNL     1       1.854  53.290  22.488  1.00  0.00     0.000 C 
BRANCH  18  19
ATOM     19  C   UNL     1       1.448  51.810  22.412  1.00  0.00     0.000 C 
BRANCH  19  20
ATOM     20  C   UNL     1       2.465  50.878  23.092  1.00  0.00     0.000 C 
BRANCH  20  21
ATOM     21  C   UNL     1       2.568  49.469  22.476  1.00  0.00     0.000 C 
BRANCH  21  22
ATOM     22  C   UNL     1       1.467  48.480  22.913  1.00  0.00    -0.000 C 
BRANCH  22  23
ATOM     23  C   UNL     1       1.975  47.193  23.589  1.00  0.00    -0.000 C 
BRANCH  23  24
ATOM     24  C   UNL     1       2.029  47.239  25.129  1.00  0.00    -0.000 C 
BRANCH  24  25
ATOM     25  C   UNL     1       3.339  47.829  25.692  1.00  0.00    -0.000 C 
BRANCH  25  26
ATOM     26  C   UNL     1       4.546  47.585  24.770  1.00  0.00    -0.000 C 
BRANCH  26  27
ATOM     27  C   UNL     1       5.771  48.436  25.171  1.00  0.00    -0.000 C 
BRANCH  27  28
ATOM     28  C   UNL     1       6.344  48.090  26.560  1.00  0.00    -0.000 C 
BRANCH  28  29
ATOM     29  C   UNL     1       7.609  48.871  26.950  1.00  0.00    -0.003 C 
ATOM     30  C   UNL     1       8.234  49.618  25.772  1.00  0.00     0.004 C 
ENDBRANCH  28  29
ENDBRANCH  27  28
ENDBRANCH  26  27
ENDBRANCH  25  26
ENDBRANCH  24  25
ENDBRANCH  23  24
ENDBRANCH  22  23
ENDBRANCH  21  22
ENDBRANCH  20  21
ENDBRANCH  19  20
ENDBRANCH  18  19
ENDBRANCH  17  18
ENDBRANCH   1  17
TORSDOF 26
ENDMDL
MODEL 8
REMARK VINA RESULT:    -4.579      2.526      4.714
REMARK INTER + INTRA:         -13.288
REMARK INTER:                 -11.090
REMARK INTRA:                  -2.198
REMARK UNBOUND:                -1.749
REMARK SMILES CCCCCCCCCCCCCCCCCCCCCCCCCCCC(=O)[O-]
REMARK SMILES IDX 15 1 16 2 17 3 18 4 19 5 20 6 21 7 22 8 23 9 24 10 25 11
REMARK SMILES IDX 26 12 27 13 28 14 29 15 30 16 14 17 13 18 12 19 11 20 10 21
REMARK SMILES IDX 9 22 8 23 7 24 6 25 5 26 4 27 3 28 2 29 1 30
REMARK H PARENT
REMARK Flexibility Score: inf
ROOT
ATOM      1  C   UNL     1       2.586  54.578  20.987  1.00  0.00     0.000 C 
ENDROOT
BRANCH   1   2
ATOM      2  C   UNL     1       2.371  54.055  22.419  1.00  0.00     0.000 C 
BRANCH   2   3
ATOM      3  C   UNL     1       1.443  52.831  22.531  1.00  0.00     0.000 C 
BRANCH   3   4
ATOM      4  C   UNL     1       2.212  51.513  22.735  1.00  0.00     0.000 C 
BRANCH   4   5
ATOM      5  C   UNL     1       1.324  50.275  22.530  1.00  0.00     0.000 C 
BRANCH   5   6
ATOM      6  C   UNL     1       2.007  48.978  23.001  1.00  0.00     0.000 C 
BRANCH   6   7
ATOM      7  C   UNL     1       1.629  47.769  22.129  1.00  0.00     0.000 C 
BRANCH   7   8
ATOM      8  C   UNL     1       2.855  46.968  21.670  1.00  0.00     0.000 C 
BRANCH   8   9
ATOM      9  C   UNL     1       4.119  47.840  21.696  1.00  0.00     0.000 C 
BRANCH   9  10
ATOM     10  C   UNL     1       5.209  47.259  22.611  1.00  0.00     0.000 C 
BRANCH  10  11
ATOM     11  C   UNL     1       4.696  46.917  24.030  1.00  0.00     0.000 C 
BRANCH  11  12
ATOM     12  C   UNL     1       5.671  47.333  25.148  1.00  0.00     0.006 C 
BRANCH  12  13
ATOM     13  C   UNL     1       5.864  48.853  25.268  1.00  0.00     0.053 C 
BRANCH  13  14
ATOM     14  C   UNL     1       7.294  49.256  25.076  1.00  0.00     0.041 C 
ATOM     15  O   UNL     1       7.978  48.747  24.147  1.00  0.00    -0.550 OA
ATOM     16  O   UNL     1       7.876  50.190  25.924  1.00  0.00    -0.550 OA
ENDBRANCH  13  14
ENDBRANCH  12  13
ENDBRANCH  11  12
ENDBRANCH  10  11
ENDBRANCH   9  10
ENDBRANCH   8   9
ENDBRANCH   7   8
ENDBRANCH   6   7
ENDBRANCH   5   6
ENDBRANCH   4   5
ENDBRANCH   3   4
ENDBRANCH   2   3
ENDBRANCH   1   2
BRANCH   1  17
ATOM     17  C   UNL     1       2.099  56.023  20.796  1.00  0.00     0.000 C 
BRANCH  17  18
ATOM     18  C   UNL     1       2.351  56.860  22.056  1.00  0.00     0.000 C 
BRANCH  18  19
ATOM     19  C   UNL     1       3.217  58.088  21.736  1.00  0.00     0.000 C 
BRANCH  19  20
ATOM     20  C   UNL     1       3.248  59.110  22.885  1.00  0.00     0.000 C 
BRANCH  20  21
ATOM     21  C   UNL     1       2.810  60.537  22.497  1.00  0.00     0.000 C 
BRANCH  21  22
ATOM     22  C   UNL     1       2.138  61.346  23.625  1.00  0.00    -0.000 C 
BRANCH  22  23
ATOM     23  C   UNL     1       0.603  61.239  23.682  1.00  0.00    -0.000 C 
BRANCH  23  24
ATOM     24  C   UNL     1       0.006  61.134  25.100  1.00  0.00    -0.000 C 
BRANCH  24  25
ATOM     25  C   UNL     1      -0.171  59.685  25.599  1.00  0.00    -0.000 C 
BRANCH  25  26
ATOM     26  C   UNL     1       0.174  58.639  24.525  1.00  0.00    -0.000 C 
BRANCH  26  27
ATOM     27  C   UNL     1       0.761  57.346  25.132  1.00  0.00    -0.000 C 
BRANCH  27  28
ATOM     28  C   UNL     1       2.264  57.438  25.463  1.00  0.00    -0.000 C 
BRANCH  28  29
ATOM     29  C   UNL     1       2.815  56.268  26.293  1.00  0.00    -0.003 C 
ATOM     30  C   UNL     1       3.180  55.053  25.439  1.00  0.00     0.004 C 
ENDBRANCH  28  29
ENDBRANCH  27  28
ENDBRANCH  26  27
ENDBRANCH  25  26
ENDBRANCH  24  25
ENDBRANCH  23  24
ENDBRANCH  22  23
ENDBRANCH  21  22
ENDBRANCH  20  21
ENDBRANCH  19  20
ENDBRANCH  18  19
ENDBRANCH  17  18
ENDBRANCH   1  17
TORSDOF 26
ENDMDL
MODEL 9
REMARK VINA RESULT:    -3.332      4.956     14.400
REMARK INTER + INTRA:         -10.144
REMARK INTER:                  -8.077
REMARK INTRA:                  -2.067
REMARK UNBOUND:                -1.749
REMARK SMILES CCCCCCCCCCCCCCCCCCCCCCCCCCCC(=O)[O-]
REMARK SMILES IDX 15 1 16 2 17 3 18 4 19 5 20 6 21 7 22 8 23 9 24 10 25 11
REMARK SMILES IDX 26 12 27 13 28 14 29 15 30 16 14 17 13 18 12 19 11 20 10 21
REMARK SMILES IDX 9 22 8 23 7 24 6 25 5 26 4 27 3 28 2 29 1 30
REMARK H PARENT
REMARK Flexibility Score: inf
ROOT
ATOM      1  C   UNL     1       2.723  55.898  24.004  1.00  0.00     0.000 C 
ENDROOT
BRANCH   1   2
ATOM      2  C   UNL     1       2.080  56.701  22.858  1.00  0.00     0.000 C 
BRANCH   2   3
ATOM      3  C   UNL     1       0.855  57.543  23.261  1.00  0.00     0.000 C 
BRANCH   3   4
ATOM      4  C   UNL     1       1.238  58.894  23.890  1.00  0.00     0.000 C 
BRANCH   4   5
ATOM      5  C   UNL     1       0.405  59.219  25.142  1.00  0.00     0.000 C 
BRANCH   5   6
ATOM      6  C   UNL     1      -0.217  60.626  25.083  1.00  0.00     0.000 C 
BRANCH   6   7
ATOM      7  C   UNL     1      -0.035  61.288  23.707  1.00  0.00     0.000 C 
BRANCH   7   8
ATOM      8  C   UNL     1      -1.284  61.165  22.826  1.00  0.00     0.000 C 
BRANCH   8   9
ATOM      9  C   UNL     1      -2.125  62.450  22.887  1.00  0.00     0.000 C 
BRANCH   9  10
ATOM     10  C   UNL     1      -1.284  63.678  23.271  1.00  0.00     0.000 C 
BRANCH  10  11
ATOM     11  C   UNL     1      -1.792  64.991  22.629  1.00  0.00     0.000 C 
BRANCH  11  12
ATOM     12  C   UNL     1      -1.413  66.250  23.432  1.00  0.00     0.006 C 
BRANCH  12  13
ATOM     13  C   UNL     1       0.042  66.254  23.927  1.00  0.00     0.053 C 
BRANCH  13  14
ATOM     14  C   UNL     1       0.998  66.697  22.862  1.00  0.00     0.041 C 
ATOM     15  O   UNL     1       2.239  66.687  23.080  1.00  0.00    -0.550 OA
ATOM     16  O   UNL     1       0.520  67.125  21.630  1.00  0.00    -0.550 OA
ENDBRANCH  13  14
ENDBRANCH  12  13
ENDBRANCH  11  12
ENDBRANCH  10  11
ENDBRANCH   9  10
ENDBRANCH   8   9
ENDBRANCH   7   8
ENDBRANCH   6   7
ENDBRANCH   5   6
ENDBRANCH   4   5
ENDBRANCH   3   4
ENDBRANCH   2   3
ENDBRANCH   1   2
BRANCH   1  17
ATOM     17  C   UNL     1       3.048  54.449  23.613  1.00  0.00     0.000 C 
BRANCH  17  18
ATOM     18  C   UNL     1       1.985  53.883  22.663  1.00  0.00     0.000 C 
BRANCH  18  19
ATOM     19  C   UNL     1       2.422  52.524  22.096  1.00  0.00     0.000 C 
BRANCH  19  20
ATOM     20  C   UNL     1       1.629  51.348  22.691  1.00  0.00     0.000 C 
BRANCH  20  21
ATOM     21  C   UNL     1       2.430  50.042  22.857  1.00  0.00     0.000 C 
BRANCH  21  22
ATOM     22  C   UNL     1       1.595  48.746  22.792  1.00  0.00    -0.000 C 
BRANCH  22  23
ATOM     23  C   UNL     1       2.411  47.449  22.634  1.00  0.00    -0.000 C 
BRANCH  23  24
ATOM     24  C   UNL     1       3.098  47.272  21.266  1.00  0.00    -0.000 C 
BRANCH  24  25
ATOM     25  C   UNL     1       4.618  47.539  21.289  1.00  0.00    -0.000 C 
BRANCH  25  26
ATOM     26  C   UNL     1       5.300  46.987  22.553  1.00  0.00    -0.000 C 
BRANCH  26  27
ATOM     27  C   UNL     1       6.116  48.065  23.299  1.00  0.00    -0.000 C 
BRANCH  27  28
ATOM     28  C   UNL     1       5.553  48.424  24.689  1.00  0.00    -0.000 C 
BRANCH  28  29
ATOM     29  C   UNL     1       4.598  47.379  25.288  1.00  0.00    -0.003 C 
ATOM     30  C   UNL     1       3.525  48.000  26.183  1.00  0.00     0.004 C 
ENDBRANCH  28  29
ENDBRANCH  27  28
ENDBRANCH  26  27
ENDBRANCH  25  26
ENDBRANCH  24  25
ENDBRANCH  23  24
ENDBRANCH  22  23
ENDBRANCH  21  22
ENDBRANCH  20  21
ENDBRANCH  19  20
ENDBRANCH  18  19
ENDBRANCH  17  18
ENDBRANCH   1  17
TORSDOF 26
ENDMDL
