MODEL 1
REMARK VINA RESULT:    -4.290      0.000      0.000
REMARK INTER + INTRA:          -5.057
REMARK INTER:                  -4.917
REMARK INTRA:                  -0.140
REMARK UNBOUND:                -0.140
REMARK SMILES O=C([O-])C=Cc1ccc(O)cc1
REMARK SMILES IDX 6 1 7 2 12 3 8 4 11 5 9 6 5 7 4 8 2 9 1 10 3 11 10 12
REMARK H PARENT 10 13
REMARK Flexibility Score: inf
ROOT
ATOM      1  C   UNL     1     -32.914 -56.746  67.779  1.00  0.00    -0.025 A 
ATOM      2  C   UNL     1     -33.519 -57.483  68.813  1.00  0.00     0.012 A 
ATOM      3  C   UNL     1     -32.501 -57.425  66.614  1.00  0.00     0.012 A 
ATOM      4  C   UNL     1     -33.731 -58.857  68.679  1.00  0.00     0.047 A 
ATOM      5  C   UNL     1     -32.715 -58.801  66.484  1.00  0.00     0.047 A 
ATOM      6  C   UNL     1     -33.331 -59.520  67.512  1.00  0.00     0.115 A 
ENDROOT
BRANCH   1   7
ATOM      7  C   UNL     1     -32.701 -55.291  67.974  1.00  0.00     0.010 C 
ATOM      8  C   UNL     1     -31.717 -54.597  67.388  1.00  0.00     0.025 C 
BRANCH   8   9
ATOM      9  C   UNL     1     -31.550 -53.150  67.601  1.00  0.00     0.064 C 
ATOM     10  O   UNL     1     -31.826 -52.350  66.671  1.00  0.00    -0.545 OA
ATOM     11  O   UNL     1     -31.089 -52.653  68.815  1.00  0.00    -0.545 OA
ENDBRANCH   8   9
ENDBRANCH   1   7
BRANCH   6  12
ATOM     12  O   UNL     1     -33.537 -60.890  67.366  1.00  0.00    -0.508 OA
ATOM     13  H   UNL     1     -34.364 -61.256  66.909  1.00  0.00     0.293 HD
ENDBRANCH   6  12
TORSDOF 3
ENDMDL
MODEL 2
REMARK VINA RESULT:    -4.279     18.909     19.997
REMARK INTER + INTRA:          -5.045
REMARK INTER:                  -4.908
REMARK INTRA:                  -0.137
REMARK UNBOUND:                -0.140
REMARK SMILES O=C([O-])C=Cc1ccc(O)cc1
REMARK SMILES IDX 6 1 7 2 12 3 8 4 11 5 9 6 5 7 4 8 2 9 1 10 3 11 10 12
REMARK H PARENT 10 13
REMARK Flexibility Score: inf
ROOT
ATOM      1  C   UNL     1     -20.863 -68.161  58.064  1.00  0.00    -0.025 A 
ATOM      2  C   UNL     1     -21.161 -69.123  59.044  1.00  0.00     0.012 A 
ATOM      3  C   UNL     1     -19.965 -67.121  58.384  1.00  0.00     0.012 A 
ATOM      4  C   UNL     1     -20.561 -69.066  60.305  1.00  0.00     0.047 A 
ATOM      5  C   UNL     1     -19.367 -67.068  59.647  1.00  0.00     0.047 A 
ATOM      6  C   UNL     1     -19.659 -68.038  60.609  1.00  0.00     0.115 A 
ENDROOT
BRANCH   1   7
ATOM      7  C   UNL     1     -21.535 -68.259  56.744  1.00  0.00     0.010 C 
ATOM      8  C   UNL     1     -20.887 -68.485  55.594  1.00  0.00     0.025 C 
BRANCH   8   9
ATOM      9  C   UNL     1     -21.596 -68.586  54.308  1.00  0.00     0.064 C 
ATOM     10  O   UNL     1     -22.788 -68.193  54.223  1.00  0.00    -0.545 OA
ATOM     11  O   UNL     1     -20.969 -69.112  53.184  1.00  0.00    -0.545 OA
ENDBRANCH   8   9
ENDBRANCH   1   7
BRANCH   6  12
ATOM     12  O   UNL     1     -19.054 -67.971  61.861  1.00  0.00    -0.508 OA
ATOM     13  H   UNL     1     -19.132 -68.729  62.529  1.00  0.00     0.293 HD
ENDBRANCH   6  12
TORSDOF 3
ENDMDL
MODEL 3
REMARK VINA RESULT:    -4.271     17.479     19.571
REMARK INTER + INTRA:          -5.035
REMARK INTER:                  -4.892
REMARK INTRA:                  -0.143
REMARK UNBOUND:                -0.140
REMARK SMILES O=C([O-])C=Cc1ccc(O)cc1
REMARK SMILES IDX 6 1 7 2 12 3 8 4 11 5 9 6 5 7 4 8 2 9 1 10 3 11 10 12
REMARK H PARENT 10 13
REMARK Flexibility Score: inf
ROOT
ATOM      1  C   UNL     1     -22.475 -68.582  56.960  1.00  0.00    -0.025 A 
ATOM      2  C   UNL     1     -22.074 -69.125  58.193  1.00  0.00     0.012 A 
ATOM      3  C   UNL     1     -23.773 -68.042  56.845  1.00  0.00     0.012 A 
ATOM      4  C   UNL     1     -22.936 -69.106  59.293  1.00  0.00     0.047 A 
ATOM      5  C   UNL     1     -24.632 -68.026  57.949  1.00  0.00     0.047 A 
ATOM      6  C   UNL     1     -24.217 -68.554  59.174  1.00  0.00     0.115 A 
ENDROOT
BRANCH   1   7
ATOM      7  C   UNL     1     -21.528 -68.636  55.819  1.00  0.00     0.010 C 
ATOM      8  C   UNL     1     -21.802 -68.151  54.601  1.00  0.00     0.025 C 
BRANCH   8   9
ATOM      9  C   UNL     1     -20.828 -68.215  53.499  1.00  0.00     0.064 C 
ATOM     10  O   UNL     1     -19.958 -69.125  53.491  1.00  0.00    -0.545 OA
ATOM     11  O   UNL     1     -20.851 -67.284  52.467  1.00  0.00    -0.545 OA
ENDBRANCH   8   9
ENDBRANCH   1   7
BRANCH   6  12
ATOM     12  O   UNL     1     -25.085 -68.529  60.264  1.00  0.00    -0.508 OA
ATOM     13  H   UNL     1     -24.878 -69.034  61.118  1.00  0.00     0.293 HD
ENDBRANCH   6  12
TORSDOF 3
ENDMDL
MODEL 4
REMARK VINA RESULT:    -4.235     18.822     19.946
REMARK INTER + INTRA:          -4.994
REMARK INTER:                  -4.854
REMARK INTRA:                  -0.139
REMARK UNBOUND:                -0.140
REMARK SMILES O=C([O-])C=Cc1ccc(O)cc1
REMARK SMILES IDX 6 1 7 2 12 3 8 4 11 5 9 6 5 7 4 8 2 9 1 10 3 11 10 12
REMARK H PARENT 10 13
REMARK Flexibility Score: inf
ROOT
ATOM      1  C   UNL     1     -21.010 -68.111  58.068  1.00  0.00    -0.025 A 
ATOM      2  C   UNL     1     -20.132 -67.061  58.390  1.00  0.00     0.012 A 
ATOM      3  C   UNL     1     -21.235 -69.125  59.021  1.00  0.00     0.012 A 
ATOM      4  C   UNL     1     -19.513 -67.010  59.642  1.00  0.00     0.047 A 
ATOM      5  C   UNL     1     -20.612 -69.070  60.273  1.00  0.00     0.047 A 
ATOM      6  C   UNL     1     -19.754 -68.013  60.588  1.00  0.00     0.115 A 
ENDROOT
BRANCH   1   7
ATOM      7  C   UNL     1     -21.635 -68.126  56.722  1.00  0.00     0.010 C 
ATOM      8  C   UNL     1     -21.017 -68.572  55.620  1.00  0.00     0.025 C 
BRANCH   8   9
ATOM      9  C   UNL     1     -21.680 -68.580  54.306  1.00  0.00     0.064 C 
ATOM     10  O   UNL     1     -22.883 -68.225  54.214  1.00  0.00    -0.545 OA
ATOM     11  O   UNL     1     -20.997 -68.976  53.161  1.00  0.00    -0.545 OA
ENDBRANCH   8   9
ENDBRANCH   1   7
BRANCH   6  12
ATOM     12  O   UNL     1     -19.143 -67.972  61.839  1.00  0.00    -0.508 OA
ATOM     13  H   UNL     1     -18.189 -67.649  61.953  1.00  0.00     0.293 HD
ENDBRANCH   6  12
TORSDOF 3
ENDMDL
MODEL 5
REMARK VINA RESULT:    -4.199     17.511     19.594
REMARK INTER + INTRA:          -4.953
REMARK INTER:                  -4.800
REMARK INTRA:                  -0.153
REMARK UNBOUND:                -0.140
REMARK SMILES O=C([O-])C=Cc1ccc(O)cc1
REMARK SMILES IDX 6 1 7 2 12 3 8 4 11 5 9 6 5 7 4 8 2 9 1 10 3 11 10 12
REMARK H PARENT 10 13
REMARK Flexibility Score: inf
ROOT
ATOM      1  C   UNL     1     -22.215 -68.602  57.174  1.00  0.00    -0.025 A 
ATOM      2  C   UNL     1     -23.489 -68.052  56.954  1.00  0.00     0.012 A 
ATOM      3  C   UNL     1     -21.912 -69.125  58.447  1.00  0.00     0.012 A 
ATOM      4  C   UNL     1     -24.449 -68.047  57.970  1.00  0.00     0.047 A 
ATOM      5  C   UNL     1     -22.874 -69.118  59.462  1.00  0.00     0.047 A 
ATOM      6  C   UNL     1     -24.144 -68.583  59.227  1.00  0.00     0.115 A 
ENDROOT
BRANCH   1   7
ATOM      7  C   UNL     1     -21.228 -68.573  56.066  1.00  0.00     0.010 C 
ATOM      8  C   UNL     1     -21.529 -68.223  54.809  1.00  0.00     0.025 C 
BRANCH   8   9
ATOM      9  C   UNL     1     -20.514 -68.198  53.743  1.00  0.00     0.064 C 
ATOM     10  O   UNL     1     -19.532 -68.982  53.801  1.00  0.00    -0.545 OA
ATOM     11  O   UNL     1     -20.623 -67.318  52.672  1.00  0.00    -0.545 OA
ENDBRANCH   8   9
ENDBRANCH   1   7
BRANCH   6  12
ATOM     12  O   UNL     1     -25.092 -68.584  60.248  1.00  0.00    -0.508 OA
ATOM     13  H   UNL     1     -25.788 -69.316  60.324  1.00  0.00     0.293 HD
ENDBRANCH   6  12
TORSDOF 3
ENDMDL
MODEL 6
REMARK VINA RESULT:    -4.157     16.069     17.501
REMARK INTER + INTRA:          -4.905
REMARK INTER:                  -4.765
REMARK INTRA:                  -0.140
REMARK UNBOUND:                -0.140
REMARK SMILES O=C([O-])C=Cc1ccc(O)cc1
REMARK SMILES IDX 6 1 7 2 12 3 8 4 11 5 9 6 5 7 4 8 2 9 1 10 3 11 10 12
REMARK H PARENT 10 13
REMARK Flexibility Score: inf
ROOT
ATOM      1  C   UNL     1     -28.546 -52.615  51.418  1.00  0.00    -0.025 A 
ATOM      2  C   UNL     1     -29.914 -52.928  51.504  1.00  0.00     0.012 A 
ATOM      3  C   UNL     1     -28.170 -51.288  51.125  1.00  0.00     0.012 A 
ATOM      4  C   UNL     1     -30.883 -51.937  51.328  1.00  0.00     0.047 A 
ATOM      5  C   UNL     1     -29.144 -50.299  50.948  1.00  0.00     0.047 A 
ATOM      6  C   UNL     1     -30.501 -50.619  51.052  1.00  0.00     0.115 A 
ENDROOT
BRANCH   1   7
ATOM      7  C   UNL     1     -27.555 -53.704  51.602  1.00  0.00     0.010 C 
ATOM      8  C   UNL     1     -27.319 -54.305  52.775  1.00  0.00     0.025 C 
BRANCH   8   9
ATOM      9  C   UNL     1     -26.334 -55.391  52.909  1.00  0.00     0.064 C 
ATOM     10  O   UNL     1     -25.894 -55.962  51.878  1.00  0.00    -0.545 OA
ATOM     11  O   UNL     1     -25.882 -55.797  54.160  1.00  0.00    -0.545 OA
ENDBRANCH   8   9
ENDBRANCH   1   7
BRANCH   6  12
ATOM     12  O   UNL     1     -31.458 -49.623  50.875  1.00  0.00    -0.508 OA
ATOM     13  H   UNL     1     -31.598 -49.176  49.977  1.00  0.00     0.293 HD
ENDBRANCH   6  12
TORSDOF 3
ENDMDL
MODEL 7
REMARK VINA RESULT:    -4.078     17.173     18.318
REMARK INTER + INTRA:          -4.814
REMARK INTER:                  -4.667
REMARK INTRA:                  -0.148
REMARK UNBOUND:                -0.140
REMARK SMILES O=C([O-])C=Cc1ccc(O)cc1
REMARK SMILES IDX 6 1 7 2 12 3 8 4 11 5 9 6 5 7 4 8 2 9 1 10 3 11 10 12
REMARK H PARENT 10 13
REMARK Flexibility Score: inf
ROOT
ATOM      1  C   UNL     1     -21.725 -67.529  58.402  1.00  0.00    -0.025 A 
ATOM      2  C   UNL     1     -21.800 -68.758  59.080  1.00  0.00     0.012 A 
ATOM      3  C   UNL     1     -20.652 -66.661  58.688  1.00  0.00     0.012 A 
ATOM      4  C   UNL     1     -20.815 -69.125  60.001  1.00  0.00     0.047 A 
ATOM      5  C   UNL     1     -19.669 -67.031  59.612  1.00  0.00     0.047 A 
ATOM      6  C   UNL     1     -19.745 -68.262  60.268  1.00  0.00     0.115 A 
ENDROOT
BRANCH   1   7
ATOM      7  C   UNL     1     -22.801 -67.181  57.441  1.00  0.00     0.010 C 
ATOM      8  C   UNL     1     -24.091 -67.491  57.623  1.00  0.00     0.025 C 
BRANCH   8   9
ATOM      9  C   UNL     1     -25.127 -67.115  56.648  1.00  0.00     0.064 C 
ATOM     10  O   UNL     1     -26.333 -67.380  56.889  1.00  0.00    -0.545 OA
ATOM     11  O   UNL     1     -24.795 -66.471  55.461  1.00  0.00    -0.545 OA
ENDBRANCH   8   9
ENDBRANCH   1   7
BRANCH   6  12
ATOM     12  O   UNL     1     -18.758 -68.617  61.184  1.00  0.00    -0.508 OA
ATOM     13  H   UNL     1     -18.949 -69.251  61.951  1.00  0.00     0.293 HD
ENDBRANCH   6  12
TORSDOF 3
ENDMDL
MODEL 8
REMARK VINA RESULT:    -4.049     16.631     17.903
REMARK INTER + INTRA:          -4.781
REMARK INTER:                  -4.626
REMARK INTRA:                  -0.154
REMARK UNBOUND:                -0.140
REMARK SMILES O=C([O-])C=Cc1ccc(O)cc1
REMARK SMILES IDX 6 1 7 2 12 3 8 4 11 5 9 6 5 7 4 8 2 9 1 10 3 11 10 12
REMARK H PARENT 10 13
REMARK Flexibility Score: inf
ROOT
ATOM      1  C   UNL     1     -23.330 -67.986  58.205  1.00  0.00    -0.025 A 
ATOM      2  C   UNL     1     -22.478 -66.891  57.979  1.00  0.00     0.012 A 
ATOM      3  C   UNL     1     -22.822 -69.113  58.884  1.00  0.00     0.012 A 
ATOM      4  C   UNL     1     -21.160 -66.907  58.442  1.00  0.00     0.047 A 
ATOM      5  C   UNL     1     -21.501 -69.125  59.344  1.00  0.00     0.047 A 
ATOM      6  C   UNL     1     -20.668 -68.024  59.129  1.00  0.00     0.115 A 
ENDROOT
BRANCH   1   7
ATOM      7  C   UNL     1     -24.718 -67.926  57.684  1.00  0.00     0.010 C 
ATOM      8  C   UNL     1     -25.204 -66.898  56.976  1.00  0.00     0.025 C 
BRANCH   8   9
ATOM      9  C   UNL     1     -26.585 -66.885  56.469  1.00  0.00     0.064 C 
ATOM     10  O   UNL     1     -27.459 -67.599  57.026  1.00  0.00    -0.545 OA
ATOM     11  O   UNL     1     -26.942 -66.097  55.380  1.00  0.00    -0.545 OA
ENDBRANCH   8   9
ENDBRANCH   1   7
BRANCH   6  12
ATOM     12  O   UNL     1     -19.356 -68.051  59.595  1.00  0.00    -0.508 OA
ATOM     13  H   UNL     1     -18.568 -67.971  58.964  1.00  0.00     0.293 HD
ENDBRANCH   6  12
TORSDOF 3
ENDMDL
MODEL 9
REMARK VINA RESULT:    -3.929     12.367     14.021
REMARK INTER + INTRA:          -4.643
REMARK INTER:                  -4.509
REMARK INTRA:                  -0.134
REMARK UNBOUND:                -0.140
REMARK SMILES O=C([O-])C=Cc1ccc(O)cc1
REMARK SMILES IDX 6 1 7 2 12 3 8 4 11 5 9 6 5 7 4 8 2 9 1 10 3 11 10 12
REMARK H PARENT 10 13
REMARK Flexibility Score: inf
ROOT
ATOM      1  C   UNL     1     -27.790 -54.473  55.589  1.00  0.00    -0.025 A 
ATOM      2  C   UNL     1     -27.069 -53.745  56.551  1.00  0.00     0.012 A 
ATOM      3  C   UNL     1     -27.763 -54.039  54.248  1.00  0.00     0.012 A 
ATOM      4  C   UNL     1     -26.318 -52.626  56.182  1.00  0.00     0.047 A 
ATOM      5  C   UNL     1     -27.011 -52.918  53.883  1.00  0.00     0.047 A 
ATOM      6  C   UNL     1     -26.285 -52.211  54.845  1.00  0.00     0.115 A 
ENDROOT
BRANCH   1   7
ATOM      7  C   UNL     1     -28.581 -55.648  56.033  1.00  0.00     0.010 C 
ATOM      8  C   UNL     1     -29.920 -55.675  56.064  1.00  0.00     0.025 C 
BRANCH   8   9
ATOM      9  C   UNL     1     -30.664 -56.867  56.501  1.00  0.00     0.064 C 
ATOM     10  O   UNL     1     -31.179 -57.628  55.642  1.00  0.00    -0.545 OA
ATOM     11  O   UNL     1     -30.810 -57.166  57.851  1.00  0.00    -0.545 OA
ENDBRANCH   8   9
ENDBRANCH   1   7
BRANCH   6  12
ATOM     12  O   UNL     1     -25.539 -51.097  54.464  1.00  0.00    -0.508 OA
ATOM     13  H   UNL     1     -25.500 -50.790  53.500  1.00  0.00     0.293 HD
ENDBRANCH   6  12
TORSDOF 3
ENDMDL
