MODEL 1
REMARK VINA RESULT:    -3.411      0.000      0.000
REMARK INTER + INTRA:          -5.648
REMARK INTER:                  -5.205
REMARK INTRA:                  -0.443
REMARK UNBOUND:                -0.443
REMARK SMILES CC1=CCC[C@H](C)C(=O)C[C@H](C(C)C)C(=O)C1
REMARK SMILES IDX 8 1 9 2 6 3 7 4 5 5 4 6 3 7 2 8 1 9 10 11 11 12 15 13 16 14
REMARK SMILES IDX 17 15 12 17 13 18 14 19
REMARK H PARENT
REMARK Flexibility Score: 70.00
ROOT
ATOM      1  C   UNL     1       4.140  11.874  18.950  1.00  0.00     0.136 C 
ATOM      2  O   UNL     1       5.333  12.059  19.149  1.00  0.00    -0.299 OA
ENDROOT
BRANCH   1   3
ATOM      3  C   UNL     1       3.124  12.278  20.007  1.00  0.00     0.053 C 
ATOM      4  C   UNL     1       3.482  11.665  21.369  1.00  0.00     0.016 C 
BRANCH   3   5
ATOM      5  C   UNL     1       3.018  13.819  20.106  1.00  0.00     0.015 C 
BRANCH   5   6
ATOM      6  C   UNL     1       1.679  14.355  19.559  1.00  0.00     0.028 C 
BRANCH   6   7
ATOM      7  C   UNL     1       1.852  14.986  18.202  1.00  0.00    -0.028 C 
ATOM      8  C   UNL     1       1.425  14.440  17.038  1.00  0.00    -0.070 CG0
ATOM      9  C   UNL     1       1.725  15.178  15.757  1.00  0.00     0.039 C 
ATOM     10  G   UNL     1       0.664  13.123  16.970  1.00  0.00     0.000 G0
ENDBRANCH   6   7
ENDBRANCH   5   6
ENDBRANCH   3   5
ENDBRANCH   1   3
BRANCH   1  11
ATOM     11  C   UNL     1       3.697  11.263  17.641  1.00  0.00     0.087 C 
BRANCH  11  12
ATOM     12  C   UNL     1       2.163  11.025  17.537  1.00  0.00     0.066 C 
BRANCH  12  13
ATOM     13  C   UNL     1       1.547  11.965  16.510  1.00  0.00     0.140 C 
ATOM     14  O   UNL     1       1.733  11.765  15.316  1.00  0.00    -0.299 OA
BRANCH  13  15
ATOM     15  C   UNL     1       0.655  13.101  16.940  1.00  0.00     0.106 CG0
ATOM     16  G   UNL     1       1.409  14.420  17.038  1.00  0.00     0.000 G0
ENDBRANCH  13  15
ENDBRANCH  12  13
BRANCH  12  17
ATOM     17  C   UNL     1       1.749   9.538  17.272  1.00  0.00    -0.006 C 
ATOM     18  C   UNL     1       1.151   8.902  18.543  1.00  0.00     0.008 C 
ATOM     19  C   UNL     1       2.925   8.669  16.791  1.00  0.00     0.008 C 
ENDBRANCH  12  17
ENDBRANCH  11  12
ENDBRANCH   1  11
TORSDOF 1
ENDMDL
MODEL 2
REMARK VINA RESULT:    -3.409      3.337      5.248
REMARK INTER + INTRA:          -5.646
REMARK INTER:                  -5.270
REMARK INTRA:                  -0.376
REMARK UNBOUND:                -0.443
REMARK SMILES CC1=CCC[C@H](C)C(=O)C[C@H](C(C)C)C(=O)C1
REMARK SMILES IDX 8 1 9 2 6 3 7 4 5 5 4 6 3 7 2 8 1 9 10 11 11 12 15 13 16 14
REMARK SMILES IDX 17 15 12 17 13 18 14 19
REMARK H PARENT
REMARK Flexibility Score: 70.00
ROOT
ATOM      1  C   UNL     1       1.766  15.822  19.989  1.00  0.00     0.136 C 
ATOM      2  O   UNL     1       2.419  16.060  18.982  1.00  0.00    -0.299 OA
ENDROOT
BRANCH   1   3
ATOM      3  C   UNL     1       1.857  16.751  21.189  1.00  0.00     0.053 C 
ATOM      4  C   UNL     1       0.554  16.721  22.001  1.00  0.00     0.016 C 
BRANCH   3   5
ATOM      5  C   UNL     1       3.069  16.381  22.078  1.00  0.00     0.015 C 
BRANCH   5   6
ATOM      6  C   UNL     1       2.654  15.620  23.355  1.00  0.00     0.028 C 
BRANCH   6   7
ATOM      7  C   UNL     1       3.327  14.273  23.436  1.00  0.00    -0.028 C 
ATOM      8  C   UNL     1       2.737  13.097  23.116  1.00  0.00    -0.070 CG0
ATOM      9  C   UNL     1       3.535  11.831  23.303  1.00  0.00     0.039 C 
ATOM     10  G   UNL     1       1.314  13.001  22.582  1.00  0.00     0.000 G0
ENDBRANCH   6   7
ENDBRANCH   5   6
ENDBRANCH   3   5
ENDBRANCH   1   3
BRANCH   1  11
ATOM     11  C   UNL     1       0.860  14.612  20.010  1.00  0.00     0.087 C 
BRANCH  11  12
ATOM     12  C   UNL     1       1.614  13.252  19.974  1.00  0.00     0.066 C 
BRANCH  12  13
ATOM     13  C   UNL     1       1.245  12.405  21.183  1.00  0.00     0.140 C 
ATOM     14  O   UNL     1       0.952  11.226  21.032  1.00  0.00    -0.299 OA
BRANCH  13  15
ATOM     15  C   UNL     1       1.297  12.983  22.575  1.00  0.00     0.106 CG0
ATOM     16  G   UNL     1       2.723  13.103  23.096  1.00  0.00     0.000 G0
ENDBRANCH  13  15
ENDBRANCH  12  13
BRANCH  12  17
ATOM     17  C   UNL     1       1.446  12.448  18.639  1.00  0.00    -0.006 C 
ATOM     18  C   UNL     1       2.675  12.635  17.729  1.00  0.00     0.008 C 
ATOM     19  C   UNL     1       0.184  12.853  17.855  1.00  0.00     0.008 C 
ENDBRANCH  12  17
ENDBRANCH  11  12
ENDBRANCH   1  11
TORSDOF 1
ENDMDL
MODEL 3
REMARK VINA RESULT:    -3.342      2.366      5.000
REMARK INTER + INTRA:          -5.543
REMARK INTER:                  -5.289
REMARK INTRA:                  -0.253
REMARK UNBOUND:                -0.443
REMARK SMILES CC1=CCC[C@H](C)C(=O)C[C@H](C(C)C)C(=O)C1
REMARK SMILES IDX 8 1 9 2 6 3 7 4 5 5 4 6 3 7 2 8 1 9 10 11 11 12 15 13 16 14
REMARK SMILES IDX 17 15 12 17 13 18 14 19
REMARK H PARENT
REMARK Flexibility Score: 70.00
ROOT
ATOM      1  C   UNL     1       3.088  11.218  17.410  1.00  0.00     0.136 C 
ATOM      2  O   UNL     1       4.210  10.731  17.414  1.00  0.00    -0.299 OA
ENDROOT
BRANCH   1   3
ATOM      3  C   UNL     1       1.979  10.559  16.605  1.00  0.00     0.053 C 
ATOM      4  C   UNL     1       2.074  10.952  15.123  1.00  0.00     0.016 C 
BRANCH   3   5
ATOM      5  C   UNL     1       2.019   9.021  16.771  1.00  0.00     0.015 C 
BRANCH   5   6
ATOM      6  C   UNL     1       1.740   8.576  18.221  1.00  0.00     0.028 C 
BRANCH   6   7
ATOM      7  C   UNL     1       0.355   8.976  18.663  1.00  0.00    -0.028 C 
ATOM      8  C   UNL     1       0.089   9.876  19.640  1.00  0.00    -0.070 CG0
ATOM      9  C   UNL     1      -1.355  10.126  19.997  1.00  0.00     0.039 C 
ATOM     10  G   UNL     1       1.176  10.637  20.385  1.00  0.00     0.000 G0
ENDBRANCH   6   7
ENDBRANCH   5   6
ENDBRANCH   3   5
ENDBRANCH   1   3
BRANCH   1  11
ATOM     11  C   UNL     1       2.821  12.461  18.226  1.00  0.00     0.087 C 
BRANCH  11  12
ATOM     12  C   UNL     1       1.341  12.618  18.680  1.00  0.00     0.066 C 
BRANCH  12  13
ATOM     13  C   UNL     1       1.165  12.116  20.106  1.00  0.00     0.140 C 
ATOM     14  O   UNL     1       0.964  12.916  21.011  1.00  0.00    -0.299 OA
BRANCH  13  15
ATOM     15  C   UNL     1       1.169  10.640  20.410  1.00  0.00     0.106 CG0
ATOM     16  G   UNL     1       0.097   9.888  19.634  1.00  0.00     0.000 G0
ENDBRANCH  13  15
ENDBRANCH  12  13
BRANCH  12  17
ATOM     17  C   UNL     1       0.753  14.060  18.504  1.00  0.00    -0.006 C 
ATOM     18  C   UNL     1      -0.470  14.041  17.568  1.00  0.00     0.008 C 
ATOM     19  C   UNL     1       1.785  15.060  17.951  1.00  0.00     0.008 C 
ENDBRANCH  12  17
ENDBRANCH  11  12
ENDBRANCH   1  11
TORSDOF 1
ENDMDL
MODEL 4
REMARK VINA RESULT:    -3.234      2.014      3.756
REMARK INTER + INTRA:          -5.379
REMARK INTER:                  -5.050
REMARK INTRA:                  -0.329
REMARK UNBOUND:                -0.443
REMARK SMILES CC1=CCC[C@H](C)C(=O)C[C@H](C(C)C)C(=O)C1
REMARK SMILES IDX 8 1 9 2 6 3 7 4 5 5 4 6 3 7 2 8 1 9 10 11 11 12 15 13 16 14
REMARK SMILES IDX 17 15 12 17 13 18 14 19
REMARK H PARENT
REMARK Flexibility Score: 70.00
ROOT
ATOM      1  C   UNL     1       3.270  11.332  16.947  1.00  0.00     0.136 C 
ATOM      2  O   UNL     1       4.238  10.724  17.382  1.00  0.00    -0.299 OA
ENDROOT
BRANCH   1   3
ATOM      3  C   UNL     1       1.886  10.706  17.023  1.00  0.00     0.053 C 
ATOM      4  C   UNL     1       1.760   9.541  16.029  1.00  0.00     0.016 C 
BRANCH   3   5
ATOM      5  C   UNL     1       1.573  10.236  18.464  1.00  0.00     0.015 C 
BRANCH   5   6
ATOM      6  C   UNL     1       1.136  11.398  19.381  1.00  0.00     0.028 C 
BRANCH   6   7
ATOM      7  C   UNL     1      -0.012  12.170  18.782  1.00  0.00    -0.028 C 
ATOM      8  C   UNL     1       0.069  13.446  18.335  1.00  0.00    -0.070 CG0
ATOM      9  C   UNL     1      -1.188  14.093  17.810  1.00  0.00     0.039 C 
ATOM     10  G   UNL     1       1.364  14.247  18.341  1.00  0.00     0.000 G0
ENDBRANCH   6   7
ENDBRANCH   5   6
ENDBRANCH   3   5
ENDBRANCH   1   3
BRANCH   1  11
ATOM     11  C   UNL     1       3.467  12.710  16.359  1.00  0.00     0.087 C 
BRANCH  11  12
ATOM     12  C   UNL     1       2.146  13.422  15.949  1.00  0.00     0.066 C 
BRANCH  12  13
ATOM     13  C   UNL     1       1.828  14.553  16.916  1.00  0.00     0.140 C 
ATOM     14  O   UNL     1       1.911  15.714  16.540  1.00  0.00    -0.299 OA
BRANCH  13  15
ATOM     15  C   UNL     1       1.348  14.260  18.315  1.00  0.00     0.106 CG0
ATOM     16  G   UNL     1       0.061  13.446  18.324  1.00  0.00     0.000 G0
ENDBRANCH  13  15
ENDBRANCH  12  13
BRANCH  12  17
ATOM     17  C   UNL     1       2.103  13.911  14.461  1.00  0.00    -0.006 C 
ATOM     18  C   UNL     1       0.707  13.681  13.850  1.00  0.00     0.008 C 
ATOM     19  C   UNL     1       3.151  13.215  13.575  1.00  0.00     0.008 C 
ENDBRANCH  12  17
ENDBRANCH  11  12
ENDBRANCH   1  11
TORSDOF 1
ENDMDL
MODEL 5
REMARK VINA RESULT:    -3.214      3.072      5.500
REMARK INTER + INTRA:          -5.348
REMARK INTER:                  -4.960
REMARK INTRA:                  -0.387
REMARK UNBOUND:                -0.443
REMARK SMILES CC1=CCC[C@H](C)C(=O)C[C@H](C(C)C)C(=O)C1
REMARK SMILES IDX 8 1 9 2 6 3 7 4 5 5 4 6 3 7 2 8 1 9 10 11 11 12 15 13 16 14
REMARK SMILES IDX 17 15 12 17 13 18 14 19
REMARK H PARENT
REMARK Flexibility Score: 70.00
ROOT
ATOM      1  C   UNL     1       2.374  15.365  21.051  1.00  0.00     0.136 C 
ATOM      2  O   UNL     1       2.875  16.375  20.576  1.00  0.00    -0.299 OA
ENDROOT
BRANCH   1   3
ATOM      3  C   UNL     1       0.874  15.305  21.293  1.00  0.00     0.053 C 
ATOM      4  C   UNL     1       0.342  16.670  21.756  1.00  0.00     0.016 C 
BRANCH   3   5
ATOM      5  C   UNL     1       0.131  14.826  20.023  1.00  0.00     0.015 C 
BRANCH   5   6
ATOM      6  C   UNL     1      -0.376  13.374  20.148  1.00  0.00     0.028 C 
BRANCH   6   7
ATOM      7  C   UNL     1       0.456  12.428  19.321  1.00  0.00    -0.028 C 
ATOM      8  C   UNL     1       1.268  11.471  19.829  1.00  0.00    -0.070 CG0
ATOM      9  C   UNL     1       2.074  10.639  18.863  1.00  0.00     0.039 C 
ATOM     10  G   UNL     1       1.401  11.204  21.322  1.00  0.00     0.000 G0
ENDBRANCH   6   7
ENDBRANCH   5   6
ENDBRANCH   3   5
ENDBRANCH   1   3
BRANCH   1  11
ATOM     11  C   UNL     1       3.260  14.182  21.370  1.00  0.00     0.087 C 
BRANCH  11  12
ATOM     12  C   UNL     1       2.675  13.222  22.446  1.00  0.00     0.066 C 
BRANCH  12  13
ATOM     13  C   UNL     1       2.657  11.791  21.929  1.00  0.00     0.140 C 
ATOM     14  O   UNL     1       3.657  11.094  22.038  1.00  0.00    -0.299 OA
BRANCH  13  15
ATOM     15  C   UNL     1       1.401  11.198  21.343  1.00  0.00     0.106 CG0
ATOM     16  G   UNL     1       1.281  11.464  19.849  1.00  0.00     0.000 G0
ENDBRANCH  13  15
ENDBRANCH  12  13
BRANCH  12  17
ATOM     17  C   UNL     1       3.366  13.316  23.849  1.00  0.00    -0.006 C 
ATOM     18  C   UNL     1       2.506  12.631  24.929  1.00  0.00     0.008 C 
ATOM     19  C   UNL     1       3.640  14.767  24.283  1.00  0.00     0.008 C 
ENDBRANCH  12  17
ENDBRANCH  11  12
ENDBRANCH   1  11
TORSDOF 1
ENDMDL
MODEL 6
REMARK VINA RESULT:    -3.204      2.917      5.776
REMARK INTER + INTRA:          -5.333
REMARK INTER:                  -5.232
REMARK INTRA:                  -0.101
REMARK UNBOUND:                -0.443
REMARK SMILES CC1=CCC[C@H](C)C(=O)C[C@H](C(C)C)C(=O)C1
REMARK SMILES IDX 8 1 9 2 6 3 7 4 5 5 4 6 3 7 2 8 1 9 10 11 11 12 15 13 16 14
REMARK SMILES IDX 17 15 12 17 13 18 14 19
REMARK H PARENT
REMARK Flexibility Score: 70.00
ROOT
ATOM      1  C   UNL     1       1.670  16.205  18.822  1.00  0.00     0.136 C 
ATOM      2  O   UNL     1       2.178  17.064  18.114  1.00  0.00    -0.299 OA
ENDROOT
BRANCH   1   3
ATOM      3  C   UNL     1       0.246  15.745  18.552  1.00  0.00     0.053 C 
ATOM      4  C   UNL     1      -0.509  16.778  17.702  1.00  0.00     0.016 C 
BRANCH   3   5
ATOM      5  C   UNL     1       0.237  14.357  17.867  1.00  0.00     0.015 C 
BRANCH   5   6
ATOM      6  C   UNL     1      -0.488  13.287  18.711  1.00  0.00     0.028 C 
BRANCH   6   7
ATOM      7  C   UNL     1       0.306  12.009  18.780  1.00  0.00    -0.028 C 
ATOM      8  C   UNL     1       0.995  11.588  19.868  1.00  0.00    -0.070 CG0
ATOM      9  C   UNL     1       1.783  10.307  19.754  1.00  0.00     0.039 C 
ATOM     10  G   UNL     1       1.007  12.348  21.187  1.00  0.00     0.000 G0
ENDBRANCH   6   7
ENDBRANCH   5   6
ENDBRANCH   3   5
ENDBRANCH   1   3
BRANCH   1  11
ATOM     11  C   UNL     1       2.481  15.600  19.944  1.00  0.00     0.087 C 
BRANCH  11  12
ATOM     12  C   UNL     1       1.627  14.907  21.045  1.00  0.00     0.066 C 
BRANCH  12  13
ATOM     13  C   UNL     1       2.052  13.456  21.214  1.00  0.00     0.140 C 
ATOM     14  O   UNL     1       3.228  13.187  21.418  1.00  0.00    -0.299 OA
BRANCH  13  15
ATOM     15  C   UNL     1       1.031  12.346  21.199  1.00  0.00     0.106 CG0
ATOM     16  G   UNL     1       0.993  11.617  19.863  1.00  0.00     0.000 G0
ENDBRANCH  13  15
ENDBRANCH  12  13
BRANCH  12  17
ATOM     17  C   UNL     1       1.598  15.659  22.419  1.00  0.00    -0.006 C 
ATOM     18  C   UNL     1       0.607  16.838  22.377  1.00  0.00     0.008 C 
ATOM     19  C   UNL     1       2.982  16.190  22.836  1.00  0.00     0.008 C 
ENDBRANCH  12  17
ENDBRANCH  11  12
ENDBRANCH   1  11
TORSDOF 1
ENDMDL
MODEL 7
REMARK VINA RESULT:    -3.200      1.975      3.933
REMARK INTER + INTRA:          -5.327
REMARK INTER:                  -4.961
REMARK INTRA:                  -0.366
REMARK UNBOUND:                -0.443
REMARK SMILES CC1=CCC[C@H](C)C(=O)C[C@H](C(C)C)C(=O)C1
REMARK SMILES IDX 8 1 9 2 6 3 7 4 5 5 4 6 3 7 2 8 1 9 10 11 11 12 15 13 16 14
REMARK SMILES IDX 17 15 12 17 13 18 14 19
REMARK H PARENT
REMARK Flexibility Score: 70.00
ROOT
ATOM      1  C   UNL     1       1.174  10.327  17.958  1.00  0.00     0.136 C 
ATOM      2  O   UNL     1       0.639   9.294  18.336  1.00  0.00    -0.299 OA
ENDROOT
BRANCH   1   3
ATOM      3  C   UNL     1       2.276  10.272  16.913  1.00  0.00     0.053 C 
ATOM      4  C   UNL     1       2.907   8.872  16.859  1.00  0.00     0.016 C 
BRANCH   3   5
ATOM      5  C   UNL     1       1.737  10.687  15.523  1.00  0.00     0.015 C 
BRANCH   5   6
ATOM      6  C   UNL     1       2.313  12.036  15.045  1.00  0.00     0.028 C 
BRANCH   6   7
ATOM      7  C   UNL     1       1.218  13.028  14.747  1.00  0.00    -0.028 C 
ATOM      8  C   UNL     1       0.969  14.142  15.477  1.00  0.00    -0.070 CG0
ATOM      9  C   UNL     1      -0.201  15.005  15.074  1.00  0.00     0.039 C 
ATOM     10  G   UNL     1       1.813  14.554  16.676  1.00  0.00     0.000 G0
ENDBRANCH   6   7
ENDBRANCH   5   6
ENDBRANCH   3   5
ENDBRANCH   1   3
BRANCH   1  11
ATOM     11  C   UNL     1       0.711  11.648  18.529  1.00  0.00     0.087 C 
BRANCH  11  12
ATOM     12  C   UNL     1       1.815  12.744  18.574  1.00  0.00     0.066 C 
BRANCH  12  13
ATOM     13  C   UNL     1       1.294  14.049  17.990  1.00  0.00     0.140 C 
ATOM     14  O   UNL     1       0.482  14.714  18.619  1.00  0.00    -0.299 OA
BRANCH  13  15
ATOM     15  C   UNL     1       1.815  14.567  16.673  1.00  0.00     0.106 CG0
ATOM     16  G   UNL     1       0.947  14.134  15.499  1.00  0.00     0.000 G0
ENDBRANCH  13  15
ENDBRANCH  12  13
BRANCH  12  17
ATOM     17  C   UNL     1       2.459  12.965  19.985  1.00  0.00    -0.006 C 
ATOM     18  C   UNL     1       3.861  12.330  20.051  1.00  0.00     0.008 C 
ATOM     19  C   UNL     1       1.601  12.389  21.127  1.00  0.00     0.008 C 
ENDBRANCH  12  17
ENDBRANCH  11  12
ENDBRANCH   1  11
TORSDOF 1
ENDMDL
MODEL 8
REMARK VINA RESULT:    -3.063      2.621      4.263
REMARK INTER + INTRA:          -5.118
REMARK INTER:                  -4.787
REMARK INTRA:                  -0.331
REMARK UNBOUND:                -0.443
REMARK SMILES CC1=CCC[C@H](C)C(=O)C[C@H](C(C)C)C(=O)C1
REMARK SMILES IDX 8 1 9 2 6 3 7 4 5 5 4 6 3 7 2 8 1 9 10 11 11 12 15 13 16 14
REMARK SMILES IDX 17 15 12 17 13 18 14 19
REMARK H PARENT
REMARK Flexibility Score: 70.00
ROOT
ATOM      1  C   UNL     1       1.505   9.001  18.289  1.00  0.00     0.136 C 
ATOM      2  O   UNL     1       1.614   7.956  18.916  1.00  0.00    -0.299 OA
ENDROOT
BRANCH   1   3
ATOM      3  C   UNL     1       2.384   9.250  17.073  1.00  0.00     0.053 C 
ATOM      4  C   UNL     1       1.633  10.078  16.019  1.00  0.00     0.016 C 
BRANCH   3   5
ATOM      5  C   UNL     1       3.704   9.946  17.482  1.00  0.00     0.015 C 
BRANCH   5   6
ATOM      6  C   UNL     1       3.682  11.464  17.206  1.00  0.00     0.028 C 
BRANCH   6   7
ATOM      7  C   UNL     1       4.000  12.254  18.450  1.00  0.00    -0.028 C 
ATOM      8  C   UNL     1       3.083  12.908  19.202  1.00  0.00    -0.070 CG0
ATOM      9  C   UNL     1       3.574  13.697  20.390  1.00  0.00     0.039 C 
ATOM     10  G   UNL     1       1.590  12.879  18.901  1.00  0.00     0.000 G0
ENDBRANCH   6   7
ENDBRANCH   5   6
ENDBRANCH   3   5
ENDBRANCH   1   3
BRANCH   1  11
ATOM     11  C   UNL     1       0.480  10.021  18.727  1.00  0.00     0.087 C 
BRANCH  11  12
ATOM     12  C   UNL     1       0.787  10.682  20.102  1.00  0.00     0.066 C 
BRANCH  12  13
ATOM     13  C   UNL     1       0.786  12.198  19.976  1.00  0.00     0.140 C 
ATOM     14  O   UNL     1       0.168  12.874  20.788  1.00  0.00    -0.299 OA
BRANCH  13  15
ATOM     15  C   UNL     1       1.590  12.884  18.901  1.00  0.00     0.106 CG0
ATOM     16  G   UNL     1       3.077  12.914  19.224  1.00  0.00     0.000 G0
ENDBRANCH  13  15
ENDBRANCH  12  13
BRANCH  12  17
ATOM     17  C   UNL     1      -0.133  10.204  21.276  1.00  0.00    -0.006 C 
ATOM     18  C   UNL     1       0.568   9.117  22.114  1.00  0.00     0.008 C 
ATOM     19  C   UNL     1      -1.486   9.655  20.787  1.00  0.00     0.008 C 
ENDBRANCH  12  17
ENDBRANCH  11  12
ENDBRANCH   1  11
TORSDOF 1
ENDMDL
MODEL 9
REMARK VINA RESULT:    -3.034      2.429      5.033
REMARK INTER + INTRA:          -5.073
REMARK INTER:                  -4.927
REMARK INTRA:                  -0.145
REMARK UNBOUND:                -0.443
REMARK SMILES CC1=CCC[C@H](C)C(=O)C[C@H](C(C)C)C(=O)C1
REMARK SMILES IDX 8 1 9 2 6 3 7 4 5 5 4 6 3 7 2 8 1 9 10 11 11 12 15 13 16 14
REMARK SMILES IDX 17 15 12 17 13 18 14 19
REMARK H PARENT
REMARK Flexibility Score: 70.00
ROOT
ATOM      1  C   UNL     1       0.904   9.674  21.514  1.00  0.00     0.136 C 
ATOM      2  O   UNL     1       1.752   9.151  22.224  1.00  0.00    -0.299 OA
ENDROOT
BRANCH   1   3
ATOM      3  C   UNL     1      -0.089   8.807  20.756  1.00  0.00     0.053 C 
ATOM      4  C   UNL     1      -1.210   9.666  20.150  1.00  0.00     0.016 C 
BRANCH   3   5
ATOM      5  C   UNL     1       0.627   7.982  19.660  1.00  0.00     0.015 C 
BRANCH   5   6
ATOM      6  C   UNL     1       0.522   8.635  18.266  1.00  0.00     0.028 C 
BRANCH   6   7
ATOM      7  C   UNL     1       1.857   9.160  17.804  1.00  0.00    -0.028 C 
ATOM      8  C   UNL     1       2.243  10.456  17.880  1.00  0.00    -0.070 CG0
ATOM      9  C   UNL     1       3.595  10.826  17.323  1.00  0.00     0.039 C 
ATOM     10  G   UNL     1       1.376  11.545  18.497  1.00  0.00     0.000 G0
ENDBRANCH   6   7
ENDBRANCH   5   6
ENDBRANCH   3   5
ENDBRANCH   1   3
BRANCH   1  11
ATOM     11  C   UNL     1       0.848  11.181  21.421  1.00  0.00     0.087 C 
BRANCH  11  12
ATOM     12  C   UNL     1       2.189  11.842  20.989  1.00  0.00     0.066 C 
BRANCH  12  13
ATOM     13  C   UNL     1       2.099  12.341  19.554  1.00  0.00     0.140 C 
ATOM     14  O   UNL     1       2.673  13.374  19.234  1.00  0.00    -0.299 OA
BRANCH  13  15
ATOM     15  C   UNL     1       1.366  11.545  18.505  1.00  0.00     0.106 CG0
ATOM     16  G   UNL     1       2.242  10.466  17.883  1.00  0.00     0.000 G0
ENDBRANCH  13  15
ENDBRANCH  12  13
BRANCH  12  17
ATOM     17  C   UNL     1       2.705  12.963  21.954  1.00  0.00    -0.006 C 
ATOM     18  C   UNL     1       3.814  12.422  22.878  1.00  0.00     0.008 C 
ATOM     19  C   UNL     1       1.585  13.561  22.824  1.00  0.00     0.008 C 
ENDBRANCH  12  17
ENDBRANCH  11  12
ENDBRANCH   1  11
TORSDOF 1
ENDMDL
