MODEL 1
REMARK VINA RESULT:    -4.972      0.000      0.000
REMARK INTER + INTRA:          -8.345
REMARK INTER:                  -7.588
REMARK INTRA:                  -0.756
REMARK UNBOUND:                -0.756
REMARK SMILES O=C([O-])CCCCCCCCC(=O)[O-]
REMARK SMILES IDX 7 1 6 2 5 3 4 4 2 5 1 6 3 7 8 8 9 9 10 10 11 11 12 12 13 13
REMARK SMILES IDX 14 14
REMARK H PARENT
REMARK Flexibility Score: inf
ROOT
ATOM      1  C   UNL     1       3.904   2.423  14.306  1.00  0.00     0.000 C 
ENDROOT
BRANCH   1   2
ATOM      2  C   UNL     1       4.495   1.155  13.668  1.00  0.00     0.000 C 
BRANCH   2   3
ATOM      3  C   UNL     1       3.429   0.082  13.379  1.00  0.00     0.006 C 
BRANCH   3   4
ATOM      4  C   UNL     1       2.908  -0.575  14.664  1.00  0.00     0.053 C 
BRANCH   4   5
ATOM      5  C   UNL     1       1.528  -0.103  15.006  1.00  0.00     0.041 C 
ATOM      6  O   UNL     1       0.553  -0.404  14.267  1.00  0.00    -0.550 OA
ATOM      7  O   UNL     1       1.323   0.696  16.123  1.00  0.00    -0.550 OA
ENDBRANCH   4   5
ENDBRANCH   3   4
ENDBRANCH   2   3
ENDBRANCH   1   2
BRANCH   1   8
ATOM      8  C   UNL     1       4.665   2.858  15.569  1.00  0.00     0.000 C 
BRANCH   8   9
ATOM      9  C   UNL     1       4.517   1.853  16.723  1.00  0.00     0.000 C 
BRANCH   9  10
ATOM     10  C   UNL     1       5.812   1.075  17.001  1.00  0.00     0.006 C 
BRANCH  10  11
ATOM     11  C   UNL     1       5.512  -0.396  17.307  1.00  0.00     0.053 C 
BRANCH  11  12
ATOM     12  C   UNL     1       5.645  -0.665  18.773  1.00  0.00     0.041 C 
ATOM     13  O   UNL     1       6.509  -1.478  19.192  1.00  0.00    -0.550 OA
ATOM     14  O   UNL     1       4.781  -0.053  19.673  1.00  0.00    -0.550 OA
ENDBRANCH  11  12
ENDBRANCH  10  11
ENDBRANCH   9  10
ENDBRANCH   8   9
ENDBRANCH   1   8
TORSDOF 9
ENDMDL
MODEL 2
REMARK VINA RESULT:    -4.957      1.074      4.971
REMARK INTER + INTRA:          -8.322
REMARK INTER:                  -7.420
REMARK INTRA:                  -0.902
REMARK UNBOUND:                -0.756
REMARK SMILES O=C([O-])CCCCCCCCC(=O)[O-]
REMARK SMILES IDX 7 1 6 2 5 3 4 4 2 5 1 6 3 7 8 8 9 9 10 10 11 11 12 12 13 13
REMARK SMILES IDX 14 14
REMARK H PARENT
REMARK Flexibility Score: inf
ROOT
ATOM      1  C   UNL     1       6.240  -0.090  14.811  1.00  0.00     0.000 C 
ENDROOT
BRANCH   1   2
ATOM      2  C   UNL     1       5.856   1.182  15.585  1.00  0.00     0.000 C 
BRANCH   2   3
ATOM      3  C   UNL     1       5.124   0.876  16.905  1.00  0.00     0.006 C 
BRANCH   3   4
ATOM      4  C   UNL     1       5.447  -0.528  17.433  1.00  0.00     0.053 C 
BRANCH   4   5
ATOM      5  C   UNL     1       5.556  -0.546  18.927  1.00  0.00     0.041 C 
ATOM      6  O   UNL     1       4.694   0.042  19.632  1.00  0.00    -0.550 OA
ATOM      7  O   UNL     1       6.627  -1.184  19.539  1.00  0.00    -0.550 OA
ENDBRANCH   4   5
ENDBRANCH   3   4
ENDBRANCH   2   3
ENDBRANCH   1   2
BRANCH   1   8
ATOM      8  C   UNL     1       5.555  -0.174  13.436  1.00  0.00     0.000 C 
BRANCH   8   9
ATOM      9  C   UNL     1       4.028  -0.027  13.527  1.00  0.00     0.000 C 
BRANCH   9  10
ATOM     10  C   UNL     1       3.324  -1.349  13.865  1.00  0.00     0.006 C 
BRANCH  10  11
ATOM     11  C   UNL     1       2.635  -1.270  15.231  1.00  0.00     0.053 C 
BRANCH  11  12
ATOM     12  C   UNL     1       1.536  -0.255  15.207  1.00  0.00     0.041 C 
ATOM     13  O   UNL     1       0.583  -0.372  14.393  1.00  0.00    -0.550 OA
ATOM     14  O   UNL     1       1.591   0.849  16.050  1.00  0.00    -0.550 OA
ENDBRANCH  11  12
ENDBRANCH  10  11
ENDBRANCH   9  10
ENDBRANCH   8   9
ENDBRANCH   1   8
TORSDOF 9
ENDMDL
MODEL 3
REMARK VINA RESULT:    -4.950      1.063      1.442
REMARK INTER + INTRA:          -8.310
REMARK INTER:                  -7.404
REMARK INTRA:                  -0.906
REMARK UNBOUND:                -0.756
REMARK SMILES O=C([O-])CCCCCCCCC(=O)[O-]
REMARK SMILES IDX 7 1 6 2 5 3 4 4 2 5 1 6 3 7 8 8 9 9 10 10 11 11 12 12 13 13
REMARK SMILES IDX 14 14
REMARK H PARENT
REMARK Flexibility Score: inf
ROOT
ATOM      1  C   UNL     1       5.297  -0.098  13.289  1.00  0.00     0.000 C 
ENDROOT
BRANCH   1   2
ATOM      2  C   UNL     1       3.810   0.161  13.581  1.00  0.00     0.000 C 
BRANCH   2   3
ATOM      3  C   UNL     1       3.048  -1.121  13.964  1.00  0.00     0.006 C 
BRANCH   3   4
ATOM      4  C   UNL     1       2.411  -1.020  15.355  1.00  0.00     0.053 C 
BRANCH   4   5
ATOM      5  C   UNL     1       1.620   0.242  15.512  1.00  0.00     0.041 C 
ATOM      6  O   UNL     1       0.585   0.432  14.821  1.00  0.00    -0.550 OA
ATOM      7  O   UNL     1       2.046   1.224  16.397  1.00  0.00    -0.550 OA
ENDBRANCH   4   5
ENDBRANCH   3   4
ENDBRANCH   2   3
ENDBRANCH   1   2
BRANCH   1   8
ATOM      8  C   UNL     1       6.207   0.302  14.462  1.00  0.00     0.000 C 
BRANCH   8   9
ATOM      9  C   UNL     1       5.524   1.280  15.432  1.00  0.00     0.000 C 
BRANCH   9  10
ATOM     10  C   UNL     1       5.864   0.991  16.902  1.00  0.00     0.006 C 
BRANCH  10  11
ATOM     11  C   UNL     1       5.493  -0.447  17.278  1.00  0.00     0.053 C 
BRANCH  11  12
ATOM     12  C   UNL     1       5.603  -0.648  18.757  1.00  0.00     0.041 C 
ATOM     13  O   UNL     1       6.469  -1.430  19.227  1.00  0.00    -0.550 OA
ATOM     14  O   UNL     1       4.716  -0.007  19.613  1.00  0.00    -0.550 OA
ENDBRANCH  11  12
ENDBRANCH  10  11
ENDBRANCH   9  10
ENDBRANCH   8   9
ENDBRANCH   1   8
TORSDOF 9
ENDMDL
MODEL 4
REMARK VINA RESULT:    -4.945      1.211      4.780
REMARK INTER + INTRA:          -8.303
REMARK INTER:                  -7.561
REMARK INTRA:                  -0.741
REMARK UNBOUND:                -0.756
REMARK SMILES O=C([O-])CCCCCCCCC(=O)[O-]
REMARK SMILES IDX 7 1 6 2 5 3 4 4 2 5 1 6 3 7 8 8 9 9 10 10 11 11 12 12 13 13
REMARK SMILES IDX 14 14
REMARK H PARENT
REMARK Flexibility Score: inf
ROOT
ATOM      1  C   UNL     1       6.248   0.428  14.781  1.00  0.00     0.000 C 
ENDROOT
BRANCH   1   2
ATOM      2  C   UNL     1       6.135  -1.079  15.058  1.00  0.00     0.000 C 
BRANCH   2   3
ATOM      3  C   UNL     1       5.445  -1.387  16.400  1.00  0.00     0.006 C 
BRANCH   3   4
ATOM      4  C   UNL     1       5.344  -0.145  17.295  1.00  0.00     0.053 C 
BRANCH   4   5
ATOM      5  C   UNL     1       5.468  -0.498  18.746  1.00  0.00     0.041 C 
ATOM      6  O   UNL     1       4.675  -0.002  19.589  1.00  0.00    -0.550 OA
ATOM      7  O   UNL     1       6.480  -1.348  19.171  1.00  0.00    -0.550 OA
ENDBRANCH   4   5
ENDBRANCH   3   4
ENDBRANCH   2   3
ENDBRANCH   1   2
BRANCH   1   8
ATOM      8  C   UNL     1       6.026   0.774  13.298  1.00  0.00     0.000 C 
BRANCH   8   9
ATOM      9  C   UNL     1       4.621   1.333  13.027  1.00  0.00     0.000 C 
BRANCH   9  10
ATOM     10  C   UNL     1       3.758   1.412  14.295  1.00  0.00     0.006 C 
BRANCH  10  11
ATOM     11  C   UNL     1       2.713   0.291  14.317  1.00  0.00     0.053 C 
BRANCH  11  12
ATOM     12  C   UNL     1       1.685   0.554  15.372  1.00  0.00     0.041 C 
ATOM     13  O   UNL     1       0.495   0.179  15.203  1.00  0.00    -0.550 OA
ATOM     14  O   UNL     1       2.030   1.256  16.520  1.00  0.00    -0.550 OA
ENDBRANCH  11  12
ENDBRANCH  10  11
ENDBRANCH   9  10
ENDBRANCH   8   9
ENDBRANCH   1   8
TORSDOF 9
ENDMDL
MODEL 5
REMARK VINA RESULT:    -4.927      0.467      4.769
REMARK INTER + INTRA:          -8.276
REMARK INTER:                  -7.486
REMARK INTRA:                  -0.790
REMARK UNBOUND:                -0.756
REMARK SMILES O=C([O-])CCCCCCCCC(=O)[O-]
REMARK SMILES IDX 7 1 6 2 5 3 4 4 2 5 1 6 3 7 8 8 9 9 10 10 11 11 12 12 13 13
REMARK SMILES IDX 14 14
REMARK H PARENT
REMARK Flexibility Score: inf
ROOT
ATOM      1  C   UNL     1       4.745   2.721  15.397  1.00  0.00     0.000 C 
ENDROOT
BRANCH   1   2
ATOM      2  C   UNL     1       4.673   1.905  16.698  1.00  0.00     0.000 C 
BRANCH   2   3
ATOM      3  C   UNL     1       5.885   0.972  16.881  1.00  0.00     0.006 C 
BRANCH   3   4
ATOM      4  C   UNL     1       5.469  -0.430  17.347  1.00  0.00     0.053 C 
BRANCH   4   5
ATOM      5  C   UNL     1       5.613  -0.586  18.830  1.00  0.00     0.041 C 
ATOM      6  O   UNL     1       6.514  -1.326  19.305  1.00  0.00    -0.550 OA
ATOM      7  O   UNL     1       4.731   0.060  19.686  1.00  0.00    -0.550 OA
ENDBRANCH   4   5
ENDBRANCH   3   4
ENDBRANCH   2   3
ENDBRANCH   1   2
BRANCH   1   8
ATOM      8  C   UNL     1       4.923   1.834  14.153  1.00  0.00     0.000 C 
BRANCH   8   9
ATOM      9  C   UNL     1       3.604   1.193  13.692  1.00  0.00     0.000 C 
BRANCH   9  10
ATOM     10  C   UNL     1       3.630  -0.341  13.770  1.00  0.00     0.006 C 
BRANCH  10  11
ATOM     11  C   UNL     1       2.894  -0.838  15.018  1.00  0.00     0.053 C 
BRANCH  11  12
ATOM     12  C   UNL     1       1.590  -0.122  15.177  1.00  0.00     0.041 C 
ATOM     13  O   UNL     1       0.628  -0.379  14.407  1.00  0.00    -0.550 OA
ATOM     14  O   UNL     1       1.452   0.864  16.146  1.00  0.00    -0.550 OA
ENDBRANCH  11  12
ENDBRANCH  10  11
ENDBRANCH   9  10
ENDBRANCH   8   9
ENDBRANCH   1   8
TORSDOF 9
ENDMDL
MODEL 6
REMARK VINA RESULT:    -4.794      1.234      1.999
REMARK INTER + INTRA:          -8.072
REMARK INTER:                  -7.233
REMARK INTRA:                  -0.839
REMARK UNBOUND:                -0.756
REMARK SMILES O=C([O-])CCCCCCCCC(=O)[O-]
REMARK SMILES IDX 7 1 6 2 5 3 4 4 2 5 1 6 3 7 8 8 9 9 10 10 11 11 12 12 13 13
REMARK SMILES IDX 14 14
REMARK H PARENT
REMARK Flexibility Score: inf
ROOT
ATOM      1  C   UNL     1       5.334   0.940  13.684  1.00  0.00     0.000 C 
ENDROOT
BRANCH   1   2
ATOM      2  C   UNL     1       4.374   1.994  14.259  1.00  0.00     0.000 C 
BRANCH   2   3
ATOM      3  C   UNL     1       3.066   1.379  14.791  1.00  0.00     0.006 C 
BRANCH   3   4
ATOM      4  C   UNL     1       2.664   0.118  14.016  1.00  0.00     0.053 C 
BRANCH   4   5
ATOM      5  C   UNL     1       1.429  -0.511  14.585  1.00  0.00     0.041 C 
ATOM      6  O   UNL     1       1.255  -1.755  14.501  1.00  0.00    -0.550 OA
ATOM      7  O   UNL     1       0.455   0.281  15.178  1.00  0.00    -0.550 OA
ENDBRANCH   4   5
ENDBRANCH   3   4
ENDBRANCH   2   3
ENDBRANCH   1   2
BRANCH   1   8
ATOM      8  C   UNL     1       6.300   0.381  14.742  1.00  0.00     0.000 C 
BRANCH   8   9
ATOM      9  C   UNL     1       6.088  -1.119  15.002  1.00  0.00     0.000 C 
BRANCH   9  10
ATOM     10  C   UNL     1       5.538  -1.406  16.408  1.00  0.00     0.006 C 
BRANCH  10  11
ATOM     11  C   UNL     1       5.574  -0.145  17.277  1.00  0.00     0.053 C 
BRANCH  11  12
ATOM     12  C   UNL     1       5.550  -0.508  18.729  1.00  0.00     0.041 C 
ATOM     13  O   UNL     1       4.724   0.039  19.505  1.00  0.00    -0.550 OA
ATOM     14  O   UNL     1       6.474  -1.414  19.234  1.00  0.00    -0.550 OA
ENDBRANCH  11  12
ENDBRANCH  10  11
ENDBRANCH   9  10
ENDBRANCH   8   9
ENDBRANCH   1   8
TORSDOF 9
ENDMDL
MODEL 7
REMARK VINA RESULT:    -4.752      1.800      2.661
REMARK INTER + INTRA:          -8.009
REMARK INTER:                  -7.246
REMARK INTRA:                  -0.763
REMARK UNBOUND:                -0.756
REMARK SMILES O=C([O-])CCCCCCCCC(=O)[O-]
REMARK SMILES IDX 7 1 6 2 5 3 4 4 2 5 1 6 3 7 8 8 9 9 10 10 11 11 12 12 13 13
REMARK SMILES IDX 14 14
REMARK H PARENT
REMARK Flexibility Score: inf
ROOT
ATOM      1  C   UNL     1       6.311   0.192  14.373  1.00  0.00     0.000 C 
ENDROOT
BRANCH   1   2
ATOM      2  C   UNL     1       5.590   0.767  13.143  1.00  0.00     0.000 C 
BRANCH   2   3
ATOM      3  C   UNL     1       4.326   1.565  13.515  1.00  0.00     0.006 C 
BRANCH   3   4
ATOM      4  C   UNL     1       3.297   0.704  14.258  1.00  0.00     0.053 C 
BRANCH   4   5
ATOM      5  C   UNL     1       2.497   1.514  15.232  1.00  0.00     0.041 C 
ATOM      6  O   UNL     1       2.495   2.771  15.160  1.00  0.00    -0.550 OA
ATOM      7  O   UNL     1       1.781   0.882  16.240  1.00  0.00    -0.550 OA
ENDBRANCH   4   5
ENDBRANCH   3   4
ENDBRANCH   2   3
ENDBRANCH   1   2
BRANCH   1   8
ATOM      8  C   UNL     1       6.593  -1.314  14.241  1.00  0.00     0.000 C 
BRANCH   8   9
ATOM      9  C   UNL     1       6.242  -2.094  15.518  1.00  0.00     0.000 C 
BRANCH   9  10
ATOM     10  C   UNL     1       5.166  -1.396  16.363  1.00  0.00     0.006 C 
BRANCH  10  11
ATOM     11  C   UNL     1       5.618  -1.261  17.821  1.00  0.00     0.053 C 
BRANCH  11  12
ATOM     12  C   UNL     1       5.119   0.023  18.407  1.00  0.00     0.041 C 
ATOM     13  O   UNL     1       4.733   0.065  19.604  1.00  0.00    -0.550 OA
ATOM     14  O   UNL     1       5.035   1.162  17.616  1.00  0.00    -0.550 OA
ENDBRANCH  11  12
ENDBRANCH  10  11
ENDBRANCH   9  10
ENDBRANCH   8   9
ENDBRANCH   1   8
TORSDOF 9
ENDMDL
MODEL 8
REMARK VINA RESULT:    -4.730      2.591      4.039
REMARK INTER + INTRA:          -7.974
REMARK INTER:                  -7.050
REMARK INTRA:                  -0.924
REMARK UNBOUND:                -0.756
REMARK SMILES O=C([O-])CCCCCCCCC(=O)[O-]
REMARK SMILES IDX 7 1 6 2 5 3 4 4 2 5 1 6 3 7 8 8 9 9 10 10 11 11 12 12 13 13
REMARK SMILES IDX 14 14
REMARK H PARENT
REMARK Flexibility Score: inf
ROOT
ATOM      1  C   UNL     1       6.084  -0.948  14.474  1.00  0.00     0.000 C 
ENDROOT
BRANCH   1   2
ATOM      2  C   UNL     1       5.288  -1.433  15.697  1.00  0.00     0.000 C 
BRANCH   2   3
ATOM      3  C   UNL     1       3.997  -0.625  15.924  1.00  0.00     0.006 C 
BRANCH   3   4
ATOM      4  C   UNL     1       2.860  -1.079  15.000  1.00  0.00     0.053 C 
BRANCH   4   5
ATOM      5  C   UNL     1       1.645  -0.215  15.150  1.00  0.00     0.041 C 
ATOM      6  O   UNL     1       0.669  -0.352  14.367  1.00  0.00    -0.550 OA
ATOM      7  O   UNL     1       1.606   0.763  16.135  1.00  0.00    -0.550 OA
ENDBRANCH   4   5
ENDBRANCH   3   4
ENDBRANCH   2   3
ENDBRANCH   1   2
BRANCH   1   8
ATOM      8  C   UNL     1       6.324   0.571  14.492  1.00  0.00     0.000 C 
BRANCH   8   9
ATOM      9  C   UNL     1       5.958   1.241  13.158  1.00  0.00     0.000 C 
BRANCH   9  10
ATOM     10  C   UNL     1       4.491   1.692  13.102  1.00  0.00     0.006 C 
BRANCH  10  11
ATOM     11  C   UNL     1       4.356   3.168  13.491  1.00  0.00     0.053 C 
BRANCH  11  12
ATOM     12  C   UNL     1       3.599   3.305  14.775  1.00  0.00     0.041 C 
ATOM     13  O   UNL     1       2.427   3.763  14.773  1.00  0.00    -0.550 OA
ATOM     14  O   UNL     1       4.208   2.973  15.979  1.00  0.00    -0.550 OA
ENDBRANCH  11  12
ENDBRANCH  10  11
ENDBRANCH   9  10
ENDBRANCH   8   9
ENDBRANCH   1   8
TORSDOF 9
ENDMDL
MODEL 9
REMARK VINA RESULT:    -4.719      2.014      2.893
REMARK INTER + INTRA:          -7.958
REMARK INTER:                  -7.012
REMARK INTRA:                  -0.945
REMARK UNBOUND:                -0.756
REMARK SMILES O=C([O-])CCCCCCCCC(=O)[O-]
REMARK SMILES IDX 7 1 6 2 5 3 4 4 2 5 1 6 3 7 8 8 9 9 10 10 11 11 12 12 13 13
REMARK SMILES IDX 14 14
REMARK H PARENT
REMARK Flexibility Score: inf
ROOT
ATOM      1  C   UNL     1       4.895   1.510  12.875  1.00  0.00     0.000 C 
ENDROOT
BRANCH   1   2
ATOM      2  C   UNL     1       5.509   0.435  13.787  1.00  0.00     0.000 C 
BRANCH   2   3
ATOM      3  C   UNL     1       4.501  -0.664  14.171  1.00  0.00     0.006 C 
BRANCH   3   4
ATOM      4  C   UNL     1       3.098  -0.381  13.618  1.00  0.00     0.053 C 
BRANCH   4   5
ATOM      5  C   UNL     1       2.030  -0.761  14.597  1.00  0.00     0.041 C 
ATOM      6  O   UNL     1       0.832  -0.435  14.385  1.00  0.00    -0.550 OA
ATOM      7  O   UNL     1       2.362  -1.444  15.758  1.00  0.00    -0.550 OA
ENDBRANCH   4   5
ENDBRANCH   3   4
ENDBRANCH   2   3
ENDBRANCH   1   2
BRANCH   1   8
ATOM      8  C   UNL     1       5.127   2.935  13.405  1.00  0.00     0.000 C 
BRANCH   8   9
ATOM      9  C   UNL     1       3.814   3.699  13.638  1.00  0.00     0.000 C 
BRANCH   9  10
ATOM     10  C   UNL     1       3.091   3.259  14.921  1.00  0.00     0.006 C 
BRANCH  10  11
ATOM     11  C   UNL     1       4.095   2.818  15.991  1.00  0.00     0.053 C 
BRANCH  11  12
ATOM     12  C   UNL     1       3.479   1.805  16.903  1.00  0.00     0.041 C 
ATOM     13  O   UNL     1       2.231   1.638  16.915  1.00  0.00    -0.550 OA
ATOM     14  O   UNL     1       4.279   1.079  17.777  1.00  0.00    -0.550 OA
ENDBRANCH  11  12
ENDBRANCH  10  11
ENDBRANCH   9  10
ENDBRANCH   8   9
ENDBRANCH   1   8
TORSDOF 9
ENDMDL
