MODEL 1
REMARK VINA RESULT:    -1.130      0.000      0.000
REMARK INTER + INTRA:          -2.903
REMARK INTER:                  -2.187
REMARK INTRA:                  -0.717
REMARK UNBOUND:                -0.717
REMARK SMILES CCCCCCCCCCCCCCCCCC(=O)[O-]
REMARK SMILES IDX 10 1 11 2 12 3 13 4 14 5 15 6 16 7 17 8 18 9 19 10 20 11
REMARK SMILES IDX 9 12 8 13 7 14 6 15 5 16 4 17 3 18 2 19 1 20
REMARK H PARENT
REMARK Flexibility Score: inf
ROOT
ATOM      1  C   UNL     1     -11.125 -10.906  -5.916  1.00  0.00     0.000 C 
ENDROOT
BRANCH   1   2
ATOM      2  C   UNL     1     -10.642 -11.192  -4.485  1.00  0.00     0.000 C 
BRANCH   2   3
ATOM      3  C   UNL     1     -10.748  -9.959  -3.569  1.00  0.00     0.000 C 
BRANCH   3   4
ATOM      4  C   UNL     1     -10.997 -10.339  -2.100  1.00  0.00     0.000 C 
BRANCH   4   5
ATOM      5  C   UNL     1     -10.487  -9.267  -1.120  1.00  0.00     0.000 C 
BRANCH   5   6
ATOM      6  C   UNL     1      -9.535  -8.263  -1.789  1.00  0.00     0.000 C 
BRANCH   6   7
ATOM      7  C   UNL     1      -8.129  -8.268  -1.163  1.00  0.00     0.006 C 
BRANCH   7   8
ATOM      8  C   UNL     1      -7.027  -8.446  -2.215  1.00  0.00     0.053 C 
BRANCH   8   9
ATOM      9  C   UNL     1      -5.732  -8.876  -1.596  1.00  0.00     0.041 C 
ATOM     10  O   UNL     1      -5.165  -9.933  -1.982  1.00  0.00    -0.550 OA
ATOM     11  O   UNL     1      -5.170  -8.132  -0.565  1.00  0.00    -0.550 OA
ENDBRANCH   8   9
ENDBRANCH   7   8
ENDBRANCH   6   7
ENDBRANCH   5   6
ENDBRANCH   4   5
ENDBRANCH   3   4
ENDBRANCH   2   3
ENDBRANCH   1   2
BRANCH   1  12
ATOM     12  C   UNL     1     -10.418 -11.781  -6.966  1.00  0.00     0.000 C 
BRANCH  12  13
ATOM     13  C   UNL     1     -11.103 -11.728  -8.342  1.00  0.00    -0.000 C 
BRANCH  13  14
ATOM     14  C   UNL     1     -10.117 -11.419  -9.481  1.00  0.00    -0.000 C 
BRANCH  14  15
ATOM     15  C   UNL     1     -10.692 -10.430 -10.507  1.00  0.00    -0.000 C 
BRANCH  15  16
ATOM     16  C   UNL     1     -10.938 -11.077 -11.879  1.00  0.00    -0.000 C 
BRANCH  16  17
ATOM     17  C   UNL     1      -9.644 -11.688 -12.437  1.00  0.00    -0.000 C 
BRANCH  17  18
ATOM     18  C   UNL     1      -8.543 -10.640 -12.664  1.00  0.00    -0.000 C 
BRANCH  18  19
ATOM     19  C   UNL     1      -7.146 -11.266 -12.788  1.00  0.00    -0.003 C 
ATOM     20  C   UNL     1      -6.185 -10.327 -13.510  1.00  0.00     0.004 C 
ENDBRANCH  18  19
ENDBRANCH  17  18
ENDBRANCH  16  17
ENDBRANCH  15  16
ENDBRANCH  14  15
ENDBRANCH  13  14
ENDBRANCH  12  13
ENDBRANCH   1  12
TORSDOF 16
ENDMDL
