MODEL 1
REMARK VINA RESULT:    -7.154      0.000      0.000
REMARK INTER + INTRA:          -8.697
REMARK INTER:                  -8.409
REMARK INTRA:                  -0.289
REMARK UNBOUND:                -0.289
REMARK SMILES O=c1c(O)c(-c2ccc(O)cc2)oc2cc(O)cc(O)c12
REMARK SMILES IDX 5 1 3 2 2 3 1 4 21 5 19 6 18 7 16 8 15 9 14 10 13 11 6 12
REMARK SMILES IDX 7 13 8 14 9 15 12 16 11 17 10 18 4 20 20 22 17 24
REMARK H PARENT 10 19 4 21 20 23 17 25
REMARK Flexibility Score: inf
ROOT
ATOM      1  C   UNL     1      17.984 -10.131  19.300  1.00  0.00     0.180 A 
ATOM      2  C   UNL     1      17.277  -8.955  18.994  1.00  0.00     0.208 A 
ATOM      3  C   UNL     1      17.452  -7.824  19.808  1.00  0.00     0.238 A 
ATOM      4  O   UNL     1      16.776  -6.792  19.562  1.00  0.00    -0.285 OA
ATOM      5  C   UNL     1      18.344  -7.878  20.906  1.00  0.00     0.111 A 
ATOM      6  C   UNL     1      18.629  -6.780  21.773  1.00  0.00     0.134 A 
ATOM      7  C   UNL     1      19.427  -6.984  22.905  1.00  0.00     0.093 A 
ATOM      8  C   UNL     1      20.003  -8.227  23.167  1.00  0.00     0.123 A 
ATOM      9  C   UNL     1      19.780  -9.292  22.293  1.00  0.00     0.094 A 
ATOM     10  C   UNL     1      18.958  -9.129  21.175  1.00  0.00     0.146 A 
ATOM     11  O   UNL     1      18.762 -10.170  20.374  1.00  0.00    -0.452 OA
ENDROOT
BRANCH   1  12
ATOM     12  C   UNL     1      17.870 -11.355  18.474  1.00  0.00     0.021 A 
ATOM     13  C   UNL     1      18.730 -11.533  17.377  1.00  0.00     0.016 A 
ATOM     14  C   UNL     1      18.624 -12.669  16.570  1.00  0.00     0.047 A 
ATOM     15  C   UNL     1      17.646 -13.635  16.841  1.00  0.00     0.115 A 
ATOM     16  C   UNL     1      16.877 -12.320  18.727  1.00  0.00     0.016 A 
ATOM     17  C   UNL     1      16.774 -13.456  17.917  1.00  0.00     0.047 A 
BRANCH  15  18
ATOM     18  O   UNL     1      17.532 -14.772  16.044  1.00  0.00    -0.508 OA
ATOM     19  H   UNL     1      17.768 -15.692  16.397  1.00  0.00     0.293 HD
ENDBRANCH  15  18
ENDBRANCH   1  12
BRANCH   2  20
ATOM     20  O   UNL     1      16.385  -8.930  17.919  1.00  0.00    -0.502 OA
ATOM     21  H   UNL     1      16.542  -8.362  17.095  1.00  0.00     0.293 HD
ENDBRANCH   2  20
BRANCH   6  22
ATOM     22  O   UNL     1      18.179  -5.475  21.553  1.00  0.00    -0.507 OA
ATOM     23  H   UNL     1      18.734  -4.736  21.149  1.00  0.00     0.293 HD
ENDBRANCH   6  22
BRANCH   8  24
ATOM     24  O   UNL     1      20.805  -8.389  24.294  1.00  0.00    -0.508 OA
ATOM     25  H   UNL     1      20.406  -8.572  25.207  1.00  0.00     0.293 HD
ENDBRANCH   8  24
TORSDOF 5
ENDMDL
MODEL 2
REMARK VINA RESULT:    -7.107      1.994      7.310
REMARK INTER + INTRA:          -8.643
REMARK INTER:                  -8.361
REMARK INTRA:                  -0.282
REMARK UNBOUND:                -0.289
REMARK SMILES O=c1c(O)c(-c2ccc(O)cc2)oc2cc(O)cc(O)c12
REMARK SMILES IDX 5 1 3 2 2 3 1 4 21 5 19 6 18 7 16 8 15 9 14 10 13 11 6 12
REMARK SMILES IDX 7 13 8 14 9 15 12 16 11 17 10 18 4 20 20 22 17 24
REMARK H PARENT 10 19 4 21 20 23 17 25
REMARK Flexibility Score: inf
ROOT
ATOM      1  C   UNL     1      18.000 -10.763  17.904  1.00  0.00     0.180 A 
ATOM      2  C   UNL     1      17.254 -11.913  18.212  1.00  0.00     0.208 A 
ATOM      3  C   UNL     1      17.407 -13.058  17.414  1.00  0.00     0.238 A 
ATOM      4  O   UNL     1      16.697 -14.067  17.661  1.00  0.00    -0.285 OA
ATOM      5  C   UNL     1      18.316 -13.044  16.328  1.00  0.00     0.111 A 
ATOM      6  C   UNL     1      18.580 -14.159  15.478  1.00  0.00     0.134 A 
ATOM      7  C   UNL     1      19.400 -13.991  14.355  1.00  0.00     0.093 A 
ATOM      8  C   UNL     1      20.016 -12.770  14.088  1.00  0.00     0.123 A 
ATOM      9  C   UNL     1      19.812 -11.688  14.947  1.00  0.00     0.094 A 
ATOM     10  C   UNL     1      18.970 -11.814  16.054  1.00  0.00     0.146 A 
ATOM     11  O   UNL     1      18.794 -10.759  16.841  1.00  0.00    -0.452 OA
ENDROOT
BRANCH   1  12
ATOM     12  C   UNL     1      17.910  -9.527  18.715  1.00  0.00     0.021 A 
ATOM     13  C   UNL     1      18.808  -9.329  19.778  1.00  0.00     0.016 A 
ATOM     14  C   UNL     1      18.727  -8.181  20.570  1.00  0.00     0.047 A 
ATOM     15  C   UNL     1      17.736  -7.222  20.320  1.00  0.00     0.115 A 
ATOM     16  C   UNL     1      16.906  -8.569  18.483  1.00  0.00     0.016 A 
ATOM     17  C   UNL     1      16.826  -7.421  19.278  1.00  0.00     0.047 A 
BRANCH  15  18
ATOM     18  O   UNL     1      17.645  -6.074  21.103  1.00  0.00    -0.508 OA
ATOM     19  H   UNL     1      18.392  -5.802  21.733  1.00  0.00     0.293 HD
ENDBRANCH  15  18
ENDBRANCH   1  12
BRANCH   2  20
ATOM     20  O   UNL     1      16.346 -11.900  19.275  1.00  0.00    -0.502 OA
ATOM     21  H   UNL     1      16.025 -12.747  19.727  1.00  0.00     0.293 HD
ENDBRANCH   2  20
BRANCH   6  22
ATOM     22  O   UNL     1      18.089 -15.447  15.705  1.00  0.00    -0.507 OA
ATOM     23  H   UNL     1      18.630 -16.211  16.080  1.00  0.00     0.293 HD
ENDBRANCH   6  22
BRANCH   8  24
ATOM     24  O   UNL     1      20.839 -12.644  12.971  1.00  0.00    -0.508 OA
ATOM     25  H   UNL     1      21.830 -12.451  13.061  1.00  0.00     0.293 HD
ENDBRANCH   8  24
TORSDOF 5
ENDMDL
MODEL 3
REMARK VINA RESULT:    -6.583      1.897      6.935
REMARK INTER + INTRA:          -8.027
REMARK INTER:                  -8.132
REMARK INTRA:                   0.105
REMARK UNBOUND:                -0.289
REMARK SMILES O=c1c(O)c(-c2ccc(O)cc2)oc2cc(O)cc(O)c12
REMARK SMILES IDX 5 1 3 2 2 3 1 4 21 5 19 6 18 7 16 8 15 9 14 10 13 11 6 12
REMARK SMILES IDX 7 13 8 14 9 15 12 16 11 17 10 18 4 20 20 22 17 24
REMARK H PARENT 10 19 4 21 20 23 17 25
REMARK Flexibility Score: inf
ROOT
ATOM      1  C   UNL     1      18.993  -9.849  20.610  1.00  0.00     0.180 A 
ATOM      2  C   UNL     1      18.610 -11.191  20.778  1.00  0.00     0.208 A 
ATOM      3  C   UNL     1      18.388 -11.984  19.640  1.00  0.00     0.238 A 
ATOM      4  O   UNL     1      17.993 -13.168  19.797  1.00  0.00    -0.285 OA
ATOM      5  C   UNL     1      18.566 -11.429  18.349  1.00  0.00     0.111 A 
ATOM      6  C   UNL     1      18.407 -12.151  17.129  1.00  0.00     0.134 A 
ATOM      7  C   UNL     1      18.481 -11.468  15.909  1.00  0.00     0.093 A 
ATOM      8  C   UNL     1      18.772 -10.105  15.862  1.00  0.00     0.123 A 
ATOM      9  C   UNL     1      18.988  -9.401  17.048  1.00  0.00     0.094 A 
ATOM     10  C   UNL     1      18.885 -10.048  18.282  1.00  0.00     0.146 A 
ATOM     11  O   UNL     1      19.088  -9.341  19.387  1.00  0.00    -0.452 OA
ENDROOT
BRANCH   1  12
ATOM     12  C   UNL     1      19.269  -8.959  21.761  1.00  0.00     0.021 A 
ATOM     13  C   UNL     1      18.837  -7.623  21.722  1.00  0.00     0.016 A 
ATOM     14  C   UNL     1      19.107  -6.759  22.787  1.00  0.00     0.047 A 
ATOM     15  C   UNL     1      19.827  -7.216  23.898  1.00  0.00     0.115 A 
ATOM     16  C   UNL     1      20.009  -9.405  22.872  1.00  0.00     0.016 A 
ATOM     17  C   UNL     1      20.278  -8.538  23.936  1.00  0.00     0.047 A 
BRANCH  15  18
ATOM     18  O   UNL     1      20.101  -6.365  24.966  1.00  0.00    -0.508 OA
ATOM     19  H   UNL     1      20.311  -5.384  24.821  1.00  0.00     0.293 HD
ENDBRANCH  15  18
ENDBRANCH   1  12
BRANCH   2  20
ATOM     20  O   UNL     1      18.418 -11.713  22.060  1.00  0.00    -0.502 OA
ATOM     21  H   UNL     1      18.946 -12.502  22.411  1.00  0.00     0.293 HD
ENDBRANCH   2  20
BRANCH   6  22
ATOM     22  O   UNL     1      18.205 -13.532  17.060  1.00  0.00    -0.507 OA
ATOM     23  H   UNL     1      17.334 -13.997  17.267  1.00  0.00     0.293 HD
ENDBRANCH   6  22
BRANCH   8  24
ATOM     24  O   UNL     1      18.854  -9.461  14.630  1.00  0.00    -0.508 OA
ATOM     25  H   UNL     1      19.451  -9.808  13.888  1.00  0.00     0.293 HD
ENDBRANCH   8  24
TORSDOF 5
ENDMDL
MODEL 4
REMARK VINA RESULT:    -6.521      1.202      3.144
REMARK INTER + INTRA:          -7.954
REMARK INTER:                  -7.667
REMARK INTRA:                  -0.287
REMARK UNBOUND:                -0.289
REMARK SMILES O=c1c(O)c(-c2ccc(O)cc2)oc2cc(O)cc(O)c12
REMARK SMILES IDX 5 1 3 2 2 3 1 4 21 5 19 6 18 7 16 8 15 9 14 10 13 11 6 12
REMARK SMILES IDX 7 13 8 14 9 15 12 16 11 17 10 18 4 20 20 22 17 24
REMARK H PARENT 10 19 4 21 20 23 17 25
REMARK Flexibility Score: inf
ROOT
ATOM      1  C   UNL     1      18.898 -10.744  19.657  1.00  0.00     0.180 A 
ATOM      2  C   UNL     1      19.858 -11.119  20.614  1.00  0.00     0.208 A 
ATOM      3  C   UNL     1      20.251 -10.185  21.586  1.00  0.00     0.238 A 
ATOM      4  O   UNL     1      21.149 -10.507  22.405  1.00  0.00    -0.285 OA
ATOM      5  C   UNL     1      19.668  -8.894  21.599  1.00  0.00     0.111 A 
ATOM      6  C   UNL     1      19.963  -7.882  22.562  1.00  0.00     0.134 A 
ATOM      7  C   UNL     1      19.425  -6.600  22.401  1.00  0.00     0.093 A 
ATOM      8  C   UNL     1      18.555  -6.309  21.351  1.00  0.00     0.123 A 
ATOM      9  C   UNL     1      18.213  -7.308  20.437  1.00  0.00     0.094 A 
ATOM     10  C   UNL     1      18.762  -8.587  20.551  1.00  0.00     0.146 A 
ATOM     11  O   UNL     1      18.420  -9.506  19.656  1.00  0.00    -0.452 OA
ENDROOT
BRANCH   1  12
ATOM     12  C   UNL     1      18.416 -11.681  18.618  1.00  0.00     0.021 A 
ATOM     13  C   UNL     1      17.303 -12.497  18.883  1.00  0.00     0.016 A 
ATOM     14  C   UNL     1      16.844 -13.405  17.925  1.00  0.00     0.047 A 
ATOM     15  C   UNL     1      17.504 -13.523  16.695  1.00  0.00     0.115 A 
ATOM     16  C   UNL     1      19.085 -11.820  17.387  1.00  0.00     0.016 A 
ATOM     17  C   UNL     1      18.625 -12.731  16.431  1.00  0.00     0.047 A 
BRANCH  15  18
ATOM     18  O   UNL     1      17.057 -14.424  15.732  1.00  0.00    -0.508 OA
ATOM     19  H   UNL     1      16.319 -15.090  15.932  1.00  0.00     0.293 HD
ENDBRANCH  15  18
ENDBRANCH   1  12
BRANCH   2  20
ATOM     20  O   UNL     1      20.436 -12.390  20.570  1.00  0.00    -0.502 OA
ATOM     21  H   UNL     1      20.703 -12.837  19.701  1.00  0.00     0.293 HD
ENDBRANCH   2  20
BRANCH   6  22
ATOM     22  O   UNL     1      20.747  -8.092  23.699  1.00  0.00    -0.507 OA
ATOM     23  H   UNL     1      21.429  -8.829  23.800  1.00  0.00     0.293 HD
ENDBRANCH   6  22
BRANCH   8  24
ATOM     24  O   UNL     1      18.026  -5.026  21.231  1.00  0.00    -0.508 OA
ATOM     25  H   UNL     1      17.032  -4.851  21.326  1.00  0.00     0.293 HD
ENDBRANCH   8  24
TORSDOF 5
ENDMDL
MODEL 5
REMARK VINA RESULT:    -6.471      2.422      7.212
REMARK INTER + INTRA:          -7.895
REMARK INTER:                  -7.610
REMARK INTRA:                  -0.284
REMARK UNBOUND:                -0.289
REMARK SMILES O=c1c(O)c(-c2ccc(O)cc2)oc2cc(O)cc(O)c12
REMARK SMILES IDX 5 1 3 2 2 3 1 4 21 5 19 6 18 7 16 8 15 9 14 10 13 11 6 12
REMARK SMILES IDX 7 13 8 14 9 15 12 16 11 17 10 18 4 20 20 22 17 24
REMARK H PARENT 10 19 4 21 20 23 17 25
REMARK Flexibility Score: inf
ROOT
ATOM      1  C   UNL     1      19.166 -10.175  17.710  1.00  0.00     0.180 A 
ATOM      2  C   UNL     1      20.102  -9.800  16.730  1.00  0.00     0.208 A 
ATOM      3  C   UNL     1      20.415 -10.706  15.705  1.00  0.00     0.238 A 
ATOM      4  O   UNL     1      21.293 -10.386  14.862  1.00  0.00    -0.285 OA
ATOM      5  C   UNL     1      19.777 -11.970  15.662  1.00  0.00     0.111 A 
ATOM      6  C   UNL     1      19.989 -12.951  14.648  1.00  0.00     0.134 A 
ATOM      7  C   UNL     1      19.404 -14.216  14.778  1.00  0.00     0.093 A 
ATOM      8  C   UNL     1      18.565 -14.515  15.850  1.00  0.00     0.123 A 
ATOM      9  C   UNL     1      18.303 -13.543  16.818  1.00  0.00     0.094 A 
ATOM     10  C   UNL     1      18.901 -12.284  16.734  1.00  0.00     0.146 A 
ATOM     11  O   UNL     1      18.635 -11.391  17.680  1.00  0.00    -0.452 OA
ENDROOT
BRANCH   1  12
ATOM     12  C   UNL     1      18.767  -9.264  18.807  1.00  0.00     0.021 A 
ATOM     13  C   UNL     1      17.749  -8.320  18.586  1.00  0.00     0.016 A 
ATOM     14  C   UNL     1      17.372  -7.435  19.600  1.00  0.00     0.047 A 
ATOM     15  C   UNL     1      18.020  -7.471  20.842  1.00  0.00     0.115 A 
ATOM     16  C   UNL     1      19.425  -9.280  20.050  1.00  0.00     0.016 A 
ATOM     17  C   UNL     1      19.047  -8.393  21.062  1.00  0.00     0.047 A 
BRANCH  15  18
ATOM     18  O   UNL     1      17.652  -6.594  21.860  1.00  0.00    -0.508 OA
ATOM     19  H   UNL     1      18.275  -5.860  22.178  1.00  0.00     0.293 HD
ENDBRANCH  15  18
ENDBRANCH   1  12
BRANCH   2  20
ATOM     20  O   UNL     1      20.735  -8.556  16.802  1.00  0.00    -0.502 OA
ATOM     21  H   UNL     1      21.287  -8.182  16.040  1.00  0.00     0.293 HD
ENDBRANCH   2  20
BRANCH   6  22
ATOM     22  O   UNL     1      20.736 -12.725  13.488  1.00  0.00    -0.507 OA
ATOM     23  H   UNL     1      21.738 -12.622  13.460  1.00  0.00     0.293 HD
ENDBRANCH   6  22
BRANCH   8  24
ATOM     24  O   UNL     1      17.986 -15.779  15.939  1.00  0.00    -0.508 OA
ATOM     25  H   UNL     1      18.540 -16.624  15.848  1.00  0.00     0.293 HD
ENDBRANCH   8  24
TORSDOF 5
ENDMDL
MODEL 6
REMARK VINA RESULT:    -6.218      2.580      7.364
REMARK INTER + INTRA:          -7.597
REMARK INTER:                  -7.305
REMARK INTRA:                  -0.292
REMARK UNBOUND:                -0.289
REMARK SMILES O=c1c(O)c(-c2ccc(O)cc2)oc2cc(O)cc(O)c12
REMARK SMILES IDX 5 1 3 2 2 3 1 4 21 5 19 6 18 7 16 8 15 9 14 10 13 11 6 12
REMARK SMILES IDX 7 13 8 14 9 15 12 16 11 17 10 18 4 20 20 22 17 24
REMARK H PARENT 10 19 4 21 20 23 17 25
REMARK Flexibility Score: inf
ROOT
ATOM      1  C   UNL     1      20.336 -11.019  18.430  1.00  0.00     0.180 A 
ATOM      2  C   UNL     1      21.037 -10.501  17.328  1.00  0.00     0.208 A 
ATOM      3  C   UNL     1      20.985 -11.187  16.104  1.00  0.00     0.238 A 
ATOM      4  O   UNL     1      21.659 -10.748  15.136  1.00  0.00    -0.285 OA
ATOM      5  C   UNL     1      20.222 -12.375  15.994  1.00  0.00     0.111 A 
ATOM      6  C   UNL     1      20.067 -13.130  14.793  1.00  0.00     0.134 A 
ATOM      7  C   UNL     1      19.395 -14.358  14.832  1.00  0.00     0.093 A 
ATOM      8  C   UNL     1      18.818 -14.827  16.011  1.00  0.00     0.123 A 
ATOM      9  C   UNL     1      18.912 -14.067  17.179  1.00  0.00     0.094 A 
ATOM     10  C   UNL     1      19.607 -12.856  17.179  1.00  0.00     0.146 A 
ATOM     11  O   UNL     1      19.683 -12.168  18.312  1.00  0.00    -0.452 OA
ENDROOT
BRANCH   1  12
ATOM     12  C   UNL     1      20.323 -10.338  19.745  1.00  0.00     0.021 A 
ATOM     13  C   UNL     1      21.312 -10.647  20.694  1.00  0.00     0.016 A 
ATOM     14  C   UNL     1      21.305 -10.034  21.950  1.00  0.00     0.047 A 
ATOM     15  C   UNL     1      20.300  -9.115  22.279  1.00  0.00     0.115 A 
ATOM     16  C   UNL     1      19.305  -9.430  20.091  1.00  0.00     0.016 A 
ATOM     17  C   UNL     1      19.301  -8.818  21.348  1.00  0.00     0.047 A 
BRANCH  15  18
ATOM     18  O   UNL     1      20.283  -8.497  23.528  1.00  0.00    -0.508 OA
ATOM     19  H   UNL     1      19.481  -7.964  23.844  1.00  0.00     0.293 HD
ENDBRANCH  15  18
ENDBRANCH   1  12
BRANCH   2  20
ATOM     20  O   UNL     1      21.803  -9.339  17.463  1.00  0.00    -0.502 OA
ATOM     21  H   UNL     1      22.443  -9.023  16.746  1.00  0.00     0.293 HD
ENDBRANCH   2  20
BRANCH   6  22
ATOM     22  O   UNL     1      20.525 -12.708  13.541  1.00  0.00    -0.507 OA
ATOM     23  H   UNL     1      20.311 -11.817  13.121  1.00  0.00     0.293 HD
ENDBRANCH   6  22
BRANCH   8  24
ATOM     24  O   UNL     1      18.143 -16.045  16.009  1.00  0.00    -0.508 OA
ATOM     25  H   UNL     1      18.630 -16.921  16.162  1.00  0.00     0.293 HD
ENDBRANCH   8  24
TORSDOF 5
ENDMDL
MODEL 7
REMARK VINA RESULT:    -6.205      1.483      1.839
REMARK INTER + INTRA:          -7.582
REMARK INTER:                  -7.351
REMARK INTRA:                  -0.231
REMARK UNBOUND:                -0.289
REMARK SMILES O=c1c(O)c(-c2ccc(O)cc2)oc2cc(O)cc(O)c12
REMARK SMILES IDX 5 1 3 2 2 3 1 4 21 5 19 6 18 7 16 8 15 9 14 10 13 11 6 12
REMARK SMILES IDX 7 13 8 14 9 15 12 16 11 17 10 18 4 20 20 22 17 24
REMARK H PARENT 10 19 4 21 20 23 17 25
REMARK Flexibility Score: inf
ROOT
ATOM      1  C   UNL     1      19.018  -9.542  19.451  1.00  0.00     0.180 A 
ATOM      2  C   UNL     1      19.205  -8.295  18.830  1.00  0.00     0.208 A 
ATOM      3  C   UNL     1      19.577  -7.192  19.615  1.00  0.00     0.238 A 
ATOM      4  O   UNL     1      19.689  -6.068  19.063  1.00  0.00    -0.285 OA
ATOM      5  C   UNL     1      19.772  -7.353  21.009  1.00  0.00     0.111 A 
ATOM      6  C   UNL     1      20.187  -6.314  21.894  1.00  0.00     0.134 A 
ATOM      7  C   UNL     1      20.221  -6.554  23.272  1.00  0.00     0.093 A 
ATOM      8  C   UNL     1      19.919  -7.812  23.793  1.00  0.00     0.123 A 
ATOM      9  C   UNL     1      19.569  -8.853  22.931  1.00  0.00     0.094 A 
ATOM     10  C   UNL     1      19.491  -8.633  21.553  1.00  0.00     0.146 A 
ATOM     11  O   UNL     1      19.144  -9.646  20.768  1.00  0.00    -0.452 OA
ENDROOT
BRANCH   1  12
ATOM     12  C   UNL     1      18.650 -10.755  18.686  1.00  0.00     0.021 A 
ATOM     13  C   UNL     1      17.365 -11.304  18.834  1.00  0.00     0.016 A 
ATOM     14  C   UNL     1      17.003 -12.462  18.139  1.00  0.00     0.047 A 
ATOM     15  C   UNL     1      17.929 -13.096  17.300  1.00  0.00     0.115 A 
ATOM     16  C   UNL     1      19.579 -11.410  17.857  1.00  0.00     0.016 A 
ATOM     17  C   UNL     1      19.216 -12.568  17.163  1.00  0.00     0.047 A 
BRANCH  15  18
ATOM     18  O   UNL     1      17.580 -14.250  16.602  1.00  0.00    -0.508 OA
ATOM     19  H   UNL     1      16.611 -14.495  16.434  1.00  0.00     0.293 HD
ENDBRANCH  15  18
ENDBRANCH   1  12
BRANCH   2  20
ATOM     20  O   UNL     1      18.986  -8.153  17.457  1.00  0.00    -0.502 OA
ATOM     21  H   UNL     1      19.109  -8.918  16.804  1.00  0.00     0.293 HD
ENDBRANCH   2  20
BRANCH   6  22
ATOM     22  O   UNL     1      20.600  -5.047  21.471  1.00  0.00    -0.507 OA
ATOM     23  H   UNL     1      21.494  -4.844  21.052  1.00  0.00     0.293 HD
ENDBRANCH   6  22
BRANCH   8  24
ATOM     24  O   UNL     1      19.979  -8.020  25.168  1.00  0.00    -0.508 OA
ATOM     25  H   UNL     1      19.157  -7.932  25.755  1.00  0.00     0.293 HD
ENDBRANCH   8  24
TORSDOF 5
ENDMDL
MODEL 8
REMARK VINA RESULT:    -6.164      3.532      6.091
REMARK INTER + INTRA:          -7.534
REMARK INTER:                  -7.597
REMARK INTRA:                   0.063
REMARK UNBOUND:                -0.289
REMARK SMILES O=c1c(O)c(-c2ccc(O)cc2)oc2cc(O)cc(O)c12
REMARK SMILES IDX 5 1 3 2 2 3 1 4 21 5 19 6 18 7 16 8 15 9 14 10 13 11 6 12
REMARK SMILES IDX 7 13 8 14 9 15 12 16 11 17 10 18 4 20 20 22 17 24
REMARK H PARENT 10 19 4 21 20 23 17 25
REMARK Flexibility Score: inf
ROOT
ATOM      1  C   UNL     1      20.083 -13.893  16.778  1.00  0.00     0.180 A 
ATOM      2  C   UNL     1      20.050 -13.556  15.414  1.00  0.00     0.208 A 
ATOM      3  C   UNL     1      19.580 -12.288  15.036  1.00  0.00     0.238 A 
ATOM      4  O   UNL     1      19.502 -12.012  13.811  1.00  0.00    -0.285 OA
ATOM      5  C   UNL     1      19.162 -11.368  16.028  1.00  0.00     0.111 A 
ATOM      6  C   UNL     1      18.705 -10.042  15.763  1.00  0.00     0.134 A 
ATOM      7  C   UNL     1      18.193  -9.266  16.809  1.00  0.00     0.093 A 
ATOM      8  C   UNL     1      18.182  -9.741  18.120  1.00  0.00     0.123 A 
ATOM      9  C   UNL     1      18.682 -11.014  18.401  1.00  0.00     0.094 A 
ATOM     10  C   UNL     1      19.165 -11.825  17.372  1.00  0.00     0.146 A 
ATOM     11  O   UNL     1      19.623 -13.033  17.678  1.00  0.00    -0.452 OA
ENDROOT
BRANCH   1  12
ATOM     12  C   UNL     1      20.589 -15.201  17.254  1.00  0.00     0.021 A 
ATOM     13  C   UNL     1      21.570 -15.239  18.259  1.00  0.00     0.016 A 
ATOM     14  C   UNL     1      22.079 -16.461  18.707  1.00  0.00     0.047 A 
ATOM     15  C   UNL     1      21.625 -17.661  18.143  1.00  0.00     0.115 A 
ATOM     16  C   UNL     1      20.153 -16.409  16.680  1.00  0.00     0.016 A 
ATOM     17  C   UNL     1      20.664 -17.631  17.129  1.00  0.00     0.047 A 
BRANCH  15  18
ATOM     18  O   UNL     1      22.125 -18.885  18.582  1.00  0.00    -0.508 OA
ATOM     19  H   UNL     1      23.048 -19.207  18.315  1.00  0.00     0.293 HD
ENDBRANCH  15  18
ENDBRANCH   1  12
BRANCH   2  20
ATOM     20  O   UNL     1      20.447 -14.487  14.449  1.00  0.00    -0.502 OA
ATOM     21  H   UNL     1      21.343 -14.956  14.482  1.00  0.00     0.293 HD
ENDBRANCH   2  20
BRANCH   6  22
ATOM     22  O   UNL     1      18.757  -9.437  14.504  1.00  0.00    -0.507 OA
ATOM     23  H   UNL     1      17.954  -9.244  13.924  1.00  0.00     0.293 HD
ENDBRANCH   6  22
BRANCH   8  24
ATOM     24  O   UNL     1      17.681  -8.935  19.139  1.00  0.00    -0.508 OA
ATOM     25  H   UNL     1      16.763  -9.093  19.539  1.00  0.00     0.293 HD
ENDBRANCH   8  24
TORSDOF 5
ENDMDL
MODEL 9
REMARK VINA RESULT:    -6.016      2.839      7.242
REMARK INTER + INTRA:          -7.360
REMARK INTER:                  -7.069
REMARK INTRA:                  -0.291
REMARK UNBOUND:                -0.289
REMARK SMILES O=c1c(O)c(-c2ccc(O)cc2)oc2cc(O)cc(O)c12
REMARK SMILES IDX 5 1 3 2 2 3 1 4 21 5 19 6 18 7 16 8 15 9 14 10 13 11 6 12
REMARK SMILES IDX 7 13 8 14 9 15 12 16 11 17 10 18 4 20 20 22 17 24
REMARK H PARENT 10 19 4 21 20 23 17 25
REMARK Flexibility Score: inf
ROOT
ATOM      1  C   UNL     1      19.875  -8.349  21.986  1.00  0.00     0.180 A 
ATOM      2  C   UNL     1      20.789  -9.301  21.503  1.00  0.00     0.208 A 
ATOM      3  C   UNL     1      20.725  -9.681  20.152  1.00  0.00     0.238 A 
ATOM      4  O   UNL     1      21.509 -10.573  19.738  1.00  0.00    -0.285 OA
ATOM      5  C   UNL     1      19.759  -9.093  19.299  1.00  0.00     0.111 A 
ATOM      6  C   UNL     1      19.630  -9.373  17.906  1.00  0.00     0.134 A 
ATOM      7  C   UNL     1      18.556  -8.832  17.190  1.00  0.00     0.093 A 
ATOM      8  C   UNL     1      17.645  -7.970  17.799  1.00  0.00     0.123 A 
ATOM      9  C   UNL     1      17.796  -7.641  19.147  1.00  0.00     0.094 A 
ATOM     10  C   UNL     1      18.837  -8.194  19.897  1.00  0.00     0.146 A 
ATOM     11  O   UNL     1      18.940  -7.865  21.179  1.00  0.00    -0.452 OA
ENDROOT
BRANCH   1  12
ATOM     12  C   UNL     1      19.897  -7.881  23.391  1.00  0.00     0.021 A 
ATOM     13  C   UNL     1      19.142  -8.564  24.360  1.00  0.00     0.016 A 
ATOM     14  C   UNL     1      19.130  -8.126  25.687  1.00  0.00     0.047 A 
ATOM     15  C   UNL     1      19.858  -6.989  26.060  1.00  0.00     0.115 A 
ATOM     16  C   UNL     1      20.610  -6.728  23.770  1.00  0.00     0.016 A 
ATOM     17  C   UNL     1      20.594  -6.292  25.098  1.00  0.00     0.047 A 
BRANCH  15  18
ATOM     18  O   UNL     1      19.854  -6.543  27.380  1.00  0.00    -0.508 OA
ATOM     19  H   UNL     1      19.457  -5.646  27.634  1.00  0.00     0.293 HD
ENDBRANCH  15  18
ENDBRANCH   1  12
BRANCH   2  20
ATOM     20  O   UNL     1      21.720  -9.885  22.365  1.00  0.00    -0.502 OA
ATOM     21  H   UNL     1      22.716  -9.722  22.282  1.00  0.00     0.293 HD
ENDBRANCH   2  20
BRANCH   6  22
ATOM     22  O   UNL     1      20.538 -10.148  17.179  1.00  0.00    -0.507 OA
ATOM     23  H   UNL     1      20.284 -10.904  16.561  1.00  0.00     0.293 HD
ENDBRANCH   6  22
BRANCH   8  24
ATOM     24  O   UNL     1      16.597  -7.437  17.052  1.00  0.00    -0.508 OA
ATOM     25  H   UNL     1      15.672  -7.313  17.447  1.00  0.00     0.293 HD
ENDBRANCH   8  24
TORSDOF 5
ENDMDL
