MODEL 1
REMARK VINA RESULT:    -3.421      0.000      0.000
REMARK INTER + INTRA:          -4.394
REMARK INTER:                  -4.621
REMARK INTRA:                   0.226
REMARK UNBOUND:                 0.226
REMARK SMILES C=C1C(=O)O[C@@H]2[C@@H]1CCC(C)=CCC[C@@]1(C)O[C@@H]21
REMARK SMILES IDX 6 1 7 2 2 3 1 4 3 5 4 6 5 7 8 8 9 9 10 10 11 11 12 12 18 14
REMARK SMILES IDX 15 15 17 16 16 17 14 18 13 19
REMARK H PARENT
REMARK Flexibility Score: 70.00
ROOT
ATOM      1  C   UNL     1      47.657  78.218  28.288  1.00  0.00     0.216 C 
ATOM      2  C   UNL     1      48.952  77.835  27.494  1.00  0.00     0.070 C 
ATOM      3  C   UNL     1      48.415  77.548  26.123  1.00  0.00     0.037 C 
ATOM      4  C   UNL     1      49.054  76.913  25.142  1.00  0.00     0.021 C 
ATOM      5  C   UNL     1      47.100  78.131  26.046  1.00  0.00     0.334 C 
ATOM      6  O   UNL     1      46.389  78.217  25.010  1.00  0.00    -0.247 OA
ATOM      7  O   UNL     1      46.722  78.611  27.280  1.00  0.00    -0.455 OA
ENDROOT
BRANCH   2   8
ATOM      8  C   UNL     1      49.954  79.014  27.375  1.00  0.00     0.017 C 
BRANCH   8   9
ATOM      9  C   UNL     1      50.314  79.738  28.682  1.00  0.00     0.031 C 
BRANCH   9  10
ATOM     10  C   UNL     1      51.187  78.912  29.607  1.00  0.00    -0.077 C 
ATOM     11  C   UNL     1      52.657  78.802  29.291  1.00  0.00     0.039 C 
ATOM     12  C   UNL     1      50.728  78.287  30.715  1.00  0.00    -0.028 CG0
ATOM     13  G   UNL     1      49.279  78.154  31.115  1.00  0.00     0.000 G0
ENDBRANCH   9  10
ENDBRANCH   8   9
ENDBRANCH   2   8
BRANCH   1  14
ATOM     14  C   UNL     1      47.010  77.027  29.046  1.00  0.00     0.192 C 
ATOM     15  C   UNL     1      47.472  76.394  30.327  1.00  0.00     0.096 C 
ATOM     16  O   UNL     1      46.566  77.467  30.323  1.00  0.00    -0.362 OA
ATOM     17  C   UNL     1      46.792  75.072  30.696  1.00  0.00     0.045 C 
BRANCH  15  18
ATOM     18  C   UNL     1      48.844  76.675  30.983  1.00  0.00     0.042 C 
BRANCH  18  19
ATOM     19  C   UNL     1      49.272  78.148  31.125  1.00  0.00     0.030 CG0
ATOM     20  G   UNL     1      50.715  78.302  30.710  1.00  0.00     0.000 G0
ENDBRANCH  18  19
ENDBRANCH  15  18
ENDBRANCH   1  14
TORSDOF 0
ENDMDL
MODEL 2
REMARK VINA RESULT:    -3.091      2.855      5.405
REMARK INTER + INTRA:          -3.949
REMARK INTER:                  -4.318
REMARK INTRA:                   0.370
REMARK UNBOUND:                 0.226
REMARK SMILES C=C1C(=O)O[C@@H]2[C@@H]1CCC(C)=CCC[C@@]1(C)O[C@@H]21
REMARK SMILES IDX 6 1 7 2 2 3 1 4 3 5 4 6 5 7 8 8 9 9 10 10 11 11 12 12 18 14
REMARK SMILES IDX 15 15 17 16 16 17 14 18 13 19
REMARK H PARENT
REMARK Flexibility Score: 70.00
ROOT
ATOM      1  C   UNL     1      50.607  78.380  28.329  1.00  0.00     0.216 C 
ATOM      2  C   UNL     1      50.283  77.322  29.440  1.00  0.00     0.070 C 
ATOM      3  C   UNL     1      51.552  77.296  30.238  1.00  0.00     0.037 C 
ATOM      4  C   UNL     1      51.908  76.368  31.125  1.00  0.00     0.021 C 
ATOM      5  C   UNL     1      52.292  78.487  29.908  1.00  0.00     0.334 C 
ATOM      6  O   UNL     1      53.342  78.886  30.476  1.00  0.00    -0.247 OA
ATOM      7  O   UNL     1      51.673  79.158  28.877  1.00  0.00    -0.455 OA
ENDROOT
BRANCH   2   8
ATOM      8  C   UNL     1      49.137  77.774  30.383  1.00  0.00     0.017 C 
BRANCH   8   9
ATOM      9  C   UNL     1      47.914  78.418  29.711  1.00  0.00     0.031 C 
BRANCH   9  10
ATOM     10  C   UNL     1      47.075  77.433  28.917  1.00  0.00    -0.077 C 
ATOM     11  C   UNL     1      46.183  76.484  29.674  1.00  0.00     0.039 C 
ATOM     12  C   UNL     1      47.064  77.375  27.566  1.00  0.00    -0.028 CG0
ATOM     13  G   UNL     1      47.987  78.130  26.643  1.00  0.00     0.000 G0
ENDBRANCH   9  10
ENDBRANCH   8   9
ENDBRANCH   2   8
BRANCH   1  14
ATOM     14  C   UNL     1      51.147  77.761  27.011  1.00  0.00     0.192 C 
ATOM     15  C   UNL     1      50.355  77.280  25.830  1.00  0.00     0.096 C 
ATOM     16  O   UNL     1      50.809  78.606  25.920  1.00  0.00    -0.362 OA
ATOM     17  C   UNL     1      51.139  76.477  24.788  1.00  0.00     0.045 C 
BRANCH  15  18
ATOM     18  C   UNL     1      48.820  77.093  25.839  1.00  0.00     0.042 C 
BRANCH  18  19
ATOM     19  C   UNL     1      47.987  78.113  26.636  1.00  0.00     0.030 CG0
ATOM     20  G   UNL     1      47.063  77.388  27.584  1.00  0.00     0.000 G0
ENDBRANCH  18  19
ENDBRANCH  15  18
ENDBRANCH   1  14
TORSDOF 0
ENDMDL
MODEL 3
REMARK VINA RESULT:    -2.812      2.908      5.310
REMARK INTER + INTRA:          -3.572
REMARK INTER:                  -3.911
REMARK INTRA:                   0.339
REMARK UNBOUND:                 0.226
REMARK SMILES C=C1C(=O)O[C@@H]2[C@@H]1CCC(C)=CCC[C@@]1(C)O[C@@H]21
REMARK SMILES IDX 6 1 7 2 2 3 1 4 3 5 4 6 5 7 8 8 9 9 10 10 11 11 12 12 18 14
REMARK SMILES IDX 15 15 17 16 16 17 14 18 13 19
REMARK H PARENT
REMARK Flexibility Score: 70.00
ROOT
ATOM      1  C   UNL     1      46.874  76.985  29.656  1.00  0.00     0.216 C 
ATOM      2  C   UNL     1      45.335  77.266  29.553  1.00  0.00     0.070 C 
ATOM      3  C   UNL     1      44.753  75.884  29.591  1.00  0.00     0.037 C 
ATOM      4  C   UNL     1      43.510  75.542  29.257  1.00  0.00     0.021 C 
ATOM      5  C   UNL     1      45.771  75.004  30.104  1.00  0.00     0.334 C 
ATOM      6  O   UNL     1      45.615  73.792  30.410  1.00  0.00    -0.247 OA
ATOM      7  O   UNL     1      46.961  75.683  30.239  1.00  0.00    -0.455 OA
ENDROOT
BRANCH   2   8
ATOM      8  C   UNL     1      44.785  78.048  30.775  1.00  0.00     0.017 C 
BRANCH   8   9
ATOM      9  C   UNL     1      45.395  79.435  31.029  1.00  0.00     0.031 C 
BRANCH   9  10
ATOM     10  C   UNL     1      45.021  80.459  29.974  1.00  0.00    -0.077 C 
ATOM     11  C   UNL     1      43.673  81.125  30.072  1.00  0.00     0.039 C 
ATOM     12  C   UNL     1      45.839  80.828  28.962  1.00  0.00    -0.028 CG0
ATOM     13  G   UNL     1      47.154  80.177  28.608  1.00  0.00     0.000 G0
ENDBRANCH   9  10
ENDBRANCH   8   9
ENDBRANCH   2   8
BRANCH   1  14
ATOM     14  C   UNL     1      47.590  76.899  28.280  1.00  0.00     0.192 C 
ATOM     15  C   UNL     1      47.767  77.993  27.268  1.00  0.00     0.096 C 
ATOM     16  O   UNL     1      48.715  77.767  28.279  1.00  0.00    -0.362 OA
ATOM     17  C   UNL     1      48.280  77.550  25.895  1.00  0.00     0.045 C 
BRANCH  15  18
ATOM     18  C   UNL     1      47.031  79.353  27.327  1.00  0.00     0.042 C 
BRANCH  18  19
ATOM     19  C   UNL     1      47.157  80.169  28.627  1.00  0.00     0.030 CG0
ATOM     20  G   UNL     1      45.835  80.824  28.947  1.00  0.00     0.000 G0
ENDBRANCH  18  19
ENDBRANCH  15  18
ENDBRANCH   1  14
TORSDOF 0
ENDMDL
MODEL 4
REMARK VINA RESULT:    -2.781      3.178      5.515
REMARK INTER + INTRA:          -3.530
REMARK INTER:                  -3.817
REMARK INTRA:                   0.287
REMARK UNBOUND:                 0.226
REMARK SMILES C=C1C(=O)O[C@@H]2[C@@H]1CCC(C)=CCC[C@@]1(C)O[C@@H]21
REMARK SMILES IDX 6 1 7 2 2 3 1 4 3 5 4 6 5 7 8 8 9 9 10 10 11 11 12 12 18 14
REMARK SMILES IDX 15 15 17 16 16 17 14 18 13 19
REMARK H PARENT
REMARK Flexibility Score: 70.00
ROOT
ATOM      1  C   UNL     1      48.348  77.761  27.321  1.00  0.00     0.216 C 
ATOM      2  C   UNL     1      49.508  78.127  26.332  1.00  0.00     0.070 C 
ATOM      3  C   UNL     1      50.650  78.403  27.265  1.00  0.00     0.037 C 
ATOM      4  C   UNL     1      51.788  79.023  26.958  1.00  0.00     0.021 C 
ATOM      5  C   UNL     1      50.310  77.828  28.541  1.00  0.00     0.334 C 
ATOM      6  O   UNL     1      51.076  77.735  29.537  1.00  0.00    -0.247 OA
ATOM      7  O   UNL     1      49.014  77.363  28.522  1.00  0.00    -0.455 OA
ENDROOT
BRANCH   2   8
ATOM      8  C   UNL     1      49.915  76.941  25.419  1.00  0.00     0.017 C 
BRANCH   8   9
ATOM      9  C   UNL     1      48.805  76.342  24.541  1.00  0.00     0.031 C 
BRANCH   9  10
ATOM     10  C   UNL     1      48.348  77.272  23.433  1.00  0.00    -0.077 C 
ATOM     11  C   UNL     1      49.190  77.364  22.186  1.00  0.00     0.039 C 
ATOM     12  C   UNL     1      47.214  78.007  23.488  1.00  0.00    -0.028 CG0
ATOM     13  G   UNL     1      46.324  78.166  24.696  1.00  0.00     0.000 G0
ENDBRANCH   9  10
ENDBRANCH   8   9
ENDBRANCH   2   8
BRANCH   1  14
ATOM     14  C   UNL     1      47.442  78.964  27.699  1.00  0.00     0.192 C 
ATOM     15  C   UNL     1      46.504  79.723  26.806  1.00  0.00     0.096 C 
ATOM     16  O   UNL     1      46.079  78.598  27.532  1.00  0.00    -0.362 OA
ATOM     17  C   UNL     1      45.942  81.024  27.387  1.00  0.00     0.045 C 
BRANCH  15  18
ATOM     18  C   UNL     1      46.473  79.581  25.266  1.00  0.00     0.042 C 
BRANCH  18  19
ATOM     19  C   UNL     1      46.324  78.161  24.689  1.00  0.00     0.030 CG0
ATOM     20  G   UNL     1      47.218  78.004  23.484  1.00  0.00     0.000 G0
ENDBRANCH  18  19
ENDBRANCH  15  18
ENDBRANCH   1  14
TORSDOF 0
ENDMDL
MODEL 5
REMARK VINA RESULT:    -2.750      2.116      4.267
REMARK INTER + INTRA:          -3.489
REMARK INTER:                  -3.736
REMARK INTRA:                   0.247
REMARK UNBOUND:                 0.226
REMARK SMILES C=C1C(=O)O[C@@H]2[C@@H]1CCC(C)=CCC[C@@]1(C)O[C@@H]21
REMARK SMILES IDX 6 1 7 2 2 3 1 4 3 5 4 6 5 7 8 8 9 9 10 10 11 11 12 12 18 14
REMARK SMILES IDX 15 15 17 16 16 17 14 18 13 19
REMARK H PARENT
REMARK Flexibility Score: 70.00
ROOT
ATOM      1  C   UNL     1      48.086  78.847  29.095  1.00  0.00     0.216 C 
ATOM      2  C   UNL     1      47.663  77.428  28.583  1.00  0.00     0.070 C 
ATOM      3  C   UNL     1      46.525  77.082  29.497  1.00  0.00     0.037 C 
ATOM      4  C   UNL     1      45.991  75.874  29.672  1.00  0.00     0.021 C 
ATOM      5  C   UNL     1      46.081  78.307  30.112  1.00  0.00     0.334 C 
ATOM      6  O   UNL     1      45.059  78.443  30.835  1.00  0.00    -0.247 OA
ATOM      7  O   UNL     1      46.931  79.338  29.781  1.00  0.00    -0.455 OA
ENDROOT
BRANCH   2   8
ATOM      8  C   UNL     1      47.116  77.452  27.131  1.00  0.00     0.017 C 
BRANCH   8   9
ATOM      9  C   UNL     1      47.978  78.182  26.089  1.00  0.00     0.031 C 
BRANCH   9  10
ATOM     10  C   UNL     1      49.248  77.434  25.728  1.00  0.00    -0.077 C 
ATOM     11  C   UNL     1      49.142  76.266  24.781  1.00  0.00     0.039 C 
ATOM     12  C   UNL     1      50.475  77.769  26.187  1.00  0.00    -0.028 CG0
ATOM     13  G   UNL     1      50.766  78.801  27.249  1.00  0.00     0.000 G0
ENDBRANCH   9  10
ENDBRANCH   8   9
ENDBRANCH   2   8
BRANCH   1  14
ATOM     14  C   UNL     1      49.237  78.821  30.136  1.00  0.00     0.192 C 
ATOM     15  C   UNL     1      50.701  78.605  29.882  1.00  0.00     0.096 C 
ATOM     16  O   UNL     1      50.136  79.890  29.872  1.00  0.00    -0.362 OA
ATOM     17  C   UNL     1      51.563  78.368  31.125  1.00  0.00     0.045 C 
BRANCH  15  18
ATOM     18  C   UNL     1      51.279  78.114  28.533  1.00  0.00     0.042 C 
BRANCH  18  19
ATOM     19  C   UNL     1      50.773  78.805  27.253  1.00  0.00     0.030 CG0
ATOM     20  G   UNL     1      50.496  77.770  26.191  1.00  0.00     0.000 G0
ENDBRANCH  18  19
ENDBRANCH  15  18
ENDBRANCH   1  14
TORSDOF 0
ENDMDL
MODEL 6
REMARK VINA RESULT:    -2.744      1.649      3.790
REMARK INTER + INTRA:          -3.480
REMARK INTER:                  -4.189
REMARK INTRA:                   0.709
REMARK UNBOUND:                 0.226
REMARK SMILES C=C1C(=O)O[C@@H]2[C@@H]1CCC(C)=CCC[C@@]1(C)O[C@@H]21
REMARK SMILES IDX 6 1 7 2 2 3 1 4 3 5 4 6 5 7 8 8 9 9 10 10 11 11 12 12 18 14
REMARK SMILES IDX 15 15 17 16 16 17 14 18 13 19
REMARK H PARENT
REMARK Flexibility Score: 70.00
ROOT
ATOM      1  C   UNL     1      48.113  77.832  27.135  1.00  0.00     0.216 C 
ATOM      2  C   UNL     1      47.177  78.899  27.801  1.00  0.00     0.070 C 
ATOM      3  C   UNL     1      46.434  79.454  26.623  1.00  0.00     0.037 C 
ATOM      4  C   UNL     1      45.719  80.579  26.598  1.00  0.00     0.021 C 
ATOM      5  C   UNL     1      46.591  78.520  25.537  1.00  0.00     0.334 C 
ATOM      6  O   UNL     1      45.998  78.572  24.427  1.00  0.00    -0.247 OA
ATOM      7  O   UNL     1      47.480  77.530  25.889  1.00  0.00    -0.455 OA
ENDROOT
BRANCH   2   8
ATOM      8  C   UNL     1      46.138  78.268  28.765  1.00  0.00     0.017 C 
BRANCH   8   9
ATOM      9  C   UNL     1      46.538  78.195  30.247  1.00  0.00     0.031 C 
BRANCH   9  10
ATOM     10  C   UNL     1      47.458  77.032  30.566  1.00  0.00    -0.077 C 
ATOM     11  C   UNL     1      46.845  75.765  31.105  1.00  0.00     0.039 C 
ATOM     12  C   UNL     1      48.796  77.056  30.371  1.00  0.00    -0.028 CG0
ATOM     13  G   UNL     1      49.609  78.268  29.986  1.00  0.00     0.000 G0
ENDBRANCH   9  10
ENDBRANCH   8   9
ENDBRANCH   2   8
BRANCH   1  14
ATOM     14  C   UNL     1      49.529  78.367  26.790  1.00  0.00     0.192 C 
ATOM     15  C   UNL     1      50.777  78.261  27.617  1.00  0.00     0.096 C 
ATOM     16  O   UNL     1      50.431  77.275  26.680  1.00  0.00    -0.362 OA
ATOM     17  C   UNL     1      51.961  79.110  27.144  1.00  0.00     0.045 C 
BRANCH  15  18
ATOM     18  C   UNL     1      50.797  77.807  29.096  1.00  0.00     0.042 C 
BRANCH  18  19
ATOM     19  C   UNL     1      49.630  78.262  29.992  1.00  0.00     0.030 CG0
ATOM     20  G   UNL     1      48.792  77.069  30.382  1.00  0.00     0.000 G0
ENDBRANCH  18  19
ENDBRANCH  15  18
ENDBRANCH   1  14
TORSDOF 0
ENDMDL
MODEL 7
REMARK VINA RESULT:    -2.157      3.437      5.801
REMARK INTER + INTRA:          -2.687
REMARK INTER:                  -2.962
REMARK INTRA:                   0.274
REMARK UNBOUND:                 0.226
REMARK SMILES C=C1C(=O)O[C@@H]2[C@@H]1CCC(C)=CCC[C@@]1(C)O[C@@H]21
REMARK SMILES IDX 6 1 7 2 2 3 1 4 3 5 4 6 5 7 8 8 9 9 10 10 11 11 12 12 18 14
REMARK SMILES IDX 15 15 17 16 16 17 14 18 13 19
REMARK H PARENT
REMARK Flexibility Score: 70.00
ROOT
ATOM      1  C   UNL     1      46.796  78.136  26.211  1.00  0.00     0.216 C 
ATOM      2  C   UNL     1      48.267  78.583  26.517  1.00  0.00     0.070 C 
ATOM      3  C   UNL     1      48.115  79.324  27.812  1.00  0.00     0.037 C 
ATOM      4  C   UNL     1      49.010  80.141  28.364  1.00  0.00     0.021 C 
ATOM      5  C   UNL     1      46.842  78.949  28.374  1.00  0.00     0.334 C 
ATOM      6  O   UNL     1      46.421  79.258  29.520  1.00  0.00    -0.247 OA
ATOM      7  O   UNL     1      46.140  78.173  27.480  1.00  0.00    -0.455 OA
ENDROOT
BRANCH   2   8
ATOM      8  C   UNL     1      49.219  77.383  26.766  1.00  0.00     0.017 C 
BRANCH   8   9
ATOM      9  C   UNL     1      49.173  76.249  25.729  1.00  0.00     0.031 C 
BRANCH   9  10
ATOM     10  C   UNL     1      49.795  76.626  24.397  1.00  0.00    -0.077 C 
ATOM     11  C   UNL     1      51.299  76.628  24.288  1.00  0.00     0.039 C 
ATOM     12  C   UNL     1      49.078  76.938  23.294  1.00  0.00    -0.028 CG0
ATOM     13  G   UNL     1      47.583  77.136  23.242  1.00  0.00     0.000 G0
ENDBRANCH   9  10
ENDBRANCH   8   9
ENDBRANCH   2   8
BRANCH   1  14
ATOM     14  C   UNL     1      46.022  79.116  25.288  1.00  0.00     0.192 C 
ATOM     15  C   UNL     1      46.141  79.262  23.798  1.00  0.00     0.096 C 
ATOM     16  O   UNL     1      45.221  78.375  24.379  1.00  0.00    -0.362 OA
ATOM     17  C   UNL     1      45.450  80.488  23.194  1.00  0.00     0.045 C 
BRANCH  15  18
ATOM     18  C   UNL     1      47.262  78.612  22.953  1.00  0.00     0.042 C 
BRANCH  18  19
ATOM     19  C   UNL     1      47.594  77.134  23.235  1.00  0.00     0.030 CG0
ATOM     20  G   UNL     1      49.090  76.950  23.291  1.00  0.00     0.000 G0
ENDBRANCH  18  19
ENDBRANCH  15  18
ENDBRANCH   1  14
TORSDOF 0
ENDMDL
MODEL 8
REMARK VINA RESULT:    -2.128      2.553      4.619
REMARK INTER + INTRA:          -2.648
REMARK INTER:                  -3.791
REMARK INTRA:                   1.144
REMARK UNBOUND:                 0.226
REMARK SMILES C=C1C(=O)O[C@@H]2[C@@H]1CCC(C)=CCC[C@@]1(C)O[C@@H]21
REMARK SMILES IDX 6 1 7 2 2 3 1 4 3 5 4 6 5 7 8 8 9 9 10 10 11 11 12 12 18 14
REMARK SMILES IDX 15 15 17 16 16 17 14 18 13 19
REMARK H PARENT
REMARK Flexibility Score: 70.00
ROOT
ATOM      1  C   UNL     1      49.607  77.046  29.384  1.00  0.00     0.216 C 
ATOM      2  C   UNL     1      50.435  78.007  28.463  1.00  0.00     0.070 C 
ATOM      3  C   UNL     1      51.652  78.280  29.296  1.00  0.00     0.037 C 
ATOM      4  C   UNL     1      52.541  79.252  29.100  1.00  0.00     0.021 C 
ATOM      5  C   UNL     1      51.711  77.264  30.316  1.00  0.00     0.334 C 
ATOM      6  O   UNL     1      52.662  77.078  31.120  1.00  0.00    -0.247 OA
ATOM      7  O   UNL     1      50.571  76.492  30.282  1.00  0.00    -0.455 OA
ENDROOT
BRANCH   2   8
ATOM      8  C   UNL     1      50.901  77.325  27.150  1.00  0.00     0.017 C 
BRANCH   8   9
ATOM      9  C   UNL     1      50.323  77.895  25.844  1.00  0.00     0.031 C 
BRANCH   9  10
ATOM     10  C   UNL     1      48.935  77.374  25.522  1.00  0.00    -0.077 C 
ATOM     11  C   UNL     1      48.782  76.418  24.367  1.00  0.00     0.039 C 
ATOM     12  C   UNL     1      47.828  77.699  26.228  1.00  0.00    -0.028 CG0
ATOM     13  G   UNL     1      47.751  78.745  27.313  1.00  0.00     0.000 G0
ENDBRANCH   9  10
ENDBRANCH   8   9
ENDBRANCH   2   8
BRANCH   1  14
ATOM     14  C   UNL     1      48.554  77.772  30.264  1.00  0.00     0.192 C 
ATOM     15  C   UNL     1      47.197  78.267  29.853  1.00  0.00     0.096 C 
ATOM     16  O   UNL     1      47.385  76.971  30.359  1.00  0.00    -0.362 OA
ATOM     17  C   UNL     1      46.490  79.178  30.861  1.00  0.00     0.045 C 
BRANCH  15  18
ATOM     18  C   UNL     1      46.718  78.354  28.385  1.00  0.00     0.042 C 
BRANCH  18  19
ATOM     19  C   UNL     1      47.761  78.749  27.322  1.00  0.00     0.030 CG0
ATOM     20  G   UNL     1      47.823  77.689  26.250  1.00  0.00     0.000 G0
ENDBRANCH  18  19
ENDBRANCH  15  18
ENDBRANCH   1  14
TORSDOF 0
ENDMDL
MODEL 9
REMARK VINA RESULT:    -2.072      2.240      3.766
REMARK INTER + INTRA:          -2.572
REMARK INTER:                  -3.089
REMARK INTRA:                   0.517
REMARK UNBOUND:                 0.226
REMARK SMILES C=C1C(=O)O[C@@H]2[C@@H]1CCC(C)=CCC[C@@]1(C)O[C@@H]21
REMARK SMILES IDX 6 1 7 2 2 3 1 4 3 5 4 6 5 7 8 8 9 9 10 10 11 11 12 12 18 14
REMARK SMILES IDX 15 15 17 16 16 17 14 18 13 19
REMARK H PARENT
REMARK Flexibility Score: 70.00
ROOT
ATOM      1  C   UNL     1      46.614  77.936  28.641  1.00  0.00     0.216 C 
ATOM      2  C   UNL     1      48.065  77.571  29.111  1.00  0.00     0.070 C 
ATOM      3  C   UNL     1      47.826  76.388  30.002  1.00  0.00     0.037 C 
ATOM      4  C   UNL     1      48.689  75.869  30.873  1.00  0.00     0.021 C 
ATOM      5  C   UNL     1      46.509  75.886  29.705  1.00  0.00     0.334 C 
ATOM      6  O   UNL     1      46.006  74.820  30.150  1.00  0.00    -0.247 OA
ATOM      7  O   UNL     1      45.864  76.734  28.832  1.00  0.00    -0.455 OA
ENDROOT
BRANCH   2   8
ATOM      8  C   UNL     1      48.976  77.110  27.943  1.00  0.00     0.017 C 
BRANCH   8   9
ATOM      9  C   UNL     1      49.510  78.215  27.018  1.00  0.00     0.031 C 
BRANCH   9  10
ATOM     10  C   UNL     1      50.361  79.244  27.739  1.00  0.00    -0.077 C 
ATOM     11  C   UNL     1      51.822  78.940  27.949  1.00  0.00     0.039 C 
ATOM     12  C   UNL     1      49.890  80.431  28.183  1.00  0.00    -0.028 CG0
ATOM     13  G   UNL     1      48.441  80.853  28.201  1.00  0.00     0.000 G0
ENDBRANCH   9  10
ENDBRANCH   8   9
ENDBRANCH   2   8
BRANCH   1  14
ATOM     14  C   UNL     1      45.928  79.024  29.510  1.00  0.00     0.192 C 
ATOM     15  C   UNL     1      46.466  80.375  29.885  1.00  0.00     0.096 C 
ATOM     16  O   UNL     1      45.703  80.184  28.722  1.00  0.00    -0.362 OA
ATOM     17  C   UNL     1      45.683  81.125  30.966  1.00  0.00     0.045 C 
BRANCH  15  18
ATOM     18  C   UNL     1      47.934  80.811  29.663  1.00  0.00     0.042 C 
BRANCH  18  19
ATOM     19  C   UNL     1      48.446  80.858  28.211  1.00  0.00     0.030 CG0
ATOM     20  G   UNL     1      49.886  80.408  28.164  1.00  0.00     0.000 G0
ENDBRANCH  18  19
ENDBRANCH  15  18
ENDBRANCH   1  14
TORSDOF 0
ENDMDL
