MODEL 1
REMARK VINA RESULT:    -6.587      0.000      0.000
REMARK INTER + INTRA:          -7.408
REMARK INTER:                  -7.357
REMARK INTRA:                  -0.050
REMARK UNBOUND:                -0.050
REMARK SMILES COc1cc2ccc(=O)oc2c(O)c1O
REMARK SMILES IDX 3 1 14 2 12 3 11 4 5 5 4 6 6 7 7 8 8 9 9 10 10 11 2 12 1 13
REMARK SMILES IDX 15 14 13 16
REMARK H PARENT 15 15 13 17
REMARK Flexibility Score: inf
ROOT
ATOM      1  C   UNL     1     -31.178  -2.387 -19.830  1.00  0.00     0.165 A 
ATOM      2  C   UNL     1     -32.557  -2.361 -20.117  1.00  0.00     0.204 A 
ATOM      3  C   UNL     1     -33.481  -2.902 -19.204  1.00  0.00     0.205 A 
ATOM      4  C   UNL     1     -33.031  -3.470 -18.006  1.00  0.00     0.184 A 
ATOM      5  C   UNL     1     -31.651  -3.498 -17.714  1.00  0.00     0.025 A 
ATOM      6  C   UNL     1     -30.732  -2.960 -18.623  1.00  0.00     0.062 A 
ATOM      7  C   UNL     1     -31.236  -4.072 -16.508  1.00  0.00     0.020 A 
ATOM      8  C   UNL     1     -32.186  -4.596 -15.634  1.00  0.00     0.094 A 
ATOM      9  C   UNL     1     -33.538  -4.534 -15.989  1.00  0.00     0.336 A 
ATOM     10  O   UNL     1     -34.413  -5.000 -15.214  1.00  0.00    -0.246 OA
ATOM     11  O   UNL     1     -33.906  -3.981 -17.143  1.00  0.00    -0.419 OA
ENDROOT
BRANCH   1  12
ATOM     12  O   UNL     1     -30.283  -1.839 -20.763  1.00  0.00    -0.493 OA
ATOM     13  C   UNL     1     -28.925  -2.241 -20.917  1.00  0.00     0.278 C 
ENDBRANCH   1  12
BRANCH   2  14
ATOM     14  O   UNL     1     -33.023  -1.800 -21.307  1.00  0.00    -0.502 OA
ATOM     15  H   UNL     1     -32.416  -1.297 -21.943  1.00  0.00     0.293 HD
ENDBRANCH   2  14
BRANCH   3  16
ATOM     16  O   UNL     1     -34.850  -2.884 -19.475  1.00  0.00    -0.502 OA
ATOM     17  H   UNL     1     -35.546  -3.010 -18.749  1.00  0.00     0.293 HD
ENDBRANCH   3  16
TORSDOF 3
ENDMDL
MODEL 2
REMARK VINA RESULT:    -6.060      1.403      1.859
REMARK INTER + INTRA:          -6.819
REMARK INTER:                  -6.768
REMARK INTRA:                  -0.051
REMARK UNBOUND:                -0.050
REMARK SMILES COc1cc2ccc(=O)oc2c(O)c1O
REMARK SMILES IDX 3 1 14 2 12 3 11 4 5 5 4 6 6 7 7 8 8 9 9 10 10 11 2 12 1 13
REMARK SMILES IDX 15 14 13 16
REMARK H PARENT 15 15 13 17
REMARK Flexibility Score: inf
ROOT
ATOM      1  C   UNL     1     -31.935  -3.067 -18.617  1.00  0.00     0.165 A 
ATOM      2  C   UNL     1     -33.114  -2.728 -19.311  1.00  0.00     0.204 A 
ATOM      3  C   UNL     1     -34.371  -3.085 -18.791  1.00  0.00     0.205 A 
ATOM      4  C   UNL     1     -34.455  -3.780 -17.578  1.00  0.00     0.184 A 
ATOM      5  C   UNL     1     -33.278  -4.122 -16.879  1.00  0.00     0.025 A 
ATOM      6  C   UNL     1     -32.027  -3.766 -17.398  1.00  0.00     0.062 A 
ATOM      7  C   UNL     1     -33.397  -4.816 -15.670  1.00  0.00     0.020 A 
ATOM      8  C   UNL     1     -34.663  -5.149 -15.193  1.00  0.00     0.094 A 
ATOM      9  C   UNL     1     -35.786  -4.778 -15.939  1.00  0.00     0.336 A 
ATOM     10  O   UNL     1     -36.940  -5.069 -15.525  1.00  0.00    -0.246 OA
ATOM     11  O   UNL     1     -35.645  -4.118 -17.086  1.00  0.00    -0.419 OA
ENDROOT
BRANCH   1  12
ATOM     12  O   UNL     1     -30.698  -2.696 -19.165  1.00  0.00    -0.493 OA
ATOM     13  C   UNL     1     -29.472  -3.386 -18.941  1.00  0.00     0.278 C 
ENDBRANCH   1  12
BRANCH   2  14
ATOM     14  O   UNL     1     -33.049  -2.036 -20.522  1.00  0.00    -0.502 OA
ATOM     15  H   UNL     1     -32.201  -1.585 -20.843  1.00  0.00     0.293 HD
ENDBRANCH   2  14
BRANCH   3  16
ATOM     16  O   UNL     1     -35.547  -2.757 -19.467  1.00  0.00    -0.502 OA
ATOM     17  H   UNL     1     -36.137  -1.985 -19.181  1.00  0.00     0.293 HD
ENDBRANCH   3  16
TORSDOF 3
ENDMDL
MODEL 3
REMARK VINA RESULT:    -5.921      1.280      4.788
REMARK INTER + INTRA:          -6.663
REMARK INTER:                  -6.601
REMARK INTRA:                  -0.062
REMARK UNBOUND:                -0.050
REMARK SMILES COc1cc2ccc(=O)oc2c(O)c1O
REMARK SMILES IDX 3 1 14 2 12 3 11 4 5 5 4 6 6 7 7 8 8 9 9 10 10 11 2 12 1 13
REMARK SMILES IDX 15 14 13 16
REMARK H PARENT 15 15 13 17
REMARK Flexibility Score: inf
ROOT
ATOM      1  C   UNL     1     -33.950  -4.553 -16.200  1.00  0.00     0.165 A 
ATOM      2  C   UNL     1     -34.736  -4.018 -17.240  1.00  0.00     0.204 A 
ATOM      3  C   UNL     1     -34.124  -3.395 -18.343  1.00  0.00     0.205 A 
ATOM      4  C   UNL     1     -32.728  -3.303 -18.410  1.00  0.00     0.184 A 
ATOM      5  C   UNL     1     -31.937  -3.836 -17.371  1.00  0.00     0.025 A 
ATOM      6  C   UNL     1     -32.546  -4.457 -16.274  1.00  0.00     0.062 A 
ATOM      7  C   UNL     1     -30.545  -3.729 -17.470  1.00  0.00     0.020 A 
ATOM      8  C   UNL     1     -29.983  -3.103 -18.581  1.00  0.00     0.094 A 
ATOM      9  C   UNL     1     -30.830  -2.597 -19.572  1.00  0.00     0.336 A 
ATOM     10  O   UNL     1     -30.342  -2.028 -20.585  1.00  0.00    -0.246 OA
ATOM     11  O   UNL     1     -32.150  -2.713 -19.454  1.00  0.00    -0.419 OA
ENDROOT
BRANCH   1  12
ATOM     12  O   UNL     1     -34.593  -5.167 -15.114  1.00  0.00    -0.493 OA
ATOM     13  C   UNL     1     -34.947  -4.507 -13.903  1.00  0.00     0.278 C 
ENDBRANCH   1  12
BRANCH   2  14
ATOM     14  O   UNL     1     -36.128  -4.100 -17.189  1.00  0.00    -0.502 OA
ATOM     15  H   UNL     1     -36.610  -4.842 -16.696  1.00  0.00     0.293 HD
ENDBRANCH   2  14
BRANCH   3  16
ATOM     16  O   UNL     1     -34.890  -2.861 -19.380  1.00  0.00    -0.502 OA
ATOM     17  H   UNL     1     -34.533  -2.771 -20.325  1.00  0.00     0.293 HD
ENDBRANCH   3  16
TORSDOF 3
ENDMDL
MODEL 4
REMARK VINA RESULT:    -5.912      2.494      4.151
REMARK INTER + INTRA:          -6.654
REMARK INTER:                  -6.598
REMARK INTRA:                  -0.055
REMARK UNBOUND:                -0.050
REMARK SMILES COc1cc2ccc(=O)oc2c(O)c1O
REMARK SMILES IDX 3 1 14 2 12 3 11 4 5 5 4 6 6 7 7 8 8 9 9 10 10 11 2 12 1 13
REMARK SMILES IDX 15 14 13 16
REMARK H PARENT 15 15 13 17
REMARK Flexibility Score: inf
ROOT
ATOM      1  C   UNL     1     -31.079  -5.436 -16.715  1.00  0.00     0.165 A 
ATOM      2  C   UNL     1     -30.836  -4.105 -17.110  1.00  0.00     0.204 A 
ATOM      3  C   UNL     1     -31.893  -3.297 -17.568  1.00  0.00     0.205 A 
ATOM      4  C   UNL     1     -33.192  -3.815 -17.634  1.00  0.00     0.184 A 
ATOM      5  C   UNL     1     -33.441  -5.146 -17.241  1.00  0.00     0.025 A 
ATOM      6  C   UNL     1     -32.389  -5.951 -16.785  1.00  0.00     0.062 A 
ATOM      7  C   UNL     1     -34.750  -5.632 -17.318  1.00  0.00     0.020 A 
ATOM      8  C   UNL     1     -35.766  -4.795 -17.779  1.00  0.00     0.094 A 
ATOM      9  C   UNL     1     -35.445  -3.486 -18.152  1.00  0.00     0.336 A 
ATOM     10  O   UNL     1     -36.348  -2.713 -18.570  1.00  0.00    -0.246 OA
ATOM     11  O   UNL     1     -34.191  -3.049 -18.068  1.00  0.00    -0.419 OA
ENDROOT
BRANCH   1  12
ATOM     12  O   UNL     1     -30.002  -6.215 -16.264  1.00  0.00    -0.493 OA
ATOM     13  C   UNL     1     -29.753  -7.561 -16.659  1.00  0.00     0.278 C 
ENDBRANCH   1  12
BRANCH   2  14
ATOM     14  O   UNL     1     -29.547  -3.574 -17.051  1.00  0.00    -0.502 OA
ATOM     15  H   UNL     1     -28.857  -3.743 -17.773  1.00  0.00     0.293 HD
ENDBRANCH   2  14
BRANCH   3  16
ATOM     16  O   UNL     1     -31.666  -1.978 -17.962  1.00  0.00    -0.502 OA
ATOM     17  H   UNL     1     -32.010  -1.609 -18.841  1.00  0.00     0.293 HD
ENDBRANCH   3  16
TORSDOF 3
ENDMDL
MODEL 5
REMARK VINA RESULT:    -5.910      2.014      3.168
REMARK INTER + INTRA:          -6.651
REMARK INTER:                  -6.592
REMARK INTRA:                  -0.059
REMARK UNBOUND:                -0.050
REMARK SMILES COc1cc2ccc(=O)oc2c(O)c1O
REMARK SMILES IDX 3 1 14 2 12 3 11 4 5 5 4 6 6 7 7 8 8 9 9 10 10 11 2 12 1 13
REMARK SMILES IDX 15 14 13 16
REMARK H PARENT 15 15 13 17
REMARK Flexibility Score: inf
ROOT
ATOM      1  C   UNL     1     -31.878  -2.854 -18.800  1.00  0.00     0.165 A 
ATOM      2  C   UNL     1     -31.216  -3.534 -17.759  1.00  0.00     0.204 A 
ATOM      3  C   UNL     1     -31.901  -4.492 -16.989  1.00  0.00     0.205 A 
ATOM      4  C   UNL     1     -33.247  -4.772 -17.256  1.00  0.00     0.184 A 
ATOM      5  C   UNL     1     -33.915  -4.093 -18.297  1.00  0.00     0.025 A 
ATOM      6  C   UNL     1     -33.232  -3.139 -19.063  1.00  0.00     0.062 A 
ATOM      7  C   UNL     1     -35.259  -4.397 -18.538  1.00  0.00     0.020 A 
ATOM      8  C   UNL     1     -35.897  -5.353 -17.750  1.00  0.00     0.094 A 
ATOM      9  C   UNL     1     -35.173  -5.986 -16.735  1.00  0.00     0.336 A 
ATOM     10  O   UNL     1     -35.730  -6.854 -16.012  1.00  0.00    -0.246 OA
ATOM     11  O   UNL     1     -33.894  -5.679 -16.528  1.00  0.00    -0.419 OA
ENDROOT
BRANCH   1  12
ATOM     12  O   UNL     1     -31.165  -1.903 -19.547  1.00  0.00    -0.493 OA
ATOM     13  C   UNL     1     -30.459  -2.184 -20.752  1.00  0.00     0.278 C 
ENDBRANCH   1  12
BRANCH   2  14
ATOM     14  O   UNL     1     -29.875  -3.267 -17.479  1.00  0.00    -0.502 OA
ATOM     15  H   UNL     1     -29.535  -2.330 -17.299  1.00  0.00     0.293 HD
ENDBRANCH   2  14
BRANCH   3  16
ATOM     16  O   UNL     1     -31.258  -5.174 -15.955  1.00  0.00    -0.502 OA
ATOM     17  H   UNL     1     -31.008  -4.722 -15.083  1.00  0.00     0.293 HD
ENDBRANCH   3  16
TORSDOF 3
ENDMDL
MODEL 6
REMARK VINA RESULT:    -5.893      1.819      4.416
REMARK INTER + INTRA:          -6.632
REMARK INTER:                  -6.563
REMARK INTRA:                  -0.069
REMARK UNBOUND:                -0.050
REMARK SMILES COc1cc2ccc(=O)oc2c(O)c1O
REMARK SMILES IDX 3 1 14 2 12 3 11 4 5 5 4 6 6 7 7 8 8 9 9 10 10 11 2 12 1 13
REMARK SMILES IDX 15 14 13 16
REMARK H PARENT 15 15 13 17
REMARK Flexibility Score: inf
ROOT
ATOM      1  C   UNL     1     -35.118  -3.775 -17.386  1.00  0.00     0.165 A 
ATOM      2  C   UNL     1     -34.933  -3.095 -18.606  1.00  0.00     0.204 A 
ATOM      3  C   UNL     1     -33.636  -2.866 -19.101  1.00  0.00     0.205 A 
ATOM      4  C   UNL     1     -32.523  -3.314 -18.380  1.00  0.00     0.184 A 
ATOM      5  C   UNL     1     -32.702  -3.996 -17.158  1.00  0.00     0.025 A 
ATOM      6  C   UNL     1     -33.994  -4.223 -16.666  1.00  0.00     0.062 A 
ATOM      7  C   UNL     1     -31.569  -4.431 -16.463  1.00  0.00     0.020 A 
ATOM      8  C   UNL     1     -30.304  -4.182 -16.991  1.00  0.00     0.094 A 
ATOM      9  C   UNL     1     -30.201  -3.500 -18.208  1.00  0.00     0.336 A 
ATOM     10  O   UNL     1     -29.067  -3.265 -18.703  1.00  0.00    -0.246 OA
ATOM     11  O   UNL     1     -31.296  -3.097 -18.849  1.00  0.00    -0.419 OA
ENDROOT
BRANCH   1  12
ATOM     12  O   UNL     1     -36.426  -3.986 -16.922  1.00  0.00    -0.493 OA
ATOM     13  C   UNL     1     -37.150  -5.204 -17.065  1.00  0.00     0.278 C 
ENDBRANCH   1  12
BRANCH   2  14
ATOM     14  O   UNL     1     -36.032  -2.640 -19.338  1.00  0.00    -0.502 OA
ATOM     15  H   UNL     1     -36.809  -2.158 -18.904  1.00  0.00     0.293 HD
ENDBRANCH   2  14
BRANCH   3  16
ATOM     16  O   UNL     1     -33.438  -2.194 -20.308  1.00  0.00    -0.502 OA
ATOM     17  H   UNL     1     -32.737  -2.484 -20.979  1.00  0.00     0.293 HD
ENDBRANCH   3  16
TORSDOF 3
ENDMDL
MODEL 7
REMARK VINA RESULT:    -5.809      5.384      8.033
REMARK INTER + INTRA:          -6.539
REMARK INTER:                  -6.470
REMARK INTRA:                  -0.069
REMARK UNBOUND:                -0.050
REMARK SMILES COc1cc2ccc(=O)oc2c(O)c1O
REMARK SMILES IDX 3 1 14 2 12 3 11 4 5 5 4 6 6 7 7 8 8 9 9 10 10 11 2 12 1 13
REMARK SMILES IDX 15 14 13 16
REMARK H PARENT 15 15 13 17
REMARK Flexibility Score: inf
ROOT
ATOM      1  C   UNL     1     -35.988  -5.320 -13.879  1.00  0.00     0.165 A 
ATOM      2  C   UNL     1     -37.199  -4.600 -13.864  1.00  0.00     0.204 A 
ATOM      3  C   UNL     1     -38.424  -5.276 -13.719  1.00  0.00     0.205 A 
ATOM      4  C   UNL     1     -38.443  -6.670 -13.590  1.00  0.00     0.184 A 
ATOM      5  C   UNL     1     -37.234  -7.396 -13.604  1.00  0.00     0.025 A 
ATOM      6  C   UNL     1     -36.014  -6.723 -13.749  1.00  0.00     0.062 A 
ATOM      7  C   UNL     1     -37.288  -8.787 -13.472  1.00  0.00     0.020 A 
ATOM      8  C   UNL     1     -38.524  -9.415 -13.331  1.00  0.00     0.094 A 
ATOM      9  C   UNL     1     -39.683  -8.632 -13.325  1.00  0.00     0.336 A 
ATOM     10  O   UNL     1     -40.811  -9.178 -13.198  1.00  0.00    -0.246 OA
ATOM     11  O   UNL     1     -39.603  -7.309 -13.452  1.00  0.00    -0.419 OA
ENDROOT
BRANCH   1  12
ATOM     12  O   UNL     1     -34.783  -4.614 -14.026  1.00  0.00    -0.493 OA
ATOM     13  C   UNL     1     -34.083  -4.453 -15.256  1.00  0.00     0.278 C 
ENDBRANCH   1  12
BRANCH   2  14
ATOM     14  O   UNL     1     -37.198  -3.210 -13.993  1.00  0.00    -0.502 OA
ATOM     15  H   UNL     1     -36.613  -2.613 -13.422  1.00  0.00     0.293 HD
ENDBRANCH   2  14
BRANCH   3  16
ATOM     16  O   UNL     1     -39.631  -4.576 -13.703  1.00  0.00    -0.502 OA
ATOM     17  H   UNL     1     -39.690  -3.594 -13.944  1.00  0.00     0.293 HD
ENDBRANCH   3  16
TORSDOF 3
ENDMDL
MODEL 8
REMARK VINA RESULT:    -5.789      7.123      8.981
REMARK INTER + INTRA:          -6.516
REMARK INTER:                  -6.463
REMARK INTRA:                  -0.053
REMARK UNBOUND:                -0.050
REMARK SMILES COc1cc2ccc(=O)oc2c(O)c1O
REMARK SMILES IDX 3 1 14 2 12 3 11 4 5 5 4 6 6 7 7 8 8 9 9 10 10 11 2 12 1 13
REMARK SMILES IDX 15 14 13 16
REMARK H PARENT 15 15 13 17
REMARK Flexibility Score: inf
ROOT
ATOM      1  C   UNL     1     -37.033  -4.027 -12.567  1.00  0.00     0.165 A 
ATOM      2  C   UNL     1     -36.212  -5.038 -13.104  1.00  0.00     0.204 A 
ATOM      3  C   UNL     1     -36.746  -6.307 -13.394  1.00  0.00     0.205 A 
ATOM      4  C   UNL     1     -38.100  -6.568 -13.150  1.00  0.00     0.184 A 
ATOM      5  C   UNL     1     -38.927  -5.560 -12.612  1.00  0.00     0.025 A 
ATOM      6  C   UNL     1     -38.394  -4.297 -12.323  1.00  0.00     0.062 A 
ATOM      7  C   UNL     1     -40.275  -5.854 -12.381  1.00  0.00     0.020 A 
ATOM      8  C   UNL     1     -40.761  -7.124 -12.684  1.00  0.00     0.094 A 
ATOM      9  C   UNL     1     -39.883  -8.076 -13.214  1.00  0.00     0.336 A 
ATOM     10  O   UNL     1     -40.302  -9.229 -13.496  1.00  0.00    -0.246 OA
ATOM     11  O   UNL     1     -38.605  -7.769 -13.425  1.00  0.00    -0.419 OA
ENDROOT
BRANCH   1  12
ATOM     12  O   UNL     1     -36.467  -2.773 -12.288  1.00  0.00    -0.493 OA
ATOM     13  C   UNL     1     -36.781  -1.977 -11.149  1.00  0.00     0.278 C 
ENDBRANCH   1  12
BRANCH   2  14
ATOM     14  O   UNL     1     -34.860  -4.794 -13.353  1.00  0.00    -0.502 OA
ATOM     15  H   UNL     1     -34.157  -5.520 -13.284  1.00  0.00     0.293 HD
ENDBRANCH   2  14
BRANCH   3  16
ATOM     16  O   UNL     1     -35.945  -7.317 -13.926  1.00  0.00    -0.502 OA
ATOM     17  H   UNL     1     -35.959  -7.557 -14.910  1.00  0.00     0.293 HD
ENDBRANCH   3  16
TORSDOF 3
ENDMDL
MODEL 9
REMARK VINA RESULT:    -5.768      4.700      6.644
REMARK INTER + INTRA:          -6.493
REMARK INTER:                  -6.444
REMARK INTRA:                  -0.049
REMARK UNBOUND:                -0.050
REMARK SMILES COc1cc2ccc(=O)oc2c(O)c1O
REMARK SMILES IDX 3 1 14 2 12 3 11 4 5 5 4 6 6 7 7 8 8 9 9 10 10 11 2 12 1 13
REMARK SMILES IDX 15 14 13 16
REMARK H PARENT 15 15 13 17
REMARK Flexibility Score: inf
ROOT
ATOM      1  C   UNL     1     -35.627  -5.818 -16.549  1.00  0.00     0.165 A 
ATOM      2  C   UNL     1     -36.912  -5.353 -16.892  1.00  0.00     0.204 A 
ATOM      3  C   UNL     1     -38.053  -5.906 -16.281  1.00  0.00     0.205 A 
ATOM      4  C   UNL     1     -37.913  -6.924 -15.330  1.00  0.00     0.184 A 
ATOM      5  C   UNL     1     -36.629  -7.393 -14.983  1.00  0.00     0.025 A 
ATOM      6  C   UNL     1     -35.494  -6.842 -15.591  1.00  0.00     0.062 A 
ATOM      7  C   UNL     1     -36.524  -8.410 -14.028  1.00  0.00     0.020 A 
ATOM      8  C   UNL     1     -37.681  -8.928 -13.450  1.00  0.00     0.094 A 
ATOM      9  C   UNL     1     -38.922  -8.415 -13.842  1.00  0.00     0.336 A 
ATOM     10  O   UNL     1     -39.980  -8.869 -13.331  1.00  0.00    -0.246 OA
ATOM     11  O   UNL     1     -38.993  -7.447 -14.752  1.00  0.00    -0.419 OA
ENDROOT
BRANCH   1  12
ATOM     12  O   UNL     1     -34.511  -5.244 -17.178  1.00  0.00    -0.493 OA
ATOM     13  C   UNL     1     -33.165  -5.671 -16.989  1.00  0.00     0.278 C 
ENDBRANCH   1  12
BRANCH   2  14
ATOM     14  O   UNL     1     -37.070  -4.340 -17.839  1.00  0.00    -0.502 OA
ATOM     15  H   UNL     1     -37.912  -4.242 -18.393  1.00  0.00     0.293 HD
ENDBRANCH   2  14
BRANCH   3  16
ATOM     16  O   UNL     1     -39.332  -5.456 -16.611  1.00  0.00    -0.502 OA
ATOM     17  H   UNL     1     -40.119  -6.086 -16.704  1.00  0.00     0.293 HD
ENDBRANCH   3  16
TORSDOF 3
ENDMDL
