MODEL 1
REMARK VINA RESULT:    -2.803      0.000      0.000
REMARK INTER + INTRA:          -3.278
REMARK INTER:                  -3.213
REMARK INTRA:                  -0.065
REMARK UNBOUND:                -0.065
REMARK SMILES CC(C)[C@H]([NH3+])C(=O)[O-]
REMARK SMILES IDX 4 1 5 2 6 6 7 7 8 8 2 9 1 10 3 11
REMARK H PARENT 5 3 5 4 5 5
REMARK Flexibility Score: inf
ROOT
ATOM      1  C   UNL     1      -3.944   5.717   5.522  1.00  0.00     0.230 C 
ENDROOT
BRANCH   1   2
ATOM      2  N   UNL     1      -5.278   5.431   4.969  1.00  0.00    -0.350 N 
ATOM      3  H   UNL     1      -5.219   5.092   3.983  1.00  0.00     0.345 HD
ATOM      4  H   UNL     1      -5.770   4.719   5.553  1.00  0.00     0.345 HD
ATOM      5  H   UNL     1      -5.855   6.304   4.985  1.00  0.00     0.345 HD
ENDBRANCH   1   2
BRANCH   1   6
ATOM      6  C   UNL     1      -3.840   5.250   6.953  1.00  0.00     0.099 C 
ATOM      7  O   UNL     1      -3.572   6.059   7.880  1.00  0.00    -0.544 OA
ATOM      8  O   UNL     1      -3.992   3.900   7.248  1.00  0.00    -0.544 OA
ENDBRANCH   1   6
BRANCH   1   9
ATOM      9  C   UNL     1      -3.540   7.217   5.397  1.00  0.00     0.047 C 
ATOM     10  C   UNL     1      -2.273   7.399   4.547  1.00  0.00     0.014 C 
ATOM     11  C   UNL     1      -4.668   8.117   4.865  1.00  0.00     0.014 C 
ENDBRANCH   1   9
TORSDOF 3
ENDMDL
MODEL 2
REMARK VINA RESULT:    -2.635     10.747     11.405
REMARK INTER + INTRA:          -3.086
REMARK INTER:                  -3.024
REMARK INTRA:                  -0.062
REMARK UNBOUND:                -0.065
REMARK SMILES CC(C)[C@H]([NH3+])C(=O)[O-]
REMARK SMILES IDX 4 1 5 2 6 6 7 7 8 8 2 9 1 10 3 11
REMARK H PARENT 5 3 5 4 5 5
REMARK Flexibility Score: inf
ROOT
ATOM      1  C   UNL     1      -5.476  -3.414   0.052  1.00  0.00     0.230 C 
ENDROOT
BRANCH   1   2
ATOM      2  N   UNL     1      -6.028  -2.159   0.588  1.00  0.00    -0.350 N 
ATOM      3  H   UNL     1      -6.594  -2.327   1.449  1.00  0.00     0.345 HD
ATOM      4  H   UNL     1      -5.260  -1.485   0.802  1.00  0.00     0.345 HD
ATOM      5  H   UNL     1      -6.645  -1.716  -0.133  1.00  0.00     0.345 HD
ENDBRANCH   1   2
BRANCH   1   6
ATOM      6  C   UNL     1      -4.489  -4.025   1.016  1.00  0.00     0.099 C 
ATOM      7  O   UNL     1      -4.454  -3.664   2.223  1.00  0.00    -0.544 OA
ATOM      8  O   UNL     1      -3.571  -4.963   0.558  1.00  0.00    -0.544 OA
ENDBRANCH   1   6
BRANCH   1   9
ATOM      9  C   UNL     1      -4.843  -3.249  -1.362  1.00  0.00     0.047 C 
ATOM     10  C   UNL     1      -5.912  -3.169  -2.462  1.00  0.00     0.014 C 
ATOM     11  C   UNL     1      -3.881  -2.054  -1.471  1.00  0.00     0.014 C 
ENDBRANCH   1   9
TORSDOF 3
ENDMDL
MODEL 3
REMARK VINA RESULT:    -2.570      1.985      2.753
REMARK INTER + INTRA:          -3.011
REMARK INTER:                  -2.947
REMARK INTRA:                  -0.064
REMARK UNBOUND:                -0.065
REMARK SMILES CC(C)[C@H]([NH3+])C(=O)[O-]
REMARK SMILES IDX 4 1 5 2 6 6 7 7 8 8 2 9 1 10 3 11
REMARK H PARENT 5 3 5 4 5 5
REMARK Flexibility Score: inf
ROOT
ATOM      1  C   UNL     1      -4.889   5.783   6.023  1.00  0.00     0.230 C 
ENDROOT
BRANCH   1   2
ATOM      2  N   UNL     1      -3.949   5.706   4.893  1.00  0.00    -0.350 N 
ATOM      3  H   UNL     1      -4.080   4.827   4.346  1.00  0.00     0.345 HD
ATOM      4  H   UNL     1      -4.068   6.529   4.263  1.00  0.00     0.345 HD
ATOM      5  H   UNL     1      -2.968   5.727   5.257  1.00  0.00     0.345 HD
ENDBRANCH   1   2
BRANCH   1   6
ATOM      6  C   UNL     1      -4.323   5.101   7.244  1.00  0.00     0.099 C 
ATOM      7  O   UNL     1      -4.079   5.752   8.295  1.00  0.00    -0.544 OA
ATOM      8  O   UNL     1      -4.019   3.746   7.197  1.00  0.00    -0.544 OA
ENDBRANCH   1   6
BRANCH   1   9
ATOM      9  C   UNL     1      -6.303   5.225   5.681  1.00  0.00     0.047 C 
ATOM     10  C   UNL     1      -7.239   5.252   6.898  1.00  0.00     0.014 C 
ATOM     11  C   UNL     1      -6.969   5.927   4.486  1.00  0.00     0.014 C 
ENDBRANCH   1   9
TORSDOF 3
ENDMDL
MODEL 4
REMARK VINA RESULT:    -2.517      2.400      2.947
REMARK INTER + INTRA:          -2.951
REMARK INTER:                  -2.897
REMARK INTRA:                  -0.054
REMARK UNBOUND:                -0.065
REMARK SMILES CC(C)[C@H]([NH3+])C(=O)[O-]
REMARK SMILES IDX 4 1 5 2 6 6 7 7 8 8 2 9 1 10 3 11
REMARK H PARENT 5 3 5 4 5 5
REMARK Flexibility Score: inf
ROOT
ATOM      1  C   UNL     1      -5.027   6.257   5.471  1.00  0.00     0.230 C 
ENDROOT
BRANCH   1   2
ATOM      2  N   UNL     1      -3.903   5.351   5.186  1.00  0.00    -0.350 N 
ATOM      3  H   UNL     1      -3.045   5.627   5.715  1.00  0.00     0.345 HD
ATOM      4  H   UNL     1      -4.157   4.368   5.426  1.00  0.00     0.345 HD
ATOM      5  H   UNL     1      -3.684   5.380   4.163  1.00  0.00     0.345 HD
ENDBRANCH   1   2
BRANCH   1   6
ATOM      6  C   UNL     1      -6.349   5.566   5.245  1.00  0.00     0.099 C 
ATOM      7  O   UNL     1      -6.782   4.712   6.065  1.00  0.00    -0.544 OA
ATOM      8  O   UNL     1      -7.078   5.835   4.093  1.00  0.00    -0.544 OA
ENDBRANCH   1   6
BRANCH   1   9
ATOM      9  C   UNL     1      -4.954   7.592   4.670  1.00  0.00     0.047 C 
ATOM     10  C   UNL     1      -5.607   8.754   5.434  1.00  0.00     0.014 C 
ATOM     11  C   UNL     1      -3.528   7.976   4.242  1.00  0.00     0.014 C 
ENDBRANCH   1   9
TORSDOF 3
ENDMDL
MODEL 5
REMARK VINA RESULT:    -2.502     10.682     11.164
REMARK INTER + INTRA:          -2.933
REMARK INTER:                  -2.881
REMARK INTRA:                  -0.052
REMARK UNBOUND:                -0.065
REMARK SMILES CC(C)[C@H]([NH3+])C(=O)[O-]
REMARK SMILES IDX 4 1 5 2 6 6 7 7 8 8 2 9 1 10 3 11
REMARK H PARENT 5 3 5 4 5 5
REMARK Flexibility Score: inf
ROOT
ATOM      1  C   UNL     1      -6.258  -3.327   1.439  1.00  0.00     0.230 C 
ENDROOT
BRANCH   1   2
ATOM      2  N   UNL     1      -6.463  -2.099   2.224  1.00  0.00    -0.350 N 
ATOM      3  H   UNL     1      -6.356  -2.276   3.247  1.00  0.00     0.345 HD
ATOM      4  H   UNL     1      -5.789  -1.359   1.927  1.00  0.00     0.345 HD
ATOM      5  H   UNL     1      -7.429  -1.734   2.051  1.00  0.00     0.345 HD
ENDBRANCH   1   2
BRANCH   1   6
ATOM      6  C   UNL     1      -4.838  -3.822   1.573  1.00  0.00     0.099 C 
ATOM      7  O   UNL     1      -4.048  -3.793   0.591  1.00  0.00    -0.544 OA
ATOM      8  O   UNL     1      -4.409  -4.363   2.778  1.00  0.00    -0.544 OA
ENDBRANCH   1   6
BRANCH   1   9
ATOM      9  C   UNL     1      -6.652  -3.168  -0.060  1.00  0.00     0.047 C 
ATOM     10  C   UNL     1      -7.284  -4.449  -0.624  1.00  0.00     0.014 C 
ATOM     11  C   UNL     1      -7.568  -1.963  -0.331  1.00  0.00     0.014 C 
ENDBRANCH   1   9
TORSDOF 3
ENDMDL
MODEL 6
REMARK VINA RESULT:    -2.482      9.559     10.579
REMARK INTER + INTRA:          -2.910
REMARK INTER:                  -2.852
REMARK INTRA:                  -0.059
REMARK UNBOUND:                -0.065
REMARK SMILES CC(C)[C@H]([NH3+])C(=O)[O-]
REMARK SMILES IDX 4 1 5 2 6 6 7 7 8 8 2 9 1 10 3 11
REMARK H PARENT 5 3 5 4 5 5
REMARK Flexibility Score: inf
ROOT
ATOM      1  C   UNL     1      -6.932  -2.445   0.970  1.00  0.00     0.230 C 
ENDROOT
BRANCH   1   2
ATOM      2  N   UNL     1      -6.017  -1.870  -0.030  1.00  0.00    -0.350 N 
ATOM      3  H   UNL     1      -5.024  -1.912   0.292  1.00  0.00     0.345 HD
ATOM      4  H   UNL     1      -6.110  -2.371  -0.940  1.00  0.00     0.345 HD
ATOM      5  H   UNL     1      -6.269  -0.867  -0.195  1.00  0.00     0.345 HD
ENDBRANCH   1   2
BRANCH   1   6
ATOM      6  C   UNL     1      -7.490  -1.372   1.872  1.00  0.00     0.099 C 
ATOM      7  O   UNL     1      -6.982  -1.147   3.003  1.00  0.00    -0.544 OA
ATOM      8  O   UNL     1      -8.612  -0.653   1.474  1.00  0.00    -0.544 OA
ENDBRANCH   1   6
BRANCH   1   9
ATOM      9  C   UNL     1      -6.284  -3.590   1.804  1.00  0.00     0.047 C 
ATOM     10  C   UNL     1      -7.088  -4.895   1.707  1.00  0.00     0.014 C 
ATOM     11  C   UNL     1      -4.810  -3.850   1.452  1.00  0.00     0.014 C 
ENDBRANCH   1   9
TORSDOF 3
ENDMDL
MODEL 7
REMARK VINA RESULT:    -2.450      9.433     10.263
REMARK INTER + INTRA:          -2.874
REMARK INTER:                  -2.825
REMARK INTRA:                  -0.049
REMARK UNBOUND:                -0.065
REMARK SMILES CC(C)[C@H]([NH3+])C(=O)[O-]
REMARK SMILES IDX 4 1 5 2 6 6 7 7 8 8 2 9 1 10 3 11
REMARK H PARENT 5 3 5 4 5 5
REMARK Flexibility Score: inf
ROOT
ATOM      1  C   UNL     1      -7.154  -1.490   0.803  1.00  0.00     0.230 C 
ENDROOT
BRANCH   1   2
ATOM      2  N   UNL     1      -6.050  -2.047   0.005  1.00  0.00    -0.350 N 
ATOM      3  H   UNL     1      -6.048  -3.092   0.033  1.00  0.00     0.345 HD
ATOM      4  H   UNL     1      -6.117  -1.726  -0.985  1.00  0.00     0.345 HD
ATOM      5  H   UNL     1      -5.138  -1.705   0.388  1.00  0.00     0.345 HD
ENDBRANCH   1   2
BRANCH   1   6
ATOM      6  C   UNL     1      -7.035  -1.898   2.251  1.00  0.00     0.099 C 
ATOM      7  O   UNL     1      -7.162  -1.050   3.175  1.00  0.00    -0.544 OA
ATOM      8  O   UNL     1      -6.732  -3.216   2.572  1.00  0.00    -0.544 OA
ENDBRANCH   1   6
BRANCH   1   9
ATOM      9  C   UNL     1      -8.560  -1.852   0.238  1.00  0.00     0.047 C 
ATOM     10  C   UNL     1      -9.615  -0.797   0.608  1.00  0.00     0.014 C 
ATOM     11  C   UNL     1      -8.570  -2.099  -1.280  1.00  0.00     0.014 C 
ENDBRANCH   1   9
TORSDOF 3
ENDMDL
MODEL 8
REMARK VINA RESULT:    -2.422     13.564     14.088
REMARK INTER + INTRA:          -2.841
REMARK INTER:                  -2.764
REMARK INTRA:                  -0.077
REMARK UNBOUND:                -0.065
REMARK SMILES CC(C)[C@H]([NH3+])C(=O)[O-]
REMARK SMILES IDX 4 1 5 2 6 6 7 7 8 8 2 9 1 10 3 11
REMARK H PARENT 5 3 5 4 5 5
REMARK Flexibility Score: inf
ROOT
ATOM      1  C   UNL     1      -8.589   5.391  -6.316  1.00  0.00     0.230 C 
ENDROOT
BRANCH   1   2
ATOM      2  N   UNL     1      -9.896   5.568  -5.662  1.00  0.00    -0.350 N 
ATOM      3  H   UNL     1     -10.679   5.513  -6.350  1.00  0.00     0.345 HD
ATOM      4  H   UNL     1     -10.033   4.846  -4.920  1.00  0.00     0.345 HD
ATOM      5  H   UNL     1      -9.927   6.506  -5.199  1.00  0.00     0.345 HD
ENDBRANCH   1   2
BRANCH   1   6
ATOM      6  C   UNL     1      -8.608   5.947  -7.719  1.00  0.00     0.099 C 
ATOM      7  O   UNL     1      -9.678   6.370  -8.234  1.00  0.00    -0.544 OA
ATOM      8  O   UNL     1      -7.442   5.947  -8.475  1.00  0.00    -0.544 OA
ENDBRANCH   1   6
BRANCH   1   9
ATOM      9  C   UNL     1      -8.098   3.913  -6.311  1.00  0.00     0.047 C 
ATOM     10  C   UNL     1      -7.845   3.399  -4.886  1.00  0.00     0.014 C 
ATOM     11  C   UNL     1      -9.034   2.950  -7.061  1.00  0.00     0.014 C 
ENDBRANCH   1   9
TORSDOF 3
ENDMDL
MODEL 9
REMARK VINA RESULT:    -2.395      9.743     10.666
REMARK INTER + INTRA:          -2.811
REMARK INTER:                  -2.763
REMARK INTRA:                  -0.048
REMARK UNBOUND:                -0.065
REMARK SMILES CC(C)[C@H]([NH3+])C(=O)[O-]
REMARK SMILES IDX 4 1 5 2 6 6 7 7 8 8 2 9 1 10 3 11
REMARK H PARENT 5 3 5 4 5 5
REMARK Flexibility Score: inf
ROOT
ATOM      1  C   UNL     1      -6.705  -2.212   1.161  1.00  0.00     0.230 C 
ENDROOT
BRANCH   1   2
ATOM      2  N   UNL     1      -5.653  -3.012   1.809  1.00  0.00    -0.350 N 
ATOM      3  H   UNL     1      -5.846  -3.144   2.827  1.00  0.00     0.345 HD
ATOM      4  H   UNL     1      -5.568  -3.945   1.348  1.00  0.00     0.345 HD
ATOM      5  H   UNL     1      -4.733  -2.525   1.706  1.00  0.00     0.345 HD
ENDBRANCH   1   2
BRANCH   1   6
ATOM      6  C   UNL     1      -7.449  -1.376   2.173  1.00  0.00     0.099 C 
ATOM      7  O   UNL     1      -7.113  -1.380   3.388  1.00  0.00    -0.544 OA
ATOM      8  O   UNL     1      -8.551  -0.630   1.773  1.00  0.00    -0.544 OA
ENDBRANCH   1   6
BRANCH   1   9
ATOM      9  C   UNL     1      -7.693  -3.070   0.315  1.00  0.00     0.047 C 
ATOM     10  C   UNL     1      -7.766  -2.588  -1.142  1.00  0.00     0.014 C 
ATOM     11  C   UNL     1      -7.392  -4.577   0.359  1.00  0.00     0.014 C 
ENDBRANCH   1   9
TORSDOF 3
ENDMDL
