MODEL 1
REMARK VINA RESULT:    -3.723      0.000      0.000
REMARK INTER + INTRA:          -4.543
REMARK INTER:                  -5.247
REMARK INTRA:                   0.704
REMARK UNBOUND:                 0.704
REMARK SMILES CC1=CCCC(C)=CCC(C)(C)C=CC1
REMARK SMILES IDX 2 1 3 2 1 3 4 4 5 5 6 6 7 7 8 8 15 10 14 11 13 12 10 13
REMARK SMILES IDX 11 14 12 15 9 16
REMARK H PARENT
REMARK Flexibility Score: 60.00
ROOT
ATOM      1  C   UNL     1     138.018 139.515 133.134  1.00  0.00    -0.074 C 
ATOM      2  C   UNL     1     137.547 140.774 133.319  1.00  0.00    -0.027 C 
ATOM      3  C   UNL     1     137.651 138.824 131.843  1.00  0.00     0.039 C 
ENDROOT
BRANCH   2   4
ATOM      4  C   UNL     1     137.753 141.641 134.540  1.00  0.00     0.032 C 
BRANCH   4   5
ATOM      5  C   UNL     1     139.079 142.429 134.517  1.00  0.00     0.034 C 
BRANCH   5   6
ATOM      6  C   UNL     1     139.994 142.169 135.703  1.00  0.00    -0.077 C 
ATOM      7  C   UNL     1     139.664 142.807 137.030  1.00  0.00     0.039 C 
ATOM      8  C   UNL     1     141.088 141.378 135.639  1.00  0.00    -0.027 CG0
ATOM      9  G   UNL     1     141.574 140.671 134.392  1.00  0.00     0.000 G0
ENDBRANCH   5   6
ENDBRANCH   4   5
ENDBRANCH   2   4
BRANCH   1  10
ATOM     10  C   UNL     1     138.842 138.742 134.154  1.00  0.00     0.057 C 
BRANCH  10  11
ATOM     11  C   UNL     1     139.984 138.011 133.490  1.00  0.00    -0.026 C 
ATOM     12  C   UNL     1     141.312 138.188 133.684  1.00  0.00    -0.024 C 
BRANCH  12  13
ATOM     13  C   UNL     1     142.029 139.188 134.604  1.00  0.00    -0.014 C 
ATOM     14  C   UNL     1     141.816 138.787 136.080  1.00  0.00     0.016 C 
ATOM     15  C   UNL     1     143.548 139.084 134.319  1.00  0.00     0.016 C 
BRANCH  13  16
ATOM     16  C   UNL     1     141.592 140.670 134.373  1.00  0.00     0.038 CG0
ATOM     17  G   UNL     1     141.083 141.336 135.632  1.00  0.00     0.000 G0
ENDBRANCH  13  16
ENDBRANCH  12  13
ENDBRANCH  10  11
ENDBRANCH   1  10
TORSDOF 0
ENDMDL
MODEL 2
REMARK VINA RESULT:    -3.591      2.026      3.855
REMARK INTER + INTRA:          -4.357
REMARK INTER:                  -5.230
REMARK INTRA:                   0.872
REMARK UNBOUND:                 0.704
REMARK SMILES CC1=CCCC(C)=CCC(C)(C)C=CC1
REMARK SMILES IDX 2 1 3 2 1 3 4 4 5 5 6 6 7 7 8 8 15 10 14 11 13 12 10 13
REMARK SMILES IDX 11 14 12 15 9 16
REMARK H PARENT
REMARK Flexibility Score: 60.00
ROOT
ATOM      1  C   UNL     1     139.741 144.220 133.184  1.00  0.00    -0.074 C 
ATOM      2  C   UNL     1     141.047 144.579 133.247  1.00  0.00    -0.027 C 
ATOM      3  C   UNL     1     139.000 144.533 131.906  1.00  0.00     0.039 C 
ENDROOT
BRANCH   2   4
ATOM      4  C   UNL     1     141.972 144.403 134.429  1.00  0.00     0.032 C 
BRANCH   4   5
ATOM      5  C   UNL     1     142.900 143.176 134.305  1.00  0.00     0.034 C 
BRANCH   5   6
ATOM      6  C   UNL     1     142.704 142.119 135.381  1.00  0.00    -0.077 C 
ATOM      7  C   UNL     1     143.573 142.167 136.614  1.00  0.00     0.039 C 
ATOM      8  C   UNL     1     141.776 141.140 135.301  1.00  0.00    -0.027 CG0
ATOM      9  G   UNL     1     140.832 140.935 134.136  1.00  0.00     0.000 G0
ENDBRANCH   5   6
ENDBRANCH   4   5
ENDBRANCH   2   4
BRANCH   1  10
ATOM     10  C   UNL     1     138.965 143.576 134.324  1.00  0.00     0.057 C 
BRANCH  10  11
ATOM     11  C   UNL     1     138.073 142.468 133.818  1.00  0.00    -0.026 C 
ATOM     12  C   UNL     1     138.262 141.132 133.921  1.00  0.00    -0.024 C 
BRANCH  12  13
ATOM     13  C   UNL     1     139.436 140.369 134.553  1.00  0.00    -0.014 C 
ATOM     14  C   UNL     1     139.291 140.365 136.091  1.00  0.00     0.016 C 
ATOM     15  C   UNL     1     139.347 138.895 134.084  1.00  0.00     0.016 C 
BRANCH  13  16
ATOM     16  C   UNL     1     140.835 140.926 134.140  1.00  0.00     0.038 CG0
ATOM     17  G   UNL     1     141.750 141.157 135.322  1.00  0.00     0.000 G0
ENDBRANCH  13  16
ENDBRANCH  12  13
ENDBRANCH  10  11
ENDBRANCH   1  10
TORSDOF 0
ENDMDL
MODEL 3
REMARK VINA RESULT:    -3.518      2.557      3.996
REMARK INTER + INTRA:          -4.254
REMARK INTER:                  -5.039
REMARK INTRA:                   0.785
REMARK UNBOUND:                 0.704
REMARK SMILES CC1=CCCC(C)=CCC(C)(C)C=CC1
REMARK SMILES IDX 2 1 3 2 1 3 4 4 5 5 6 6 7 7 8 8 15 10 14 11 13 12 10 13
REMARK SMILES IDX 11 14 12 15 9 16
REMARK H PARENT
REMARK Flexibility Score: 60.00
ROOT
ATOM      1  C   UNL     1     143.389 138.970 132.266  1.00  0.00    -0.074 C 
ATOM      2  C   UNL     1     144.324 139.878 132.643  1.00  0.00    -0.027 C 
ATOM      3  C   UNL     1     143.855 137.813 131.415  1.00  0.00     0.039 C 
ENDROOT
BRANCH   2   4
ATOM      4  C   UNL     1     144.086 141.129 133.457  1.00  0.00     0.032 C 
BRANCH   4   5
ATOM      5  C   UNL     1     144.403 140.954 134.957  1.00  0.00     0.034 C 
BRANCH   5   6
ATOM      6  C   UNL     1     143.229 141.207 135.889  1.00  0.00    -0.077 C 
ATOM      7  C   UNL     1     143.002 142.604 136.411  1.00  0.00     0.039 C 
ATOM      8  C   UNL     1     142.359 140.243 136.266  1.00  0.00    -0.027 CG0
ATOM      9  G   UNL     1     142.442 138.791 135.850  1.00  0.00     0.000 G0
ENDBRANCH   5   6
ENDBRANCH   4   5
ENDBRANCH   2   4
BRANCH   1  10
ATOM     10  C   UNL     1     141.907 139.069 132.597  1.00  0.00     0.057 C 
BRANCH  10  11
ATOM     11  C   UNL     1     141.357 137.731 133.032  1.00  0.00    -0.026 C 
ATOM     12  C   UNL     1     140.986 137.347 134.276  1.00  0.00    -0.024 C 
BRANCH  12  13
ATOM     13  C   UNL     1     141.042 138.143 135.589  1.00  0.00    -0.014 C 
ATOM     14  C   UNL     1     139.946 139.232 135.588  1.00  0.00     0.016 C 
ATOM     15  C   UNL     1     140.711 137.167 136.746  1.00  0.00     0.016 C 
BRANCH  13  16
ATOM     16  C   UNL     1     142.440 138.776 135.874  1.00  0.00     0.038 CG0
ATOM     17  G   UNL     1     142.356 140.232 136.280  1.00  0.00     0.000 G0
ENDBRANCH  13  16
ENDBRANCH  12  13
ENDBRANCH  10  11
ENDBRANCH   1  10
TORSDOF 0
ENDMDL
MODEL 4
REMARK VINA RESULT:    -3.482      2.919      5.111
REMARK INTER + INTRA:          -4.203
REMARK INTER:                  -5.060
REMARK INTRA:                   0.857
REMARK UNBOUND:                 0.704
REMARK SMILES CC1=CCCC(C)=CCC(C)(C)C=CC1
REMARK SMILES IDX 2 1 3 2 1 3 4 4 5 5 6 6 7 7 8 8 15 10 14 11 13 12 10 13
REMARK SMILES IDX 11 14 12 15 9 16
REMARK H PARENT
REMARK Flexibility Score: 60.00
ROOT
ATOM      1  C   UNL     1     143.816 142.040 135.248  1.00  0.00    -0.074 C 
ATOM      2  C   UNL     1     143.674 143.105 134.419  1.00  0.00    -0.027 C 
ATOM      3  C   UNL     1     143.523 142.262 136.712  1.00  0.00     0.039 C 
ENDROOT
BRANCH   2   4
ATOM      4  C   UNL     1     143.946 143.130 132.932  1.00  0.00     0.032 C 
BRANCH   4   5
ATOM      5  C   UNL     1     142.714 142.767 132.077  1.00  0.00     0.034 C 
BRANCH   5   6
ATOM      6  C   UNL     1     142.881 141.524 131.217  1.00  0.00    -0.077 C 
ATOM      7  C   UNL     1     143.574 141.649 129.883  1.00  0.00     0.039 C 
ATOM      8  C   UNL     1     142.452 140.298 131.594  1.00  0.00    -0.027 CG0
ATOM      9  G   UNL     1     141.729 139.993 132.887  1.00  0.00     0.000 G0
ENDBRANCH   5   6
ENDBRANCH   4   5
ENDBRANCH   2   4
BRANCH   1  10
ATOM     10  C   UNL     1     144.296 140.663 134.811  1.00  0.00     0.057 C 
BRANCH  10  11
ATOM     11  C   UNL     1     143.510 139.570 135.497  1.00  0.00    -0.026 C 
ATOM     12  C   UNL     1     142.623 138.710 134.945  1.00  0.00    -0.024 C 
BRANCH  12  13
ATOM     13  C   UNL     1     142.148 138.616 133.487  1.00  0.00    -0.014 C 
ATOM     14  C   UNL     1     143.241 137.952 132.622  1.00  0.00     0.016 C 
ATOM     15  C   UNL     1     140.912 137.682 133.454  1.00  0.00     0.016 C 
BRANCH  13  16
ATOM     16  C   UNL     1     141.731 139.992 132.878  1.00  0.00     0.038 CG0
ATOM     17  G   UNL     1     142.456 140.309 131.588  1.00  0.00     0.000 G0
ENDBRANCH  13  16
ENDBRANCH  12  13
ENDBRANCH  10  11
ENDBRANCH   1  10
TORSDOF 0
ENDMDL
MODEL 5
REMARK VINA RESULT:    -3.448      2.199      4.170
REMARK INTER + INTRA:          -4.155
REMARK INTER:                  -5.103
REMARK INTRA:                   0.948
REMARK UNBOUND:                 0.704
REMARK SMILES CC1=CCCC(C)=CCC(C)(C)C=CC1
REMARK SMILES IDX 2 1 3 2 1 3 4 4 5 5 6 6 7 7 8 8 15 10 14 11 13 12 10 13
REMARK SMILES IDX 11 14 12 15 9 16
REMARK H PARENT
REMARK Flexibility Score: 60.00
ROOT
ATOM      1  C   UNL     1     143.940 142.933 133.268  1.00  0.00    -0.074 C 
ATOM      2  C   UNL     1     142.892 143.740 133.571  1.00  0.00    -0.027 C 
ATOM      3  C   UNL     1     144.686 143.223 131.988  1.00  0.00     0.039 C 
ENDROOT
BRANCH   2   4
ATOM      4  C   UNL     1     141.981 143.618 134.771  1.00  0.00     0.032 C 
BRANCH   4   5
ATOM      5  C   UNL     1     140.527 143.255 134.403  1.00  0.00     0.034 C 
BRANCH   5   6
ATOM      6  C   UNL     1     140.390 142.148 133.370  1.00  0.00    -0.077 C 
ATOM      7  C   UNL     1     139.733 142.462 132.048  1.00  0.00     0.039 C 
ATOM      8  C   UNL     1     140.843 140.889 133.566  1.00  0.00    -0.027 CG0
ATOM      9  G   UNL     1     141.513 140.397 134.830  1.00  0.00     0.000 G0
ENDBRANCH   5   6
ENDBRANCH   4   5
ENDBRANCH   2   4
BRANCH   1  10
ATOM     10  C   UNL     1     144.377 141.735 134.099  1.00  0.00     0.057 C 
BRANCH  10  11
ATOM     11  C   UNL     1     144.311 140.460 133.292  1.00  0.00    -0.026 C 
ATOM     12  C   UNL     1     143.506 139.390 133.489  1.00  0.00    -0.024 C 
BRANCH  12  13
ATOM     13  C   UNL     1     142.460 139.158 134.590  1.00  0.00    -0.014 C 
ATOM     14  C   UNL     1     141.622 137.904 134.259  1.00  0.00     0.016 C 
ATOM     15  C   UNL     1     143.220 138.861 135.908  1.00  0.00     0.016 C 
BRANCH  13  16
ATOM     16  C   UNL     1     141.529 140.388 134.833  1.00  0.00     0.038 CG0
ATOM     17  G   UNL     1     140.869 140.886 133.566  1.00  0.00     0.000 G0
ENDBRANCH  13  16
ENDBRANCH  12  13
ENDBRANCH  10  11
ENDBRANCH   1  10
TORSDOF 0
ENDMDL
MODEL 6
REMARK VINA RESULT:    -3.438      1.820      4.660
REMARK INTER + INTRA:          -4.141
REMARK INTER:                  -4.931
REMARK INTRA:                   0.789
REMARK UNBOUND:                 0.704
REMARK SMILES CC1=CCCC(C)=CCC(C)(C)C=CC1
REMARK SMILES IDX 2 1 3 2 1 3 4 4 5 5 6 6 7 7 8 8 15 10 14 11 13 12 10 13
REMARK SMILES IDX 11 14 12 15 9 16
REMARK H PARENT
REMARK Flexibility Score: 60.00
ROOT
ATOM      1  C   UNL     1     141.449 138.214 135.883  1.00  0.00    -0.074 C 
ATOM      2  C   UNL     1     142.656 138.536 135.355  1.00  0.00    -0.027 C 
ATOM      3  C   UNL     1     141.382 138.006 137.376  1.00  0.00     0.039 C 
ENDROOT
BRANCH   2   4
ATOM      4  C   UNL     1     142.969 138.752 133.892  1.00  0.00     0.032 C 
BRANCH   4   5
ATOM      5  C   UNL     1     142.752 140.207 133.427  1.00  0.00     0.034 C 
BRANCH   5   6
ATOM      6  C   UNL     1     141.867 140.357 132.200  1.00  0.00    -0.077 C 
ATOM      7  C   UNL     1     142.436 140.013 130.846  1.00  0.00     0.039 C 
ATOM      8  C   UNL     1     140.580 140.769 132.257  1.00  0.00    -0.027 CG0
ATOM      9  G   UNL     1     139.854 141.166 133.524  1.00  0.00     0.000 G0
ENDBRANCH   5   6
ENDBRANCH   4   5
ENDBRANCH   2   4
BRANCH   1  10
ATOM     10  C   UNL     1     140.179 138.000 135.069  1.00  0.00     0.057 C 
BRANCH  10  11
ATOM     11  C   UNL     1     139.022 138.775 135.654  1.00  0.00    -0.026 C 
ATOM     12  C   UNL     1     138.309 139.769 135.076  1.00  0.00    -0.024 C 
BRANCH  12  13
ATOM     13  C   UNL     1     138.486 140.404 133.688  1.00  0.00    -0.014 C 
ATOM     14  C   UNL     1     138.317 139.327 132.595  1.00  0.00     0.016 C 
ATOM     15  C   UNL     1     137.344 141.434 133.493  1.00  0.00     0.016 C 
BRANCH  13  16
ATOM     16  C   UNL     1     139.847 141.150 133.514  1.00  0.00     0.038 CG0
ATOM     17  G   UNL     1     140.564 140.775 132.236  1.00  0.00     0.000 G0
ENDBRANCH  13  16
ENDBRANCH  12  13
ENDBRANCH  10  11
ENDBRANCH   1  10
TORSDOF 0
ENDMDL
MODEL 7
REMARK VINA RESULT:    -3.418      3.046      4.904
REMARK INTER + INTRA:          -4.112
REMARK INTER:                  -4.923
REMARK INTRA:                   0.811
REMARK UNBOUND:                 0.704
REMARK SMILES CC1=CCCC(C)=CCC(C)(C)C=CC1
REMARK SMILES IDX 2 1 3 2 1 3 4 4 5 5 6 6 7 7 8 8 15 10 14 11 13 12 10 13
REMARK SMILES IDX 11 14 12 15 9 16
REMARK H PARENT
REMARK Flexibility Score: 60.00
ROOT
ATOM      1  C   UNL     1     140.966 144.319 134.954  1.00  0.00    -0.074 C 
ATOM      2  C   UNL     1     139.707 143.985 134.576  1.00  0.00    -0.027 C 
ATOM      3  C   UNL     1     141.237 144.418 136.436  1.00  0.00     0.039 C 
ENDROOT
BRANCH   2   4
ATOM      4  C   UNL     1     139.196 143.864 133.158  1.00  0.00     0.032 C 
BRANCH   4   5
ATOM      5  C   UNL     1     138.899 142.410 132.735  1.00  0.00     0.034 C 
BRANCH   5   6
ATOM      6  C   UNL     1     139.985 141.408 133.096  1.00  0.00    -0.077 C 
ATOM      7  C   UNL     1     139.715 140.402 134.188  1.00  0.00     0.039 C 
ATOM      8  C   UNL     1     141.185 141.358 132.474  1.00  0.00    -0.027 CG0
ATOM      9  G   UNL     1     141.629 142.293 131.371  1.00  0.00     0.000 G0
ENDBRANCH   5   6
ENDBRANCH   4   5
ENDBRANCH   2   4
BRANCH   1  10
ATOM     10  C   UNL     1     142.099 144.646 133.992  1.00  0.00     0.057 C 
BRANCH  10  11
ATOM     11  C   UNL     1     143.167 143.579 134.025  1.00  0.00    -0.026 C 
ATOM     12  C   UNL     1     143.602 142.803 133.005  1.00  0.00    -0.024 C 
BRANCH  12  13
ATOM     13  C   UNL     1     143.123 142.769 131.546  1.00  0.00    -0.014 C 
ATOM     14  C   UNL     1     143.325 144.154 130.895  1.00  0.00     0.016 C 
ATOM     15  C   UNL     1     144.024 141.770 130.778  1.00  0.00     0.016 C 
BRANCH  13  16
ATOM     16  C   UNL     1     141.640 142.304 131.389  1.00  0.00     0.038 CG0
ATOM     17  G   UNL     1     141.201 141.357 132.484  1.00  0.00     0.000 G0
ENDBRANCH  13  16
ENDBRANCH  12  13
ENDBRANCH  10  11
ENDBRANCH   1  10
TORSDOF 0
ENDMDL
MODEL 8
REMARK VINA RESULT:    -3.365      3.427      5.798
REMARK INTER + INTRA:          -4.038
REMARK INTER:                  -4.906
REMARK INTRA:                   0.868
REMARK UNBOUND:                 0.704
REMARK SMILES CC1=CCCC(C)=CCC(C)(C)C=CC1
REMARK SMILES IDX 2 1 3 2 1 3 4 4 5 5 6 6 7 7 8 8 15 10 14 11 13 12 10 13
REMARK SMILES IDX 11 14 12 15 9 16
REMARK H PARENT
REMARK Flexibility Score: 60.00
ROOT
ATOM      1  C   UNL     1     144.373 142.123 133.007  1.00  0.00    -0.074 C 
ATOM      2  C   UNL     1     144.423 142.570 131.728  1.00  0.00    -0.027 C 
ATOM      3  C   UNL     1     145.008 140.784 133.296  1.00  0.00     0.039 C 
ENDROOT
BRANCH   2   4
ATOM      4  C   UNL     1     143.826 143.855 131.200  1.00  0.00     0.032 C 
BRANCH   4   5
ATOM      5  C   UNL     1     142.647 143.630 130.230  1.00  0.00     0.034 C 
BRANCH   5   6
ATOM      6  C   UNL     1     141.629 142.599 130.695  1.00  0.00    -0.077 C 
ATOM      7  C   UNL     1     141.486 141.315 129.915  1.00  0.00     0.039 C 
ATOM      8  C   UNL     1     140.850 142.765 131.787  1.00  0.00    -0.027 CG0
ATOM      9  G   UNL     1     140.853 143.990 132.675  1.00  0.00     0.000 G0
ENDBRANCH   5   6
ENDBRANCH   4   5
ENDBRANCH   2   4
BRANCH   1  10
ATOM     10  C   UNL     1     143.680 142.852 134.151  1.00  0.00     0.057 C 
BRANCH  10  11
ATOM     11  C   UNL     1     142.516 142.048 134.682  1.00  0.00    -0.026 C 
ATOM     12  C   UNL     1     141.205 142.381 134.682  1.00  0.00    -0.024 C 
BRANCH  12  13
ATOM     13  C   UNL     1     140.535 143.667 134.173  1.00  0.00    -0.014 C 
ATOM     14  C   UNL     1     139.009 143.585 134.395  1.00  0.00     0.016 C 
ATOM     15  C   UNL     1     141.057 144.844 135.035  1.00  0.00     0.016 C 
BRANCH  13  16
ATOM     16  C   UNL     1     140.852 143.983 132.677  1.00  0.00     0.038 CG0
ATOM     17  G   UNL     1     140.834 142.751 131.798  1.00  0.00     0.000 G0
ENDBRANCH  13  16
ENDBRANCH  12  13
ENDBRANCH  10  11
ENDBRANCH   1  10
TORSDOF 0
ENDMDL
MODEL 9
REMARK VINA RESULT:    -3.340      1.487      3.993
REMARK INTER + INTRA:          -4.003
REMARK INTER:                  -4.907
REMARK INTRA:                   0.904
REMARK UNBOUND:                 0.704
REMARK SMILES CC1=CCCC(C)=CCC(C)(C)C=CC1
REMARK SMILES IDX 2 1 3 2 1 3 4 4 5 5 6 6 7 7 8 8 15 10 14 11 13 12 10 13
REMARK SMILES IDX 11 14 12 15 9 16
REMARK H PARENT
REMARK Flexibility Score: 60.00
ROOT
ATOM      1  C   UNL     1     142.650 138.014 133.065  1.00  0.00    -0.074 C 
ATOM      2  C   UNL     1     143.613 138.731 133.696  1.00  0.00    -0.027 C 
ATOM      3  C   UNL     1     142.943 137.558 131.656  1.00  0.00     0.039 C 
ENDROOT
BRANCH   2   4
ATOM      4  C   UNL     1     143.530 139.322 135.085  1.00  0.00     0.032 C 
BRANCH   4   5
ATOM      5  C   UNL     1     143.579 140.864 135.100  1.00  0.00     0.034 C 
BRANCH   5   6
ATOM      6  C   UNL     1     142.629 141.540 134.123  1.00  0.00    -0.077 C 
ATOM      7  C   UNL     1     143.204 142.416 133.037  1.00  0.00     0.039 C 
ATOM      8  C   UNL     1     141.287 141.384 134.164  1.00  0.00    -0.027 CG0
ATOM      9  G   UNL     1     140.542 140.556 135.188  1.00  0.00     0.000 G0
ENDBRANCH   5   6
ENDBRANCH   4   5
ENDBRANCH   2   4
BRANCH   1  10
ATOM     10  C   UNL     1     141.287 137.686 133.659  1.00  0.00     0.057 C 
BRANCH  10  11
ATOM     11  C   UNL     1     140.178 138.340 132.869  1.00  0.00    -0.026 C 
ATOM     12  C   UNL     1     139.313 139.294 133.281  1.00  0.00    -0.024 C 
BRANCH  12  13
ATOM     13  C   UNL     1     139.195 139.961 134.660  1.00  0.00    -0.014 C 
ATOM     14  C   UNL     1     138.112 141.061 134.619  1.00  0.00     0.016 C 
ATOM     15  C   UNL     1     138.711 138.885 135.664  1.00  0.00     0.016 C 
BRANCH  13  16
ATOM     16  C   UNL     1     140.544 140.544 135.187  1.00  0.00     0.038 CG0
ATOM     17  G   UNL     1     141.271 141.375 134.152  1.00  0.00     0.000 G0
ENDBRANCH  13  16
ENDBRANCH  12  13
ENDBRANCH  10  11
ENDBRANCH   1  10
TORSDOF 0
ENDMDL
