MODEL 1
REMARK VINA RESULT:    -8.171      0.000      0.000
REMARK INTER + INTRA:         -10.176
REMARK INTER:                  -9.843
REMARK INTRA:                  -0.333
REMARK UNBOUND:                -0.333
REMARK SMILES O=c1c(O)c(-c2ccc(O)c(O)c2)oc2cc(O)cc(O)c12
REMARK SMILES IDX 5 1 3 2 2 3 1 4 22 5 20 6 19 7 17 8 16 9 15 10 14 11 6 12
REMARK SMILES IDX 7 13 8 14 9 15 13 16 11 17 10 18 12 20 4 22 21 24 18 26
REMARK H PARENT 10 19 12 21 4 23 21 25 18 27
REMARK Flexibility Score: inf
ROOT
ATOM      1  C   UNL     1      27.751  -0.365  -5.782  1.00  0.00     0.180 A 
ATOM      2  C   UNL     1      28.700  -1.397  -5.670  1.00  0.00     0.208 A 
ATOM      3  C   UNL     1      30.063  -1.065  -5.612  1.00  0.00     0.238 A 
ATOM      4  O   UNL     1      30.904  -1.989  -5.456  1.00  0.00    -0.285 OA
ATOM      5  C   UNL     1      30.461   0.291  -5.683  1.00  0.00     0.111 A 
ATOM      6  C   UNL     1      31.817   0.739  -5.674  1.00  0.00     0.134 A 
ATOM      7  C   UNL     1      32.090   2.112  -5.616  1.00  0.00     0.093 A 
ATOM      8  C   UNL     1      31.058   3.053  -5.634  1.00  0.00     0.123 A 
ATOM      9  C   UNL     1      29.734   2.626  -5.703  1.00  0.00     0.094 A 
ATOM     10  C   UNL     1      29.428   1.263  -5.724  1.00  0.00     0.146 A 
ATOM     11  O   UNL     1      28.153   0.901  -5.780  1.00  0.00    -0.452 OA
ENDROOT
BRANCH   1  12
ATOM     12  C   UNL     1      26.298  -0.637  -5.873  1.00  0.00     0.025 A 
ATOM     13  C   UNL     1      25.679  -0.896  -7.108  1.00  0.00     0.016 A 
ATOM     14  C   UNL     1      24.302  -1.126  -7.174  1.00  0.00     0.051 A 
ATOM     15  C   UNL     1      23.523  -1.087  -6.011  1.00  0.00     0.157 A 
ATOM     16  C   UNL     1      25.509  -0.578  -4.713  1.00  0.00     0.062 A 
ATOM     17  C   UNL     1      24.130  -0.808  -4.775  1.00  0.00     0.158 A 
BRANCH  15  18
ATOM     18  O   UNL     1      22.150  -1.319  -6.079  1.00  0.00    -0.504 OA
ATOM     19  H   UNL     1      21.720  -2.104  -5.602  1.00  0.00     0.293 HD
ENDBRANCH  15  18
BRANCH  17  20
ATOM     20  O   UNL     1      23.381  -0.755  -3.599  1.00  0.00    -0.504 OA
ATOM     21  H   UNL     1      22.963   0.105  -3.267  1.00  0.00     0.293 HD
ENDBRANCH  17  20
ENDBRANCH   1  12
BRANCH   2  22
ATOM     22  O   UNL     1      28.283  -2.728  -5.579  1.00  0.00    -0.502 OA
ATOM     23  H   UNL     1      28.290  -3.241  -4.707  1.00  0.00     0.293 HD
ENDBRANCH   2  22
BRANCH   6  24
ATOM     24  O   UNL     1      32.921  -0.115  -5.747  1.00  0.00    -0.507 OA
ATOM     25  H   UNL     1      33.091  -0.889  -5.123  1.00  0.00     0.293 HD
ENDBRANCH   6  24
BRANCH   8  26
ATOM     26  O   UNL     1      31.340   4.416  -5.593  1.00  0.00    -0.508 OA
ATOM     27  H   UNL     1      32.207   4.790  -5.960  1.00  0.00     0.293 HD
ENDBRANCH   8  26
TORSDOF 6
ENDMDL
MODEL 2
REMARK VINA RESULT:    -7.991      2.843      8.423
REMARK INTER + INTRA:          -9.959
REMARK INTER:                  -9.624
REMARK INTRA:                  -0.335
REMARK UNBOUND:                -0.333
REMARK SMILES O=c1c(O)c(-c2ccc(O)c(O)c2)oc2cc(O)cc(O)c12
REMARK SMILES IDX 5 1 3 2 2 3 1 4 22 5 20 6 19 7 17 8 16 9 15 10 14 11 6 12
REMARK SMILES IDX 7 13 8 14 9 15 13 16 11 17 10 18 12 20 4 22 21 24 18 26
REMARK H PARENT 10 19 12 21 4 23 21 25 18 27
REMARK Flexibility Score: inf
ROOT
ATOM      1  C   UNL     1      32.804   0.327  -5.539  1.00  0.00     0.180 A 
ATOM      2  C   UNL     1      31.847   1.355  -5.460  1.00  0.00     0.208 A 
ATOM      3  C   UNL     1      30.484   1.020  -5.483  1.00  0.00     0.238 A 
ATOM      4  O   UNL     1      29.633   1.940  -5.357  1.00  0.00    -0.285 OA
ATOM      5  C   UNL     1      30.094  -0.335  -5.601  1.00  0.00     0.111 A 
ATOM      6  C   UNL     1      28.741  -0.786  -5.675  1.00  0.00     0.134 A 
ATOM      7  C   UNL     1      28.469  -2.160  -5.659  1.00  0.00     0.093 A 
ATOM      8  C   UNL     1      29.503  -3.098  -5.637  1.00  0.00     0.123 A 
ATOM      9  C   UNL     1      30.828  -2.668  -5.625  1.00  0.00     0.094 A 
ATOM     10  C   UNL     1      31.130  -1.305  -5.604  1.00  0.00     0.146 A 
ATOM     11  O   UNL     1      32.405  -0.939  -5.583  1.00  0.00    -0.452 OA
ENDROOT
BRANCH   1  12
ATOM     12  C   UNL     1      34.259   0.604  -5.545  1.00  0.00     0.025 A 
ATOM     13  C   UNL     1      34.954   0.832  -6.745  1.00  0.00     0.016 A 
ATOM     14  C   UNL     1      36.332   1.067  -6.730  1.00  0.00     0.051 A 
ATOM     15  C   UNL     1      37.036   1.063  -5.518  1.00  0.00     0.157 A 
ATOM     16  C   UNL     1      34.972   0.580  -4.337  1.00  0.00     0.062 A 
ATOM     17  C   UNL     1      36.351   0.815  -4.316  1.00  0.00     0.158 A 
BRANCH  15  18
ATOM     18  O   UNL     1      38.410   1.300  -5.506  1.00  0.00    -0.504 OA
ATOM     19  H   UNL     1      38.950   1.333  -6.362  1.00  0.00     0.293 HD
ENDBRANCH  15  18
BRANCH  17  20
ATOM     20  O   UNL     1      37.025   0.797  -3.095  1.00  0.00    -0.504 OA
ATOM     21  H   UNL     1      37.975   1.132  -3.000  1.00  0.00     0.293 HD
ENDBRANCH  17  20
ENDBRANCH   1  12
BRANCH   2  22
ATOM     22  O   UNL     1      32.255   2.685  -5.322  1.00  0.00    -0.502 OA
ATOM     23  H   UNL     1      31.693   3.462  -5.645  1.00  0.00     0.293 HD
ENDBRANCH   2  22
BRANCH   6  24
ATOM     24  O   UNL     1      27.640   0.068  -5.793  1.00  0.00    -0.507 OA
ATOM     25  H   UNL     1      27.661   1.061  -5.619  1.00  0.00     0.293 HD
ENDBRANCH   6  24
BRANCH   8  26
ATOM     26  O   UNL     1      29.223  -4.463  -5.637  1.00  0.00    -0.508 OA
ATOM     27  H   UNL     1      29.547  -5.070  -4.894  1.00  0.00     0.293 HD
ENDBRANCH   8  26
TORSDOF 6
ENDMDL
MODEL 3
REMARK VINA RESULT:    -7.965      1.207      2.849
REMARK INTER + INTRA:          -9.928
REMARK INTER:                  -9.606
REMARK INTRA:                  -0.321
REMARK UNBOUND:                -0.333
REMARK SMILES O=c1c(O)c(-c2ccc(O)c(O)c2)oc2cc(O)cc(O)c12
REMARK SMILES IDX 5 1 3 2 2 3 1 4 22 5 20 6 19 7 17 8 16 9 15 10 14 11 6 12
REMARK SMILES IDX 7 13 8 14 9 15 13 16 11 17 10 18 12 20 4 22 21 24 18 26
REMARK H PARENT 10 19 12 21 4 23 21 25 18 27
REMARK Flexibility Score: inf
ROOT
ATOM      1  C   UNL     1      27.684   0.081  -5.775  1.00  0.00     0.180 A 
ATOM      2  C   UNL     1      27.987   1.452  -5.858  1.00  0.00     0.208 A 
ATOM      3  C   UNL     1      29.331   1.856  -5.797  1.00  0.00     0.238 A 
ATOM      4  O   UNL     1      29.600   3.080  -5.927  1.00  0.00    -0.285 OA
ATOM      5  C   UNL     1      30.351   0.890  -5.639  1.00  0.00     0.111 A 
ATOM      6  C   UNL     1      31.742   1.190  -5.525  1.00  0.00     0.134 A 
ATOM      7  C   UNL     1      32.675   0.145  -5.503  1.00  0.00     0.093 A 
ATOM      8  C   UNL     1      32.263  -1.189  -5.524  1.00  0.00     0.123 A 
ATOM      9  C   UNL     1      30.904  -1.492  -5.575  1.00  0.00     0.094 A 
ATOM     10  C   UNL     1      29.952  -0.472  -5.635  1.00  0.00     0.146 A 
ATOM     11  O   UNL     1      28.669  -0.806  -5.692  1.00  0.00    -0.452 OA
ENDROOT
BRANCH   1  12
ATOM     12  C   UNL     1      26.291  -0.421  -5.806  1.00  0.00     0.025 A 
ATOM     13  C   UNL     1      25.639  -0.693  -7.021  1.00  0.00     0.016 A 
ATOM     14  C   UNL     1      24.316  -1.143  -7.027  1.00  0.00     0.051 A 
ATOM     15  C   UNL     1      23.622  -1.315  -5.822  1.00  0.00     0.157 A 
ATOM     16  C   UNL     1      25.585  -0.575  -4.603  1.00  0.00     0.062 A 
ATOM     17  C   UNL     1      24.260  -1.026  -4.604  1.00  0.00     0.158 A 
BRANCH  15  18
ATOM     18  O   UNL     1      22.303  -1.766  -5.831  1.00  0.00    -0.504 OA
ATOM     19  H   UNL     1      21.544  -1.194  -5.480  1.00  0.00     0.293 HD
ENDBRANCH  15  18
BRANCH  17  20
ATOM     20  O   UNL     1      23.594  -1.179  -3.388  1.00  0.00    -0.504 OA
ATOM     21  H   UNL     1      23.945  -1.785  -2.656  1.00  0.00     0.293 HD
ENDBRANCH  17  20
ENDBRANCH   1  12
BRANCH   2  22
ATOM     22  O   UNL     1      26.965   2.388  -6.037  1.00  0.00    -0.502 OA
ATOM     23  H   UNL     1      27.076   3.210  -6.618  1.00  0.00     0.293 HD
ENDBRANCH   2  22
BRANCH   6  24
ATOM     24  O   UNL     1      32.253   2.486  -5.404  1.00  0.00    -0.507 OA
ATOM     25  H   UNL     1      32.925   2.899  -6.033  1.00  0.00     0.293 HD
ENDBRANCH   6  24
BRANCH   8  26
ATOM     26  O   UNL     1      33.197  -2.221  -5.486  1.00  0.00    -0.508 OA
ATOM     27  H   UNL     1      33.853  -2.315  -4.719  1.00  0.00     0.293 HD
ENDBRANCH   8  26
TORSDOF 6
ENDMDL
MODEL 4
REMARK VINA RESULT:    -7.804      2.752      7.836
REMARK INTER + INTRA:          -9.733
REMARK INTER:                  -9.410
REMARK INTRA:                  -0.323
REMARK UNBOUND:                -0.333
REMARK SMILES O=c1c(O)c(-c2ccc(O)c(O)c2)oc2cc(O)cc(O)c12
REMARK SMILES IDX 5 1 3 2 2 3 1 4 22 5 20 6 19 7 17 8 16 9 15 10 14 11 6 12
REMARK SMILES IDX 7 13 8 14 9 15 13 16 11 17 10 18 12 20 4 22 21 24 18 26
REMARK H PARENT 10 19 12 21 4 23 21 25 18 27
REMARK Flexibility Score: inf
ROOT
ATOM      1  C   UNL     1      32.776  -0.005  -5.631  1.00  0.00     0.180 A 
ATOM      2  C   UNL     1      32.440  -1.370  -5.625  1.00  0.00     0.208 A 
ATOM      3  C   UNL     1      31.084  -1.737  -5.623  1.00  0.00     0.238 A 
ATOM      4  O   UNL     1      30.790  -2.961  -5.673  1.00  0.00    -0.285 OA
ATOM      5  C   UNL     1      30.083  -0.737  -5.612  1.00  0.00     0.111 A 
ATOM      6  C   UNL     1      28.680  -0.995  -5.569  1.00  0.00     0.134 A 
ATOM      7  C   UNL     1      27.778   0.069  -5.694  1.00  0.00     0.093 A 
ATOM      8  C   UNL     1      28.229   1.387  -5.793  1.00  0.00     0.123 A 
ATOM      9  C   UNL     1      29.596   1.654  -5.776  1.00  0.00     0.094 A 
ATOM     10  C   UNL     1      30.521   0.611  -5.690  1.00  0.00     0.146 A 
ATOM     11  O   UNL     1      31.814   0.909  -5.686  1.00  0.00    -0.452 OA
ENDROOT
BRANCH   1  12
ATOM     12  C   UNL     1      34.182   0.461  -5.608  1.00  0.00     0.025 A 
ATOM     13  C   UNL     1      34.895   0.693  -6.796  1.00  0.00     0.016 A 
ATOM     14  C   UNL     1      36.229   1.109  -6.750  1.00  0.00     0.051 A 
ATOM     15  C   UNL     1      36.871   1.286  -5.518  1.00  0.00     0.157 A 
ATOM     16  C   UNL     1      34.837   0.620  -4.376  1.00  0.00     0.062 A 
ATOM     17  C   UNL     1      36.171   1.037  -4.325  1.00  0.00     0.158 A 
BRANCH  15  18
ATOM     18  O   UNL     1      38.201   1.704  -5.475  1.00  0.00    -0.504 OA
ATOM     19  H   UNL     1      38.945   1.077  -5.191  1.00  0.00     0.293 HD
ENDBRANCH  15  18
BRANCH  17  20
ATOM     20  O   UNL     1      36.785   1.197  -3.083  1.00  0.00    -0.504 OA
ATOM     21  H   UNL     1      36.302   1.608  -2.294  1.00  0.00     0.293 HD
ENDBRANCH  17  20
ENDBRANCH   1  12
BRANCH   2  22
ATOM     22  O   UNL     1      33.445  -2.341  -5.659  1.00  0.00    -0.502 OA
ATOM     23  H   UNL     1      34.303  -2.254  -5.129  1.00  0.00     0.293 HD
ENDBRANCH   2  22
BRANCH   6  24
ATOM     24  O   UNL     1      28.126  -2.265  -5.380  1.00  0.00    -0.507 OA
ATOM     25  H   UNL     1      27.368  -2.473  -4.749  1.00  0.00     0.293 HD
ENDBRANCH   6  24
BRANCH   8  26
ATOM     26  O   UNL     1      27.324   2.440  -5.901  1.00  0.00    -0.508 OA
ATOM     27  H   UNL     1      27.581   3.388  -5.651  1.00  0.00     0.293 HD
ENDBRANCH   8  26
TORSDOF 6
ENDMDL
MODEL 5
REMARK VINA RESULT:    -7.699      2.428      7.314
REMARK INTER + INTRA:          -9.607
REMARK INTER:                  -9.291
REMARK INTRA:                  -0.316
REMARK UNBOUND:                -0.333
REMARK SMILES O=c1c(O)c(-c2ccc(O)c(O)c2)oc2cc(O)cc(O)c12
REMARK SMILES IDX 5 1 3 2 2 3 1 4 22 5 20 6 19 7 17 8 16 9 15 10 14 11 6 12
REMARK SMILES IDX 7 13 8 14 9 15 13 16 11 17 10 18 12 20 4 22 21 24 18 26
REMARK H PARENT 10 19 12 21 4 23 21 25 18 27
REMARK Flexibility Score: inf
ROOT
ATOM      1  C   UNL     1      31.123  -0.137  -6.129  1.00  0.00     0.180 A 
ATOM      2  C   UNL     1      30.850   0.330  -7.427  1.00  0.00     0.208 A 
ATOM      3  C   UNL     1      29.513   0.456  -7.838  1.00  0.00     0.238 A 
ATOM      4  O   UNL     1      29.275   0.928  -8.982  1.00  0.00    -0.285 OA
ATOM      5  C   UNL     1      28.468   0.098  -6.955  1.00  0.00     0.111 A 
ATOM      6  C   UNL     1      27.079   0.148  -7.280  1.00  0.00     0.134 A 
ATOM      7  C   UNL     1      26.126  -0.104  -6.284  1.00  0.00     0.093 A 
ATOM      8  C   UNL     1      26.514  -0.468  -4.993  1.00  0.00     0.123 A 
ATOM      9  C   UNL     1      27.868  -0.577  -4.682  1.00  0.00     0.094 A 
ATOM     10  C   UNL     1      28.841  -0.296  -5.644  1.00  0.00     0.146 A 
ATOM     11  O   UNL     1      30.119  -0.403  -5.302  1.00  0.00    -0.452 OA
ENDROOT
BRANCH   1  12
ATOM     12  C   UNL     1      32.506  -0.321  -5.632  1.00  0.00     0.025 A 
ATOM     13  C   UNL     1      33.253  -1.467  -5.955  1.00  0.00     0.016 A 
ATOM     14  C   UNL     1      34.548  -1.630  -5.455  1.00  0.00     0.051 A 
ATOM     15  C   UNL     1      35.109  -0.659  -4.615  1.00  0.00     0.157 A 
ATOM     16  C   UNL     1      33.065   0.639  -4.774  1.00  0.00     0.062 A 
ATOM     17  C   UNL     1      34.361   0.480  -4.271  1.00  0.00     0.158 A 
BRANCH  15  18
ATOM     18  O   UNL     1      36.402  -0.824  -4.120  1.00  0.00    -0.504 OA
ATOM     19  H   UNL     1      36.819  -0.147  -3.490  1.00  0.00     0.293 HD
ENDBRANCH  15  18
BRANCH  17  20
ATOM     20  O   UNL     1      34.889   1.461  -3.432  1.00  0.00    -0.504 OA
ATOM     21  H   UNL     1      35.430   1.230  -2.608  1.00  0.00     0.293 HD
ENDBRANCH  17  20
ENDBRANCH   1  12
BRANCH   2  22
ATOM     22  O   UNL     1      31.898   0.699  -8.276  1.00  0.00    -0.502 OA
ATOM     23  H   UNL     1      32.480   1.509  -8.101  1.00  0.00     0.293 HD
ENDBRANCH   2  22
BRANCH   6  24
ATOM     24  O   UNL     1      26.587   0.411  -8.562  1.00  0.00    -0.507 OA
ATOM     25  H   UNL     1      26.780  -0.149  -9.378  1.00  0.00     0.293 HD
ENDBRANCH   6  24
BRANCH   8  26
ATOM     26  O   UNL     1      25.560  -0.733  -4.013  1.00  0.00    -0.508 OA
ATOM     27  H   UNL     1      25.399  -1.672  -3.670  1.00  0.00     0.293 HD
ENDBRANCH   8  26
TORSDOF 6
ENDMDL
MODEL 6
REMARK VINA RESULT:    -7.650      2.278      3.319
REMARK INTER + INTRA:          -9.548
REMARK INTER:                  -9.231
REMARK INTRA:                  -0.317
REMARK UNBOUND:                -0.333
REMARK SMILES O=c1c(O)c(-c2ccc(O)c(O)c2)oc2cc(O)cc(O)c12
REMARK SMILES IDX 5 1 3 2 2 3 1 4 22 5 20 6 19 7 17 8 16 9 15 10 14 11 6 12
REMARK SMILES IDX 7 13 8 14 9 15 13 16 11 17 10 18 12 20 4 22 21 24 18 26
REMARK H PARENT 10 19 12 21 4 23 21 25 18 27
REMARK Flexibility Score: inf
ROOT
ATOM      1  C   UNL     1      29.847   0.167  -6.112  1.00  0.00     0.180 A 
ATOM      2  C   UNL     1      30.226  -0.241  -7.403  1.00  0.00     0.208 A 
ATOM      3  C   UNL     1      31.591  -0.266  -7.736  1.00  0.00     0.238 A 
ATOM      4  O   UNL     1      31.927  -0.685  -8.875  1.00  0.00    -0.285 OA
ATOM      5  C   UNL     1      32.556   0.132  -6.781  1.00  0.00     0.111 A 
ATOM      6  C   UNL     1      33.962   0.184  -7.023  1.00  0.00     0.134 A 
ATOM      7  C   UNL     1      34.835   0.467  -5.965  1.00  0.00     0.093 A 
ATOM      8  C   UNL     1      34.349   0.765  -4.690  1.00  0.00     0.123 A 
ATOM      9  C   UNL     1      32.975   0.775  -4.459  1.00  0.00     0.094 A 
ATOM     10  C   UNL     1      32.081   0.460  -5.485  1.00  0.00     0.146 A 
ATOM     11  O   UNL     1      30.781   0.472  -5.219  1.00  0.00    -0.452 OA
ENDROOT
BRANCH   1  12
ATOM     12  C   UNL     1      28.428   0.244  -5.695  1.00  0.00     0.025 A 
ATOM     13  C   UNL     1      27.796  -0.834  -5.052  1.00  0.00     0.016 A 
ATOM     14  C   UNL     1      26.449  -0.748  -4.688  1.00  0.00     0.051 A 
ATOM     15  C   UNL     1      25.712   0.409  -4.975  1.00  0.00     0.157 A 
ATOM     16  C   UNL     1      27.680   1.393  -5.998  1.00  0.00     0.062 A 
ATOM     17  C   UNL     1      26.332   1.483  -5.636  1.00  0.00     0.158 A 
BRANCH  15  18
ATOM     18  O   UNL     1      24.369   0.493  -4.609  1.00  0.00    -0.504 OA
ATOM     19  H   UNL     1      24.005   1.295  -4.109  1.00  0.00     0.293 HD
ENDBRANCH  15  18
BRANCH  17  20
ATOM     20  O   UNL     1      25.623   2.646  -5.942  1.00  0.00    -0.504 OA
ATOM     21  H   UNL     1      25.132   3.177  -5.234  1.00  0.00     0.293 HD
ENDBRANCH  17  20
ENDBRANCH   1  12
BRANCH   2  22
ATOM     22  O   UNL     1      29.258  -0.651  -8.324  1.00  0.00    -0.502 OA
ATOM     23  H   UNL     1      29.026  -1.625  -8.471  1.00  0.00     0.293 HD
ENDBRANCH   2  22
BRANCH   6  24
ATOM     24  O   UNL     1      34.545  -0.007  -8.280  1.00  0.00    -0.507 OA
ATOM     25  H   UNL     1      34.811   0.736  -8.908  1.00  0.00     0.293 HD
ENDBRANCH   6  24
BRANCH   8  26
ATOM     26  O   UNL     1      35.224   1.061  -3.648  1.00  0.00    -0.508 OA
ATOM     27  H   UNL     1      36.222   0.910  -3.734  1.00  0.00     0.293 HD
ENDBRANCH   8  26
TORSDOF 6
ENDMDL
MODEL 7
REMARK VINA RESULT:    -7.571      2.794      7.284
REMARK INTER + INTRA:          -9.453
REMARK INTER:                  -9.130
REMARK INTRA:                  -0.323
REMARK UNBOUND:                -0.333
REMARK SMILES O=c1c(O)c(-c2ccc(O)c(O)c2)oc2cc(O)cc(O)c12
REMARK SMILES IDX 5 1 3 2 2 3 1 4 22 5 20 6 19 7 17 8 16 9 15 10 14 11 6 12
REMARK SMILES IDX 7 13 8 14 9 15 13 16 11 17 10 18 12 20 4 22 21 24 18 26
REMARK H PARENT 10 19 12 21 4 23 21 25 18 27
REMARK Flexibility Score: inf
ROOT
ATOM      1  C   UNL     1      31.576   0.027  -5.411  1.00  0.00     0.180 A 
ATOM      2  C   UNL     1      30.597  -0.412  -4.502  1.00  0.00     0.208 A 
ATOM      3  C   UNL     1      29.245  -0.154  -4.781  1.00  0.00     0.238 A 
ATOM      4  O   UNL     1      28.370  -0.597  -3.991  1.00  0.00    -0.285 OA
ATOM      5  C   UNL     1      28.890   0.553  -5.954  1.00  0.00     0.111 A 
ATOM      6  C   UNL     1      27.555   0.904  -6.316  1.00  0.00     0.134 A 
ATOM      7  C   UNL     1      27.308   1.489  -7.565  1.00  0.00     0.093 A 
ATOM      8  C   UNL     1      28.356   1.794  -8.436  1.00  0.00     0.123 A 
ATOM      9  C   UNL     1      29.669   1.509  -8.066  1.00  0.00     0.094 A 
ATOM     10  C   UNL     1      29.943   0.892  -6.843  1.00  0.00     0.146 A 
ATOM     11  O   UNL     1      31.206   0.630  -6.535  1.00  0.00    -0.452 OA
ENDROOT
BRANCH   1  12
ATOM     12  C   UNL     1      33.023  -0.185  -5.174  1.00  0.00     0.025 A 
ATOM     13  C   UNL     1      33.679  -1.337  -5.641  1.00  0.00     0.016 A 
ATOM     14  C   UNL     1      35.040  -1.528  -5.385  1.00  0.00     0.051 A 
ATOM     15  C   UNL     1      35.760  -0.578  -4.649  1.00  0.00     0.157 A 
ATOM     16  C   UNL     1      33.745   0.754  -4.420  1.00  0.00     0.062 A 
ATOM     17  C   UNL     1      35.107   0.567  -4.162  1.00  0.00     0.158 A 
BRANCH  15  18
ATOM     18  O   UNL     1      37.118  -0.770  -4.397  1.00  0.00    -0.504 OA
ATOM     19  H   UNL     1      37.801  -0.045  -4.588  1.00  0.00     0.293 HD
ENDBRANCH  15  18
BRANCH  17  20
ATOM     20  O   UNL     1      35.795   1.527  -3.420  1.00  0.00    -0.504 OA
ATOM     21  H   UNL     1      36.755   1.776  -3.621  1.00  0.00     0.293 HD
ENDBRANCH  17  20
ENDBRANCH   1  12
BRANCH   2  22
ATOM     22  O   UNL     1      30.969  -1.127  -3.360  1.00  0.00    -0.502 OA
ATOM     23  H   UNL     1      31.722  -0.828  -2.753  1.00  0.00     0.293 HD
ENDBRANCH   2  22
BRANCH   6  24
ATOM     24  O   UNL     1      26.448   0.727  -5.480  1.00  0.00    -0.507 OA
ATOM     25  H   UNL     1      25.602   0.243  -5.742  1.00  0.00     0.293 HD
ENDBRANCH   6  24
BRANCH   8  26
ATOM     26  O   UNL     1      28.103   2.390  -9.669  1.00  0.00    -0.508 OA
ATOM     27  H   UNL     1      28.343   1.930 -10.539  1.00  0.00     0.293 HD
ENDBRANCH   8  26
TORSDOF 6
ENDMDL
MODEL 8
REMARK VINA RESULT:    -7.458      2.094      3.294
REMARK INTER + INTRA:          -9.317
REMARK INTER:                  -8.995
REMARK INTRA:                  -0.322
REMARK UNBOUND:                -0.333
REMARK SMILES O=c1c(O)c(-c2ccc(O)c(O)c2)oc2cc(O)cc(O)c12
REMARK SMILES IDX 5 1 3 2 2 3 1 4 22 5 20 6 19 7 17 8 16 9 15 10 14 11 6 12
REMARK SMILES IDX 7 13 8 14 9 15 13 16 11 17 10 18 12 20 4 22 21 24 18 26
REMARK H PARENT 10 19 12 21 4 23 21 25 18 27
REMARK Flexibility Score: inf
ROOT
ATOM      1  C   UNL     1      28.945   0.148  -5.446  1.00  0.00     0.180 A 
ATOM      2  C   UNL     1      29.812   0.672  -4.471  1.00  0.00     0.208 A 
ATOM      3  C   UNL     1      31.189   0.417  -4.577  1.00  0.00     0.238 A 
ATOM      4  O   UNL     1      31.967   0.935  -3.732  1.00  0.00    -0.285 OA
ATOM      5  C   UNL     1      31.680  -0.371  -5.645  1.00  0.00     0.111 A 
ATOM      6  C   UNL     1      33.050  -0.726  -5.828  1.00  0.00     0.134 A 
ATOM      7  C   UNL     1      33.440  -1.401  -6.992  1.00  0.00     0.093 A 
ATOM      8  C   UNL     1      32.499  -1.790  -7.947  1.00  0.00     0.123 A 
ATOM      9  C   UNL     1      31.151  -1.500  -7.749  1.00  0.00     0.094 A 
ATOM     10  C   UNL     1      30.736  -0.797  -6.616  1.00  0.00     0.146 A 
ATOM     11  O   UNL     1      29.444  -0.533  -6.471  1.00  0.00    -0.452 OA
ENDROOT
BRANCH   1  12
ATOM     12  C   UNL     1      27.479   0.352  -5.389  1.00  0.00     0.025 A 
ATOM     13  C   UNL     1      26.868   1.443  -6.031  1.00  0.00     0.016 A 
ATOM     14  C   UNL     1      25.485   1.630  -5.943  1.00  0.00     0.051 A 
ATOM     15  C   UNL     1      24.698   0.739  -5.203  1.00  0.00     0.157 A 
ATOM     16  C   UNL     1      26.688  -0.526  -4.632  1.00  0.00     0.062 A 
ATOM     17  C   UNL     1      25.304  -0.343  -4.542  1.00  0.00     0.158 A 
BRANCH  15  18
ATOM     18  O   UNL     1      23.318   0.926  -5.119  1.00  0.00    -0.504 OA
ATOM     19  H   UNL     1      22.902   1.486  -4.384  1.00  0.00     0.293 HD
ENDBRANCH  15  18
BRANCH  17  20
ATOM     20  O   UNL     1      24.548  -1.244  -3.791  1.00  0.00    -0.504 OA
ATOM     21  H   UNL     1      24.902  -2.155  -3.530  1.00  0.00     0.293 HD
ENDBRANCH  17  20
ENDBRANCH   1  12
BRANCH   2  22
ATOM     22  O   UNL     1      29.309   1.467  -3.437  1.00  0.00    -0.502 OA
ATOM     23  H   UNL     1      28.372   1.850  -3.453  1.00  0.00     0.293 HD
ENDBRANCH   2  22
BRANCH   6  24
ATOM     24  O   UNL     1      34.055  -0.466  -4.891  1.00  0.00    -0.507 OA
ATOM     25  H   UNL     1      34.746  -1.135  -4.589  1.00  0.00     0.293 HD
ENDBRANCH   6  24
BRANCH   8  26
ATOM     26  O   UNL     1      32.893  -2.475  -9.095  1.00  0.00    -0.508 OA
ATOM     27  H   UNL     1      32.614  -2.166 -10.018  1.00  0.00     0.293 HD
ENDBRANCH   8  26
TORSDOF 6
ENDMDL
MODEL 9
REMARK VINA RESULT:    -7.308      3.158      7.469
REMARK INTER + INTRA:          -9.135
REMARK INTER:                  -8.833
REMARK INTRA:                  -0.302
REMARK UNBOUND:                -0.333
REMARK SMILES O=c1c(O)c(-c2ccc(O)c(O)c2)oc2cc(O)cc(O)c12
REMARK SMILES IDX 5 1 3 2 2 3 1 4 22 5 20 6 19 7 17 8 16 9 15 10 14 11 6 12
REMARK SMILES IDX 7 13 8 14 9 15 13 16 11 17 10 18 12 20 4 22 21 24 18 26
REMARK H PARENT 10 19 12 21 4 23 21 25 18 27
REMARK Flexibility Score: inf
ROOT
ATOM      1  C   UNL     1      31.995  -0.182  -7.018  1.00  0.00     0.180 A 
ATOM      2  C   UNL     1      31.717  -0.942  -8.167  1.00  0.00     0.208 A 
ATOM      3  C   UNL     1      30.405  -0.963  -8.668  1.00  0.00     0.238 A 
ATOM      4  O   UNL     1      30.173  -1.600  -9.729  1.00  0.00    -0.285 OA
ATOM      5  C   UNL     1      29.386  -0.238  -8.006  1.00  0.00     0.111 A 
ATOM      6  C   UNL     1      28.015  -0.220  -8.402  1.00  0.00     0.134 A 
ATOM      7  C   UNL     1      27.118   0.636  -7.750  1.00  0.00     0.093 A 
ATOM      8  C   UNL     1      27.530   1.425  -6.674  1.00  0.00     0.123 A 
ATOM      9  C   UNL     1      28.853   1.370  -6.242  1.00  0.00     0.094 A 
ATOM     10  C   UNL     1      29.779   0.554  -6.895  1.00  0.00     0.146 A 
ATOM     11  O   UNL     1      31.031   0.539  -6.457  1.00  0.00    -0.452 OA
ENDROOT
BRANCH   1  12
ATOM     12  C   UNL     1      33.348  -0.130  -6.415  1.00  0.00     0.025 A 
ATOM     13  C   UNL     1      34.341   0.725  -6.922  1.00  0.00     0.016 A 
ATOM     14  C   UNL     1      35.618   0.739  -6.353  1.00  0.00     0.051 A 
ATOM     15  C   UNL     1      35.923  -0.109  -5.281  1.00  0.00     0.157 A 
ATOM     16  C   UNL     1      33.665  -0.993  -5.354  1.00  0.00     0.062 A 
ATOM     17  C   UNL     1      34.941  -0.982  -4.782  1.00  0.00     0.158 A 
BRANCH  15  18
ATOM     18  O   UNL     1      37.197  -0.091  -4.714  1.00  0.00    -0.504 OA
ATOM     19  H   UNL     1      37.579   0.749  -4.294  1.00  0.00     0.293 HD
ENDBRANCH  15  18
BRANCH  17  20
ATOM     20  O   UNL     1      35.216  -1.844  -3.720  1.00  0.00    -0.504 OA
ATOM     21  H   UNL     1      34.481  -2.286  -3.182  1.00  0.00     0.293 HD
ENDBRANCH  17  20
ENDBRANCH   1  12
BRANCH   2  22
ATOM     22  O   UNL     1      32.743  -1.633  -8.819  1.00  0.00    -0.502 OA
ATOM     23  H   UNL     1      33.521  -2.046  -8.321  1.00  0.00     0.293 HD
ENDBRANCH   2  22
BRANCH   6  24
ATOM     24  O   UNL     1      27.482  -1.038  -9.404  1.00  0.00    -0.507 OA
ATOM     25  H   UNL     1      27.590  -0.878 -10.394  1.00  0.00     0.293 HD
ENDBRANCH   6  24
BRANCH   8  26
ATOM     26  O   UNL     1      26.628   2.262  -6.022  1.00  0.00    -0.508 OA
ATOM     27  H   UNL     1      25.956   1.901  -5.355  1.00  0.00     0.293 HD
ENDBRANCH   8  26
TORSDOF 6
ENDMDL
