MODEL 1
REMARK VINA RESULT:     7.190      0.000      0.000
REMARK INTER + INTRA:           9.867
REMARK INTER:                  10.133
REMARK INTRA:                  -0.266
REMARK UNBOUND:                -0.266
REMARK SMILES CCCCCCCCC(=O)[O-]
REMARK SMILES IDX 6 1 7 2 8 3 9 4 10 5 11 6 5 7 4 8 3 9 2 10 1 11
REMARK H PARENT
REMARK Flexibility Score: inf
ROOT
ATOM      1  C   UNL     1      -2.514   8.491 -23.827  1.00  0.00     0.000 C 
ENDROOT
BRANCH   1   2
ATOM      2  C   UNL     1      -1.015   8.585 -24.161  1.00  0.00     0.006 C 
BRANCH   2   3
ATOM      3  C   UNL     1      -0.758   9.380 -25.448  1.00  0.00     0.053 C 
BRANCH   3   4
ATOM      4  C   UNL     1       0.405   8.830 -26.218  1.00  0.00     0.041 C 
ATOM      5  O   UNL     1       0.989   9.540 -27.079  1.00  0.00    -0.550 OA
ATOM      6  O   UNL     1       0.859   7.542 -25.964  1.00  0.00    -0.550 OA
ENDBRANCH   3   4
ENDBRANCH   2   3
ENDBRANCH   1   2
BRANCH   1   7
ATOM      7  C   UNL     1      -2.899   7.134 -23.214  1.00  0.00     0.000 C 
BRANCH   7   8
ATOM      8  C   UNL     1      -3.410   7.259 -21.771  1.00  0.00    -0.000 C 
BRANCH   8   9
ATOM      9  C   UNL     1      -2.242   7.302 -20.778  1.00  0.00    -0.000 C 
BRANCH   9  10
ATOM     10  C   UNL     1      -2.749   7.377 -19.334  1.00  0.00    -0.003 C 
ATOM     11  C   UNL     1      -4.189   7.880 -19.280  1.00  0.00     0.004 C 
ENDBRANCH   9  10
ENDBRANCH   8   9
ENDBRANCH   7   8
ENDBRANCH   1   7
TORSDOF 7
ENDMDL
MODEL 2
REMARK VINA RESULT:     8.035      3.196      6.158
REMARK INTER + INTRA:          11.057
REMARK INTER:                  10.865
REMARK INTRA:                   0.192
REMARK UNBOUND:                -0.266
REMARK SMILES CCCCCCCCC(=O)[O-]
REMARK SMILES IDX 6 1 7 2 8 3 9 4 10 5 11 6 5 7 4 8 3 9 2 10 1 11
REMARK H PARENT
REMARK Flexibility Score: inf
ROOT
ATOM      1  C   UNL     1      -1.915   8.205 -23.000  1.00  0.00     0.000 C 
ENDROOT
BRANCH   1   2
ATOM      2  C   UNL     1      -2.843   6.982 -22.898  1.00  0.00     0.006 C 
BRANCH   2   3
ATOM      3  C   UNL     1      -3.823   7.095 -21.721  1.00  0.00     0.053 C 
BRANCH   3   4
ATOM      4  C   UNL     1      -3.107   7.315 -20.423  1.00  0.00     0.041 C 
ATOM      5  O   UNL     1      -1.860   7.160 -20.352  1.00  0.00    -0.550 OA
ATOM      6  O   UNL     1      -3.816   7.719 -19.299  1.00  0.00    -0.550 OA
ENDBRANCH   3   4
ENDBRANCH   2   3
ENDBRANCH   1   2
BRANCH   1   7
ATOM      7  C   UNL     1      -2.130   9.003 -24.297  1.00  0.00     0.000 C 
BRANCH   7   8
ATOM      8  C   UNL     1      -0.812   9.346 -25.007  1.00  0.00    -0.000 C 
BRANCH   8   9
ATOM      9  C   UNL     1       0.034   8.088 -25.232  1.00  0.00    -0.000 C 
BRANCH   9  10
ATOM     10  C   UNL     1       0.901   8.223 -26.489  1.00  0.00    -0.003 C 
ATOM     11  C   UNL     1       0.779   9.618 -27.095  1.00  0.00     0.004 C 
ENDBRANCH   9  10
ENDBRANCH   8   9
ENDBRANCH   7   8
ENDBRANCH   1   7
TORSDOF 7
ENDMDL
