MODEL 1
REMARK VINA RESULT:    -7.610      0.000      0.000
REMARK INTER + INTRA:          -8.431
REMARK INTER:                  -8.277
REMARK INTRA:                  -0.154
REMARK UNBOUND:                -0.154
REMARK SMILES CC(=O)[C@H]1CC[C@@H]2[C@H]3CC=C4C[C@@H](O)CC[C@]4(C)[C@@H]3CC[C@]12C
REMARK SMILES IDX 4 1 5 2 6 3 7 4 22 5 21 6 20 7 19 8 8 9 9 10 10 11 11 12
REMARK SMILES IDX 17 13 16 14 15 15 13 16 12 17 18 18 23 19 2 20 1 21 3 22
REMARK SMILES IDX 14 23
REMARK H PARENT 14 24
REMARK Flexibility Score: inf
ROOT
ATOM      1  C   UNL     1     136.050 135.502 112.656  1.00  0.00     0.062 C 
ATOM      2  C   UNL     1     135.863 135.839 111.183  1.00  0.00     0.012 C 
ATOM      3  C   UNL     1     137.018 136.768 110.877  1.00  0.00     0.005 C 
ATOM      4  C   UNL     1     137.166 137.641 112.129  1.00  0.00    -0.001 C 
ATOM      5  C   UNL     1     136.556 136.822 113.320  1.00  0.00    -0.020 C 
ATOM      6  C   UNL     1     137.616 136.489 114.413  1.00  0.00     0.008 C 
ATOM      7  C   UNL     1     138.466 137.691 114.884  1.00  0.00     0.005 C 
ATOM      8  C   UNL     1     138.728 138.758 113.777  1.00  0.00     0.003 C 
ATOM      9  C   UNL     1     138.630 138.097 112.375  1.00  0.00     0.000 C 
ATOM     10  C   UNL     1     139.114 139.067 111.288  1.00  0.00     0.031 C 
ATOM     11  C   UNL     1     140.554 139.378 111.547  1.00  0.00    -0.027 C 
ATOM     12  C   UNL     1     140.989 139.620 112.799  1.00  0.00    -0.065 C 
ATOM     13  C   UNL     1     139.996 139.727 113.970  1.00  0.00    -0.008 C 
ATOM     14  C   UNL     1     140.787 139.449 115.285  1.00  0.00     0.014 C 
ATOM     15  C   UNL     1     142.004 140.376 115.487  1.00  0.00     0.033 C 
ATOM     16  C   UNL     1     142.868 140.578 114.209  1.00  0.00     0.118 C 
ATOM     17  C   UNL     1     142.484 139.628 113.062  1.00  0.00     0.063 C 
ATOM     18  C   UNL     1     139.474 141.192 114.011  1.00  0.00     0.016 C 
ATOM     19  C   UNL     1     135.389 137.622 113.960  1.00  0.00     0.012 C 
ENDROOT
BRANCH   1  20
ATOM     20  C   UNL     1     134.861 134.836 113.331  1.00  0.00     0.133 C 
ATOM     21  C   UNL     1     133.476 134.854 112.738  1.00  0.00     0.088 C 
ATOM     22  O   UNL     1     135.038 134.268 114.400  1.00  0.00    -0.300 OA
ENDBRANCH   1  20
BRANCH  16  23
ATOM     23  O   UNL     1     142.776 141.906 113.751  1.00  0.00    -0.393 OA
ATOM     24  H   UNL     1     142.131 142.370 114.346  1.00  0.00     0.210 HD
ENDBRANCH  16  23
TORSDOF 2
ENDMDL
MODEL 2
REMARK VINA RESULT:    -7.568      1.433      6.866
REMARK INTER + INTRA:          -8.385
REMARK INTER:                  -8.232
REMARK INTRA:                  -0.153
REMARK UNBOUND:                -0.154
REMARK SMILES CC(=O)[C@H]1CC[C@@H]2[C@H]3CC=C4C[C@@H](O)CC[C@]4(C)[C@@H]3CC[C@]12C
REMARK SMILES IDX 4 1 5 2 6 3 7 4 22 5 21 6 20 7 19 8 8 9 9 10 10 11 11 12
REMARK SMILES IDX 17 13 16 14 15 15 13 16 12 17 18 18 23 19 2 20 1 21 3 22
REMARK SMILES IDX 14 23
REMARK H PARENT 14 24
REMARK Flexibility Score: inf
ROOT
ATOM      1  C   UNL     1     140.300 140.881 112.650  1.00  0.00     0.062 C 
ATOM      2  C   UNL     1     140.468 140.552 111.173  1.00  0.00     0.012 C 
ATOM      3  C   UNL     1     139.305 139.631 110.875  1.00  0.00     0.005 C 
ATOM      4  C   UNL     1     139.165 138.751 112.123  1.00  0.00    -0.001 C 
ATOM      5  C   UNL     1     139.794 139.559 113.312  1.00  0.00    -0.020 C 
ATOM      6  C   UNL     1     138.749 139.892 114.419  1.00  0.00     0.008 C 
ATOM      7  C   UNL     1     137.898 138.691 114.892  1.00  0.00     0.005 C 
ATOM      8  C   UNL     1     137.616 137.632 113.782  1.00  0.00     0.003 C 
ATOM      9  C   UNL     1     137.702 138.302 112.383  1.00  0.00     0.000 C 
ATOM     10  C   UNL     1     137.200 137.342 111.296  1.00  0.00     0.031 C 
ATOM     11  C   UNL     1     135.761 137.037 111.569  1.00  0.00    -0.027 C 
ATOM     12  C   UNL     1     135.339 136.790 112.824  1.00  0.00    -0.065 C 
ATOM     13  C   UNL     1     136.345 136.670 113.983  1.00  0.00    -0.008 C 
ATOM     14  C   UNL     1     135.571 136.943 115.309  1.00  0.00     0.014 C 
ATOM     15  C   UNL     1     134.351 136.022 115.519  1.00  0.00     0.033 C 
ATOM     16  C   UNL     1     133.472 135.833 114.250  1.00  0.00     0.118 C 
ATOM     17  C   UNL     1     133.847 136.789 113.105  1.00  0.00     0.063 C 
ATOM     18  C   UNL     1     136.860 135.202 114.010  1.00  0.00     0.016 C 
ATOM     19  C   UNL     1     140.964 138.749 113.933  1.00  0.00     0.012 C 
ENDROOT
BRANCH   1  20
ATOM     20  C   UNL     1     141.500 141.535 113.315  1.00  0.00     0.133 C 
ATOM     21  C   UNL     1     142.875 141.525 112.700  1.00  0.00     0.088 C 
ATOM     22  O   UNL     1     141.342 142.087 114.396  1.00  0.00    -0.300 OA
ENDBRANCH   1  20
BRANCH  16  23
ATOM     23  O   UNL     1     133.551 134.508 113.783  1.00  0.00    -0.393 OA
ATOM     24  H   UNL     1     132.712 134.330 113.282  1.00  0.00     0.210 HD
ENDBRANCH  16  23
TORSDOF 2
ENDMDL
MODEL 3
REMARK VINA RESULT:    -6.703      1.586      2.971
REMARK INTER + INTRA:          -7.445
REMARK INTER:                  -7.349
REMARK INTRA:                  -0.095
REMARK UNBOUND:                -0.154
REMARK SMILES CC(=O)[C@H]1CC[C@@H]2[C@H]3CC=C4C[C@@H](O)CC[C@]4(C)[C@@H]3CC[C@]12C
REMARK SMILES IDX 4 1 5 2 6 3 7 4 22 5 21 6 20 7 19 8 8 9 9 10 10 11 11 12
REMARK SMILES IDX 17 13 16 14 15 15 13 16 12 17 18 18 23 19 2 20 1 21 3 22
REMARK SMILES IDX 14 23
REMARK H PARENT 14 24
REMARK Flexibility Score: inf
ROOT
ATOM      1  C   UNL     1     134.758 136.670 113.080  1.00  0.00     0.062 C 
ATOM      2  C   UNL     1     134.916 136.370 114.565  1.00  0.00     0.012 C 
ATOM      3  C   UNL     1     136.072 137.251 114.988  1.00  0.00     0.005 C 
ATOM      4  C   UNL     1     137.055 137.207 113.813  1.00  0.00    -0.001 C 
ATOM      5  C   UNL     1     136.213 136.848 112.539  1.00  0.00    -0.020 C 
ATOM      6  C   UNL     1     136.242 137.982 111.471  1.00  0.00     0.008 C 
ATOM      7  C   UNL     1     137.651 138.518 111.128  1.00  0.00     0.005 C 
ATOM      8  C   UNL     1     138.655 138.481 112.321  1.00  0.00     0.003 C 
ATOM      9  C   UNL     1     137.875 138.517 113.665  1.00  0.00     0.000 C 
ATOM     10  C   UNL     1     138.841 138.719 114.841  1.00  0.00     0.031 C 
ATOM     11  C   UNL     1     139.517 140.043 114.669  1.00  0.00    -0.027 C 
ATOM     12  C   UNL     1     139.961 140.433 113.459  1.00  0.00    -0.065 C 
ATOM     13  C   UNL     1     139.918 139.473 112.257  1.00  0.00    -0.008 C 
ATOM     14  C   UNL     1     139.953 140.339 110.960  1.00  0.00     0.014 C 
ATOM     15  C   UNL     1     141.164 141.291 110.881  1.00  0.00     0.033 C 
ATOM     16  C   UNL     1     141.465 142.047 112.207  1.00  0.00     0.118 C 
ATOM     17  C   UNL     1     140.358 141.885 113.262  1.00  0.00     0.063 C 
ATOM     18  C   UNL     1     141.207 138.604 112.302  1.00  0.00     0.016 C 
ATOM     19  C   UNL     1     136.751 135.534 111.910  1.00  0.00     0.012 C 
ENDROOT
BRANCH   1  20
ATOM     20  C   UNL     1     133.880 135.700 112.306  1.00  0.00     0.133 C 
ATOM     21  C   UNL     1     133.337 134.433 112.915  1.00  0.00     0.088 C 
ATOM     22  O   UNL     1     133.606 135.959 111.142  1.00  0.00    -0.300 OA
ENDBRANCH   1  20
BRANCH  16  23
ATOM     23  O   UNL     1     142.687 141.618 112.758  1.00  0.00    -0.393 OA
ATOM     24  H   UNL     1     142.468 141.106 113.579  1.00  0.00     0.210 HD
ENDBRANCH  16  23
TORSDOF 2
ENDMDL
MODEL 4
REMARK VINA RESULT:    -6.676      1.359      7.170
REMARK INTER + INTRA:          -7.415
REMARK INTER:                  -7.259
REMARK INTRA:                  -0.155
REMARK UNBOUND:                -0.154
REMARK SMILES CC(=O)[C@H]1CC[C@@H]2[C@H]3CC=C4C[C@@H](O)CC[C@]4(C)[C@@H]3CC[C@]12C
REMARK SMILES IDX 4 1 5 2 6 3 7 4 22 5 21 6 20 7 19 8 8 9 9 10 10 11 11 12
REMARK SMILES IDX 17 13 16 14 15 15 13 16 12 17 18 18 23 19 2 20 1 21 3 22
REMARK SMILES IDX 14 23
REMARK H PARENT 14 24
REMARK Flexibility Score: inf
ROOT
ATOM      1  C   UNL     1     141.586 139.713 112.977  1.00  0.00     0.062 C 
ATOM      2  C   UNL     1     141.446 140.019 114.463  1.00  0.00     0.012 C 
ATOM      3  C   UNL     1     140.300 139.134 114.904  1.00  0.00     0.005 C 
ATOM      4  C   UNL     1     139.302 139.167 113.741  1.00  0.00    -0.001 C 
ATOM      5  C   UNL     1     140.126 139.526 112.455  1.00  0.00    -0.020 C 
ATOM      6  C   UNL     1     140.091 138.386 111.392  1.00  0.00     0.008 C 
ATOM      7  C   UNL     1     138.680 137.841 111.069  1.00  0.00     0.005 C 
ATOM      8  C   UNL     1     137.691 137.877 112.274  1.00  0.00     0.003 C 
ATOM      9  C   UNL     1     138.488 137.851 113.608  1.00  0.00     0.000 C 
ATOM     10  C   UNL     1     137.538 137.648 114.798  1.00  0.00     0.031 C 
ATOM     11  C   UNL     1     136.868 136.320 114.639  1.00  0.00    -0.027 C 
ATOM     12  C   UNL     1     136.410 135.922 113.436  1.00  0.00    -0.065 C 
ATOM     13  C   UNL     1     136.434 136.878 112.230  1.00  0.00    -0.008 C 
ATOM     14  C   UNL     1     136.387 136.006 110.937  1.00  0.00     0.014 C 
ATOM     15  C   UNL     1     135.181 135.047 110.877  1.00  0.00     0.033 C 
ATOM     16  C   UNL     1     134.901 134.294 112.209  1.00  0.00     0.118 C 
ATOM     17  C   UNL     1     136.020 134.467 113.250  1.00  0.00     0.063 C 
ATOM     18  C   UNL     1     135.139 137.740 112.287  1.00  0.00     0.016 C 
ATOM     19  C   UNL     1     139.572 140.833 111.827  1.00  0.00     0.012 C 
ENDROOT
BRANCH   1  20
ATOM     20  C   UNL     1     142.450 140.685 112.189  1.00  0.00     0.133 C 
ATOM     21  C   UNL     1     142.813 142.053 112.706  1.00  0.00     0.088 C 
ATOM     22  O   UNL     1     142.862 140.343 111.089  1.00  0.00    -0.300 OA
ENDBRANCH   1  20
BRANCH  16  23
ATOM     23  O   UNL     1     133.683 134.719 112.774  1.00  0.00    -0.393 OA
ATOM     24  H   UNL     1     133.902 135.440 113.420  1.00  0.00     0.210 HD
ENDBRANCH  16  23
TORSDOF 2
ENDMDL
MODEL 5
REMARK VINA RESULT:    -6.207     12.584     16.311
REMARK INTER + INTRA:          -6.905
REMARK INTER:                  -6.748
REMARK INTRA:                  -0.156
REMARK UNBOUND:                -0.154
REMARK SMILES CC(=O)[C@H]1CC[C@@H]2[C@H]3CC=C4C[C@@H](O)CC[C@]4(C)[C@@H]3CC[C@]12C
REMARK SMILES IDX 4 1 5 2 6 3 7 4 22 5 21 6 20 7 19 8 8 9 9 10 10 11 11 12
REMARK SMILES IDX 17 13 16 14 15 15 13 16 12 17 18 18 23 19 2 20 1 21 3 22
REMARK SMILES IDX 14 23
REMARK H PARENT 14 24
REMARK Flexibility Score: inf
ROOT
ATOM      1  C   UNL     1     145.528 146.595 125.853  1.00  0.00     0.062 C 
ATOM      2  C   UNL     1     145.946 146.388 124.403  1.00  0.00     0.012 C 
ATOM      3  C   UNL     1     145.057 145.259 123.930  1.00  0.00     0.005 C 
ATOM      4  C   UNL     1     144.957 144.304 125.126  1.00  0.00    -0.001 C 
ATOM      5  C   UNL     1     145.242 145.163 126.408  1.00  0.00    -0.020 C 
ATOM      6  C   UNL     1     144.020 145.208 127.374  1.00  0.00     0.008 C 
ATOM      7  C   UNL     1     143.397 143.831 127.699  1.00  0.00     0.005 C 
ATOM      8  C   UNL     1     143.492 142.797 126.536  1.00  0.00     0.003 C 
ATOM      9  C   UNL     1     143.605 143.543 125.178  1.00  0.00     0.000 C 
ATOM     10  C   UNL     1     143.463 142.556 124.010  1.00  0.00     0.031 C 
ATOM     11  C   UNL     1     142.101 141.940 124.082  1.00  0.00    -0.027 C 
ATOM     12  C   UNL     1     141.590 141.543 125.263  1.00  0.00    -0.065 C 
ATOM     13  C   UNL     1     142.445 141.577 126.542  1.00  0.00    -0.008 C 
ATOM     14  C   UNL     1     141.471 141.610 127.759  1.00  0.00     0.014 C 
ATOM     15  C   UNL     1     140.464 140.442 127.782  1.00  0.00     0.033 C 
ATOM     16  C   UNL     1     139.812 140.139 126.402  1.00  0.00     0.118 C 
ATOM     17  C   UNL     1     140.111 141.211 125.342  1.00  0.00     0.063 C 
ATOM     18  C   UNL     1     143.259 140.252 126.600  1.00  0.00     0.016 C 
ATOM     19  C   UNL     1     146.472 144.587 127.160  1.00  0.00     0.012 C 
ENDROOT
BRANCH   1  20
ATOM     20  C   UNL     1     146.465 147.452 126.688  1.00  0.00     0.133 C 
ATOM     21  C   UNL     1     147.892 147.723 126.288  1.00  0.00     0.088 C 
ATOM     22  O   UNL     1     146.042 147.938 127.729  1.00  0.00    -0.300 OA
ENDBRANCH   1  20
BRANCH  16  23
ATOM     23  O   UNL     1     140.234 138.886 125.917  1.00  0.00    -0.393 OA
ATOM     24  H   UNL     1     141.209 138.826 126.091  1.00  0.00     0.210 HD
ENDBRANCH  16  23
TORSDOF 2
ENDMDL
MODEL 6
REMARK VINA RESULT:    -6.205     13.209     14.981
REMARK INTER + INTRA:          -6.902
REMARK INTER:                  -6.747
REMARK INTRA:                  -0.156
REMARK UNBOUND:                -0.154
REMARK SMILES CC(=O)[C@H]1CC[C@@H]2[C@H]3CC=C4C[C@@H](O)CC[C@]4(C)[C@@H]3CC[C@]12C
REMARK SMILES IDX 4 1 5 2 6 3 7 4 22 5 21 6 20 7 19 8 8 9 9 10 10 11 11 12
REMARK SMILES IDX 17 13 16 14 15 15 13 16 12 17 18 18 23 19 2 20 1 21 3 22
REMARK SMILES IDX 14 23
REMARK H PARENT 14 24
REMARK Flexibility Score: inf
ROOT
ATOM      1  C   UNL     1     130.911 129.902 125.943  1.00  0.00     0.062 C 
ATOM      2  C   UNL     1     130.526 130.068 124.479  1.00  0.00     0.012 C 
ATOM      3  C   UNL     1     131.431 131.180 123.994  1.00  0.00     0.005 C 
ATOM      4  C   UNL     1     131.507 132.169 125.164  1.00  0.00    -0.001 C 
ATOM      5  C   UNL     1     131.189 131.348 126.463  1.00  0.00    -0.020 C 
ATOM      6  C   UNL     1     132.388 131.327 127.458  1.00  0.00     0.008 C 
ATOM      7  C   UNL     1     133.010 132.711 127.758  1.00  0.00     0.005 C 
ATOM      8  C   UNL     1     132.945 133.711 126.564  1.00  0.00     0.003 C 
ATOM      9  C   UNL     1     132.861 132.927 125.225  1.00  0.00     0.000 C 
ATOM     10  C   UNL     1     133.034 133.878 124.033  1.00  0.00     0.031 C 
ATOM     11  C   UNL     1     134.396 134.492 124.118  1.00  0.00    -0.027 C 
ATOM     12  C   UNL     1     134.881 134.921 125.299  1.00  0.00    -0.065 C 
ATOM     13  C   UNL     1     133.997 134.927 126.558  1.00  0.00    -0.008 C 
ATOM     14  C   UNL     1     134.943 134.926 127.798  1.00  0.00     0.014 C 
ATOM     15  C   UNL     1     135.954 136.091 127.811  1.00  0.00     0.033 C 
ATOM     16  C   UNL     1     136.639 136.352 126.439  1.00  0.00     0.118 C 
ATOM     17  C   UNL     1     136.360 135.250 125.403  1.00  0.00     0.063 C 
ATOM     18  C   UNL     1     133.188 136.256 126.560  1.00  0.00     0.016 C 
ATOM     19  C   UNL     1     129.944 131.950 127.169  1.00  0.00     0.012 C 
ENDROOT
BRANCH   1  20
ATOM     20  C   UNL     1     129.951 129.072 126.781  1.00  0.00     0.133 C 
ATOM     21  C   UNL     1     128.531 128.798 126.357  1.00  0.00     0.088 C 
ATOM     22  O   UNL     1     130.348 128.613 127.843  1.00  0.00    -0.300 OA
ENDBRANCH   1  20
BRANCH  16  23
ATOM     23  O   UNL     1     136.233 137.591 125.908  1.00  0.00    -0.393 OA
ATOM     24  H   UNL     1     135.869 138.121 126.664  1.00  0.00     0.210 HD
ENDBRANCH  16  23
TORSDOF 2
ENDMDL
MODEL 7
REMARK VINA RESULT:    -6.192     13.302     16.531
REMARK INTER + INTRA:          -6.889
REMARK INTER:                  -6.751
REMARK INTRA:                  -0.138
REMARK UNBOUND:                -0.154
REMARK SMILES CC(=O)[C@H]1CC[C@@H]2[C@H]3CC=C4C[C@@H](O)CC[C@]4(C)[C@@H]3CC[C@]12C
REMARK SMILES IDX 4 1 5 2 6 3 7 4 22 5 21 6 20 7 19 8 8 9 9 10 10 11 11 12
REMARK SMILES IDX 17 13 16 14 15 15 13 16 12 17 18 18 23 19 2 20 1 21 3 22
REMARK SMILES IDX 14 23
REMARK H PARENT 14 24
REMARK Flexibility Score: inf
ROOT
ATOM      1  C   UNL     1     134.910 136.021 126.157  1.00  0.00     0.062 C 
ATOM      2  C   UNL     1     134.972 136.097 124.637  1.00  0.00     0.012 C 
ATOM      3  C   UNL     1     133.887 135.142 124.186  1.00  0.00     0.005 C 
ATOM      4  C   UNL     1     133.959 133.967 125.168  1.00  0.00    -0.001 C 
ATOM      5  C   UNL     1     134.609 134.523 126.483  1.00  0.00    -0.020 C 
ATOM      6  C   UNL     1     133.644 134.435 127.704  1.00  0.00     0.008 C 
ATOM      7  C   UNL     1     132.970 133.057 127.902  1.00  0.00     0.005 C 
ATOM      8  C   UNL     1     132.697 132.284 126.576  1.00  0.00     0.003 C 
ATOM      9  C   UNL     1     132.581 133.289 125.397  1.00  0.00     0.000 C 
ATOM     10  C   UNL     1     132.081 132.577 124.131  1.00  0.00     0.031 C 
ATOM     11  C   UNL     1     130.713 132.036 124.409  1.00  0.00    -0.027 C 
ATOM     12  C   UNL     1     130.440 131.432 125.581  1.00  0.00    -0.065 C 
ATOM     13  C   UNL     1     131.557 131.151 126.601  1.00  0.00    -0.008 C 
ATOM     14  C   UNL     1     130.887 130.985 127.999  1.00  0.00     0.014 C 
ATOM     15  C   UNL     1     129.795 129.896 128.041  1.00  0.00     0.033 C 
ATOM     16  C   UNL     1     128.825 129.923 126.825  1.00  0.00     0.118 C 
ATOM     17  C   UNL     1     128.989 131.174 125.947  1.00  0.00     0.063 C 
ATOM     18  C   UNL     1     132.222 129.799 126.212  1.00  0.00     0.016 C 
ATOM     19  C   UNL     1     135.910 133.735 126.796  1.00  0.00     0.012 C 
ENDROOT
BRANCH   1  20
ATOM     20  C   UNL     1     136.093 136.632 126.891  1.00  0.00     0.133 C 
ATOM     21  C   UNL     1     137.371 137.018 126.192  1.00  0.00     0.088 C 
ATOM     22  O   UNL     1     136.003 136.812 128.098  1.00  0.00    -0.300 OA
ENDBRANCH   1  20
BRANCH  16  23
ATOM     23  O   UNL     1     128.996 128.778 126.026  1.00  0.00    -0.393 OA
ATOM     24  H   UNL     1     128.088 128.455 125.788  1.00  0.00     0.210 HD
ENDBRANCH  16  23
TORSDOF 2
ENDMDL
MODEL 8
REMARK VINA RESULT:    -6.180     12.241     14.844
REMARK INTER + INTRA:          -6.875
REMARK INTER:                  -6.788
REMARK INTRA:                  -0.087
REMARK UNBOUND:                -0.154
REMARK SMILES CC(=O)[C@H]1CC[C@@H]2[C@H]3CC=C4C[C@@H](O)CC[C@]4(C)[C@@H]3CC[C@]12C
REMARK SMILES IDX 4 1 5 2 6 3 7 4 22 5 21 6 20 7 19 8 8 9 9 10 10 11 11 12
REMARK SMILES IDX 17 13 16 14 15 15 13 16 12 17 18 18 23 19 2 20 1 21 3 22
REMARK SMILES IDX 14 23
REMARK H PARENT 14 24
REMARK Flexibility Score: inf
ROOT
ATOM      1  C   UNL     1     141.441 140.410 125.857  1.00  0.00     0.062 C 
ATOM      2  C   UNL     1     141.410 140.419 124.335  1.00  0.00     0.012 C 
ATOM      3  C   UNL     1     142.519 141.379 123.959  1.00  0.00     0.005 C 
ATOM      4  C   UNL     1     142.445 142.499 125.004  1.00  0.00    -0.001 C 
ATOM      5  C   UNL     1     141.758 141.882 126.272  1.00  0.00    -0.020 C 
ATOM      6  C   UNL     1     142.699 141.887 127.515  1.00  0.00     0.008 C 
ATOM      7  C   UNL     1     143.390 143.240 127.804  1.00  0.00     0.005 C 
ATOM      8  C   UNL     1     143.702 144.081 126.528  1.00  0.00     0.003 C 
ATOM      9  C   UNL     1     143.828 143.141 125.297  1.00  0.00     0.000 C 
ATOM     10  C   UNL     1     144.366 143.913 124.084  1.00  0.00     0.031 C 
ATOM     11  C   UNL     1     145.735 144.415 124.418  1.00  0.00    -0.027 C 
ATOM     12  C   UNL     1     145.993 144.949 125.627  1.00  0.00    -0.065 C 
ATOM     13  C   UNL     1     144.859 145.191 126.639  1.00  0.00    -0.008 C 
ATOM     14  C   UNL     1     145.502 145.269 128.058  1.00  0.00     0.014 C 
ATOM     15  C   UNL     1     146.609 146.336 128.182  1.00  0.00     0.033 C 
ATOM     16  C   UNL     1     147.605 146.359 126.987  1.00  0.00     0.118 C 
ATOM     17  C   UNL     1     147.440 145.162 126.036  1.00  0.00     0.063 C 
ATOM     18  C   UNL     1     144.223 146.573 126.312  1.00  0.00     0.016 C 
ATOM     19  C   UNL     1     140.464 142.673 126.603  1.00  0.00     0.012 C 
ENDROOT
BRANCH   1  20
ATOM     20  C   UNL     1     140.234 139.779 126.532  1.00  0.00     0.133 C 
ATOM     21  C   UNL     1     140.183 139.502 128.012  1.00  0.00     0.088 C 
ATOM     22  O   UNL     1     139.267 139.482 125.843  1.00  0.00    -0.300 OA
ENDBRANCH   1  20
BRANCH  16  23
ATOM     23  O   UNL     1     147.468 147.550 126.249  1.00  0.00    -0.393 OA
ATOM     24  H   UNL     1     146.998 148.199 126.836  1.00  0.00     0.210 HD
ENDBRANCH  16  23
TORSDOF 2
ENDMDL
MODEL 9
REMARK VINA RESULT:    -6.050     13.440     15.581
REMARK INTER + INTRA:          -6.734
REMARK INTER:                  -6.861
REMARK INTRA:                   0.127
REMARK UNBOUND:                -0.154
REMARK SMILES CC(=O)[C@H]1CC[C@@H]2[C@H]3CC=C4C[C@@H](O)CC[C@]4(C)[C@@H]3CC[C@]12C
REMARK SMILES IDX 4 1 5 2 6 3 7 4 22 5 21 6 20 7 19 8 8 9 9 10 10 11 11 12
REMARK SMILES IDX 17 13 16 14 15 15 13 16 12 17 18 18 23 19 2 20 1 21 3 22
REMARK SMILES IDX 14 23
REMARK H PARENT 14 24
REMARK Flexibility Score: inf
ROOT
ATOM      1  C   UNL     1     129.500 130.057 126.273  1.00  0.00     0.062 C 
ATOM      2  C   UNL     1     129.086 130.391 127.700  1.00  0.00     0.012 C 
ATOM      3  C   UNL     1     129.749 131.726 127.963  1.00  0.00     0.005 C 
ATOM      4  C   UNL     1     131.117 131.632 127.276  1.00  0.00    -0.001 C 
ATOM      5  C   UNL     1     130.975 130.554 126.145  1.00  0.00    -0.020 C 
ATOM      6  C   UNL     1     131.207 131.153 124.725  1.00  0.00     0.008 C 
ATOM      7  C   UNL     1     132.484 132.012 124.581  1.00  0.00     0.005 C 
ATOM      8  C   UNL     1     132.885 132.781 125.877  1.00  0.00     0.003 C 
ATOM      9  C   UNL     1     131.630 133.004 126.764  1.00  0.00     0.000 C 
ATOM     10  C   UNL     1     131.954 133.959 127.923  1.00  0.00     0.031 C 
ATOM     11  C   UNL     1     132.347 135.281 127.344  1.00  0.00    -0.027 C 
ATOM     12  C   UNL     1     133.161 135.345 126.273  1.00  0.00    -0.065 C 
ATOM     13  C   UNL     1     133.822 134.075 125.709  1.00  0.00    -0.008 C 
ATOM     14  C   UNL     1     134.211 134.365 124.227  1.00  0.00     0.014 C 
ATOM     15  C   UNL     1     135.116 135.601 124.050  1.00  0.00     0.033 C 
ATOM     16  C   UNL     1     134.674 136.836 124.886  1.00  0.00     0.118 C 
ATOM     17  C   UNL     1     133.290 136.666 125.534  1.00  0.00     0.063 C 
ATOM     18  C   UNL     1     135.128 133.826 126.518  1.00  0.00     0.016 C 
ATOM     19  C   UNL     1     131.988 129.403 126.390  1.00  0.00     0.012 C 
ENDROOT
BRANCH   1  20
ATOM     20  C   UNL     1     129.247 128.622 125.838  1.00  0.00     0.133 C 
ATOM     21  C   UNL     1     129.695 128.087 124.503  1.00  0.00     0.088 C 
ATOM     22  O   UNL     1     128.651 127.875 126.602  1.00  0.00    -0.300 OA
ENDBRANCH   1  20
BRANCH  16  23
ATOM     23  O   UNL     1     135.617 137.120 125.892  1.00  0.00    -0.393 OA
ATOM     24  H   UNL     1     136.163 136.299 126.012  1.00  0.00     0.210 HD
ENDBRANCH  16  23
TORSDOF 2
ENDMDL
