MODEL 1
REMARK VINA RESULT:    -6.249      0.000      0.000
REMARK INTER + INTRA:         -11.739
REMARK INTER:                 -10.633
REMARK INTRA:                  -1.106
REMARK UNBOUND:                -1.106
REMARK SMILES CCCCCCCCCCCCCC(=O)[O-]
REMARK SMILES IDX 8 1 9 2 10 3 11 4 12 5 13 6 14 7 15 8 16 9 7 10 6 11 5 12
REMARK SMILES IDX 4 13 3 14 2 15 1 16
REMARK H PARENT
REMARK Flexibility Score: inf
ROOT
ATOM      1  C   UNL     1      17.354  71.851  73.753  1.00  0.00     0.000 C 
ENDROOT
BRANCH   1   2
ATOM      2  C   UNL     1      18.801  71.671  73.264  1.00  0.00     0.000 C 
BRANCH   2   3
ATOM      3  C   UNL     1      18.894  71.412  71.750  1.00  0.00     0.000 C 
BRANCH   3   4
ATOM      4  C   UNL     1      20.324  71.384  71.173  1.00  0.00     0.000 C 
BRANCH   4   5
ATOM      5  C   UNL     1      21.189  72.620  71.489  1.00  0.00     0.006 C 
BRANCH   5   6
ATOM      6  C   UNL     1      22.669  72.295  71.765  1.00  0.00     0.053 C 
BRANCH   6   7
ATOM      7  C   UNL     1      22.939  72.017  73.212  1.00  0.00     0.041 C 
ATOM      8  O   UNL     1      22.505  72.797  74.100  1.00  0.00    -0.550 OA
ATOM      9  O   UNL     1      23.637  70.875  73.584  1.00  0.00    -0.550 OA
ENDBRANCH   6   7
ENDBRANCH   5   6
ENDBRANCH   4   5
ENDBRANCH   3   4
ENDBRANCH   2   3
ENDBRANCH   1   2
BRANCH   1  10
ATOM     10  C   UNL     1      16.545  72.805  72.860  1.00  0.00     0.000 C 
BRANCH  10  11
ATOM     11  C   UNL     1      15.259  72.159  72.312  1.00  0.00    -0.000 C 
BRANCH  11  12
ATOM     12  C   UNL     1      15.342  70.625  72.276  1.00  0.00    -0.000 C 
BRANCH  12  13
ATOM     13  C   UNL     1      14.180  69.953  73.025  1.00  0.00    -0.000 C 
BRANCH  13  14
ATOM     14  C   UNL     1      13.807  70.679  74.328  1.00  0.00    -0.000 C 
BRANCH  14  15
ATOM     15  C   UNL     1      14.027  69.828  75.595  1.00  0.00    -0.003 C 
ATOM     16  C   UNL     1      14.953  70.509  76.603  1.00  0.00     0.004 C 
ENDBRANCH  14  15
ENDBRANCH  13  14
ENDBRANCH  12  13
ENDBRANCH  11  12
ENDBRANCH  10  11
ENDBRANCH   1  10
TORSDOF 12
ENDMDL
MODEL 2
REMARK VINA RESULT:    -6.186      4.031      5.217
REMARK INTER + INTRA:         -11.632
REMARK INTER:                 -10.793
REMARK INTRA:                  -0.839
REMARK UNBOUND:                -1.106
REMARK SMILES CCCCCCCCCCCCCC(=O)[O-]
REMARK SMILES IDX 8 1 9 2 10 3 11 4 12 5 13 6 14 7 15 8 16 9 7 10 6 11 5 12
REMARK SMILES IDX 4 13 3 14 2 15 1 16
REMARK H PARENT
REMARK Flexibility Score: inf
ROOT
ATOM      1  C   UNL     1      18.281  71.456  74.100  1.00  0.00     0.000 C 
ENDROOT
BRANCH   1   2
ATOM      2  C   UNL     1      19.566  70.809  74.643  1.00  0.00     0.000 C 
BRANCH   2   3
ATOM      3  C   UNL     1      19.607  70.757  76.181  1.00  0.00     0.000 C 
BRANCH   3   4
ATOM      4  C   UNL     1      20.501  69.654  76.780  1.00  0.00     0.000 C 
BRANCH   4   5
ATOM      5  C   UNL     1      20.230  69.313  78.259  1.00  0.00     0.006 C 
BRANCH   5   6
ATOM      6  C   UNL     1      18.948  69.950  78.824  1.00  0.00     0.053 C 
BRANCH   6   7
ATOM      7  C   UNL     1      17.981  68.934  79.351  1.00  0.00     0.041 C 
ATOM      8  O   UNL     1      18.331  67.732  79.477  1.00  0.00    -0.550 OA
ATOM      9  O   UNL     1      16.704  69.321  79.739  1.00  0.00    -0.550 OA
ENDBRANCH   6   7
ENDBRANCH   5   6
ENDBRANCH   4   5
ENDBRANCH   3   4
ENDBRANCH   2   3
ENDBRANCH   1   2
BRANCH   1  10
ATOM     10  C   UNL     1      18.394  71.833  72.613  1.00  0.00     0.000 C 
BRANCH  10  11
ATOM     11  C   UNL     1      17.061  72.330  72.024  1.00  0.00    -0.000 C 
BRANCH  11  12
ATOM     12  C   UNL     1      15.862  72.003  72.926  1.00  0.00    -0.000 C 
BRANCH  12  13
ATOM     13  C   UNL     1      15.019  70.835  72.388  1.00  0.00    -0.000 C 
BRANCH  13  14
ATOM     14  C   UNL     1      14.370  70.001  73.505  1.00  0.00    -0.000 C 
BRANCH  14  15
ATOM     15  C   UNL     1      14.721  70.490  74.925  1.00  0.00    -0.003 C 
ATOM     16  C   UNL     1      13.907  69.778  76.006  1.00  0.00     0.004 C 
ENDBRANCH  14  15
ENDBRANCH  13  14
ENDBRANCH  12  13
ENDBRANCH  11  12
ENDBRANCH  10  11
ENDBRANCH   1  10
TORSDOF 12
ENDMDL
MODEL 3
REMARK VINA RESULT:    -6.166      2.387      2.981
REMARK INTER + INTRA:         -11.598
REMARK INTER:                 -10.230
REMARK INTRA:                  -1.369
REMARK UNBOUND:                -1.106
REMARK SMILES CCCCCCCCCCCCCC(=O)[O-]
REMARK SMILES IDX 8 1 9 2 10 3 11 4 12 5 13 6 14 7 15 8 16 9 7 10 6 11 5 12
REMARK SMILES IDX 4 13 3 14 2 15 1 16
REMARK H PARENT
REMARK Flexibility Score: inf
ROOT
ATOM      1  C   UNL     1      17.817  71.494  74.357  1.00  0.00     0.000 C 
ENDROOT
BRANCH   1   2
ATOM      2  C   UNL     1      19.282  71.358  74.804  1.00  0.00     0.000 C 
BRANCH   2   3
ATOM      3  C   UNL     1      20.119  70.482  73.855  1.00  0.00     0.000 C 
BRANCH   3   4
ATOM      4  C   UNL     1      21.238  71.220  73.093  1.00  0.00     0.000 C 
BRANCH   4   5
ATOM      5  C   UNL     1      21.189  71.090  71.558  1.00  0.00     0.006 C 
BRANCH   5   6
ATOM      6  C   UNL     1      20.087  70.145  71.044  1.00  0.00     0.053 C 
BRANCH   6   7
ATOM      7  C   UNL     1      20.503  69.384  69.822  1.00  0.00     0.041 C 
ATOM      8  O   UNL     1      21.040  69.984  68.854  1.00  0.00    -0.550 OA
ATOM      9  O   UNL     1      20.332  68.006  69.766  1.00  0.00    -0.550 OA
ENDBRANCH   6   7
ENDBRANCH   5   6
ENDBRANCH   4   5
ENDBRANCH   3   4
ENDBRANCH   2   3
ENDBRANCH   1   2
BRANCH   1  10
ATOM     10  C   UNL     1      17.676  72.232  73.015  1.00  0.00     0.000 C 
BRANCH  10  11
ATOM     11  C   UNL     1      16.570  71.639  72.124  1.00  0.00    -0.000 C 
BRANCH  11  12
ATOM     12  C   UNL     1      15.267  72.450  72.186  1.00  0.00    -0.000 C 
BRANCH  12  13
ATOM     13  C   UNL     1      14.065  71.603  72.633  1.00  0.00    -0.000 C 
BRANCH  13  14
ATOM     14  C   UNL     1      14.393  70.104  72.738  1.00  0.00    -0.000 C 
BRANCH  14  15
ATOM     15  C   UNL     1      14.059  69.493  74.114  1.00  0.00    -0.003 C 
ATOM     16  C   UNL     1      14.326  70.464  75.264  1.00  0.00     0.004 C 
ENDBRANCH  14  15
ENDBRANCH  13  14
ENDBRANCH  12  13
ENDBRANCH  11  12
ENDBRANCH  10  11
ENDBRANCH   1  10
TORSDOF 12
ENDMDL
MODEL 4
REMARK VINA RESULT:    -6.165      0.874      1.829
REMARK INTER + INTRA:         -11.596
REMARK INTER:                 -10.682
REMARK INTRA:                  -0.914
REMARK UNBOUND:                -1.106
REMARK SMILES CCCCCCCCCCCCCC(=O)[O-]
REMARK SMILES IDX 8 1 9 2 10 3 11 4 12 5 13 6 14 7 15 8 16 9 7 10 6 11 5 12
REMARK SMILES IDX 4 13 3 14 2 15 1 16
REMARK H PARENT
REMARK Flexibility Score: inf
ROOT
ATOM      1  C   UNL     1      19.280  72.235  72.223  1.00  0.00     0.000 C 
ENDROOT
BRANCH   1   2
ATOM      2  C   UNL     1      19.792  71.023  71.429  1.00  0.00     0.000 C 
BRANCH   2   3
ATOM      3  C   UNL     1      21.056  71.335  70.607  1.00  0.00     0.000 C 
BRANCH   3   4
ATOM      4  C   UNL     1      21.678  72.723  70.858  1.00  0.00     0.000 C 
BRANCH   4   5
ATOM      5  C   UNL     1      23.028  72.718  71.604  1.00  0.00     0.006 C 
BRANCH   5   6
ATOM      6  C   UNL     1      22.897  72.812  73.136  1.00  0.00     0.053 C 
BRANCH   6   7
ATOM      7  C   UNL     1      22.790  71.468  73.789  1.00  0.00     0.041 C 
ATOM      8  O   UNL     1      23.617  70.560  73.513  1.00  0.00    -0.550 OA
ATOM      9  O   UNL     1      21.798  71.228  74.733  1.00  0.00    -0.550 OA
ENDBRANCH   6   7
ENDBRANCH   5   6
ENDBRANCH   4   5
ENDBRANCH   3   4
ENDBRANCH   2   3
ENDBRANCH   1   2
BRANCH   1  10
ATOM     10  C   UNL     1      17.770  72.465  72.040  1.00  0.00     0.000 C 
BRANCH  10  11
ATOM     11  C   UNL     1      16.950  72.031  73.268  1.00  0.00    -0.000 C 
BRANCH  11  12
ATOM     12  C   UNL     1      15.443  71.973  72.977  1.00  0.00    -0.000 C 
BRANCH  12  13
ATOM     13  C   UNL     1      15.005  70.617  72.398  1.00  0.00    -0.000 C 
BRANCH  13  14
ATOM     14  C   UNL     1      14.105  69.819  73.356  1.00  0.00    -0.000 C 
BRANCH  14  15
ATOM     15  C   UNL     1      13.626  70.633  74.575  1.00  0.00    -0.003 C 
ATOM     16  C   UNL     1      14.028  69.989  75.902  1.00  0.00     0.004 C 
ENDBRANCH  14  15
ENDBRANCH  13  14
ENDBRANCH  12  13
ENDBRANCH  11  12
ENDBRANCH  10  11
ENDBRANCH   1  10
TORSDOF 12
ENDMDL
MODEL 5
REMARK VINA RESULT:    -6.131      1.059      1.628
REMARK INTER + INTRA:         -11.538
REMARK INTER:                 -10.448
REMARK INTRA:                  -1.090
REMARK UNBOUND:                -1.106
REMARK SMILES CCCCCCCCCCCCCC(=O)[O-]
REMARK SMILES IDX 8 1 9 2 10 3 11 4 12 5 13 6 14 7 15 8 16 9 7 10 6 11 5 12
REMARK SMILES IDX 4 13 3 14 2 15 1 16
REMARK H PARENT
REMARK Flexibility Score: inf
ROOT
ATOM      1  C   UNL     1      16.648  72.948  72.940  1.00  0.00     0.000 C 
ENDROOT
BRANCH   1   2
ATOM      2  C   UNL     1      17.749  73.109  71.879  1.00  0.00     0.000 C 
BRANCH   2   3
ATOM      3  C   UNL     1      18.919  72.128  72.075  1.00  0.00     0.000 C 
BRANCH   3   4
ATOM      4  C   UNL     1      19.072  71.562  73.500  1.00  0.00     0.000 C 
BRANCH   4   5
ATOM      5  C   UNL     1      20.186  70.512  73.679  1.00  0.00     0.006 C 
BRANCH   5   6
ATOM      6  C   UNL     1      21.266  70.552  72.581  1.00  0.00     0.053 C 
BRANCH   6   7
ATOM      7  C   UNL     1      22.481  71.325  72.994  1.00  0.00     0.041 C 
ATOM      8  O   UNL     1      22.509  72.577  72.869  1.00  0.00    -0.550 OA
ATOM      9  O   UNL     1      23.570  70.668  73.554  1.00  0.00    -0.550 OA
ENDBRANCH   6   7
ENDBRANCH   5   6
ENDBRANCH   4   5
ENDBRANCH   3   4
ENDBRANCH   2   3
ENDBRANCH   1   2
BRANCH   1  10
ATOM     10  C   UNL     1      15.391  72.257  72.385  1.00  0.00     0.000 C 
BRANCH  10  11
ATOM     11  C   UNL     1      15.521  70.723  72.355  1.00  0.00    -0.000 C 
BRANCH  11  12
ATOM     12  C   UNL     1      14.239  70.016  72.820  1.00  0.00    -0.000 C 
BRANCH  12  13
ATOM     13  C   UNL     1      13.194  70.995  73.378  1.00  0.00    -0.000 C 
BRANCH  13  14
ATOM     14  C   UNL     1      13.045  70.906  74.906  1.00  0.00    -0.000 C 
BRANCH  14  15
ATOM     15  C   UNL     1      13.990  69.877  75.560  1.00  0.00    -0.003 C 
ATOM     16  C   UNL     1      15.052  70.537  76.440  1.00  0.00     0.004 C 
ENDBRANCH  14  15
ENDBRANCH  13  14
ENDBRANCH  12  13
ENDBRANCH  11  12
ENDBRANCH  10  11
ENDBRANCH   1  10
TORSDOF 12
ENDMDL
MODEL 6
REMARK VINA RESULT:    -6.126      7.293     10.518
REMARK INTER + INTRA:         -11.530
REMARK INTER:                 -10.538
REMARK INTRA:                  -0.992
REMARK UNBOUND:                -1.106
REMARK SMILES CCCCCCCCCCCCCC(=O)[O-]
REMARK SMILES IDX 8 1 9 2 10 3 11 4 12 5 13 6 14 7 15 8 16 9 7 10 6 11 5 12
REMARK SMILES IDX 4 13 3 14 2 15 1 16
REMARK H PARENT
REMARK Flexibility Score: inf
ROOT
ATOM      1  C   UNL     1      11.331  71.912  73.436  1.00  0.00     0.000 C 
ENDROOT
BRANCH   1   2
ATOM      2  C   UNL     1      10.220  72.302  74.425  1.00  0.00     0.000 C 
BRANCH   2   3
ATOM      3  C   UNL     1      10.642  72.137  75.896  1.00  0.00     0.000 C 
BRANCH   3   4
ATOM      4  C   UNL     1       9.483  72.028  76.906  1.00  0.00     0.000 C 
BRANCH   4   5
ATOM      5  C   UNL     1       8.371  73.086  76.753  1.00  0.00     0.006 C 
BRANCH   5   6
ATOM      6  C   UNL     1       7.112  72.797  77.592  1.00  0.00     0.053 C 
BRANCH   6   7
ATOM      7  C   UNL     1       6.140  71.904  76.884  1.00  0.00     0.041 C 
ATOM      8  O   UNL     1       5.961  72.019  75.643  1.00  0.00    -0.550 OA
ATOM      9  O   UNL     1       5.457  70.919  77.586  1.00  0.00    -0.550 OA
ENDBRANCH   6   7
ENDBRANCH   5   6
ENDBRANCH   4   5
ENDBRANCH   3   4
ENDBRANCH   2   3
ENDBRANCH   1   2
BRANCH   1  10
ATOM     10  C   UNL     1      12.153  73.123  72.965  1.00  0.00     0.000 C 
BRANCH  10  11
ATOM     11  C   UNL     1      13.232  72.743  71.934  1.00  0.00    -0.000 C 
BRANCH  11  12
ATOM     12  C   UNL     1      14.559  72.339  72.595  1.00  0.00    -0.000 C 
BRANCH  12  13
ATOM     13  C   UNL     1      14.887  70.849  72.398  1.00  0.00    -0.000 C 
BRANCH  13  14
ATOM     14  C   UNL     1      14.315  69.958  73.514  1.00  0.00    -0.000 C 
BRANCH  14  15
ATOM     15  C   UNL     1      14.526  70.530  74.931  1.00  0.00    -0.003 C 
ATOM     16  C   UNL     1      13.837  69.692  76.007  1.00  0.00     0.004 C 
ENDBRANCH  14  15
ENDBRANCH  13  14
ENDBRANCH  12  13
ENDBRANCH  11  12
ENDBRANCH  10  11
ENDBRANCH   1  10
TORSDOF 12
ENDMDL
MODEL 7
REMARK VINA RESULT:    -6.107      1.356      2.310
REMARK INTER + INTRA:         -11.497
REMARK INTER:                 -10.324
REMARK INTRA:                  -1.173
REMARK UNBOUND:                -1.106
REMARK SMILES CCCCCCCCCCCCCC(=O)[O-]
REMARK SMILES IDX 8 1 9 2 10 3 11 4 12 5 13 6 14 7 15 8 16 9 7 10 6 11 5 12
REMARK SMILES IDX 4 13 3 14 2 15 1 16
REMARK H PARENT
REMARK Flexibility Score: inf
ROOT
ATOM      1  C   UNL     1      16.410  72.763  72.538  1.00  0.00     0.000 C 
ENDROOT
BRANCH   1   2
ATOM      2  C   UNL     1      17.279  71.638  71.953  1.00  0.00     0.000 C 
BRANCH   2   3
ATOM      3  C   UNL     1      18.759  72.037  71.807  1.00  0.00     0.000 C 
BRANCH   3   4
ATOM      4  C   UNL     1      19.746  70.864  71.652  1.00  0.00     0.000 C 
BRANCH   4   5
ATOM      5  C   UNL     1      21.156  71.105  72.227  1.00  0.00     0.006 C 
BRANCH   5   6
ATOM      6  C   UNL     1      21.210  71.131  73.766  1.00  0.00     0.053 C 
BRANCH   6   7
ATOM      7  C   UNL     1      22.549  70.732  74.303  1.00  0.00     0.041 C 
ATOM      8  O   UNL     1      22.650  70.253  75.463  1.00  0.00    -0.550 OA
ATOM      9  O   UNL     1      23.684  70.855  73.511  1.00  0.00    -0.550 OA
ENDBRANCH   6   7
ENDBRANCH   5   6
ENDBRANCH   4   5
ENDBRANCH   3   4
ENDBRANCH   2   3
ENDBRANCH   1   2
BRANCH   1  10
ATOM     10  C   UNL     1      16.215  72.628  74.058  1.00  0.00     0.000 C 
BRANCH  10  11
ATOM     11  C   UNL     1      16.288  71.167  74.538  1.00  0.00    -0.000 C 
BRANCH  11  12
ATOM     12  C   UNL     1      15.169  70.820  75.532  1.00  0.00    -0.000 C 
BRANCH  12  13
ATOM     13  C   UNL     1      13.973  70.129  74.857  1.00  0.00    -0.000 C 
BRANCH  13  14
ATOM     14  C   UNL     1      14.226  69.806  73.375  1.00  0.00    -0.000 C 
BRANCH  14  15
ATOM     15  C   UNL     1      13.330  70.605  72.406  1.00  0.00    -0.003 C 
ATOM     16  C   UNL     1      12.517  71.685  73.120  1.00  0.00     0.004 C 
ENDBRANCH  14  15
ENDBRANCH  13  14
ENDBRANCH  12  13
ENDBRANCH  11  12
ENDBRANCH  10  11
ENDBRANCH   1  10
TORSDOF 12
ENDMDL
MODEL 8
REMARK VINA RESULT:    -6.102      2.105      3.325
REMARK INTER + INTRA:         -11.489
REMARK INTER:                 -10.181
REMARK INTRA:                  -1.308
REMARK UNBOUND:                -1.106
REMARK SMILES CCCCCCCCCCCCCC(=O)[O-]
REMARK SMILES IDX 8 1 9 2 10 3 11 4 12 5 13 6 14 7 15 8 16 9 7 10 6 11 5 12
REMARK SMILES IDX 4 13 3 14 2 15 1 16
REMARK H PARENT
REMARK Flexibility Score: inf
ROOT
ATOM      1  C   UNL     1      16.282  71.231  74.182  1.00  0.00     0.000 C 
ENDROOT
BRANCH   1   2
ATOM      2  C   UNL     1      16.212  72.616  73.519  1.00  0.00     0.000 C 
BRANCH   2   3
ATOM      3  C   UNL     1      16.706  72.608  72.061  1.00  0.00     0.000 C 
BRANCH   3   4
ATOM      4  C   UNL     1      17.839  73.604  71.743  1.00  0.00     0.000 C 
BRANCH   4   5
ATOM      5  C   UNL     1      19.219  72.973  71.474  1.00  0.00     0.006 C 
BRANCH   5   6
ATOM      6  C   UNL     1      19.275  71.456  71.734  1.00  0.00     0.053 C 
BRANCH   6   7
ATOM      7  C   UNL     1      20.460  70.803  71.090  1.00  0.00     0.041 C 
ATOM      8  O   UNL     1      21.203  71.461  70.315  1.00  0.00    -0.550 OA
ATOM      9  O   UNL     1      20.768  69.479  71.376  1.00  0.00    -0.550 OA
ENDBRANCH   6   7
ENDBRANCH   5   6
ENDBRANCH   4   5
ENDBRANCH   3   4
ENDBRANCH   2   3
ENDBRANCH   1   2
BRANCH   1  10
ATOM     10  C   UNL     1      15.163  71.014  75.214  1.00  0.00     0.000 C 
BRANCH  10  11
ATOM     11  C   UNL     1      14.060  70.069  74.703  1.00  0.00    -0.000 C 
BRANCH  11  12
ATOM     12  C   UNL     1      14.163  69.807  73.193  1.00  0.00    -0.000 C 
BRANCH  12  13
ATOM     13  C   UNL     1      13.217  70.699  72.373  1.00  0.00    -0.000 C 
BRANCH  13  14
ATOM     14  C   UNL     1      12.226  71.485  73.247  1.00  0.00    -0.000 C 
BRANCH  14  15
ATOM     15  C   UNL     1      12.139  72.983  72.889  1.00  0.00    -0.003 C 
ATOM     16  C   UNL     1      12.969  73.337  71.655  1.00  0.00     0.004 C 
ENDBRANCH  14  15
ENDBRANCH  13  14
ENDBRANCH  12  13
ENDBRANCH  11  12
ENDBRANCH  10  11
ENDBRANCH   1  10
TORSDOF 12
ENDMDL
MODEL 9
REMARK VINA RESULT:    -6.062      1.749      2.256
REMARK INTER + INTRA:         -11.420
REMARK INTER:                 -10.453
REMARK INTRA:                  -0.968
REMARK UNBOUND:                -1.106
REMARK SMILES CCCCCCCCCCCCCC(=O)[O-]
REMARK SMILES IDX 8 1 9 2 10 3 11 4 12 5 13 6 14 7 15 8 16 9 7 10 6 11 5 12
REMARK SMILES IDX 4 13 3 14 2 15 1 16
REMARK H PARENT
REMARK Flexibility Score: inf
ROOT
ATOM      1  C   UNL     1      18.800  72.230  73.122  1.00  0.00     0.000 C 
ENDROOT
BRANCH   1   2
ATOM      2  C   UNL     1      19.264  71.128  74.089  1.00  0.00     0.000 C 
BRANCH   2   3
ATOM      3  C   UNL     1      20.366  70.233  73.494  1.00  0.00     0.000 C 
BRANCH   3   4
ATOM      4  C   UNL     1      21.326  70.935  72.514  1.00  0.00     0.000 C 
BRANCH   4   5
ATOM      5  C   UNL     1      21.015  70.725  71.018  1.00  0.00     0.006 C 
BRANCH   5   6
ATOM      6  C   UNL     1      21.768  71.688  70.081  1.00  0.00     0.053 C 
BRANCH   6   7
ATOM      7  C   UNL     1      21.613  73.123  70.481  1.00  0.00     0.041 C 
ATOM      8  O   UNL     1      20.494  73.692  70.383  1.00  0.00    -0.550 OA
ATOM      9  O   UNL     1      22.695  73.824  70.999  1.00  0.00    -0.550 OA
ENDBRANCH   6   7
ENDBRANCH   5   6
ENDBRANCH   4   5
ENDBRANCH   3   4
ENDBRANCH   2   3
ENDBRANCH   1   2
BRANCH   1  10
ATOM     10  C   UNL     1      17.579  71.807  72.288  1.00  0.00     0.000 C 
BRANCH  10  11
ATOM     11  C   UNL     1      16.475  72.880  72.264  1.00  0.00    -0.000 C 
BRANCH  11  12
ATOM     12  C   UNL     1      15.118  72.336  72.735  1.00  0.00    -0.000 C 
BRANCH  12  13
ATOM     13  C   UNL     1      14.877  70.884  72.291  1.00  0.00    -0.000 C 
BRANCH  13  14
ATOM     14  C   UNL     1      14.327  69.995  73.419  1.00  0.00    -0.000 C 
BRANCH  14  15
ATOM     15  C   UNL     1      14.782  70.432  74.827  1.00  0.00    -0.003 C 
ATOM     16  C   UNL     1      13.671  70.296  75.868  1.00  0.00     0.004 C 
ENDBRANCH  14  15
ENDBRANCH  13  14
ENDBRANCH  12  13
ENDBRANCH  11  12
ENDBRANCH  10  11
ENDBRANCH   1  10
TORSDOF 12
ENDMDL
