MODEL 1
REMARK VINA RESULT:    -3.159      0.000      0.000
REMARK INTER + INTRA:          -7.888
REMARK INTER:                  -5.836
REMARK INTRA:                  -2.052
REMARK UNBOUND:                -2.052
REMARK SMILES CCCCCCCCCCCCCCCCO
REMARK SMILES IDX 9 1 8 2 7 3 6 4 5 5 4 6 3 7 2 8 1 9 10 10 11 11 12 12 13 13
REMARK SMILES IDX 14 14 15 15 16 16 17 17
REMARK H PARENT 17 18
REMARK Flexibility Score: inf
ROOT
ATOM      1  C   UNL     1     141.505 142.914 141.821  1.00  0.00     0.000 C 
ENDROOT
BRANCH   1   2
ATOM      2  C   UNL     1     140.776 142.468 143.103  1.00  0.00    -0.000 C 
BRANCH   2   3
ATOM      3  C   UNL     1     139.276 142.158 142.931  1.00  0.00    -0.000 C 
BRANCH   3   4
ATOM      4  C   UNL     1     138.956 140.795 142.285  1.00  0.00    -0.000 C 
BRANCH   4   5
ATOM      5  C   UNL     1     139.366 139.571 143.125  1.00  0.00    -0.000 C 
BRANCH   5   6
ATOM      6  C   UNL     1     140.090 138.497 142.296  1.00  0.00    -0.000 C 
BRANCH   6   7
ATOM      7  C   UNL     1     139.541 138.385 140.865  1.00  0.00    -0.000 C 
BRANCH   7   8
ATOM      8  C   UNL     1     140.655 138.254 139.815  1.00  0.00    -0.003 C 
ATOM      9  C   UNL     1     140.778 139.528 138.983  1.00  0.00     0.004 C 
ENDBRANCH   7   8
ENDBRANCH   6   7
ENDBRANCH   5   6
ENDBRANCH   4   5
ENDBRANCH   3   4
ENDBRANCH   2   3
ENDBRANCH   1   2
BRANCH   1  10
ATOM     10  C   UNL     1     142.356 141.795 141.198  1.00  0.00     0.000 C 
BRANCH  10  11
ATOM     11  C   UNL     1     142.884 140.794 142.242  1.00  0.00     0.000 C 
BRANCH  11  12
ATOM     12  C   UNL     1     143.560 139.539 141.660  1.00  0.00     0.000 C 
BRANCH  12  13
ATOM     13  C   UNL     1     144.748 139.869 140.739  1.00  0.00     0.000 C 
BRANCH  13  14
ATOM     14  C   UNL     1     144.487 139.442 139.279  1.00  0.00     0.002 C 
BRANCH  14  15
ATOM     15  C   UNL     1     145.760 139.362 138.417  1.00  0.00     0.028 C 
BRANCH  15  16
ATOM     16  C   UNL     1     146.973 138.782 139.158  1.00  0.00     0.156 C 
BRANCH  16  17
ATOM     17  O   UNL     1     147.099 137.405 138.922  1.00  0.00    -0.396 OA
ATOM     18  H   UNL     1     148.055 137.239 138.714  1.00  0.00     0.210 HD
ENDBRANCH  16  17
ENDBRANCH  15  16
ENDBRANCH  14  15
ENDBRANCH  13  14
ENDBRANCH  12  13
ENDBRANCH  11  12
ENDBRANCH  10  11
ENDBRANCH   1  10
TORSDOF 15
ENDMDL
MODEL 2
REMARK VINA RESULT:    -3.099      1.518      2.938
REMARK INTER + INTRA:          -7.778
REMARK INTER:                  -5.982
REMARK INTRA:                  -1.796
REMARK UNBOUND:                -2.052
REMARK SMILES CCCCCCCCCCCCCCCCO
REMARK SMILES IDX 9 1 8 2 7 3 6 4 5 5 4 6 3 7 2 8 1 9 10 10 11 11 12 12 13 13
REMARK SMILES IDX 14 14 15 15 16 16 17 17
REMARK H PARENT 17 18
REMARK Flexibility Score: inf
ROOT
ATOM      1  C   UNL     1     140.680 139.236 143.124  1.00  0.00     0.000 C 
ENDROOT
BRANCH   1   2
ATOM      2  C   UNL     1     139.298 139.724 142.651  1.00  0.00    -0.000 C 
BRANCH   2   3
ATOM      3  C   UNL     1     138.903 141.137 143.123  1.00  0.00    -0.000 C 
BRANCH   3   4
ATOM      4  C   UNL     1     138.414 142.089 142.013  1.00  0.00    -0.000 C 
BRANCH   4   5
ATOM      5  C   UNL     1     138.576 141.546 140.581  1.00  0.00    -0.000 C 
BRANCH   5   6
ATOM      6  C   UNL     1     139.847 142.068 139.889  1.00  0.00    -0.000 C 
BRANCH   6   7
ATOM      7  C   UNL     1     140.603 143.099 140.741  1.00  0.00    -0.000 C 
BRANCH   7   8
ATOM      8  C   UNL     1     142.080 143.225 140.340  1.00  0.00    -0.003 C 
ATOM      9  C   UNL     1     142.226 143.926 138.992  1.00  0.00     0.004 C 
ENDBRANCH   7   8
ENDBRANCH   6   7
ENDBRANCH   5   6
ENDBRANCH   4   5
ENDBRANCH   3   4
ENDBRANCH   2   3
ENDBRANCH   1   2
BRANCH   1  10
ATOM     10  C   UNL     1     141.787 140.280 142.907  1.00  0.00     0.000 C 
BRANCH  10  11
ATOM     11  C   UNL     1     142.940 139.758 142.030  1.00  0.00     0.000 C 
BRANCH  11  12
ATOM     12  C   UNL     1     142.557 139.434 140.574  1.00  0.00     0.000 C 
BRANCH  12  13
ATOM     13  C   UNL     1     143.594 139.938 139.555  1.00  0.00     0.000 C 
BRANCH  13  14
ATOM     14  C   UNL     1     145.041 139.738 140.049  1.00  0.00     0.002 C 
BRANCH  14  15
ATOM     15  C   UNL     1     145.988 139.155 138.985  1.00  0.00     0.028 C 
BRANCH  15  16
ATOM     16  C   UNL     1     147.388 138.821 139.518  1.00  0.00     0.156 C 
BRANCH  16  17
ATOM     17  O   UNL     1     147.325 137.880 140.555  1.00  0.00    -0.396 OA
ATOM     18  H   UNL     1     148.185 137.386 140.544  1.00  0.00     0.210 HD
ENDBRANCH  16  17
ENDBRANCH  15  16
ENDBRANCH  14  15
ENDBRANCH  13  14
ENDBRANCH  12  13
ENDBRANCH  11  12
ENDBRANCH  10  11
ENDBRANCH   1  10
TORSDOF 15
ENDMDL
MODEL 3
REMARK VINA RESULT:    -3.098      2.780      5.121
REMARK INTER + INTRA:          -7.776
REMARK INTER:                  -5.588
REMARK INTRA:                  -2.189
REMARK UNBOUND:                -2.052
REMARK SMILES CCCCCCCCCCCCCCCCO
REMARK SMILES IDX 9 1 8 2 7 3 6 4 5 5 4 6 3 7 2 8 1 9 10 10 11 11 12 12 13 13
REMARK SMILES IDX 14 14 15 15 16 16 17 17
REMARK H PARENT 17 18
REMARK Flexibility Score: inf
ROOT
ATOM      1  C   UNL     1     139.568 141.006 143.050  1.00  0.00     0.000 C 
ENDROOT
BRANCH   1   2
ATOM      2  C   UNL     1     139.208 139.510 143.119  1.00  0.00    -0.000 C 
BRANCH   2   3
ATOM      3  C   UNL     1     140.313 138.546 142.643  1.00  0.00    -0.000 C 
BRANCH   3   4
ATOM      4  C   UNL     1     140.444 138.401 141.113  1.00  0.00    -0.000 C 
BRANCH   4   5
ATOM      5  C   UNL     1     141.695 139.065 140.507  1.00  0.00    -0.000 C 
BRANCH   5   6
ATOM      6  C   UNL     1     142.751 139.420 141.567  1.00  0.00    -0.000 C 
BRANCH   6   7
ATOM      7  C   UNL     1     144.042 139.981 140.949  1.00  0.00    -0.000 C 
BRANCH   7   8
ATOM      8  C   UNL     1     143.974 140.065 139.417  1.00  0.00    -0.003 C 
ATOM      9  C   UNL     1     144.995 139.134 138.769  1.00  0.00     0.004 C 
ENDBRANCH   7   8
ENDBRANCH   6   7
ENDBRANCH   5   6
ENDBRANCH   4   5
ENDBRANCH   3   4
ENDBRANCH   2   3
ENDBRANCH   1   2
BRANCH   1  10
ATOM     10  C   UNL     1     138.482 141.850 142.364  1.00  0.00     0.000 C 
BRANCH  10  11
ATOM     11  C   UNL     1     138.022 141.255 141.020  1.00  0.00     0.000 C 
BRANCH  11  12
ATOM     12  C   UNL     1     138.338 142.114 139.782  1.00  0.00     0.000 C 
BRANCH  12  13
ATOM     13  C   UNL     1     139.674 141.741 139.117  1.00  0.00     0.000 C 
BRANCH  13  14
ATOM     14  C   UNL     1     140.716 142.874 139.228  1.00  0.00     0.002 C 
BRANCH  14  15
ATOM     15  C   UNL     1     141.601 142.785 140.484  1.00  0.00     0.028 C 
BRANCH  15  16
ATOM     16  C   UNL     1     141.725 144.110 141.249  1.00  0.00     0.156 C 
BRANCH  16  17
ATOM     17  O   UNL     1     141.418 145.202 140.424  1.00  0.00    -0.396 OA
ATOM     18  H   UNL     1     140.555 144.991 139.982  1.00  0.00     0.210 HD
ENDBRANCH  16  17
ENDBRANCH  15  16
ENDBRANCH  14  15
ENDBRANCH  13  14
ENDBRANCH  12  13
ENDBRANCH  11  12
ENDBRANCH  10  11
ENDBRANCH   1  10
TORSDOF 15
ENDMDL
MODEL 4
REMARK VINA RESULT:    -3.093      4.859      7.542
REMARK INTER + INTRA:          -7.767
REMARK INTER:                  -6.196
REMARK INTRA:                  -1.571
REMARK UNBOUND:                -2.052
REMARK SMILES CCCCCCCCCCCCCCCCO
REMARK SMILES IDX 9 1 8 2 7 3 6 4 5 5 4 6 3 7 2 8 1 9 10 10 11 11 12 12 13 13
REMARK SMILES IDX 14 14 15 15 16 16 17 17
REMARK H PARENT 17 18
REMARK Flexibility Score: inf
ROOT
ATOM      1  C   UNL     1     138.448 142.017 142.376  1.00  0.00     0.000 C 
ENDROOT
BRANCH   1   2
ATOM      2  C   UNL     1     139.858 142.461 142.810  1.00  0.00    -0.000 C 
BRANCH   2   3
ATOM      3  C   UNL     1     140.786 142.913 141.665  1.00  0.00    -0.000 C 
BRANCH   3   4
ATOM      4  C   UNL     1     142.069 142.077 141.491  1.00  0.00    -0.000 C 
BRANCH   4   5
ATOM      5  C   UNL     1     142.441 141.204 142.703  1.00  0.00    -0.000 C 
BRANCH   5   6
ATOM      6  C   UNL     1     142.287 139.700 142.422  1.00  0.00    -0.000 C 
BRANCH   6   7
ATOM      7  C   UNL     1     141.898 139.409 140.964  1.00  0.00    -0.000 C 
BRANCH   7   8
ATOM      8  C   UNL     1     140.558 138.668 140.848  1.00  0.00    -0.003 C 
ATOM      9  C   UNL     1     139.888 138.527 142.212  1.00  0.00     0.004 C 
ENDBRANCH   7   8
ENDBRANCH   6   7
ENDBRANCH   5   6
ENDBRANCH   4   5
ENDBRANCH   3   4
ENDBRANCH   2   3
ENDBRANCH   1   2
BRANCH   1  10
ATOM     10  C   UNL     1     138.360 141.698 140.875  1.00  0.00     0.000 C 
BRANCH  10  11
ATOM     11  C   UNL     1     136.920 141.765 140.332  1.00  0.00     0.000 C 
BRANCH  11  12
ATOM     12  C   UNL     1     136.782 142.352 138.916  1.00  0.00     0.000 C 
BRANCH  12  13
ATOM     13  C   UNL     1     135.351 142.819 138.596  1.00  0.00     0.000 C 
BRANCH  13  14
ATOM     14  C   UNL     1     134.381 141.635 138.406  1.00  0.00     0.002 C 
BRANCH  14  15
ATOM     15  C   UNL     1     133.238 141.595 139.436  1.00  0.00     0.028 C 
BRANCH  15  16
ATOM     16  C   UNL     1     132.940 140.189 139.976  1.00  0.00     0.156 C 
BRANCH  16  17
ATOM     17  O   UNL     1     133.040 140.151 141.374  1.00  0.00    -0.396 OA
ATOM     18  H   UNL     1     132.910 139.205 141.644  1.00  0.00     0.210 HD
ENDBRANCH  16  17
ENDBRANCH  15  16
ENDBRANCH  14  15
ENDBRANCH  13  14
ENDBRANCH  12  13
ENDBRANCH  11  12
ENDBRANCH  10  11
ENDBRANCH   1  10
TORSDOF 15
ENDMDL
MODEL 5
REMARK VINA RESULT:    -3.086      2.585      4.837
REMARK INTER + INTRA:          -7.753
REMARK INTER:                  -5.948
REMARK INTRA:                  -1.805
REMARK UNBOUND:                -2.052
REMARK SMILES CCCCCCCCCCCCCCCCO
REMARK SMILES IDX 9 1 8 2 7 3 6 4 5 5 4 6 3 7 2 8 1 9 10 10 11 11 12 12 13 13
REMARK SMILES IDX 14 14 15 15 16 16 17 17
REMARK H PARENT 17 18
REMARK Flexibility Score: inf
ROOT
ATOM      1  C   UNL     1     139.404 139.858 143.049  1.00  0.00     0.000 C 
ENDROOT
BRANCH   1   2
ATOM      2  C   UNL     1     139.837 140.910 142.010  1.00  0.00    -0.000 C 
BRANCH   2   3
ATOM      3  C   UNL     1     140.794 141.997 142.536  1.00  0.00    -0.000 C 
BRANCH   3   4
ATOM      4  C   UNL     1     142.293 141.722 142.302  1.00  0.00    -0.000 C 
BRANCH   4   5
ATOM      5  C   UNL     1     142.787 140.357 142.816  1.00  0.00    -0.000 C 
BRANCH   5   6
ATOM      6  C   UNL     1     143.675 139.624 141.797  1.00  0.00    -0.000 C 
BRANCH   6   7
ATOM      7  C   UNL     1     143.627 140.267 140.402  1.00  0.00    -0.000 C 
BRANCH   7   8
ATOM      8  C   UNL     1     142.827 139.428 139.393  1.00  0.00    -0.003 C 
ATOM      9  C   UNL     1     141.750 140.268 138.712  1.00  0.00     0.004 C 
ENDBRANCH   7   8
ENDBRANCH   6   7
ENDBRANCH   5   6
ENDBRANCH   4   5
ENDBRANCH   3   4
ENDBRANCH   2   3
ENDBRANCH   1   2
BRANCH   1  10
ATOM     10  C   UNL     1     139.510 138.419 142.520  1.00  0.00     0.000 C 
BRANCH  10  11
ATOM     11  C   UNL     1     139.755 138.355 141.002  1.00  0.00     0.000 C 
BRANCH  11  12
ATOM     12  C   UNL     1     139.893 136.936 140.421  1.00  0.00     0.000 C 
BRANCH  12  13
ATOM     13  C   UNL     1     139.701 136.891 138.895  1.00  0.00     0.000 C 
BRANCH  13  14
ATOM     14  C   UNL     1     139.797 135.454 138.339  1.00  0.00     0.002 C 
BRANCH  14  15
ATOM     15  C   UNL     1     139.953 134.376 139.426  1.00  0.00     0.028 C 
BRANCH  15  16
ATOM     16  C   UNL     1     141.003 133.307 139.091  1.00  0.00     0.156 C 
BRANCH  16  17
ATOM     17  O   UNL     1     141.921 133.154 140.139  1.00  0.00    -0.396 OA
ATOM     18  H   UNL     1     141.420 133.308 140.982  1.00  0.00     0.210 HD
ENDBRANCH  16  17
ENDBRANCH  15  16
ENDBRANCH  14  15
ENDBRANCH  13  14
ENDBRANCH  12  13
ENDBRANCH  11  12
ENDBRANCH  10  11
ENDBRANCH   1  10
TORSDOF 15
ENDMDL
MODEL 6
REMARK VINA RESULT:    -3.039      4.377      6.022
REMARK INTER + INTRA:          -7.667
REMARK INTER:                  -5.653
REMARK INTRA:                  -2.014
REMARK UNBOUND:                -2.052
REMARK SMILES CCCCCCCCCCCCCCCCO
REMARK SMILES IDX 9 1 8 2 7 3 6 4 5 5 4 6 3 7 2 8 1 9 10 10 11 11 12 12 13 13
REMARK SMILES IDX 14 14 15 15 16 16 17 17
REMARK H PARENT 17 18
REMARK Flexibility Score: inf
ROOT
ATOM      1  C   UNL     1     141.548 143.693 141.327  1.00  0.00     0.000 C 
ENDROOT
BRANCH   1   2
ATOM      2  C   UNL     1     141.895 142.829 142.554  1.00  0.00    -0.000 C 
BRANCH   2   3
ATOM      3  C   UNL     1     142.406 141.410 142.234  1.00  0.00    -0.000 C 
BRANCH   3   4
ATOM      4  C   UNL     1     141.706 140.271 143.003  1.00  0.00    -0.000 C 
BRANCH   4   5
ATOM      5  C   UNL     1     140.906 139.294 142.122  1.00  0.00    -0.000 C 
BRANCH   5   6
ATOM      6  C   UNL     1     139.431 139.703 141.970  1.00  0.00    -0.000 C 
BRANCH   6   7
ATOM      7  C   UNL     1     139.140 140.374 140.618  1.00  0.00    -0.000 C 
BRANCH   7   8
ATOM      8  C   UNL     1     138.316 141.662 140.765  1.00  0.00    -0.003 C 
ATOM      9  C   UNL     1     138.186 142.067 142.231  1.00  0.00     0.004 C 
ENDBRANCH   7   8
ENDBRANCH   6   7
ENDBRANCH   5   6
ENDBRANCH   4   5
ENDBRANCH   3   4
ENDBRANCH   2   3
ENDBRANCH   1   2
BRANCH   1  10
ATOM     10  C   UNL     1     141.956 143.035 139.999  1.00  0.00     0.000 C 
BRANCH  10  11
ATOM     11  C   UNL     1     140.925 143.260 138.878  1.00  0.00     0.000 C 
BRANCH  11  12
ATOM     12  C   UNL     1     141.205 144.468 137.965  1.00  0.00     0.000 C 
BRANCH  12  13
ATOM     13  C   UNL     1     142.615 145.052 138.158  1.00  0.00     0.000 C 
BRANCH  13  14
ATOM     14  C   UNL     1     142.585 146.574 138.408  1.00  0.00     0.002 C 
BRANCH  14  15
ATOM     15  C   UNL     1     141.608 147.004 139.516  1.00  0.00     0.028 C 
BRANCH  15  16
ATOM     16  C   UNL     1     140.711 148.188 139.127  1.00  0.00     0.156 C 
BRANCH  16  17
ATOM     17  O   UNL     1     139.797 148.488 140.146  1.00  0.00    -0.396 OA
ATOM     18  H   UNL     1     138.910 148.589 139.712  1.00  0.00     0.210 HD
ENDBRANCH  16  17
ENDBRANCH  15  16
ENDBRANCH  14  15
ENDBRANCH  13  14
ENDBRANCH  12  13
ENDBRANCH  11  12
ENDBRANCH  10  11
ENDBRANCH   1  10
TORSDOF 15
ENDMDL
MODEL 7
REMARK VINA RESULT:    -3.020      3.791      6.221
REMARK INTER + INTRA:          -7.633
REMARK INTER:                  -6.424
REMARK INTRA:                  -1.209
REMARK UNBOUND:                -2.052
REMARK SMILES CCCCCCCCCCCCCCCCO
REMARK SMILES IDX 9 1 8 2 7 3 6 4 5 5 4 6 3 7 2 8 1 9 10 10 11 11 12 12 13 13
REMARK SMILES IDX 14 14 15 15 16 16 17 17
REMARK H PARENT 17 18
REMARK Flexibility Score: inf
ROOT
ATOM      1  C   UNL     1     140.024 138.175 140.759  1.00  0.00     0.000 C 
ENDROOT
BRANCH   1   2
ATOM      2  C   UNL     1     139.826 138.447 142.262  1.00  0.00    -0.000 C 
BRANCH   2   3
ATOM      3  C   UNL     1     141.059 139.012 142.994  1.00  0.00    -0.000 C 
BRANCH   3   4
ATOM      4  C   UNL     1     142.133 139.642 142.084  1.00  0.00    -0.000 C 
BRANCH   4   5
ATOM      5  C   UNL     1     142.786 140.919 142.645  1.00  0.00    -0.000 C 
BRANCH   5   6
ATOM      6  C   UNL     1     141.753 141.957 143.114  1.00  0.00    -0.000 C 
BRANCH   6   7
ATOM      7  C   UNL     1     141.435 143.003 142.035  1.00  0.00    -0.000 C 
BRANCH   7   8
ATOM      8  C   UNL     1     140.305 142.556 141.095  1.00  0.00    -0.003 C 
ATOM      9  C   UNL     1     139.082 142.097 141.886  1.00  0.00     0.004 C 
ENDBRANCH   7   8
ENDBRANCH   6   7
ENDBRANCH   5   6
ENDBRANCH   4   5
ENDBRANCH   3   4
ENDBRANCH   2   3
ENDBRANCH   1   2
BRANCH   1  10
ATOM     10  C   UNL     1     139.914 136.683 140.403  1.00  0.00     0.000 C 
BRANCH  10  11
ATOM     11  C   UNL     1     139.503 136.446 138.939  1.00  0.00     0.000 C 
BRANCH  11  12
ATOM     12  C   UNL     1     139.800 135.035 138.397  1.00  0.00     0.000 C 
BRANCH  12  13
ATOM     13  C   UNL     1     138.939 133.945 139.058  1.00  0.00     0.000 C 
BRANCH  13  14
ATOM     14  C   UNL     1     139.759 132.682 139.396  1.00  0.00     0.002 C 
BRANCH  14  15
ATOM     15  C   UNL     1     141.082 132.976 140.125  1.00  0.00     0.028 C 
BRANCH  15  16
ATOM     16  C   UNL     1     141.352 132.047 141.317  1.00  0.00     0.156 C 
BRANCH  16  17
ATOM     17  O   UNL     1     140.587 130.876 141.229  1.00  0.00    -0.396 OA
ATOM     18  H   UNL     1     141.032 130.295 140.558  1.00  0.00     0.210 HD
ENDBRANCH  16  17
ENDBRANCH  15  16
ENDBRANCH  14  15
ENDBRANCH  13  14
ENDBRANCH  12  13
ENDBRANCH  11  12
ENDBRANCH  10  11
ENDBRANCH   1  10
TORSDOF 15
ENDMDL
MODEL 8
REMARK VINA RESULT:    -2.978      4.692      7.368
REMARK INTER + INTRA:          -7.555
REMARK INTER:                  -5.775
REMARK INTRA:                  -1.781
REMARK UNBOUND:                -2.052
REMARK SMILES CCCCCCCCCCCCCCCCO
REMARK SMILES IDX 9 1 8 2 7 3 6 4 5 5 4 6 3 7 2 8 1 9 10 10 11 11 12 12 13 13
REMARK SMILES IDX 14 14 15 15 16 16 17 17
REMARK H PARENT 17 18
REMARK Flexibility Score: inf
ROOT
ATOM      1  C   UNL     1     139.956 141.061 143.049  1.00  0.00     0.000 C 
ENDROOT
BRANCH   1   2
ATOM      2  C   UNL     1     140.359 142.546 142.993  1.00  0.00    -0.000 C 
BRANCH   2   3
ATOM      3  C   UNL     1     141.723 142.832 142.334  1.00  0.00    -0.000 C 
BRANCH   3   4
ATOM      4  C   UNL     1     141.668 143.189 140.835  1.00  0.00    -0.000 C 
BRANCH   4   5
ATOM      5  C   UNL     1     142.313 142.151 139.899  1.00  0.00    -0.000 C 
BRANCH   5   6
ATOM      6  C   UNL     1     141.404 140.938 139.642  1.00  0.00    -0.000 C 
BRANCH   6   7
ATOM      7  C   UNL     1     142.044 139.614 140.089  1.00  0.00    -0.000 C 
BRANCH   7   8
ATOM      8  C   UNL     1     143.383 139.822 140.813  1.00  0.00    -0.003 C 
ATOM      9  C   UNL     1     143.280 139.426 142.284  1.00  0.00     0.004 C 
ENDBRANCH   7   8
ENDBRANCH   6   7
ENDBRANCH   5   6
ENDBRANCH   4   5
ENDBRANCH   3   4
ENDBRANCH   2   3
ENDBRANCH   1   2
BRANCH   1  10
ATOM     10  C   UNL     1     138.787 140.723 142.110  1.00  0.00     0.000 C 
BRANCH  10  11
ATOM     11  C   UNL     1     138.239 141.957 141.370  1.00  0.00     0.000 C 
BRANCH  11  12
ATOM     12  C   UNL     1     136.895 141.744 140.650  1.00  0.00     0.000 C 
BRANCH  12  13
ATOM     13  C   UNL     1     136.936 142.155 139.168  1.00  0.00     0.000 C 
BRANCH  13  14
ATOM     14  C   UNL     1     135.561 142.002 138.484  1.00  0.00     0.002 C 
BRANCH  14  15
ATOM     15  C   UNL     1     134.393 141.816 139.469  1.00  0.00     0.028 C 
BRANCH  15  16
ATOM     16  C   UNL     1     133.642 143.116 139.790  1.00  0.00     0.156 C 
BRANCH  16  17
ATOM     17  O   UNL     1     132.811 142.958 140.908  1.00  0.00    -0.396 OA
ATOM     18  H   UNL     1     131.914 142.710 140.563  1.00  0.00     0.210 HD
ENDBRANCH  16  17
ENDBRANCH  15  16
ENDBRANCH  14  15
ENDBRANCH  13  14
ENDBRANCH  12  13
ENDBRANCH  11  12
ENDBRANCH  10  11
ENDBRANCH   1  10
TORSDOF 15
ENDMDL
MODEL 9
REMARK VINA RESULT:    -2.945      2.990      5.633
REMARK INTER + INTRA:          -7.494
REMARK INTER:                  -5.003
REMARK INTRA:                  -2.491
REMARK UNBOUND:                -2.052
REMARK SMILES CCCCCCCCCCCCCCCCO
REMARK SMILES IDX 9 1 8 2 7 3 6 4 5 5 4 6 3 7 2 8 1 9 10 10 11 11 12 12 13 13
REMARK SMILES IDX 14 14 15 15 16 16 17 17
REMARK H PARENT 17 18
REMARK Flexibility Score: inf
ROOT
ATOM      1  C   UNL     1     142.721 139.368 141.724  1.00  0.00     0.000 C 
ENDROOT
BRANCH   1   2
ATOM      2  C   UNL     1     143.474 140.175 140.649  1.00  0.00    -0.000 C 
BRANCH   2   3
ATOM      3  C   UNL     1     143.512 139.529 139.250  1.00  0.00    -0.000 C 
BRANCH   3   4
ATOM      4  C   UNL     1     142.272 139.792 138.371  1.00  0.00    -0.000 C 
BRANCH   4   5
ATOM      5  C   UNL     1     141.805 141.259 138.336  1.00  0.00    -0.000 C 
BRANCH   5   6
ATOM      6  C   UNL     1     140.379 141.441 138.881  1.00  0.00    -0.000 C 
BRANCH   6   7
ATOM      7  C   UNL     1     140.283 142.571 139.917  1.00  0.00    -0.000 C 
BRANCH   7   8
ATOM      8  C   UNL     1     141.595 143.357 140.055  1.00  0.00    -0.003 C 
ATOM      9  C   UNL     1     141.880 143.699 141.516  1.00  0.00     0.004 C 
ENDBRANCH   7   8
ENDBRANCH   6   7
ENDBRANCH   5   6
ENDBRANCH   4   5
ENDBRANCH   3   4
ENDBRANCH   2   3
ENDBRANCH   1   2
BRANCH   1  10
ATOM     10  C   UNL     1     141.469 140.091 142.245  1.00  0.00     0.000 C 
BRANCH  10  11
ATOM     11  C   UNL     1     140.177 139.283 142.028  1.00  0.00     0.000 C 
BRANCH  11  12
ATOM     12  C   UNL     1     140.358 137.948 141.283  1.00  0.00     0.000 C 
BRANCH  12  13
ATOM     13  C   UNL     1     139.532 137.866 139.987  1.00  0.00     0.000 C 
BRANCH  13  14
ATOM     14  C   UNL     1     140.105 136.830 138.997  1.00  0.00     0.002 C 
BRANCH  14  15
ATOM     15  C   UNL     1     139.941 135.371 139.460  1.00  0.00     0.028 C 
BRANCH  15  16
ATOM     16  C   UNL     1     138.533 134.803 139.230  1.00  0.00     0.156 C 
BRANCH  16  17
ATOM     17  O   UNL     1     138.015 134.243 140.407  1.00  0.00    -0.396 OA
ATOM     18  H   UNL     1     138.778 133.821 140.881  1.00  0.00     0.210 HD
ENDBRANCH  16  17
ENDBRANCH  15  16
ENDBRANCH  14  15
ENDBRANCH  13  14
ENDBRANCH  12  13
ENDBRANCH  11  12
ENDBRANCH  10  11
ENDBRANCH   1  10
TORSDOF 15
ENDMDL
