MODEL 1
REMARK VINA RESULT:    -4.957      0.000      0.000
REMARK INTER + INTRA:          -5.366
REMARK INTER:                  -6.116
REMARK INTRA:                   0.750
REMARK UNBOUND:                 0.750
REMARK SMILES COc1cc(-c2oc3cc(O)cc(O)c3c(=O)c2O)ccc1O
REMARK SMILES IDX 6 1 18 2 16 3 17 4 15 5 13 6 12 7 10 8 9 9 8 10 7 11 5 12
REMARK SMILES IDX 3 13 22 14 4 15 21 16 20 17 2 18 1 19 23 20 19 22 14 24
REMARK SMILES IDX 11 26
REMARK H PARENT 23 21 19 23 14 25 11 27
REMARK Flexibility Score: inf
ROOT
ATOM      1  C   UNL     1     -33.542   9.786 -36.051  1.00  0.00     0.180 A 
ATOM      2  C   UNL     1     -32.585   9.331 -36.975  1.00  0.00     0.208 A 
ATOM      3  C   UNL     1     -32.940   9.230 -38.329  1.00  0.00     0.238 A 
ATOM      4  O   UNL     1     -32.064   8.876 -39.159  1.00  0.00    -0.285 OA
ATOM      5  C   UNL     1     -34.252   9.569 -38.740  1.00  0.00     0.111 A 
ATOM      6  C   UNL     1     -34.733   9.466 -40.080  1.00  0.00     0.134 A 
ATOM      7  C   UNL     1     -36.009   9.951 -40.395  1.00  0.00     0.093 A 
ATOM      8  C   UNL     1     -36.844  10.475 -39.408  1.00  0.00     0.123 A 
ATOM      9  C   UNL     1     -36.405  10.526 -38.084  1.00  0.00     0.094 A 
ATOM     10  C   UNL     1     -35.125  10.082 -37.746  1.00  0.00     0.146 A 
ATOM     11  O   UNL     1     -34.743  10.157 -36.476  1.00  0.00    -0.452 OA
ENDROOT
BRANCH   1  12
ATOM     12  C   UNL     1     -33.249   9.894 -34.603  1.00  0.00     0.025 A 
ATOM     13  C   UNL     1     -33.497  11.112 -32.496  1.00  0.00     0.161 A 
ATOM     14  C   UNL     1     -32.768  10.111 -31.840  1.00  0.00     0.157 A 
ATOM     15  C   UNL     1     -33.740  10.994 -33.879  1.00  0.00     0.062 A 
ATOM     16  C   UNL     1     -32.294   9.004 -32.554  1.00  0.00     0.051 A 
ATOM     17  C   UNL     1     -32.538   8.892 -33.924  1.00  0.00     0.016 A 
BRANCH  13  18
ATOM     18  O   UNL     1     -33.961  12.203 -31.745  1.00  0.00    -0.493 OA
ATOM     19  C   UNL     1     -33.258  12.788 -30.653  1.00  0.00     0.278 C 
ENDBRANCH  13  18
BRANCH  14  20
ATOM     20  O   UNL     1     -32.522  10.222 -30.472  1.00  0.00    -0.504 OA
ATOM     21  H   UNL     1     -32.837  11.026 -29.941  1.00  0.00     0.293 HD
ENDBRANCH  14  20
ENDBRANCH   1  12
BRANCH   2  22
ATOM     22  O   UNL     1     -31.289   9.023 -36.551  1.00  0.00    -0.502 OA
ATOM     23  H   UNL     1     -30.606   8.588 -37.160  1.00  0.00     0.293 HD
ENDBRANCH   2  22
BRANCH   6  24
ATOM     24  O   UNL     1     -34.016   8.875 -41.124  1.00  0.00    -0.507 OA
ATOM     25  H   UNL     1     -34.308   8.865 -42.089  1.00  0.00     0.293 HD
ENDBRANCH   6  24
BRANCH   8  26
ATOM     26  O   UNL     1     -38.112  10.935 -39.755  1.00  0.00    -0.508 OA
ATOM     27  H   UNL     1     -38.442  11.849 -39.466  1.00  0.00     0.293 HD
ENDBRANCH   8  26
TORSDOF 6
ENDMDL
MODEL 2
REMARK VINA RESULT:    -4.085      1.334      6.787
REMARK INTER + INTRA:          -4.291
REMARK INTER:                  -4.694
REMARK INTRA:                   0.403
REMARK UNBOUND:                 0.750
REMARK SMILES COc1cc(-c2oc3cc(O)cc(O)c3c(=O)c2O)ccc1O
REMARK SMILES IDX 6 1 18 2 16 3 17 4 15 5 13 6 12 7 10 8 9 9 8 10 7 11 5 12
REMARK SMILES IDX 3 13 22 14 4 15 21 16 20 17 2 18 1 19 23 20 19 22 14 24
REMARK SMILES IDX 11 26
REMARK H PARENT 23 21 19 23 14 25 11 27
REMARK Flexibility Score: inf
ROOT
ATOM      1  C   UNL     1     -33.816  10.064 -36.397  1.00  0.00     0.180 A 
ATOM      2  C   UNL     1     -32.507   9.560 -36.322  1.00  0.00     0.208 A 
ATOM      3  C   UNL     1     -31.782   9.719 -35.131  1.00  0.00     0.238 A 
ATOM      4  O   UNL     1     -30.631   9.217 -35.051  1.00  0.00    -0.285 OA
ATOM      5  C   UNL     1     -32.369  10.396 -34.034  1.00  0.00     0.111 A 
ATOM      6  C   UNL     1     -31.712  10.650 -32.792  1.00  0.00     0.134 A 
ATOM      7  C   UNL     1     -32.434  11.213 -31.732  1.00  0.00     0.093 A 
ATOM      8  C   UNL     1     -33.767  11.590 -31.888  1.00  0.00     0.123 A 
ATOM      9  C   UNL     1     -34.402  11.401 -33.117  1.00  0.00     0.094 A 
ATOM     10  C   UNL     1     -33.719  10.809 -34.182  1.00  0.00     0.146 A 
ATOM     11  O   UNL     1     -34.363  10.637 -35.331  1.00  0.00    -0.452 OA
ENDROOT
BRANCH   1  12
ATOM     12  C   UNL     1     -34.633   9.957 -37.627  1.00  0.00     0.025 A 
ATOM     13  C   UNL     1     -36.640  10.584 -38.877  1.00  0.00     0.161 A 
ATOM     14  C   UNL     1     -36.188   9.829 -39.968  1.00  0.00     0.157 A 
ATOM     15  C   UNL     1     -35.853  10.650 -37.710  1.00  0.00     0.062 A 
ATOM     16  C   UNL     1     -34.964   9.154 -39.897  1.00  0.00     0.051 A 
ATOM     17  C   UNL     1     -34.188   9.222 -38.738  1.00  0.00     0.016 A 
BRANCH  13  18
ATOM     18  O   UNL     1     -37.869  11.253 -38.989  1.00  0.00    -0.493 OA
ATOM     19  C   UNL     1     -39.121  10.714 -38.575  1.00  0.00     0.278 C 
ENDBRANCH  13  18
BRANCH  14  20
ATOM     20  O   UNL     1     -36.963   9.759 -41.125  1.00  0.00    -0.504 OA
ATOM     21  H   UNL     1     -37.821   9.220 -41.156  1.00  0.00     0.293 HD
ENDBRANCH  14  20
ENDBRANCH   1  12
BRANCH   2  22
ATOM     22  O   UNL     1     -31.955   8.875 -37.409  1.00  0.00    -0.502 OA
ATOM     23  H   UNL     1     -31.035   9.089 -37.776  1.00  0.00     0.293 HD
ENDBRANCH   2  22
BRANCH   6  24
ATOM     24  O   UNL     1     -30.358  10.396 -32.560  1.00  0.00    -0.507 OA
ATOM     25  H   UNL     1     -29.649  11.106 -32.457  1.00  0.00     0.293 HD
ENDBRANCH   6  24
BRANCH   8  26
ATOM     26  O   UNL     1     -34.449  12.161 -30.816  1.00  0.00    -0.508 OA
ATOM     27  H   UNL     1     -34.982  11.596 -30.165  1.00  0.00     0.293 HD
ENDBRANCH   8  26
TORSDOF 6
ENDMDL
