MODEL 1
REMARK VINA RESULT:    -4.532      0.000      0.000
REMARK INTER + INTRA:          -6.440
REMARK INTER:                  -6.122
REMARK INTRA:                  -0.319
REMARK UNBOUND:                -0.319
REMARK SMILES C=C1CCC=C(C)CC[C@H]2[C@H]1CC2(C)C
REMARK SMILES IDX 11 1 12 2 13 3 10 4 14 5 15 6 9 7 8 8 6 9 7 10 5 11 2 13
REMARK SMILES IDX 1 14 3 15 4 16
REMARK H PARENT
REMARK Flexibility Score: 70.00
ROOT
ATOM      1  C   UNL     1     144.697 149.672 162.120  1.00  0.00     0.018 C 
ATOM      2  C   UNL     1     145.883 150.620 162.332  1.00  0.00     0.015 C 
ATOM      3  C   UNL     1     146.303 149.812 163.575  1.00  0.00    -0.031 C 
ATOM      4  C   UNL     1     145.192 148.775 163.261  1.00  0.00     0.002 C 
ATOM      5  C   UNL     1     146.128 150.625 164.876  1.00  0.00     0.011 C 
ATOM      6  C   UNL     1     147.724 149.230 163.478  1.00  0.00     0.011 C 
ENDROOT
BRANCH   4   7
ATOM      7  C   UNL     1     144.138 148.493 164.351  1.00  0.00     0.009 C 
BRANCH   7   8
ATOM      8  C   UNL     1     143.404 147.158 164.115  1.00  0.00     0.030 C 
BRANCH   8   9
ATOM      9  C   UNL     1     142.056 147.358 163.440  1.00  0.00    -0.077 C 
ATOM     10  C   UNL     1     140.861 147.616 164.323  1.00  0.00     0.039 C 
ATOM     11  C   UNL     1     141.856 147.346 162.100  1.00  0.00    -0.028 CG0
ATOM     12  G   UNL     1     142.900 147.150 161.026  1.00  0.00     0.000 G0
ENDBRANCH   8   9
ENDBRANCH   7   8
ENDBRANCH   4   7
BRANCH   1  13
ATOM     13  C   UNL     1     144.603 148.973 160.771  1.00  0.00    -0.074 C 
ATOM     14  C   UNL     1     145.688 148.708 160.021  1.00  0.00     0.008 C 
BRANCH  13  15
ATOM     15  C   UNL     1     143.253 148.467 160.320  1.00  0.00     0.035 C 
BRANCH  15  16
ATOM     16  C   UNL     1     142.891 147.140 161.008  1.00  0.00     0.032 CG0
ATOM     17  G   UNL     1     141.866 147.340 162.100  1.00  0.00     0.000 G0
ENDBRANCH  15  16
ENDBRANCH  13  15
ENDBRANCH   1  13
TORSDOF 0
ENDMDL
MODEL 2
REMARK VINA RESULT:    -4.519      4.070      5.736
REMARK INTER + INTRA:          -6.423
REMARK INTER:                  -6.180
REMARK INTRA:                  -0.243
REMARK UNBOUND:                -0.319
REMARK SMILES C=C1CCC=C(C)CC[C@H]2[C@H]1CC2(C)C
REMARK SMILES IDX 11 1 12 2 13 3 10 4 14 5 15 6 9 7 8 8 6 9 7 10 5 11 2 13
REMARK SMILES IDX 1 14 3 15 4 16
REMARK H PARENT
REMARK Flexibility Score: 70.00
ROOT
ATOM      1  C   UNL     1     141.117 144.636 162.305  1.00  0.00     0.018 C 
ATOM      2  C   UNL     1     140.088 145.737 162.582  1.00  0.00     0.015 C 
ATOM      3  C   UNL     1     140.893 146.175 163.821  1.00  0.00    -0.031 C 
ATOM      4  C   UNL     1     142.003 145.159 163.442  1.00  0.00     0.002 C 
ATOM      5  C   UNL     1     140.129 145.894 165.132  1.00  0.00     0.011 C 
ATOM      6  C   UNL     1     141.362 147.639 163.761  1.00  0.00     0.011 C 
ENDROOT
BRANCH   4   7
ATOM      7  C   UNL     1     142.393 144.093 164.486  1.00  0.00     0.009 C 
BRANCH   7   8
ATOM      8  C   UNL     1     143.712 143.383 164.124  1.00  0.00     0.030 C 
BRANCH   8   9
ATOM      9  C   UNL     1     143.472 142.045 163.441  1.00  0.00    -0.077 C 
ATOM     10  C   UNL     1     143.226 140.843 164.320  1.00  0.00     0.039 C 
ATOM     11  C   UNL     1     143.439 141.859 162.100  1.00  0.00    -0.028 CG0
ATOM     12  G   UNL     1     143.616 142.913 161.031  1.00  0.00     0.000 G0
ENDBRANCH   8   9
ENDBRANCH   7   8
ENDBRANCH   4   7
BRANCH   1  13
ATOM     13  C   UNL     1     141.786 144.643 160.938  1.00  0.00    -0.074 C 
ATOM     14  C   UNL     1     142.025 145.780 160.259  1.00  0.00     0.008 C 
BRANCH  13  15
ATOM     15  C   UNL     1     142.293 143.332 160.384  1.00  0.00     0.035 C 
BRANCH  15  16
ATOM     16  C   UNL     1     143.626 142.925 161.033  1.00  0.00     0.032 CG0
ATOM     17  G   UNL     1     143.428 141.874 162.100  1.00  0.00     0.000 G0
ENDBRANCH  15  16
ENDBRANCH  13  15
ENDBRANCH   1  13
TORSDOF 0
ENDMDL
MODEL 3
REMARK VINA RESULT:    -4.513      6.228      8.004
REMARK INTER + INTRA:          -6.415
REMARK INTER:                  -6.116
REMARK INTRA:                  -0.299
REMARK UNBOUND:                -0.319
REMARK SMILES C=C1CCC=C(C)CC[C@H]2[C@H]1CC2(C)C
REMARK SMILES IDX 11 1 12 2 13 3 10 4 14 5 15 6 9 7 8 8 6 9 7 10 5 11 2 13
REMARK SMILES IDX 1 14 3 15 4 16
REMARK H PARENT
REMARK Flexibility Score: 70.00
ROOT
ATOM      1  C   UNL     1     146.130 141.172 162.240  1.00  0.00     0.018 C 
ATOM      2  C   UNL     1     144.980 140.172 162.409  1.00  0.00     0.015 C 
ATOM      3  C   UNL     1     144.491 140.946 163.648  1.00  0.00    -0.031 C 
ATOM      4  C   UNL     1     145.565 142.034 163.377  1.00  0.00     0.002 C 
ATOM      5  C   UNL     1     144.663 140.126 164.944  1.00  0.00     0.011 C 
ATOM      6  C   UNL     1     143.049 141.469 163.516  1.00  0.00     0.011 C 
ENDROOT
BRANCH   4   7
ATOM      7  C   UNL     1     146.575 142.347 164.499  1.00  0.00     0.009 C 
BRANCH   7   8
ATOM      8  C   UNL     1     147.297 143.689 164.269  1.00  0.00     0.030 C 
BRANCH   8   9
ATOM      9  C   UNL     1     148.667 143.500 163.636  1.00  0.00    -0.077 C 
ATOM     10  C   UNL     1     149.833 143.230 164.555  1.00  0.00     0.039 C 
ATOM     11  C   UNL     1     148.912 143.532 162.305  1.00  0.00    -0.028 CG0
ATOM     12  G   UNL     1     147.904 143.744 161.199  1.00  0.00     0.000 G0
ENDBRANCH   8   9
ENDBRANCH   7   8
ENDBRANCH   4   7
BRANCH   1  13
ATOM     13  C   UNL     1     146.231 141.889 160.902  1.00  0.00    -0.074 C 
ATOM     14  C   UNL     1     145.152 142.152 160.142  1.00  0.00     0.008 C 
BRANCH  13  15
ATOM     15  C   UNL     1     147.581 142.418 160.475  1.00  0.00     0.035 C 
BRANCH  15  16
ATOM     16  C   UNL     1     147.915 143.742 161.181  1.00  0.00     0.032 CG0
ATOM     17  G   UNL     1     148.906 143.540 162.304  1.00  0.00     0.000 G0
ENDBRANCH  15  16
ENDBRANCH  13  15
ENDBRANCH   1  13
TORSDOF 0
ENDMDL
MODEL 4
REMARK VINA RESULT:    -4.476      3.923      5.563
REMARK INTER + INTRA:          -6.365
REMARK INTER:                  -6.059
REMARK INTRA:                  -0.306
REMARK UNBOUND:                -0.319
REMARK SMILES C=C1CCC=C(C)CC[C@H]2[C@H]1CC2(C)C
REMARK SMILES IDX 11 1 12 2 13 3 10 4 14 5 15 6 9 7 8 8 6 9 7 10 5 11 2 13
REMARK SMILES IDX 1 14 3 15 4 16
REMARK H PARENT
REMARK Flexibility Score: 70.00
ROOT
ATOM      1  C   UNL     1     149.579 146.074 162.295  1.00  0.00     0.018 C 
ATOM      2  C   UNL     1     150.578 144.957 162.622  1.00  0.00     0.015 C 
ATOM      3  C   UNL     1     149.746 144.581 163.864  1.00  0.00    -0.031 C 
ATOM      4  C   UNL     1     148.667 145.611 163.438  1.00  0.00     0.002 C 
ATOM      5  C   UNL     1     150.500 144.887 165.175  1.00  0.00     0.011 C 
ATOM      6  C   UNL     1     149.241 143.128 163.846  1.00  0.00     0.011 C 
ENDROOT
BRANCH   4   7
ATOM      7  C   UNL     1     148.291 146.721 164.440  1.00  0.00     0.009 C 
BRANCH   7   8
ATOM      8  C   UNL     1     146.944 147.384 164.093  1.00  0.00     0.030 C 
BRANCH   8   9
ATOM      9  C   UNL     1     147.130 148.692 163.340  1.00  0.00    -0.077 C 
ATOM     10  C   UNL     1     147.323 149.949 164.153  1.00  0.00     0.039 C 
ATOM     11  C   UNL     1     147.159 148.808 161.990  1.00  0.00    -0.028 CG0
ATOM     12  G   UNL     1     147.029 147.693 160.979  1.00  0.00     0.000 G0
ENDBRANCH   8   9
ENDBRANCH   7   8
ENDBRANCH   4   7
BRANCH   1  13
ATOM     13  C   UNL     1     148.928 146.039 160.920  1.00  0.00    -0.074 C 
ATOM     14  C   UNL     1     148.730 144.891 160.248  1.00  0.00     0.008 C 
BRANCH  13  15
ATOM     15  C   UNL     1     148.391 147.331 160.351  1.00  0.00     0.035 C 
BRANCH  15  16
ATOM     16  C   UNL     1     147.030 147.694 160.966  1.00  0.00     0.032 CG0
ATOM     17  G   UNL     1     147.158 148.798 161.990  1.00  0.00     0.000 G0
ENDBRANCH  15  16
ENDBRANCH  13  15
ENDBRANCH   1  13
TORSDOF 0
ENDMDL
MODEL 5
REMARK VINA RESULT:    -4.419      2.589      3.688
REMARK INTER + INTRA:          -6.287
REMARK INTER:                  -6.008
REMARK INTRA:                  -0.279
REMARK UNBOUND:                -0.319
REMARK SMILES C=C1CCC=C(C)CC[C@H]2[C@H]1CC2(C)C
REMARK SMILES IDX 11 1 12 2 13 3 10 4 14 5 15 6 9 7 8 8 6 9 7 10 5 11 2 13
REMARK SMILES IDX 1 14 3 15 4 16
REMARK H PARENT
REMARK Flexibility Score: 70.00
ROOT
ATOM      1  C   UNL     1     146.691 147.320 163.260  1.00  0.00     0.018 C 
ATOM      2  C   UNL     1     147.593 148.505 162.896  1.00  0.00     0.015 C 
ATOM      3  C   UNL     1     146.689 149.443 163.719  1.00  0.00    -0.031 C 
ATOM      4  C   UNL     1     145.875 148.213 164.202  1.00  0.00     0.002 C 
ATOM      5  C   UNL     1     145.937 150.449 162.823  1.00  0.00     0.011 C 
ATOM      6  C   UNL     1     147.430 150.167 164.857  1.00  0.00     0.011 C 
ENDROOT
BRANCH   4   7
ATOM      7  C   UNL     1     144.357 148.201 163.933  1.00  0.00     0.009 C 
BRANCH   7   8
ATOM      8  C   UNL     1     143.579 147.454 165.034  1.00  0.00     0.030 C 
BRANCH   8   9
ATOM      9  C   UNL     1     143.252 146.024 164.633  1.00  0.00    -0.077 C 
ATOM     10  C   UNL     1     141.894 145.757 164.031  1.00  0.00     0.039 C 
ATOM     11  C   UNL     1     144.101 144.976 164.753  1.00  0.00    -0.028 CG0
ATOM     12  G   UNL     1     145.516 145.008 165.284  1.00  0.00     0.000 G0
ENDBRANCH   8   9
ENDBRANCH   7   8
ENDBRANCH   4   7
BRANCH   1  13
ATOM     13  C   UNL     1     147.353 146.131 163.942  1.00  0.00    -0.074 C 
ATOM     14  C   UNL     1     148.586 146.202 164.476  1.00  0.00     0.008 C 
BRANCH  13  15
ATOM     15  C   UNL     1     146.545 144.866 164.116  1.00  0.00     0.035 C 
BRANCH  15  16
ATOM     16  C   UNL     1     145.535 144.998 165.267  1.00  0.00     0.032 CG0
ATOM     17  G   UNL     1     144.111 144.980 164.763  1.00  0.00     0.000 G0
ENDBRANCH  15  16
ENDBRANCH  13  15
ENDBRANCH   1  13
TORSDOF 0
ENDMDL
MODEL 6
REMARK VINA RESULT:    -4.409      3.225      5.408
REMARK INTER + INTRA:          -6.274
REMARK INTER:                  -5.951
REMARK INTRA:                  -0.323
REMARK UNBOUND:                -0.319
REMARK SMILES C=C1CCC=C(C)CC[C@H]2[C@H]1CC2(C)C
REMARK SMILES IDX 11 1 12 2 13 3 10 4 14 5 15 6 9 7 8 8 6 9 7 10 5 11 2 13
REMARK SMILES IDX 1 14 3 15 4 16
REMARK H PARENT
REMARK Flexibility Score: 70.00
ROOT
ATOM      1  C   UNL     1     143.406 146.537 163.271  1.00  0.00     0.018 C 
ATOM      2  C   UNL     1     142.235 147.448 162.887  1.00  0.00     0.015 C 
ATOM      3  C   UNL     1     141.295 146.613 163.777  1.00  0.00    -0.031 C 
ATOM      4  C   UNL     1     142.516 145.794 164.275  1.00  0.00     0.002 C 
ATOM      5  C   UNL     1     140.250 145.840 162.945  1.00  0.00     0.011 C 
ATOM      6  C   UNL     1     140.616 147.430 164.890  1.00  0.00     0.011 C 
ENDROOT
BRANCH   4   7
ATOM      7  C   UNL     1     142.485 144.264 164.087  1.00  0.00     0.009 C 
BRANCH   7   8
ATOM      8  C   UNL     1     143.398 143.538 165.094  1.00  0.00     0.030 C 
BRANCH   8   9
ATOM      9  C   UNL     1     144.741 143.168 164.484  1.00  0.00    -0.077 C 
ATOM     10  C   UNL     1     144.862 141.818 163.820  1.00  0.00     0.039 C 
ATOM     11  C   UNL     1     145.830 143.972 164.473  1.00  0.00    -0.028 CG0
ATOM     12  G   UNL     1     145.934 145.371 165.036  1.00  0.00     0.000 G0
ENDBRANCH   8   9
ENDBRANCH   7   8
ENDBRANCH   4   7
BRANCH   1  13
ATOM     13  C   UNL     1     144.626 147.203 163.890  1.00  0.00    -0.074 C 
ATOM     14  C   UNL     1     144.561 148.400 164.501  1.00  0.00     0.008 C 
BRANCH  13  15
ATOM     15  C   UNL     1     145.927 146.435 163.910  1.00  0.00     0.035 C 
BRANCH  15  16
ATOM     16  C   UNL     1     145.939 145.378 165.027  1.00  0.00     0.032 CG0
ATOM     17  G   UNL     1     145.836 143.978 164.469  1.00  0.00     0.000 G0
ENDBRANCH  15  16
ENDBRANCH  13  15
ENDBRANCH   1  13
TORSDOF 0
ENDMDL
MODEL 7
REMARK VINA RESULT:    -4.394      4.234      5.716
REMARK INTER + INTRA:          -6.254
REMARK INTER:                  -5.935
REMARK INTRA:                  -0.319
REMARK UNBOUND:                -0.319
REMARK SMILES C=C1CCC=C(C)CC[C@H]2[C@H]1CC2(C)C
REMARK SMILES IDX 11 1 12 2 13 3 10 4 14 5 15 6 9 7 8 8 6 9 7 10 5 11 2 13
REMARK SMILES IDX 1 14 3 15 4 16
REMARK H PARENT
REMARK Flexibility Score: 70.00
ROOT
ATOM      1  C   UNL     1     147.373 144.234 163.308  1.00  0.00     0.018 C 
ATOM      2  C   UNL     1     148.550 143.337 162.905  1.00  0.00     0.015 C 
ATOM      3  C   UNL     1     149.480 144.148 163.827  1.00  0.00    -0.031 C 
ATOM      4  C   UNL     1     148.254 144.949 164.340  1.00  0.00     0.002 C 
ATOM      5  C   UNL     1     150.529 144.948 163.026  1.00  0.00     0.011 C 
ATOM      6  C   UNL     1     150.153 143.300 164.920  1.00  0.00     0.011 C 
ENDROOT
BRANCH   4   7
ATOM      7  C   UNL     1     148.281 146.484 164.198  1.00  0.00     0.009 C 
BRANCH   7   8
ATOM      8  C   UNL     1     147.304 147.174 165.169  1.00  0.00     0.030 C 
BRANCH   8   9
ATOM      9  C   UNL     1     145.998 147.555 164.491  1.00  0.00    -0.077 C 
ATOM     10  C   UNL     1     145.918 148.911 163.834  1.00  0.00     0.039 C 
ATOM     11  C   UNL     1     144.908 146.755 164.412  1.00  0.00    -0.028 CG0
ATOM     12  G   UNL     1     144.768 145.351 164.954  1.00  0.00     0.000 G0
ENDBRANCH   8   9
ENDBRANCH   7   8
ENDBRANCH   4   7
BRANCH   1  13
ATOM     13  C   UNL     1     146.150 143.546 163.898  1.00  0.00    -0.074 C 
ATOM     14  C   UNL     1     146.226 142.361 164.531  1.00  0.00     0.008 C 
BRANCH  13  15
ATOM     15  C   UNL     1     144.830 144.281 163.862  1.00  0.00     0.035 C 
BRANCH  15  16
ATOM     16  C   UNL     1     144.753 145.352 164.962  1.00  0.00     0.032 CG0
ATOM     17  G   UNL     1     144.921 146.744 164.398  1.00  0.00     0.000 G0
ENDBRANCH  15  16
ENDBRANCH  13  15
ENDBRANCH   1  13
TORSDOF 0
ENDMDL
MODEL 8
REMARK VINA RESULT:    -4.378      4.688      6.951
REMARK INTER + INTRA:          -6.233
REMARK INTER:                  -5.917
REMARK INTRA:                  -0.316
REMARK UNBOUND:                -0.319
REMARK SMILES C=C1CCC=C(C)CC[C@H]2[C@H]1CC2(C)C
REMARK SMILES IDX 11 1 12 2 13 3 10 4 14 5 15 6 9 7 8 8 6 9 7 10 5 11 2 13
REMARK SMILES IDX 1 14 3 15 4 16
REMARK H PARENT
REMARK Flexibility Score: 70.00
ROOT
ATOM      1  C   UNL     1     144.188 143.428 163.293  1.00  0.00     0.018 C 
ATOM      2  C   UNL     1     143.322 142.233 162.875  1.00  0.00     0.015 C 
ATOM      3  C   UNL     1     144.129 141.321 163.818  1.00  0.00    -0.031 C 
ATOM      4  C   UNL     1     144.895 142.563 164.345  1.00  0.00     0.002 C 
ATOM      5  C   UNL     1     144.965 140.284 163.039  1.00  0.00     0.011 C 
ATOM      6  C   UNL     1     143.268 140.636 164.895  1.00  0.00     0.011 C 
ENDROOT
BRANCH   4   7
ATOM      7  C   UNL     1     146.434 142.563 164.237  1.00  0.00     0.009 C 
BRANCH   7   8
ATOM      8  C   UNL     1     147.085 143.538 165.237  1.00  0.00     0.030 C 
BRANCH   8   9
ATOM      9  C   UNL     1     147.454 144.862 164.586  1.00  0.00    -0.077 C 
ATOM     10  C   UNL     1     148.826 144.982 163.970  1.00  0.00     0.039 C 
ATOM     11  C   UNL     1     146.630 145.933 164.497  1.00  0.00    -0.028 CG0
ATOM     12  G   UNL     1     145.209 146.033 165.000  1.00  0.00     0.000 G0
ENDBRANCH   8   9
ENDBRANCH   7   8
ENDBRANCH   4   7
BRANCH   1  13
ATOM     13  C   UNL     1     143.465 144.640 163.863  1.00  0.00    -0.074 C 
ATOM     14  C   UNL     1     142.256 144.549 164.445  1.00  0.00     0.008 C 
BRANCH  13  15
ATOM     15  C   UNL     1     144.189 145.966 163.867  1.00  0.00     0.035 C 
BRANCH  15  16
ATOM     16  C   UNL     1     145.210 146.046 165.014  1.00  0.00     0.032 CG0
ATOM     17  G   UNL     1     146.629 145.947 164.505  1.00  0.00     0.000 G0
ENDBRANCH  15  16
ENDBRANCH  13  15
ENDBRANCH   1  13
TORSDOF 0
ENDMDL
MODEL 9
REMARK VINA RESULT:    -4.139      2.866      4.353
REMARK INTER + INTRA:          -5.910
REMARK INTER:                  -5.621
REMARK INTRA:                  -0.288
REMARK UNBOUND:                -0.319
REMARK SMILES C=C1CCC=C(C)CC[C@H]2[C@H]1CC2(C)C
REMARK SMILES IDX 11 1 12 2 13 3 10 4 14 5 15 6 9 7 8 8 6 9 7 10 5 11 2 13
REMARK SMILES IDX 1 14 3 15 4 16
REMARK H PARENT
REMARK Flexibility Score: 70.00
ROOT
ATOM      1  C   UNL     1     145.409 147.830 164.495  1.00  0.00     0.018 C 
ATOM      2  C   UNL     1     145.217 149.323 164.787  1.00  0.00     0.015 C 
ATOM      3  C   UNL     1     146.393 149.656 163.850  1.00  0.00    -0.031 C 
ATOM      4  C   UNL     1     146.478 148.159 163.446  1.00  0.00     0.002 C 
ATOM      5  C   UNL     1     147.603 150.223 164.623  1.00  0.00     0.011 C 
ATOM      6  C   UNL     1     146.005 150.580 162.682  1.00  0.00     0.011 C 
ENDROOT
BRANCH   4   7
ATOM      7  C   UNL     1     147.820 147.429 163.656  1.00  0.00     0.009 C 
BRANCH   7   8
ATOM      8  C   UNL     1     147.900 146.120 162.847  1.00  0.00     0.030 C 
BRANCH   8   9
ATOM      9  C   UNL     1     147.564 144.903 163.696  1.00  0.00    -0.077 C 
ATOM     10  C   UNL     1     148.682 144.269 164.487  1.00  0.00     0.039 C 
ATOM     11  C   UNL     1     146.328 144.363 163.813  1.00  0.00    -0.028 CG0
ATOM     12  G   UNL     1     145.057 144.847 163.154  1.00  0.00     0.000 G0
ENDBRANCH   8   9
ENDBRANCH   7   8
ENDBRANCH   4   7
BRANCH   1  13
ATOM     13  C   UNL     1     144.208 147.073 163.948  1.00  0.00    -0.074 C 
ATOM     14  C   UNL     1     143.258 147.669 163.205  1.00  0.00     0.008 C 
BRANCH  13  15
ATOM     15  C   UNL     1     144.149 145.578 164.161  1.00  0.00     0.035 C 
BRANCH  15  16
ATOM     16  C   UNL     1     145.053 144.833 163.166  1.00  0.00     0.032 CG0
ATOM     17  G   UNL     1     146.333 144.365 163.820  1.00  0.00     0.000 G0
ENDBRANCH  15  16
ENDBRANCH  13  15
ENDBRANCH   1  13
TORSDOF 0
ENDMDL
