MODEL 1
REMARK VINA RESULT:    -5.296      0.000      0.000
REMARK INTER + INTRA:          -8.853
REMARK INTER:                  -7.464
REMARK INTRA:                  -1.389
REMARK UNBOUND:                -1.389
REMARK SMILES O=C(C=Cc1ccc(O)cc1)CC(=O)C=Cc1ccc(O)cc1
REMARK SMILES IDX 12 1 2 2 1 3 3 4 4 5 5 6 6 7 7 8 8 9 11 10 10 11 9 12 13 14
REMARK SMILES IDX 14 15 15 16 16 17 17 18 18 19 23 20 19 21 22 22 20 23 21 24
REMARK H PARENT 9 13 21 25
REMARK Flexibility Score: inf
ROOT
ATOM      1  C   UNL     1     121.786 131.402  98.799  1.00  0.00     0.160 C 
ENDROOT
BRANCH   1   2
ATOM      2  C   UNL     1     122.561 131.249 100.086  1.00  0.00     0.163 C 
ATOM      3  O   UNL     1     123.007 130.117 100.422  1.00  0.00    -0.294 OA
BRANCH   2   4
ATOM      4  C   UNL     1     122.822 132.392 100.987  1.00  0.00     0.048 C 
ATOM      5  C   UNL     1     124.050 132.734 101.408  1.00  0.00     0.012 C 
BRANCH   5   6
ATOM      6  C   UNL     1     124.319 133.886 102.304  1.00  0.00    -0.025 A 
ATOM      7  C   UNL     1     123.323 134.460 103.121  1.00  0.00     0.012 A 
ATOM      8  C   UNL     1     123.630 135.537 103.958  1.00  0.00     0.047 A 
ATOM      9  C   UNL     1     124.932 136.051 103.998  1.00  0.00     0.115 A 
ATOM     10  C   UNL     1     125.626 134.399 102.365  1.00  0.00     0.012 A 
ATOM     11  C   UNL     1     125.927 135.477 103.203  1.00  0.00     0.047 A 
BRANCH   9  12
ATOM     12  O   UNL     1     125.248 137.125 104.828  1.00  0.00    -0.508 OA
ATOM     13  H   UNL     1     125.830 137.889 104.505  1.00  0.00     0.293 HD
ENDBRANCH   9  12
ENDBRANCH   5   6
ENDBRANCH   2   4
ENDBRANCH   1   2
BRANCH   1  14
ATOM     14  C   UNL     1     122.676 131.661  97.616  1.00  0.00     0.163 C 
ATOM     15  O   UNL     1     122.218 131.503  96.452  1.00  0.00    -0.294 OA
BRANCH  14  16
ATOM     16  C   UNL     1     124.057 132.143  97.824  1.00  0.00     0.048 C 
ATOM     17  C   UNL     1     124.387 133.437  97.703  1.00  0.00     0.012 C 
BRANCH  17  18
ATOM     18  C   UNL     1     125.764 133.958  97.898  1.00  0.00    -0.025 A 
ATOM     19  C   UNL     1     126.528 133.454  98.964  1.00  0.00     0.012 A 
ATOM     20  C   UNL     1     126.343 134.911  97.037  1.00  0.00     0.012 A 
ATOM     21  C   UNL     1     127.833 133.908  99.181  1.00  0.00     0.047 A 
ATOM     22  C   UNL     1     127.648 135.363  97.256  1.00  0.00     0.047 A 
ATOM     23  C   UNL     1     128.395 134.864  98.331  1.00  0.00     0.115 A 
BRANCH  23  24
ATOM     24  O   UNL     1     129.696 135.308  98.559  1.00  0.00    -0.508 OA
ATOM     25  H   UNL     1     130.498 134.809  98.193  1.00  0.00     0.293 HD
ENDBRANCH  23  24
ENDBRANCH  17  18
ENDBRANCH  14  16
ENDBRANCH   1  14
TORSDOF 8
ENDMDL
MODEL 2
REMARK VINA RESULT:    -5.205      1.908      2.715
REMARK INTER + INTRA:          -8.724
REMARK INTER:                  -7.979
REMARK INTRA:                  -0.746
REMARK UNBOUND:                -1.389
REMARK SMILES O=C(C=Cc1ccc(O)cc1)CC(=O)C=Cc1ccc(O)cc1
REMARK SMILES IDX 12 1 2 2 1 3 3 4 4 5 5 6 6 7 7 8 8 9 11 10 10 11 9 12 13 14
REMARK SMILES IDX 14 15 15 16 16 17 17 18 18 19 23 20 19 21 22 22 20 23 21 24
REMARK H PARENT 9 13 21 25
REMARK Flexibility Score: inf
ROOT
ATOM      1  C   UNL     1     124.382 132.163  97.829  1.00  0.00     0.160 C 
ENDROOT
BRANCH   1   2
ATOM      2  C   UNL     1     123.401 132.354  98.962  1.00  0.00     0.163 C 
ATOM      3  O   UNL     1     122.355 131.650  99.016  1.00  0.00    -0.294 OA
BRANCH   2   4
ATOM      4  C   UNL     1     123.619 133.355 100.029  1.00  0.00     0.048 C 
ATOM      5  C   UNL     1     124.017 133.034 101.271  1.00  0.00     0.012 C 
BRANCH   5   6
ATOM      6  C   UNL     1     124.247 134.035 102.342  1.00  0.00    -0.025 A 
ATOM      7  C   UNL     1     125.421 134.812 102.414  1.00  0.00     0.012 A 
ATOM      8  C   UNL     1     125.585 135.751 103.437  1.00  0.00     0.047 A 
ATOM      9  C   UNL     1     124.580 135.935 104.394  1.00  0.00     0.115 A 
ATOM     10  C   UNL     1     123.238 134.239 103.299  1.00  0.00     0.012 A 
ATOM     11  C   UNL     1     123.408 135.179 104.320  1.00  0.00     0.047 A 
BRANCH   9  12
ATOM     12  O   UNL     1     124.734 136.868 105.418  1.00  0.00    -0.508 OA
ATOM     13  H   UNL     1     124.952 136.582 106.365  1.00  0.00     0.293 HD
ENDBRANCH   9  12
ENDBRANCH   5   6
ENDBRANCH   2   4
ENDBRANCH   1   2
BRANCH   1  14
ATOM     14  C   UNL     1     124.905 133.467  97.294  1.00  0.00     0.163 C 
ATOM     15  O   UNL     1     124.111 134.261  96.720  1.00  0.00    -0.294 OA
BRANCH  14  16
ATOM     16  C   UNL     1     126.324 133.826  97.484  1.00  0.00     0.048 C 
ATOM     17  C   UNL     1     127.323 133.031  97.076  1.00  0.00     0.012 C 
BRANCH  17  18
ATOM     18  C   UNL     1     128.761 133.355  97.254  1.00  0.00    -0.025 A 
ATOM     19  C   UNL     1     129.694 132.780  96.376  1.00  0.00     0.012 A 
ATOM     20  C   UNL     1     129.220 134.244  98.247  1.00  0.00     0.012 A 
ATOM     21  C   UNL     1     131.057 133.063  96.501  1.00  0.00     0.047 A 
ATOM     22  C   UNL     1     130.584 134.526  98.369  1.00  0.00     0.047 A 
ATOM     23  C   UNL     1     131.507 133.934  97.497  1.00  0.00     0.115 A 
BRANCH  23  24
ATOM     24  O   UNL     1     132.868 134.207  97.610  1.00  0.00    -0.508 OA
ATOM     25  H   UNL     1     133.337 134.837  96.969  1.00  0.00     0.293 HD
ENDBRANCH  23  24
ENDBRANCH  17  18
ENDBRANCH  14  16
ENDBRANCH   1  14
TORSDOF 8
ENDMDL
MODEL 3
REMARK VINA RESULT:    -5.161      1.979      6.615
REMARK INTER + INTRA:          -8.661
REMARK INTER:                  -7.975
REMARK INTRA:                  -0.686
REMARK UNBOUND:                -1.389
REMARK SMILES O=C(C=Cc1ccc(O)cc1)CC(=O)C=Cc1ccc(O)cc1
REMARK SMILES IDX 12 1 2 2 1 3 3 4 4 5 5 6 6 7 7 8 8 9 11 10 10 11 9 12 13 14
REMARK SMILES IDX 14 15 15 16 16 17 17 18 18 19 23 20 19 21 22 22 20 23 21 24
REMARK H PARENT 9 13 21 25
REMARK Flexibility Score: inf
ROOT
ATOM      1  C   UNL     1     124.302 132.106  97.931  1.00  0.00     0.160 C 
ENDROOT
BRANCH   1   2
ATOM      2  C   UNL     1     124.974 133.385  97.490  1.00  0.00     0.163 C 
ATOM      3  O   UNL     1     124.294 134.299  96.946  1.00  0.00    -0.294 OA
BRANCH   2   4
ATOM      4  C   UNL     1     126.424 133.613  97.670  1.00  0.00     0.048 C 
ATOM      5  C   UNL     1     127.357 133.108  96.847  1.00  0.00     0.012 C 
BRANCH   5   6
ATOM      6  C   UNL     1     128.813 133.341  97.017  1.00  0.00    -0.025 A 
ATOM      7  C   UNL     1     129.776 132.785  96.150  1.00  0.00     0.012 A 
ATOM      8  C   UNL     1     131.136 133.045  96.345  1.00  0.00     0.047 A 
ATOM      9  C   UNL     1     131.553 133.868  97.398  1.00  0.00     0.115 A 
ATOM     10  C   UNL     1     129.242 134.179  98.060  1.00  0.00     0.012 A 
ATOM     11  C   UNL     1     130.603 134.434  98.251  1.00  0.00     0.047 A 
BRANCH   9  12
ATOM     12  O   UNL     1     132.906 134.133  97.601  1.00  0.00    -0.508 OA
ATOM     13  H   UNL     1     133.569 133.388  97.781  1.00  0.00     0.293 HD
ENDBRANCH   9  12
ENDBRANCH   5   6
ENDBRANCH   2   4
ENDBRANCH   1   2
BRANCH   1  14
ATOM     14  C   UNL     1     123.538 132.270  99.215  1.00  0.00     0.163 C 
ATOM     15  O   UNL     1     122.416 131.708  99.341  1.00  0.00    -0.294 OA
BRANCH  14  16
ATOM     16  C   UNL     1     124.124 133.041 100.330  1.00  0.00     0.048 C 
ATOM     17  C   UNL     1     123.386 133.479 101.360  1.00  0.00     0.012 C 
BRANCH  17  18
ATOM     18  C   UNL     1     123.938 134.261 102.495  1.00  0.00    -0.025 A 
ATOM     19  C   UNL     1     125.280 134.675 102.437  1.00  0.00     0.012 A 
ATOM     20  C   UNL     1     123.159 134.633 103.609  1.00  0.00     0.012 A 
ATOM     21  C   UNL     1     125.839 135.421 103.478  1.00  0.00     0.047 A 
ATOM     22  C   UNL     1     123.722 135.380 104.648  1.00  0.00     0.047 A 
ATOM     23  C   UNL     1     125.066 135.774 104.586  1.00  0.00     0.115 A 
BRANCH  23  24
ATOM     24  O   UNL     1     125.636 136.517 105.617  1.00  0.00    -0.508 OA
ATOM     25  H   UNL     1     126.414 136.160 106.160  1.00  0.00     0.293 HD
ENDBRANCH  23  24
ENDBRANCH  17  18
ENDBRANCH  14  16
ENDBRANCH   1  14
TORSDOF 8
ENDMDL
MODEL 4
REMARK VINA RESULT:    -5.044      2.233      7.044
REMARK INTER + INTRA:          -8.497
REMARK INTER:                  -7.130
REMARK INTRA:                  -1.367
REMARK UNBOUND:                -1.389
REMARK SMILES O=C(C=Cc1ccc(O)cc1)CC(=O)C=Cc1ccc(O)cc1
REMARK SMILES IDX 12 1 2 2 1 3 3 4 4 5 5 6 6 7 7 8 8 9 11 10 10 11 9 12 13 14
REMARK SMILES IDX 14 15 15 16 16 17 17 18 18 19 23 20 19 21 22 22 20 23 21 24
REMARK H PARENT 9 13 21 25
REMARK Flexibility Score: inf
ROOT
ATOM      1  C   UNL     1     131.152 133.298  99.486  1.00  0.00     0.160 C 
ENDROOT
BRANCH   1   2
ATOM      2  C   UNL     1     130.646 133.670  98.112  1.00  0.00     0.163 C 
ATOM      3  O   UNL     1     131.446 134.125  97.248  1.00  0.00    -0.294 OA
BRANCH   2   4
ATOM      4  C   UNL     1     129.224 133.525  97.734  1.00  0.00     0.048 C 
ATOM      5  C   UNL     1     128.301 134.474  97.958  1.00  0.00     0.012 C 
BRANCH   5   6
ATOM      6  C   UNL     1     126.874 134.338  97.571  1.00  0.00    -0.025 A 
ATOM      7  C   UNL     1     126.301 135.077  96.516  1.00  0.00     0.012 A 
ATOM      8  C   UNL     1     124.954 134.904  96.183  1.00  0.00     0.047 A 
ATOM      9  C   UNL     1     124.165 133.986  96.887  1.00  0.00     0.115 A 
ATOM     10  C   UNL     1     126.077 133.408  98.260  1.00  0.00     0.012 A 
ATOM     11  C   UNL     1     124.731 133.240  97.923  1.00  0.00     0.047 A 
BRANCH   9  12
ATOM     12  O   UNL     1     122.822 133.807  96.562  1.00  0.00    -0.508 OA
ATOM     13  H   UNL     1     122.494 133.886  95.607  1.00  0.00     0.293 HD
ENDBRANCH   9  12
ENDBRANCH   5   6
ENDBRANCH   2   4
ENDBRANCH   1   2
BRANCH   1  14
ATOM     14  C   UNL     1     130.160 132.479 100.263  1.00  0.00     0.163 C 
ATOM     15  O   UNL     1     130.134 131.229 100.106  1.00  0.00    -0.294 OA
BRANCH  14  16
ATOM     16  C   UNL     1     129.262 133.136 101.235  1.00  0.00     0.048 C 
ATOM     17  C   UNL     1     127.950 132.865 101.290  1.00  0.00     0.012 C 
BRANCH  17  18
ATOM     18  C   UNL     1     127.015 133.508 102.247  1.00  0.00    -0.025 A 
ATOM     19  C   UNL     1     127.346 133.509 103.613  1.00  0.00     0.012 A 
ATOM     20  C   UNL     1     125.828 134.148 101.836  1.00  0.00     0.012 A 
ATOM     21  C   UNL     1     126.501 134.110 104.550  1.00  0.00     0.047 A 
ATOM     22  C   UNL     1     124.986 134.749 102.775  1.00  0.00     0.047 A 
ATOM     23  C   UNL     1     125.319 134.729 104.136  1.00  0.00     0.115 A 
BRANCH  23  24
ATOM     24  O   UNL     1     124.485 135.324 105.080  1.00  0.00    -0.508 OA
ATOM     25  H   UNL     1     124.035 134.780 105.807  1.00  0.00     0.293 HD
ENDBRANCH  23  24
ENDBRANCH  17  18
ENDBRANCH  14  16
ENDBRANCH   1  14
TORSDOF 8
ENDMDL
MODEL 5
REMARK VINA RESULT:    -5.028      0.914      5.323
REMARK INTER + INTRA:          -8.474
REMARK INTER:                  -7.135
REMARK INTRA:                  -1.339
REMARK UNBOUND:                -1.389
REMARK SMILES O=C(C=Cc1ccc(O)cc1)CC(=O)C=Cc1ccc(O)cc1
REMARK SMILES IDX 12 1 2 2 1 3 3 4 4 5 5 6 6 7 7 8 8 9 11 10 10 11 9 12 13 14
REMARK SMILES IDX 14 15 15 16 16 17 17 18 18 19 23 20 19 21 22 22 20 23 21 24
REMARK H PARENT 9 13 21 25
REMARK Flexibility Score: inf
ROOT
ATOM      1  C   UNL     1     123.209 130.658  98.837  1.00  0.00     0.160 C 
ENDROOT
BRANCH   1   2
ATOM      2  C   UNL     1     123.625 131.738  97.867  1.00  0.00     0.163 C 
ATOM      3  O   UNL     1     122.776 132.237  97.078  1.00  0.00    -0.294 OA
BRANCH   2   4
ATOM      4  C   UNL     1     125.014 132.240  97.800  1.00  0.00     0.048 C 
ATOM      5  C   UNL     1     125.544 133.069  98.714  1.00  0.00     0.012 C 
BRANCH   5   6
ATOM      6  C   UNL     1     126.940 133.568  98.658  1.00  0.00    -0.025 A 
ATOM      7  C   UNL     1     127.285 134.788  98.042  1.00  0.00     0.012 A 
ATOM      8  C   UNL     1     128.615 135.220  98.026  1.00  0.00     0.047 A 
ATOM      9  C   UNL     1     129.615 134.449  98.631  1.00  0.00     0.115 A 
ATOM     10  C   UNL     1     127.950 132.810  99.276  1.00  0.00     0.012 A 
ATOM     11  C   UNL     1     129.278 133.247  99.257  1.00  0.00     0.047 A 
BRANCH   9  12
ATOM     12  O   UNL     1     130.943 134.871  98.620  1.00  0.00    -0.508 OA
ATOM     13  H   UNL     1     131.709 134.208  98.641  1.00  0.00     0.293 HD
ENDBRANCH   9  12
ENDBRANCH   5   6
ENDBRANCH   2   4
ENDBRANCH   1   2
BRANCH   1  14
ATOM     14  C   UNL     1     122.364 131.188  99.962  1.00  0.00     0.163 C 
ATOM     15  O   UNL     1     121.341 130.545 100.321  1.00  0.00    -0.294 OA
BRANCH  14  16
ATOM     16  C   UNL     1     122.762 132.425 100.664  1.00  0.00     0.048 C 
ATOM     17  C   UNL     1     123.729 132.438 101.594  1.00  0.00     0.012 C 
BRANCH  17  18
ATOM     18  C   UNL     1     124.153 133.658 102.325  1.00  0.00    -0.025 A 
ATOM     19  C   UNL     1     125.471 134.117 102.159  1.00  0.00     0.012 A 
ATOM     20  C   UNL     1     123.276 134.392 103.149  1.00  0.00     0.012 A 
ATOM     21  C   UNL     1     125.912 135.267 102.820  1.00  0.00     0.047 A 
ATOM     22  C   UNL     1     123.721 135.542 103.808  1.00  0.00     0.047 A 
ATOM     23  C   UNL     1     125.041 135.981 103.647  1.00  0.00     0.115 A 
BRANCH  23  24
ATOM     24  O   UNL     1     125.494 137.125 104.301  1.00  0.00    -0.508 OA
ATOM     25  H   UNL     1     126.333 137.610 104.001  1.00  0.00     0.293 HD
ENDBRANCH  23  24
ENDBRANCH  17  18
ENDBRANCH  14  16
ENDBRANCH   1  14
TORSDOF 8
ENDMDL
MODEL 6
REMARK VINA RESULT:    -4.895      2.432      5.426
REMARK INTER + INTRA:          -8.287
REMARK INTER:                  -6.831
REMARK INTRA:                  -1.456
REMARK UNBOUND:                -1.389
REMARK SMILES O=C(C=Cc1ccc(O)cc1)CC(=O)C=Cc1ccc(O)cc1
REMARK SMILES IDX 12 1 2 2 1 3 3 4 4 5 5 6 6 7 7 8 8 9 11 10 10 11 9 12 13 14
REMARK SMILES IDX 14 15 15 16 16 17 17 18 18 19 23 20 19 21 22 22 20 23 21 24
REMARK H PARENT 9 13 21 25
REMARK Flexibility Score: inf
ROOT
ATOM      1  C   UNL     1     131.192 133.760  99.123  1.00  0.00     0.160 C 
ENDROOT
BRANCH   1   2
ATOM      2  C   UNL     1     130.546 132.711  99.997  1.00  0.00     0.163 C 
ATOM      3  O   UNL     1     130.893 131.502  99.893  1.00  0.00    -0.294 OA
BRANCH   2   4
ATOM      4  C   UNL     1     129.500 133.050 100.985  1.00  0.00     0.048 C 
ATOM      5  C   UNL     1     128.242 132.585 100.916  1.00  0.00     0.012 C 
BRANCH   5   6
ATOM      6  C   UNL     1     127.190 132.913 101.911  1.00  0.00    -0.025 A 
ATOM      7  C   UNL     1     126.954 132.122 103.054  1.00  0.00     0.012 A 
ATOM      8  C   UNL     1     125.959 132.481 103.968  1.00  0.00     0.047 A 
ATOM      9  C   UNL     1     125.195 133.636 103.762  1.00  0.00     0.115 A 
ATOM     10  C   UNL     1     126.428 134.079 101.724  1.00  0.00     0.012 A 
ATOM     11  C   UNL     1     125.434 134.433 102.641  1.00  0.00     0.047 A 
BRANCH   9  12
ATOM     12  O   UNL     1     124.201 134.002 104.668  1.00  0.00    -0.508 OA
ATOM     13  H   UNL     1     123.363 134.486 104.366  1.00  0.00     0.293 HD
ENDBRANCH   9  12
ENDBRANCH   5   6
ENDBRANCH   2   4
ENDBRANCH   1   2
BRANCH   1  14
ATOM     14  C   UNL     1     130.725 133.689  97.696  1.00  0.00     0.163 C 
ATOM     15  O   UNL     1     131.574 133.744  96.765  1.00  0.00    -0.294 OA
BRANCH  14  16
ATOM     16  C   UNL     1     129.290 133.507  97.397  1.00  0.00     0.048 C 
ATOM     17  C   UNL     1     128.365 134.405  97.766  1.00  0.00     0.012 C 
BRANCH  17  18
ATOM     18  C   UNL     1     126.914 134.255  97.490  1.00  0.00    -0.025 A 
ATOM     19  C   UNL     1     126.351 134.995  96.436  1.00  0.00     0.012 A 
ATOM     20  C   UNL     1     126.090 133.375  98.219  1.00  0.00     0.012 A 
ATOM     21  C   UNL     1     124.991 134.879  96.133  1.00  0.00     0.047 A 
ATOM     22  C   UNL     1     124.731 133.261  97.913  1.00  0.00     0.047 A 
ATOM     23  C   UNL     1     124.177 134.016  96.870  1.00  0.00     0.115 A 
BRANCH  23  24
ATOM     24  O   UNL     1     122.824 133.911  96.558  1.00  0.00    -0.508 OA
ATOM     25  H   UNL     1     122.169 133.458  97.186  1.00  0.00     0.293 HD
ENDBRANCH  23  24
ENDBRANCH  17  18
ENDBRANCH  14  16
ENDBRANCH   1  14
TORSDOF 8
ENDMDL
MODEL 7
REMARK VINA RESULT:    -4.869      6.763      9.878
REMARK INTER + INTRA:          -8.251
REMARK INTER:                  -7.429
REMARK INTRA:                  -0.822
REMARK UNBOUND:                -1.389
REMARK SMILES O=C(C=Cc1ccc(O)cc1)CC(=O)C=Cc1ccc(O)cc1
REMARK SMILES IDX 12 1 2 2 1 3 3 4 4 5 5 6 6 7 7 8 8 9 11 10 10 11 9 12 13 14
REMARK SMILES IDX 14 15 15 16 16 17 17 18 18 19 23 20 19 21 22 22 20 23 21 24
REMARK H PARENT 9 13 21 25
REMARK Flexibility Score: inf
ROOT
ATOM      1  C   UNL     1     125.238 131.212 110.062  1.00  0.00     0.160 C 
ENDROOT
BRANCH   1   2
ATOM      2  C   UNL     1     126.385 130.902 109.130  1.00  0.00     0.163 C 
ATOM      3  O   UNL     1     126.161 130.349 108.018  1.00  0.00    -0.294 OA
BRANCH   2   4
ATOM      4  C   UNL     1     127.786 131.222 109.476  1.00  0.00     0.048 C 
ATOM      5  C   UNL     1     128.546 132.072 108.766  1.00  0.00     0.012 C 
BRANCH   5   6
ATOM      6  C   UNL     1     129.949 132.405 109.114  1.00  0.00    -0.025 A 
ATOM      7  C   UNL     1     130.331 133.676 109.590  1.00  0.00     0.012 A 
ATOM      8  C   UNL     1     131.666 133.936 109.916  1.00  0.00     0.047 A 
ATOM      9  C   UNL     1     132.633 132.933 109.783  1.00  0.00     0.115 A 
ATOM     10  C   UNL     1     130.926 131.401 109.001  1.00  0.00     0.012 A 
ATOM     11  C   UNL     1     132.259 131.667 109.328  1.00  0.00     0.047 A 
BRANCH   9  12
ATOM     12  O   UNL     1     133.966 133.183 110.106  1.00  0.00    -0.508 OA
ATOM     13  H   UNL     1     134.291 134.117 110.324  1.00  0.00     0.293 HD
ENDBRANCH   9  12
ENDBRANCH   5   6
ENDBRANCH   2   4
ENDBRANCH   1   2
BRANCH   1  14
ATOM     14  C   UNL     1     124.865 132.668 110.052  1.00  0.00     0.163 C 
ATOM     15  O   UNL     1     124.622 133.251 111.144  1.00  0.00    -0.294 OA
BRANCH  14  16
ATOM     16  C   UNL     1     124.832 133.413 108.777  1.00  0.00     0.048 C 
ATOM     17  C   UNL     1     123.725 133.494 108.026  1.00  0.00     0.012 C 
BRANCH  17  18
ATOM     18  C   UNL     1     123.655 134.228 106.737  1.00  0.00    -0.025 A 
ATOM     19  C   UNL     1     124.628 135.205 106.466  1.00  0.00     0.012 A 
ATOM     20  C   UNL     1     122.673 133.957 105.763  1.00  0.00     0.012 A 
ATOM     21  C   UNL     1     124.607 135.914 105.262  1.00  0.00     0.047 A 
ATOM     22  C   UNL     1     122.656 134.668 104.559  1.00  0.00     0.047 A 
ATOM     23  C   UNL     1     123.622 135.651 104.307  1.00  0.00     0.115 A 
BRANCH  23  24
ATOM     24  O   UNL     1     123.613 136.366 103.111  1.00  0.00    -0.508 OA
ATOM     25  H   UNL     1     124.462 136.762 102.724  1.00  0.00     0.293 HD
ENDBRANCH  23  24
ENDBRANCH  17  18
ENDBRANCH  14  16
ENDBRANCH   1  14
TORSDOF 8
ENDMDL
MODEL 8
REMARK VINA RESULT:    -4.731     14.435     16.220
REMARK INTER + INTRA:          -8.056
REMARK INTER:                  -6.820
REMARK INTRA:                  -1.237
REMARK UNBOUND:                -1.389
REMARK SMILES O=C(C=Cc1ccc(O)cc1)CC(=O)C=Cc1ccc(O)cc1
REMARK SMILES IDX 12 1 2 2 1 3 3 4 4 5 5 6 6 7 7 8 8 9 11 10 10 11 9 12 13 14
REMARK SMILES IDX 14 15 15 16 16 17 17 18 18 19 23 20 19 21 22 22 20 23 21 24
REMARK H PARENT 9 13 21 25
REMARK Flexibility Score: inf
ROOT
ATOM      1  C   UNL     1     126.285 119.798 100.287  1.00  0.00     0.160 C 
ENDROOT
BRANCH   1   2
ATOM      2  C   UNL     1     127.414 118.795 100.279  1.00  0.00     0.163 C 
ATOM      3  O   UNL     1     127.688 118.163  99.222  1.00  0.00    -0.294 OA
BRANCH   2   4
ATOM      4  C   UNL     1     128.224 118.515 101.484  1.00  0.00     0.048 C 
ATOM      5  C   UNL     1     128.211 119.293 102.578  1.00  0.00     0.012 C 
BRANCH   5   6
ATOM      6  C   UNL     1     129.014 119.012 103.794  1.00  0.00    -0.025 A 
ATOM      7  C   UNL     1     129.198 119.963 104.818  1.00  0.00     0.012 A 
ATOM      8  C   UNL     1     129.953 119.644 105.951  1.00  0.00     0.047 A 
ATOM      9  C   UNL     1     130.526 118.374 106.083  1.00  0.00     0.115 A 
ATOM     10  C   UNL     1     129.579 117.734 103.945  1.00  0.00     0.012 A 
ATOM     11  C   UNL     1     130.335 117.421 105.079  1.00  0.00     0.047 A 
BRANCH   9  12
ATOM     12  O   UNL     1     131.281 118.047 107.207  1.00  0.00    -0.508 OA
ATOM     13  H   UNL     1     132.243 117.737 107.127  1.00  0.00     0.293 HD
ENDBRANCH   9  12
ENDBRANCH   5   6
ENDBRANCH   2   4
ENDBRANCH   1   2
BRANCH   1  14
ATOM     14  C   UNL     1     124.935 119.147 100.395  1.00  0.00     0.163 C 
ATOM     15  O   UNL     1     124.350 118.762  99.346  1.00  0.00    -0.294 OA
BRANCH  14  16
ATOM     16  C   UNL     1     124.329 118.919 101.722  1.00  0.00     0.048 C 
ATOM     17  C   UNL     1     124.601 119.704 102.775  1.00  0.00     0.012 C 
BRANCH  17  18
ATOM     18  C   UNL     1     124.017 119.504 104.125  1.00  0.00    -0.025 A 
ATOM     19  C   UNL     1     124.622 120.142 105.220  1.00  0.00     0.012 A 
ATOM     20  C   UNL     1     122.860 118.729 104.343  1.00  0.00     0.012 A 
ATOM     21  C   UNL     1     124.102 119.990 106.509  1.00  0.00     0.047 A 
ATOM     22  C   UNL     1     122.341 118.580 105.633  1.00  0.00     0.047 A 
ATOM     23  C   UNL     1     122.963 119.208 106.720  1.00  0.00     0.115 A 
BRANCH  23  24
ATOM     24  O   UNL     1     122.456 119.065 108.009  1.00  0.00    -0.508 OA
ATOM     25  H   UNL     1     121.919 119.801 108.452  1.00  0.00     0.293 HD
ENDBRANCH  23  24
ENDBRANCH  17  18
ENDBRANCH  14  16
ENDBRANCH   1  14
TORSDOF 8
ENDMDL
MODEL 9
REMARK VINA RESULT:    -3.683      0.446      5.401
REMARK INTER + INTRA:          -6.580
REMARK INTER:                  -5.180
REMARK INTRA:                  -1.399
REMARK UNBOUND:                -1.389
REMARK SMILES O=C(C=Cc1ccc(O)cc1)CC(=O)C=Cc1ccc(O)cc1
REMARK SMILES IDX 12 1 2 2 1 3 3 4 4 5 5 6 6 7 7 8 8 9 11 10 10 11 9 12 13 14
REMARK SMILES IDX 14 15 15 16 16 17 17 18 18 19 23 20 19 21 22 22 20 23 21 24
REMARK H PARENT 9 13 21 25
REMARK Flexibility Score: inf
ROOT
ATOM      1  C   UNL     1     121.555 131.108  99.195  1.00  0.00     0.160 C 
ENDROOT
BRANCH   1   2
ATOM      2  C   UNL     1     122.418 131.368  97.982  1.00  0.00     0.163 C 
ATOM      3  O   UNL     1     121.964 131.144  96.826  1.00  0.00    -0.294 OA
BRANCH   2   4
ATOM      4  C   UNL     1     123.800 131.882  98.098  1.00  0.00     0.048 C 
ATOM      5  C   UNL     1     124.133 133.161  97.862  1.00  0.00     0.012 C 
BRANCH   5   6
ATOM      6  C   UNL     1     125.516 133.684  97.986  1.00  0.00    -0.025 A 
ATOM      7  C   UNL     1     126.101 134.519  97.013  1.00  0.00     0.012 A 
ATOM      8  C   UNL     1     127.405 134.997  97.183  1.00  0.00     0.047 A 
ATOM      9  C   UNL     1     128.137 134.657  98.326  1.00  0.00     0.115 A 
ATOM     10  C   UNL     1     126.255 133.364  99.138  1.00  0.00     0.012 A 
ATOM     11  C   UNL     1     127.558 133.843  99.302  1.00  0.00     0.047 A 
BRANCH   9  12
ATOM     12  O   UNL     1     129.437 135.127  98.504  1.00  0.00    -0.508 OA
ATOM     13  H   UNL     1     129.669 136.104  98.371  1.00  0.00     0.293 HD
ENDBRANCH   9  12
ENDBRANCH   5   6
ENDBRANCH   2   4
ENDBRANCH   1   2
BRANCH   1  14
ATOM     14  C   UNL     1     122.358 131.000 100.461  1.00  0.00     0.163 C 
ATOM     15  O   UNL     1     122.869 129.890 100.775  1.00  0.00    -0.294 OA
BRANCH  14  16
ATOM     16  C   UNL     1     122.582 132.196 101.297  1.00  0.00     0.048 C 
ATOM     17  C   UNL     1     123.793 132.515 101.777  1.00  0.00     0.012 C 
BRANCH  17  18
ATOM     18  C   UNL     1     124.056 133.705 102.625  1.00  0.00    -0.025 A 
ATOM     19  C   UNL     1     125.232 134.441 102.403  1.00  0.00     0.012 A 
ATOM     20  C   UNL     1     123.157 134.143 103.617  1.00  0.00     0.012 A 
ATOM     21  C   UNL     1     125.517 135.575 103.170  1.00  0.00     0.047 A 
ATOM     22  C   UNL     1     123.445 135.277 104.383  1.00  0.00     0.047 A 
ATOM     23  C   UNL     1     124.628 135.994 104.163  1.00  0.00     0.115 A 
BRANCH  23  24
ATOM     24  O   UNL     1     124.925 137.125 104.920  1.00  0.00    -0.508 OA
ATOM     25  H   UNL     1     125.291 137.968 104.493  1.00  0.00     0.293 HD
ENDBRANCH  23  24
ENDBRANCH  17  18
ENDBRANCH  14  16
ENDBRANCH   1  14
TORSDOF 8
ENDMDL
