MODEL 1
REMARK VINA RESULT:    -3.853      0.000      0.000
REMARK INTER + INTRA:          -6.326
REMARK INTER:                  -5.881
REMARK INTRA:                  -0.446
REMARK UNBOUND:                -0.446
REMARK SMILES CC1=CCC[C@H](C)C(=O)C[C@H](C(C)C)C(=O)C1
REMARK SMILES IDX 8 1 9 2 6 3 7 4 5 5 4 6 3 7 2 8 1 9 10 11 11 12 15 13 16 14
REMARK SMILES IDX 17 15 12 17 13 18 14 19
REMARK H PARENT
REMARK Flexibility Score: 70.00
ROOT
ATOM      1  C   UNL     1       9.190 -18.603  22.706  1.00  0.00     0.136 C 
ATOM      2  O   UNL     1      10.281 -19.037  22.364  1.00  0.00    -0.299 OA
ENDROOT
BRANCH   1   3
ATOM      3  C   UNL     1       7.949 -19.242  22.088  1.00  0.00     0.053 C 
ATOM      4  C   UNL     1       8.153 -19.355  20.569  1.00  0.00     0.016 C 
BRANCH   3   5
ATOM      5  C   UNL     1       7.527 -20.627  22.642  1.00  0.00     0.015 C 
BRANCH   5   6
ATOM      6  C   UNL     1       8.285 -21.149  23.876  1.00  0.00     0.028 C 
BRANCH   6   7
ATOM      7  C   UNL     1       7.492 -21.143  25.162  1.00  0.00    -0.028 C 
ATOM      8  C   UNL     1       7.556 -20.233  26.171  1.00  0.00    -0.070 CG0
ATOM      9  C   UNL     1       6.717 -20.522  27.394  1.00  0.00     0.039 C 
ATOM     10  G   UNL     1       8.293 -18.895  26.132  1.00  0.00     0.000 G0
ENDBRANCH   6   7
ENDBRANCH   5   6
ENDBRANCH   3   5
ENDBRANCH   1   3
BRANCH   1  11
ATOM     11  C   UNL     1       9.182 -17.459  23.694  1.00  0.00     0.087 C 
BRANCH  11  12
ATOM     12  C   UNL     1       7.749 -17.151  24.218  1.00  0.00     0.066 C 
BRANCH  12  13
ATOM     13  C   UNL     1       7.513 -17.694  25.627  1.00  0.00     0.140 C 
ATOM     14  O   UNL     1       6.635 -17.224  26.338  1.00  0.00    -0.299 OA
BRANCH  13  15
ATOM     15  C   UNL     1       8.301 -18.874  26.140  1.00  0.00     0.106 CG0
ATOM     16  G   UNL     1       7.564 -20.212  26.166  1.00  0.00     0.000 G0
ENDBRANCH  13  15
ENDBRANCH  12  13
BRANCH  12  17
ATOM     17  C   UNL     1       7.367 -15.638  24.097  1.00  0.00    -0.006 C 
ATOM     18  C   UNL     1       8.391 -14.691  24.750  1.00  0.00     0.008 C 
ATOM     19  C   UNL     1       7.127 -15.222  22.636  1.00  0.00     0.008 C 
ENDBRANCH  12  17
ENDBRANCH  11  12
ENDBRANCH   1  11
TORSDOF 1
ENDMDL
MODEL 2
REMARK VINA RESULT:    -3.803      2.235      4.488
REMARK INTER + INTRA:          -6.250
REMARK INTER:                  -5.731
REMARK INTRA:                  -0.519
REMARK UNBOUND:                -0.446
REMARK SMILES CC1=CCC[C@H](C)C(=O)C[C@H](C(C)C)C(=O)C1
REMARK SMILES IDX 8 1 9 2 6 3 7 4 5 5 4 6 3 7 2 8 1 9 10 11 11 12 15 13 16 14
REMARK SMILES IDX 17 15 12 17 13 18 14 19
REMARK H PARENT
REMARK Flexibility Score: 70.00
ROOT
ATOM      1  C   UNL     1       7.137 -16.915  23.830  1.00  0.00     0.136 C 
ATOM      2  O   UNL     1       6.629 -16.871  24.942  1.00  0.00    -0.299 OA
ENDROOT
BRANCH   1   3
ATOM      3  C   UNL     1       7.673 -15.611  23.245  1.00  0.00     0.053 C 
ATOM      4  C   UNL     1       6.493 -14.664  22.978  1.00  0.00     0.016 C 
BRANCH   3   5
ATOM      5  C   UNL     1       8.741 -14.859  24.078  1.00  0.00     0.015 C 
BRANCH   5   6
ATOM      6  C   UNL     1      10.136 -15.505  24.178  1.00  0.00     0.028 C 
BRANCH   6   7
ATOM      7  C   UNL     1      10.356 -16.359  25.404  1.00  0.00    -0.028 C 
ATOM      8  C   UNL     1      10.493 -17.712  25.460  1.00  0.00    -0.070 CG0
ATOM      9  C   UNL     1      10.607 -18.322  26.837  1.00  0.00     0.039 C 
ATOM     10  G   UNL     1      10.667 -18.648  24.265  1.00  0.00     0.000 G0
ENDBRANCH   6   7
ENDBRANCH   5   6
ENDBRANCH   3   5
ENDBRANCH   1   3
BRANCH   1  11
ATOM     11  C   UNL     1       7.163 -18.258  23.136  1.00  0.00     0.087 C 
BRANCH  11  12
ATOM     12  C   UNL     1       8.590 -18.630  22.639  1.00  0.00     0.066 C 
BRANCH  12  13
ATOM     13  C   UNL     1       9.428 -19.307  23.723  1.00  0.00     0.140 C 
ATOM     14  O   UNL     1       9.136 -20.423  24.132  1.00  0.00    -0.299 OA
BRANCH  13  15
ATOM     15  C   UNL     1      10.679 -18.650  24.252  1.00  0.00     0.106 CG0
ATOM     16  G   UNL     1      10.493 -17.725  25.453  1.00  0.00     0.000 G0
ENDBRANCH  13  15
ENDBRANCH  12  13
BRANCH  12  17
ATOM     17  C   UNL     1       8.577 -19.449  21.305  1.00  0.00    -0.006 C 
ATOM     18  C   UNL     1       7.405 -20.443  21.205  1.00  0.00     0.008 C 
ATOM     19  C   UNL     1       8.594 -18.534  20.070  1.00  0.00     0.008 C 
ENDBRANCH  12  17
ENDBRANCH  11  12
ENDBRANCH   1  11
TORSDOF 1
ENDMDL
MODEL 3
REMARK VINA RESULT:    -3.765      2.368      4.751
REMARK INTER + INTRA:          -6.192
REMARK INTER:                  -5.978
REMARK INTRA:                  -0.214
REMARK UNBOUND:                -0.446
REMARK SMILES CC1=CCC[C@H](C)C(=O)C[C@H](C(C)C)C(=O)C1
REMARK SMILES IDX 8 1 9 2 6 3 7 4 5 5 4 6 3 7 2 8 1 9 10 11 11 12 15 13 16 14
REMARK SMILES IDX 17 15 12 17 13 18 14 19
REMARK H PARENT
REMARK Flexibility Score: 70.00
ROOT
ATOM      1  C   UNL     1       7.117 -16.705  24.951  1.00  0.00     0.136 C 
ATOM      2  O   UNL     1       5.911 -16.532  24.841  1.00  0.00    -0.299 OA
ENDROOT
BRANCH   1   3
ATOM      3  C   UNL     1       8.016 -16.148  23.850  1.00  0.00     0.053 C 
ATOM      4  C   UNL     1       7.136 -15.689  22.676  1.00  0.00     0.016 C 
BRANCH   3   5
ATOM      5  C   UNL     1       8.968 -14.991  24.244  1.00  0.00     0.015 C 
BRANCH   5   6
ATOM      6  C   UNL     1      10.442 -15.120  23.818  1.00  0.00     0.028 C 
BRANCH   6   7
ATOM      7  C   UNL     1      10.900 -16.530  23.525  1.00  0.00    -0.028 C 
ATOM      8  C   UNL     1      11.239 -17.496  24.422  1.00  0.00    -0.070 CG0
ATOM      9  C   UNL     1      11.758 -18.794  23.851  1.00  0.00     0.039 C 
ATOM     10  G   UNL     1      11.026 -17.434  25.934  1.00  0.00     0.000 G0
ENDBRANCH   6   7
ENDBRANCH   5   6
ENDBRANCH   3   5
ENDBRANCH   1   3
BRANCH   1  11
ATOM     11  C   UNL     1       7.596 -17.475  26.161  1.00  0.00     0.087 C 
BRANCH  11  12
ATOM     12  C   UNL     1       8.641 -18.564  25.783  1.00  0.00     0.066 C 
BRANCH  12  13
ATOM     13  C   UNL     1       9.975 -18.368  26.503  1.00  0.00     0.140 C 
ATOM     14  O   UNL     1      10.240 -19.010  27.511  1.00  0.00    -0.299 OA
BRANCH  13  15
ATOM     15  C   UNL     1      11.024 -17.441  25.941  1.00  0.00     0.106 CG0
ATOM     16  G   UNL     1      11.223 -17.493  24.428  1.00  0.00     0.000 G0
ENDBRANCH  13  15
ENDBRANCH  12  13
BRANCH  12  17
ATOM     17  C   UNL     1       8.090 -20.020  25.947  1.00  0.00    -0.006 C 
ATOM     18  C   UNL     1       6.970 -20.140  26.996  1.00  0.00     0.008 C 
ATOM     19  C   UNL     1       7.619 -20.609  24.607  1.00  0.00     0.008 C 
ENDBRANCH  12  17
ENDBRANCH  11  12
ENDBRANCH   1  11
TORSDOF 1
ENDMDL
MODEL 4
REMARK VINA RESULT:    -3.744      2.374      5.019
REMARK INTER + INTRA:          -6.160
REMARK INTER:                  -5.615
REMARK INTRA:                  -0.545
REMARK UNBOUND:                -0.446
REMARK SMILES CC1=CCC[C@H](C)C(=O)C[C@H](C(C)C)C(=O)C1
REMARK SMILES IDX 8 1 9 2 6 3 7 4 5 5 4 6 3 7 2 8 1 9 10 11 11 12 15 13 16 14
REMARK SMILES IDX 17 15 12 17 13 18 14 19
REMARK H PARENT
REMARK Flexibility Score: 70.00
ROOT
ATOM      1  C   UNL     1      11.180 -19.153  24.306  1.00  0.00     0.136 C 
ATOM      2  O   UNL     1      12.237 -19.718  24.058  1.00  0.00    -0.299 OA
ENDROOT
BRANCH   1   3
ATOM      3  C   UNL     1      11.109 -18.314  25.579  1.00  0.00     0.053 C 
ATOM      4  C   UNL     1      11.818 -19.071  26.713  1.00  0.00     0.016 C 
BRANCH   3   5
ATOM      5  C   UNL     1      11.683 -16.876  25.501  1.00  0.00     0.015 C 
BRANCH   5   6
ATOM      6  C   UNL     1      11.330 -16.048  24.252  1.00  0.00     0.028 C 
BRANCH   6   7
ATOM      7  C   UNL     1      10.010 -15.318  24.321  1.00  0.00    -0.028 C 
ATOM      8  C   UNL     1       8.869 -15.598  23.634  1.00  0.00    -0.070 CG0
ATOM      9  C   UNL     1       7.716 -14.641  23.823  1.00  0.00     0.039 C 
ATOM     10  G   UNL     1       8.609 -16.847  22.794  1.00  0.00     0.000 G0
ENDBRANCH   6   7
ENDBRANCH   5   6
ENDBRANCH   3   5
ENDBRANCH   1   3
BRANCH   1  11
ATOM     11  C   UNL     1      10.041 -19.362  23.335  1.00  0.00     0.087 C 
BRANCH  11  12
ATOM     12  C   UNL     1       8.653 -19.188  24.017  1.00  0.00     0.066 C 
BRANCH  12  13
ATOM     13  C   UNL     1       7.877 -17.993  23.464  1.00  0.00     0.140 C 
ATOM     14  O   UNL     1       6.667 -17.906  23.626  1.00  0.00    -0.299 OA
BRANCH  13  15
ATOM     15  C   UNL     1       8.596 -16.857  22.780  1.00  0.00     0.106 CG0
ATOM     16  G   UNL     1       8.847 -15.614  23.632  1.00  0.00     0.000 G0
ENDBRANCH  13  15
ENDBRANCH  12  13
BRANCH  12  17
ATOM     17  C   UNL     1       7.801 -20.501  24.009  1.00  0.00    -0.006 C 
ATOM     18  C   UNL     1       8.551 -21.718  23.435  1.00  0.00     0.008 C 
ATOM     19  C   UNL     1       7.249 -20.835  25.404  1.00  0.00     0.008 C 
ENDBRANCH  12  17
ENDBRANCH  11  12
ENDBRANCH   1  11
TORSDOF 1
ENDMDL
MODEL 5
REMARK VINA RESULT:    -3.722      1.779      4.169
REMARK INTER + INTRA:          -6.126
REMARK INTER:                  -5.765
REMARK INTRA:                  -0.361
REMARK UNBOUND:                -0.446
REMARK SMILES CC1=CCC[C@H](C)C(=O)C[C@H](C(C)C)C(=O)C1
REMARK SMILES IDX 8 1 9 2 6 3 7 4 5 5 4 6 3 7 2 8 1 9 10 11 11 12 15 13 16 14
REMARK SMILES IDX 17 15 12 17 13 18 14 19
REMARK H PARENT
REMARK Flexibility Score: 70.00
ROOT
ATOM      1  C   UNL     1       8.418 -21.149  23.299  1.00  0.00     0.136 C 
ATOM      2  O   UNL     1       9.140 -22.037  23.731  1.00  0.00    -0.299 OA
ENDROOT
BRANCH   1   3
ATOM      3  C   UNL     1       8.605 -20.731  21.843  1.00  0.00     0.053 C 
ATOM      4  C   UNL     1       7.300 -21.004  21.078  1.00  0.00     0.016 C 
BRANCH   3   5
ATOM      5  C   UNL     1       9.040 -19.267  21.586  1.00  0.00     0.015 C 
BRANCH   5   6
ATOM      6  C   UNL     1       7.934 -18.262  21.212  1.00  0.00     0.028 C 
BRANCH   6   7
ATOM      7  C   UNL     1       7.964 -16.964  21.985  1.00  0.00    -0.028 C 
ATOM      8  C   UNL     1       7.354 -16.690  23.170  1.00  0.00    -0.070 CG0
ATOM      9  C   UNL     1       7.469 -15.270  23.674  1.00  0.00     0.039 C 
ATOM     10  G   UNL     1       6.679 -17.705  24.090  1.00  0.00     0.000 G0
ENDBRANCH   6   7
ENDBRANCH   5   6
ENDBRANCH   3   5
ENDBRANCH   1   3
BRANCH   1  11
ATOM     11  C   UNL     1       7.425 -20.539  24.262  1.00  0.00     0.087 C 
BRANCH  11  12
ATOM     12  C   UNL     1       8.110 -19.572  25.271  1.00  0.00     0.066 C 
BRANCH  12  13
ATOM     13  C   UNL     1       7.460 -18.188  25.285  1.00  0.00     0.140 C 
ATOM     14  O   UNL     1       7.631 -17.429  26.230  1.00  0.00    -0.299 OA
BRANCH  13  15
ATOM     15  C   UNL     1       6.664 -17.698  24.102  1.00  0.00     0.106 CG0
ATOM     16  G   UNL     1       7.366 -16.689  23.194  1.00  0.00     0.000 G0
ENDBRANCH  13  15
ENDBRANCH  12  13
BRANCH  12  17
ATOM     17  C   UNL     1       8.237 -20.179  26.708  1.00  0.00    -0.006 C 
ATOM     18  C   UNL     1       7.031 -21.045  27.118  1.00  0.00     0.008 C 
ATOM     19  C   UNL     1       9.539 -20.979  26.879  1.00  0.00     0.008 C 
ENDBRANCH  12  17
ENDBRANCH  11  12
ENDBRANCH   1  11
TORSDOF 1
ENDMDL
MODEL 6
REMARK VINA RESULT:    -3.717      2.646      5.181
REMARK INTER + INTRA:          -6.119
REMARK INTER:                  -5.977
REMARK INTRA:                  -0.141
REMARK UNBOUND:                -0.446
REMARK SMILES CC1=CCC[C@H](C)C(=O)C[C@H](C(C)C)C(=O)C1
REMARK SMILES IDX 8 1 9 2 6 3 7 4 5 5 4 6 3 7 2 8 1 9 10 11 11 12 15 13 16 14
REMARK SMILES IDX 17 15 12 17 13 18 14 19
REMARK H PARENT
REMARK Flexibility Score: 70.00
ROOT
ATOM      1  C   UNL     1       7.396 -16.053  21.978  1.00  0.00     0.136 C 
ATOM      2  O   UNL     1       7.398 -16.013  20.755  1.00  0.00    -0.299 OA
ENDROOT
BRANCH   1   3
ATOM      3  C   UNL     1       7.237 -14.733  22.728  1.00  0.00     0.053 C 
ATOM      4  C   UNL     1       6.057 -13.957  22.122  1.00  0.00     0.016 C 
BRANCH   3   5
ATOM      5  C   UNL     1       7.044 -14.821  24.263  1.00  0.00     0.015 C 
BRANCH   5   6
ATOM      6  C   UNL     1       8.311 -14.739  25.135  1.00  0.00     0.028 C 
BRANCH   6   7
ATOM      7  C   UNL     1       9.613 -14.732  24.369  1.00  0.00    -0.028 C 
ATOM      8  C   UNL     1      10.391 -15.801  24.046  1.00  0.00    -0.070 CG0
ATOM      9  C   UNL     1      11.700 -15.497  23.354  1.00  0.00     0.039 C 
ATOM     10  G   UNL     1      10.010 -17.271  24.203  1.00  0.00     0.000 G0
ENDBRANCH   6   7
ENDBRANCH   5   6
ENDBRANCH   3   5
ENDBRANCH   1   3
BRANCH   1  11
ATOM     11  C   UNL     1       7.574 -17.408  22.623  1.00  0.00     0.087 C 
BRANCH  11  12
ATOM     12  C   UNL     1       8.789 -18.180  22.032  1.00  0.00     0.066 C 
BRANCH  12  13
ATOM     13  C   UNL     1      10.023 -18.104  22.930  1.00  0.00     0.140 C 
ATOM     14  O   UNL     1      11.065 -18.659  22.608  1.00  0.00    -0.299 OA
BRANCH  13  15
ATOM     15  C   UNL     1      10.008 -17.275  24.191  1.00  0.00     0.106 CG0
ATOM     16  G   UNL     1      10.407 -15.809  24.034  1.00  0.00     0.000 G0
ENDBRANCH  13  15
ENDBRANCH  12  13
BRANCH  12  17
ATOM     17  C   UNL     1       8.440 -19.653  21.633  1.00  0.00    -0.006 C 
ATOM     18  C   UNL     1       7.439 -20.328  22.590  1.00  0.00     0.008 C 
ATOM     19  C   UNL     1       7.928 -19.750  20.186  1.00  0.00     0.008 C 
ENDBRANCH  12  17
ENDBRANCH  11  12
ENDBRANCH   1  11
TORSDOF 1
ENDMDL
MODEL 7
REMARK VINA RESULT:    -3.703      1.748      3.836
REMARK INTER + INTRA:          -6.097
REMARK INTER:                  -5.847
REMARK INTRA:                  -0.251
REMARK UNBOUND:                -0.446
REMARK SMILES CC1=CCC[C@H](C)C(=O)C[C@H](C(C)C)C(=O)C1
REMARK SMILES IDX 8 1 9 2 6 3 7 4 5 5 4 6 3 7 2 8 1 9 10 11 11 12 15 13 16 14
REMARK SMILES IDX 17 15 12 17 13 18 14 19
REMARK H PARENT
REMARK Flexibility Score: 70.00
ROOT
ATOM      1  C   UNL     1       8.091 -18.586  25.958  1.00  0.00     0.136 C 
ATOM      2  O   UNL     1       8.918 -17.813  26.421  1.00  0.00    -0.299 OA
ENDROOT
BRANCH   1   3
ATOM      3  C   UNL     1       8.131 -20.035  26.437  1.00  0.00     0.053 C 
ATOM      4  C   UNL     1       6.895 -20.303  27.311  1.00  0.00     0.016 C 
BRANCH   3   5
ATOM      5  C   UNL     1       8.220 -21.130  25.345  1.00  0.00     0.015 C 
BRANCH   5   6
ATOM      6  C   UNL     1       9.368 -21.012  24.325  1.00  0.00     0.028 C 
BRANCH   6   7
ATOM      7  C   UNL     1       8.995 -21.356  22.903  1.00  0.00    -0.028 C 
ATOM      8  C   UNL     1       7.959 -20.860  22.173  1.00  0.00    -0.070 CG0
ATOM      9  C   UNL     1       7.757 -21.453  20.798  1.00  0.00     0.039 C 
ATOM     10  G   UNL     1       7.068 -19.682  22.562  1.00  0.00     0.000 G0
ENDBRANCH   6   7
ENDBRANCH   5   6
ENDBRANCH   3   5
ENDBRANCH   1   3
BRANCH   1  11
ATOM     11  C   UNL     1       7.123 -18.031  24.939  1.00  0.00     0.087 C 
BRANCH  11  12
ATOM     12  C   UNL     1       7.855 -17.448  23.696  1.00  0.00     0.066 C 
BRANCH  12  13
ATOM     13  C   UNL     1       7.658 -18.306  22.446  1.00  0.00     0.140 C 
ATOM     14  O   UNL     1       8.050 -17.917  21.354  1.00  0.00    -0.299 OA
BRANCH  13  15
ATOM     15  C   UNL     1       7.052 -19.684  22.545  1.00  0.00     0.106 CG0
ATOM     16  G   UNL     1       7.966 -20.847  22.165  1.00  0.00     0.000 G0
ENDBRANCH  13  15
ENDBRANCH  12  13
BRANCH  12  17
ATOM     17  C   UNL     1       7.515 -15.942  23.437  1.00  0.00    -0.006 C 
ATOM     18  C   UNL     1       6.163 -15.506  24.033  1.00  0.00     0.008 C 
ATOM     19  C   UNL     1       8.631 -15.009  23.933  1.00  0.00     0.008 C 
ENDBRANCH  12  17
ENDBRANCH  11  12
ENDBRANCH   1  11
TORSDOF 1
ENDMDL
MODEL 8
REMARK VINA RESULT:    -3.641      1.948      2.595
REMARK INTER + INTRA:          -6.002
REMARK INTER:                  -5.450
REMARK INTRA:                  -0.552
REMARK UNBOUND:                -0.446
REMARK SMILES CC1=CCC[C@H](C)C(=O)C[C@H](C(C)C)C(=O)C1
REMARK SMILES IDX 8 1 9 2 6 3 7 4 5 5 4 6 3 7 2 8 1 9 10 11 11 12 15 13 16 14
REMARK SMILES IDX 17 15 12 17 13 18 14 19
REMARK H PARENT
REMARK Flexibility Score: 70.00
ROOT
ATOM      1  C   UNL     1       8.720 -19.108  22.902  1.00  0.00     0.136 C 
ATOM      2  O   UNL     1       9.311 -19.721  22.024  1.00  0.00    -0.299 OA
ENDROOT
BRANCH   1   3
ATOM      3  C   UNL     1       7.538 -19.801  23.574  1.00  0.00     0.053 C 
ATOM      4  C   UNL     1       6.478 -20.120  22.507  1.00  0.00     0.016 C 
BRANCH   3   5
ATOM      5  C   UNL     1       7.846 -21.091  24.376  1.00  0.00     0.015 C 
BRANCH   5   6
ATOM      6  C   UNL     1       8.183 -20.925  25.869  1.00  0.00     0.028 C 
BRANCH   6   7
ATOM      7  C   UNL     1       9.653 -21.005  26.204  1.00  0.00    -0.028 C 
ATOM      8  C   UNL     1      10.494 -19.978  26.502  1.00  0.00    -0.070 CG0
ATOM      9  C   UNL     1      11.949 -20.333  26.704  1.00  0.00     0.039 C 
ATOM     10  G   UNL     1      10.086 -18.530  26.772  1.00  0.00     0.000 G0
ENDBRANCH   6   7
ENDBRANCH   5   6
ENDBRANCH   3   5
ENDBRANCH   1   3
BRANCH   1  11
ATOM     11  C   UNL     1       9.209 -17.714  23.220  1.00  0.00     0.087 C 
BRANCH  11  12
ATOM     12  C   UNL     1       8.958 -17.333  24.708  1.00  0.00     0.066 C 
BRANCH  12  13
ATOM     13  C   UNL     1      10.178 -17.593  25.592  1.00  0.00     0.140 C 
ATOM     14  O   UNL     1      11.229 -16.997  25.395  1.00  0.00    -0.299 OA
BRANCH  13  15
ATOM     15  C   UNL     1      10.090 -18.527  26.773  1.00  0.00     0.106 CG0
ATOM     16  G   UNL     1      10.485 -19.979  26.510  1.00  0.00     0.000 G0
ENDBRANCH  13  15
ENDBRANCH  12  13
BRANCH  12  17
ATOM     17  C   UNL     1       8.404 -15.880  24.881  1.00  0.00    -0.006 C 
ATOM     18  C   UNL     1       7.275 -15.530  23.892  1.00  0.00     0.008 C 
ATOM     19  C   UNL     1       7.940 -15.610  26.321  1.00  0.00     0.008 C 
ENDBRANCH  12  17
ENDBRANCH  11  12
ENDBRANCH   1  11
TORSDOF 1
ENDMDL
MODEL 9
REMARK VINA RESULT:    -3.635      2.479      3.449
REMARK INTER + INTRA:          -5.993
REMARK INTER:                  -5.462
REMARK INTRA:                  -0.532
REMARK UNBOUND:                -0.446
REMARK SMILES CC1=CCC[C@H](C)C(=O)C[C@H](C(C)C)C(=O)C1
REMARK SMILES IDX 8 1 9 2 6 3 7 4 5 5 4 6 3 7 2 8 1 9 10 11 11 12 15 13 16 14
REMARK SMILES IDX 17 15 12 17 13 18 14 19
REMARK H PARENT
REMARK Flexibility Score: 70.00
ROOT
ATOM      1  C   UNL     1      11.017 -15.325  23.557  1.00  0.00     0.136 C 
ATOM      2  O   UNL     1      11.821 -14.413  23.422  1.00  0.00    -0.299 OA
ENDROOT
BRANCH   1   3
ATOM      3  C   UNL     1      11.419 -16.704  23.042  1.00  0.00     0.053 C 
ATOM      4  C   UNL     1      11.677 -16.614  21.530  1.00  0.00     0.016 C 
BRANCH   3   5
ATOM      5  C   UNL     1      12.640 -17.375  23.721  1.00  0.00     0.015 C 
BRANCH   5   6
ATOM      6  C   UNL     1      12.476 -17.809  25.189  1.00  0.00     0.028 C 
BRANCH   6   7
ATOM      7  C   UNL     1      11.358 -18.793  25.442  1.00  0.00    -0.028 C 
ATOM      8  C   UNL     1      10.215 -18.587  26.151  1.00  0.00    -0.070 CG0
ATOM      9  C   UNL     1       9.307 -19.781  26.329  1.00  0.00     0.039 C 
ATOM     10  G   UNL     1       9.710 -17.242  26.671  1.00  0.00     0.000 G0
ENDBRANCH   6   7
ENDBRANCH   5   6
ENDBRANCH   3   5
ENDBRANCH   1   3
BRANCH   1  11
ATOM     11  C   UNL     1       9.693 -14.987  24.203  1.00  0.00     0.087 C 
BRANCH  11  12
ATOM     12  C   UNL     1       8.800 -16.246  24.396  1.00  0.00     0.066 C 
BRANCH  12  13
ATOM     13  C   UNL     1       8.593 -16.596  25.870  1.00  0.00     0.140 C 
ATOM     14  O   UNL     1       7.507 -16.420  26.407  1.00  0.00    -0.299 OA
BRANCH  13  15
ATOM     15  C   UNL     1       9.697 -17.239  26.672  1.00  0.00     0.106 CG0
ATOM     16  G   UNL     1      10.224 -18.570  26.138  1.00  0.00     0.000 G0
ENDBRANCH  13  15
ENDBRANCH  12  13
BRANCH  12  17
ATOM     17  C   UNL     1       7.446 -16.160  23.615  1.00  0.00    -0.006 C 
ATOM     18  C   UNL     1       6.856 -14.739  23.562  1.00  0.00     0.008 C 
ATOM     19  C   UNL     1       7.568 -16.730  22.192  1.00  0.00     0.008 C 
ENDBRANCH  12  17
ENDBRANCH  11  12
ENDBRANCH   1  11
TORSDOF 1
ENDMDL
