MODEL 1
REMARK VINA RESULT:    -4.794      0.000      0.000
REMARK INTER + INTRA:          -6.072
REMARK INTER:                  -5.774
REMARK INTRA:                  -0.297
REMARK UNBOUND:                -0.297
REMARK SMILES [NH3+][C@H](Cc1cnc[nH]1)C(=O)[O-]
REMARK SMILES IDX 3 1 2 2 1 3 9 7 10 8 11 9 4 10 5 11 8 12 6 13 7 14
REMARK H PARENT 1 4 1 5 1 6 8 15
REMARK Flexibility Score: inf
ROOT
ATOM      1  C   UNL     1     -20.129 -14.320 -10.777  1.00  0.00     0.127 C 
ENDROOT
BRANCH   1   2
ATOM      2  C   UNL     1     -19.641 -13.253 -11.782  1.00  0.00     0.233 C 
BRANCH   2   3
ATOM      3  N   UNL     1     -18.244 -13.476 -12.179  1.00  0.00    -0.350 N 
ATOM      4  H   UNL     1     -18.181 -13.529 -13.222  1.00  0.00     0.345 HD
ATOM      5  H   UNL     1     -17.652 -12.677 -11.855  1.00  0.00     0.345 HD
ATOM      6  H   UNL     1     -17.871 -14.365 -11.774  1.00  0.00     0.345 HD
ENDBRANCH   2   3
BRANCH   2   7
ATOM      7  C   UNL     1     -20.550 -13.170 -12.982  1.00  0.00     0.099 C 
ATOM      8  O   UNL     1     -20.078 -13.181 -14.150  1.00  0.00    -0.544 OA
ATOM      9  O   UNL     1     -21.927 -13.134 -12.803  1.00  0.00    -0.544 OA
ENDBRANCH   2   7
ENDBRANCH   1   2
BRANCH   1  10
ATOM     10  C   UNL     1     -20.953 -13.749  -9.658  1.00  0.00     0.041 A 
ATOM     11  C   UNL     1     -20.575 -13.628  -8.339  1.00  0.00     0.134 A 
ATOM     12  N   UNL     1     -22.213 -13.307  -9.785  1.00  0.00    -0.348 N 
ATOM     13  N   UNL     1     -21.597 -13.104  -7.633  1.00  0.00    -0.245 NA
ATOM     14  C   UNL     1     -22.575 -12.922  -8.547  1.00  0.00     0.196 A 
ATOM     15  H   UNL     1     -22.793 -13.272 -10.653  1.00  0.00     0.167 HD
ENDBRANCH   1  10
TORSDOF 4
ENDMDL
MODEL 2
REMARK VINA RESULT:    -4.742      9.913     10.312
REMARK INTER + INTRA:          -6.010
REMARK INTER:                  -5.780
REMARK INTRA:                  -0.230
REMARK UNBOUND:                -0.297
REMARK SMILES [NH3+][C@H](Cc1cnc[nH]1)C(=O)[O-]
REMARK SMILES IDX 3 1 2 2 1 3 9 7 10 8 11 9 4 10 5 11 8 12 6 13 7 14
REMARK H PARENT 1 4 1 5 1 6 8 15
REMARK Flexibility Score: inf
ROOT
ATOM      1  C   UNL     1     -24.670 -21.559 -13.669  1.00  0.00     0.127 C 
ENDROOT
BRANCH   1   2
ATOM      2  C   UNL     1     -24.556 -22.918 -14.394  1.00  0.00     0.233 C 
BRANCH   2   3
ATOM      3  N   UNL     1     -24.554 -22.759 -15.855  1.00  0.00    -0.350 N 
ATOM      4  H   UNL     1     -25.239 -23.425 -16.281  1.00  0.00     0.345 HD
ATOM      5  H   UNL     1     -24.843 -21.786 -16.107  1.00  0.00     0.345 HD
ATOM      6  H   UNL     1     -23.606 -22.949 -16.256  1.00  0.00     0.345 HD
ENDBRANCH   2   3
BRANCH   2   7
ATOM      7  C   UNL     1     -23.354 -23.695 -13.921  1.00  0.00     0.099 C 
ATOM      8  O   UNL     1     -23.367 -24.955 -13.903  1.00  0.00    -0.544 OA
ATOM      9  O   UNL     1     -22.198 -23.020 -13.551  1.00  0.00    -0.544 OA
ENDBRANCH   2   7
ENDBRANCH   1   2
BRANCH   1  10
ATOM     10  C   UNL     1     -24.926 -21.691 -12.194  1.00  0.00     0.041 A 
ATOM     11  C   UNL     1     -26.151 -21.855 -11.585  1.00  0.00     0.134 A 
ATOM     12  N   UNL     1     -23.980 -21.625 -11.246  1.00  0.00    -0.348 N 
ATOM     13  N   UNL     1     -25.976 -21.898 -10.249  1.00  0.00    -0.245 NA
ATOM     14  C   UNL     1     -24.643 -21.755 -10.081  1.00  0.00     0.196 A 
ATOM     15  H   UNL     1     -22.952 -21.497 -11.377  1.00  0.00     0.167 HD
ENDBRANCH   1  10
TORSDOF 4
ENDMDL
MODEL 3
REMARK VINA RESULT:    -4.742      3.382      4.998
REMARK INTER + INTRA:          -6.009
REMARK INTER:                  -5.840
REMARK INTRA:                  -0.169
REMARK UNBOUND:                -0.297
REMARK SMILES [NH3+][C@H](Cc1cnc[nH]1)C(=O)[O-]
REMARK SMILES IDX 3 1 2 2 1 3 9 7 10 8 11 9 4 10 5 11 8 12 6 13 7 14
REMARK H PARENT 1 4 1 5 1 6 8 15
REMARK Flexibility Score: inf
ROOT
ATOM      1  C   UNL     1     -20.523 -13.518 -13.668  1.00  0.00     0.127 C 
ENDROOT
BRANCH   1   2
ATOM      2  C   UNL     1     -20.023 -14.762 -12.901  1.00  0.00     0.233 C 
BRANCH   2   3
ATOM      3  N   UNL     1     -18.556 -14.812 -12.838  1.00  0.00    -0.350 N 
ATOM      4  H   UNL     1     -18.246 -14.786 -11.839  1.00  0.00     0.345 HD
ATOM      5  H   UNL     1     -18.213 -15.704 -13.264  1.00  0.00     0.345 HD
ATOM      6  H   UNL     1     -18.126 -14.004 -13.345  1.00  0.00     0.345 HD
ENDBRANCH   2   3
BRANCH   2   7
ATOM      7  C   UNL     1     -20.637 -14.844 -11.526  1.00  0.00     0.099 C 
ATOM      8  O   UNL     1     -19.954 -14.588 -10.499  1.00  0.00    -0.544 OA
ATOM      9  O   UNL     1     -21.984 -15.155 -11.390  1.00  0.00    -0.544 OA
ENDBRANCH   2   7
ENDBRANCH   1   2
BRANCH   1  10
ATOM     10  C   UNL     1     -21.667 -13.813 -14.596  1.00  0.00     0.041 A 
ATOM     11  C   UNL     1     -22.868 -13.141 -14.657  1.00  0.00     0.134 A 
ATOM     12  N   UNL     1     -21.692 -14.818 -15.484  1.00  0.00    -0.348 N 
ATOM     13  N   UNL     1     -23.651 -13.721 -15.589  1.00  0.00    -0.245 NA
ATOM     14  C   UNL     1     -22.901 -14.737 -16.070  1.00  0.00     0.196 A 
ATOM     15  H   UNL     1     -20.941 -15.517 -15.678  1.00  0.00     0.167 HD
ENDBRANCH   1  10
TORSDOF 4
ENDMDL
MODEL 4
REMARK VINA RESULT:    -4.732      1.987      2.353
REMARK INTER + INTRA:          -5.998
REMARK INTER:                  -5.750
REMARK INTRA:                  -0.247
REMARK UNBOUND:                -0.297
REMARK SMILES [NH3+][C@H](Cc1cnc[nH]1)C(=O)[O-]
REMARK SMILES IDX 3 1 2 2 1 3 9 7 10 8 11 9 4 10 5 11 8 12 6 13 7 14
REMARK H PARENT 1 4 1 5 1 6 8 15
REMARK Flexibility Score: inf
ROOT
ATOM      1  C   UNL     1     -21.922 -15.091 -12.143  1.00  0.00     0.127 C 
ENDROOT
BRANCH   1   2
ATOM      2  C   UNL     1     -20.702 -15.163 -13.088  1.00  0.00     0.233 C 
BRANCH   2   3
ATOM      3  N   UNL     1     -21.035 -15.821 -14.360  1.00  0.00    -0.350 N 
ATOM      4  H   UNL     1     -20.708 -16.814 -14.336  1.00  0.00     0.345 HD
ATOM      5  H   UNL     1     -22.071 -15.819 -14.499  1.00  0.00     0.345 HD
ATOM      6  H   UNL     1     -20.579 -15.336 -15.167  1.00  0.00     0.345 HD
ENDBRANCH   2   3
BRANCH   2   7
ATOM      7  C   UNL     1     -20.097 -13.801 -13.312  1.00  0.00     0.099 C 
ATOM      8  O   UNL     1     -20.637 -12.976 -14.096  1.00  0.00    -0.544 OA
ATOM      9  O   UNL     1     -18.959 -13.428 -12.608  1.00  0.00    -0.544 OA
ENDBRANCH   2   7
ENDBRANCH   1   2
BRANCH   1  10
ATOM     10  C   UNL     1     -21.606 -14.474 -10.810  1.00  0.00     0.041 A 
ATOM     11  C   UNL     1     -22.410 -13.618 -10.090  1.00  0.00     0.134 A 
ATOM     12  N   UNL     1     -20.454 -14.643 -10.144  1.00  0.00    -0.348 N 
ATOM     13  N   UNL     1     -21.766 -13.251  -8.964  1.00  0.00    -0.245 NA
ATOM     14  C   UNL     1     -20.580 -13.895  -9.032  1.00  0.00     0.196 A 
ATOM     15  H   UNL     1     -19.634 -15.225 -10.425  1.00  0.00     0.167 HD
ENDBRANCH   1  10
TORSDOF 4
ENDMDL
MODEL 5
REMARK VINA RESULT:    -4.597      2.980      4.133
REMARK INTER + INTRA:          -5.835
REMARK INTER:                  -5.733
REMARK INTRA:                  -0.102
REMARK UNBOUND:                -0.297
REMARK SMILES [NH3+][C@H](Cc1cnc[nH]1)C(=O)[O-]
REMARK SMILES IDX 3 1 2 2 1 3 9 7 10 8 11 9 4 10 5 11 8 12 6 13 7 14
REMARK H PARENT 1 4 1 5 1 6 8 15
REMARK Flexibility Score: inf
ROOT
ATOM      1  C   UNL     1     -21.150 -13.325 -14.619  1.00  0.00     0.127 C 
ENDROOT
BRANCH   1   2
ATOM      2  C   UNL     1     -21.991 -14.610 -14.787  1.00  0.00     0.233 C 
BRANCH   2   3
ATOM      3  N   UNL     1     -21.228 -15.814 -14.429  1.00  0.00    -0.350 N 
ATOM      4  H   UNL     1     -20.469 -15.969 -15.131  1.00  0.00     0.345 HD
ATOM      5  H   UNL     1     -20.786 -15.687 -13.490  1.00  0.00     0.345 HD
ATOM      6  H   UNL     1     -21.844 -16.660 -14.406  1.00  0.00     0.345 HD
ENDBRANCH   2   3
BRANCH   2   7
ATOM      7  C   UNL     1     -23.284 -14.527 -14.017  1.00  0.00     0.099 C 
ATOM      8  O   UNL     1     -24.196 -13.732 -14.370  1.00  0.00    -0.544 OA
ATOM      9  O   UNL     1     -23.498 -15.372 -12.935  1.00  0.00    -0.544 OA
ENDBRANCH   2   7
ENDBRANCH   1   2
BRANCH   1  10
ATOM     10  C   UNL     1     -20.269 -13.347 -13.402  1.00  0.00     0.041 A 
ATOM     11  C   UNL     1     -20.623 -12.965 -12.126  1.00  0.00     0.134 A 
ATOM     12  N   UNL     1     -18.978 -13.710 -13.399  1.00  0.00    -0.348 N 
ATOM     13  N   UNL     1     -19.553 -13.093 -11.316  1.00  0.00    -0.245 NA
ATOM     14  C   UNL     1     -18.572 -13.549 -12.125  1.00  0.00     0.196 A 
ATOM     15  H   UNL     1     -18.407 -14.042 -14.207  1.00  0.00     0.167 HD
ENDBRANCH   1  10
TORSDOF 4
ENDMDL
MODEL 6
REMARK VINA RESULT:    -4.520     10.414     10.754
REMARK INTER + INTRA:          -5.742
REMARK INTER:                  -5.557
REMARK INTRA:                  -0.185
REMARK UNBOUND:                -0.297
REMARK SMILES [NH3+][C@H](Cc1cnc[nH]1)C(=O)[O-]
REMARK SMILES IDX 3 1 2 2 1 3 9 7 10 8 11 9 4 10 5 11 8 12 6 13 7 14
REMARK H PARENT 1 4 1 5 1 6 8 15
REMARK Flexibility Score: inf
ROOT
ATOM      1  C   UNL     1     -23.529 -22.947 -11.859  1.00  0.00     0.127 C 
ENDROOT
BRANCH   1   2
ATOM      2  C   UNL     1     -23.279 -22.578 -13.338  1.00  0.00     0.233 C 
BRANCH   2   3
ATOM      3  N   UNL     1     -21.881 -22.194 -13.576  1.00  0.00    -0.350 N 
ATOM      4  H   UNL     1     -21.324 -23.040 -13.837  1.00  0.00     0.345 HD
ATOM      5  H   UNL     1     -21.830 -21.512 -14.367  1.00  0.00     0.345 HD
ATOM      6  H   UNL     1     -21.456 -21.762 -12.723  1.00  0.00     0.345 HD
ENDBRANCH   2   3
BRANCH   2   7
ATOM      7  C   UNL     1     -23.712 -23.687 -14.263  1.00  0.00     0.099 C 
ATOM      8  O   UNL     1     -23.409 -24.886 -14.020  1.00  0.00    -0.544 OA
ATOM      9  O   UNL     1     -24.498 -23.394 -15.370  1.00  0.00    -0.544 OA
ENDBRANCH   2   7
ENDBRANCH   1   2
BRANCH   1  10
ATOM     10  C   UNL     1     -24.986 -22.964 -11.489  1.00  0.00     0.041 A 
ATOM     11  C   UNL     1     -25.766 -21.873 -11.176  1.00  0.00     0.134 A 
ATOM     12  N   UNL     1     -25.731 -24.073 -11.370  1.00  0.00    -0.348 N 
ATOM     13  N   UNL     1     -27.008 -22.294 -10.864  1.00  0.00    -0.245 NA
ATOM     14  C   UNL     1     -26.948 -23.638 -10.994  1.00  0.00     0.196 A 
ATOM     15  H   UNL     1     -25.434 -25.061 -11.530  1.00  0.00     0.167 HD
ENDBRANCH   1  10
TORSDOF 4
ENDMDL
MODEL 7
REMARK VINA RESULT:    -4.443      9.984     10.296
REMARK INTER + INTRA:          -5.649
REMARK INTER:                  -5.398
REMARK INTRA:                  -0.251
REMARK UNBOUND:                -0.297
REMARK SMILES [NH3+][C@H](Cc1cnc[nH]1)C(=O)[O-]
REMARK SMILES IDX 3 1 2 2 1 3 9 7 10 8 11 9 4 10 5 11 8 12 6 13 7 14
REMARK H PARENT 1 4 1 5 1 6 8 15
REMARK Flexibility Score: inf
ROOT
ATOM      1  C   UNL     1     -23.949 -23.805 -12.206  1.00  0.00     0.127 C 
ENDROOT
BRANCH   1   2
ATOM      2  C   UNL     1     -23.335 -22.436 -12.573  1.00  0.00     0.233 C 
BRANCH   2   3
ATOM      3  N   UNL     1     -22.286 -22.564 -13.595  1.00  0.00    -0.350 N 
ATOM      4  H   UNL     1     -21.437 -23.003 -13.172  1.00  0.00     0.345 HD
ATOM      5  H   UNL     1     -22.621 -23.179 -14.371  1.00  0.00     0.345 HD
ATOM      6  H   UNL     1     -22.023 -21.630 -13.987  1.00  0.00     0.345 HD
ENDBRANCH   2   3
BRANCH   2   7
ATOM      7  C   UNL     1     -24.396 -21.450 -12.991  1.00  0.00     0.099 C 
ATOM      8  O   UNL     1     -24.660 -21.264 -14.209  1.00  0.00    -0.544 OA
ATOM      9  O   UNL     1     -25.129 -20.775 -12.024  1.00  0.00    -0.544 OA
ENDBRANCH   2   7
ENDBRANCH   1   2
BRANCH   1  10
ATOM     10  C   UNL     1     -24.475 -23.862 -10.800  1.00  0.00     0.041 A 
ATOM     11  C   UNL     1     -23.758 -24.182  -9.668  1.00  0.00     0.134 A 
ATOM     12  N   UNL     1     -25.752 -23.646 -10.452  1.00  0.00    -0.348 N 
ATOM     13  N   UNL     1     -24.584 -24.162  -8.603  1.00  0.00    -0.245 NA
ATOM     14  C   UNL     1     -25.788 -23.832  -9.119  1.00  0.00     0.196 A 
ATOM     15  H   UNL     1     -26.550 -23.393 -11.077  1.00  0.00     0.167 HD
ENDBRANCH   1  10
TORSDOF 4
ENDMDL
MODEL 8
REMARK VINA RESULT:    -4.364      9.416      9.720
REMARK INTER + INTRA:          -5.554
REMARK INTER:                  -5.414
REMARK INTRA:                  -0.141
REMARK UNBOUND:                -0.297
REMARK SMILES [NH3+][C@H](Cc1cnc[nH]1)C(=O)[O-]
REMARK SMILES IDX 3 1 2 2 1 3 9 7 10 8 11 9 4 10 5 11 8 12 6 13 7 14
REMARK H PARENT 1 4 1 5 1 6 8 15
REMARK Flexibility Score: inf
ROOT
ATOM      1  C   UNL     1     -23.750 -22.610 -11.909  1.00  0.00     0.127 C 
ENDROOT
BRANCH   1   2
ATOM      2  C   UNL     1     -23.381 -22.461 -13.401  1.00  0.00     0.233 C 
BRANCH   2   3
ATOM      3  N   UNL     1     -21.942 -22.230 -13.588  1.00  0.00    -0.350 N 
ATOM      4  H   UNL     1     -21.629 -22.671 -14.483  1.00  0.00     0.345 HD
ATOM      5  H   UNL     1     -21.752 -21.204 -13.644  1.00  0.00     0.345 HD
ATOM      6  H   UNL     1     -21.387 -22.639 -12.800  1.00  0.00     0.345 HD
ENDBRANCH   2   3
BRANCH   2   7
ATOM      7  C   UNL     1     -23.859 -23.642 -14.207  1.00  0.00     0.099 C 
ATOM      8  O   UNL     1     -23.442 -24.804 -13.959  1.00  0.00    -0.544 OA
ATOM      9  O   UNL     1     -24.811 -23.457 -15.202  1.00  0.00    -0.544 OA
ENDBRANCH   2   7
ENDBRANCH   1   2
BRANCH   1  10
ATOM     10  C   UNL     1     -24.661 -21.523 -11.411  1.00  0.00     0.041 A 
ATOM     11  C   UNL     1     -25.311 -21.490 -10.197  1.00  0.00     0.134 A 
ATOM     12  N   UNL     1     -25.007 -20.434 -12.114  1.00  0.00    -0.348 N 
ATOM     13  N   UNL     1     -26.064 -20.374 -10.131  1.00  0.00    -0.245 NA
ATOM     14  C   UNL     1     -25.853 -19.757 -11.315  1.00  0.00     0.196 A 
ATOM     15  H   UNL     1     -24.693 -20.168 -13.073  1.00  0.00     0.167 HD
ENDBRANCH   1  10
TORSDOF 4
ENDMDL
MODEL 9
REMARK VINA RESULT:    -4.362      2.983      4.840
REMARK INTER + INTRA:          -5.552
REMARK INTER:                  -5.386
REMARK INTRA:                  -0.166
REMARK UNBOUND:                -0.297
REMARK SMILES [NH3+][C@H](Cc1cnc[nH]1)C(=O)[O-]
REMARK SMILES IDX 3 1 2 2 1 3 9 7 10 8 11 9 4 10 5 11 8 12 6 13 7 14
REMARK H PARENT 1 4 1 5 1 6 8 15
REMARK Flexibility Score: inf
ROOT
ATOM      1  C   UNL     1     -22.559 -14.921 -11.574  1.00  0.00     0.127 C 
ENDROOT
BRANCH   1   2
ATOM      2  C   UNL     1     -22.320 -13.802 -10.537  1.00  0.00     0.233 C 
BRANCH   2   3
ATOM      3  N   UNL     1     -23.495 -13.591  -9.679  1.00  0.00    -0.350 N 
ATOM      4  H   UNL     1     -23.631 -14.423  -9.061  1.00  0.00     0.345 HD
ATOM      5  H   UNL     1     -23.345 -12.752  -9.073  1.00  0.00     0.345 HD
ATOM      6  H   UNL     1     -24.361 -13.451 -10.250  1.00  0.00     0.345 HD
ENDBRANCH   2   3
BRANCH   2   7
ATOM      7  C   UNL     1     -21.080 -14.063  -9.720  1.00  0.00     0.099 C 
ATOM      8  O   UNL     1     -20.107 -14.697 -10.208  1.00  0.00    -0.544 OA
ATOM      9  O   UNL     1     -20.985 -13.554  -8.431  1.00  0.00    -0.544 OA
ENDBRANCH   2   7
ENDBRANCH   1   2
BRANCH   1  10
ATOM     10  C   UNL     1     -22.197 -14.520 -12.976  1.00  0.00     0.041 A 
ATOM     11  C   UNL     1     -21.693 -13.302 -13.377  1.00  0.00     0.134 A 
ATOM     12  N   UNL     1     -22.357 -15.296 -14.058  1.00  0.00    -0.348 N 
ATOM     13  N   UNL     1     -21.530 -13.312 -14.715  1.00  0.00    -0.245 NA
ATOM     14  C   UNL     1     -21.944 -14.541 -15.094  1.00  0.00     0.196 A 
ATOM     15  H   UNL     1     -22.726 -16.272 -14.095  1.00  0.00     0.167 HD
ENDBRANCH   1  10
TORSDOF 4
ENDMDL
