MODEL 1
REMARK VINA RESULT:    -5.842      0.000      0.000
REMARK INTER + INTRA:          -6.430
REMARK INTER:                  -6.354
REMARK INTRA:                  -0.076
REMARK UNBOUND:                -0.076
REMARK SMILES CCc1cccc(O)c1
REMARK SMILES IDX 3 1 9 2 7 3 6 4 5 5 4 6 2 7 1 8 8 9
REMARK H PARENT 8 10
REMARK Flexibility Score: inf
ROOT
ATOM      1  C   UNL     1       7.465   5.286  18.230  1.00  0.00    -0.045 A 
ATOM      2  C   UNL     1       6.777   4.123  18.616  1.00  0.00     0.049 A 
ATOM      3  C   UNL     1       7.433   2.883  18.625  1.00  0.00     0.115 A 
ATOM      4  C   UNL     1       8.780   2.807  18.257  1.00  0.00     0.046 A 
ATOM      5  C   UNL     1       9.472   3.962  17.885  1.00  0.00     0.004 A 
ATOM      6  C   UNL     1       8.820   5.199  17.875  1.00  0.00     0.004 A 
ENDROOT
BRANCH   1   7
ATOM      7  C   UNL     1       6.771   6.621  18.252  1.00  0.00     0.032 C 
ATOM      8  C   UNL     1       7.751   7.744  17.930  1.00  0.00     0.009 C 
ENDBRANCH   1   7
BRANCH   3   9
ATOM      9  O   UNL     1       6.756   1.725  19.001  1.00  0.00    -0.508 OA
ATOM     10  H   UNL     1       7.244   0.851  19.153  1.00  0.00     0.293 HD
ENDBRANCH   3   9
TORSDOF 2
ENDMDL
MODEL 2
REMARK VINA RESULT:    -5.120      1.542      2.230
REMARK INTER + INTRA:          -5.644
REMARK INTER:                  -5.595
REMARK INTRA:                  -0.049
REMARK UNBOUND:                -0.076
REMARK SMILES CCc1cccc(O)c1
REMARK SMILES IDX 3 1 9 2 7 3 6 4 5 5 4 6 2 7 1 8 8 9
REMARK H PARENT 8 10
REMARK Flexibility Score: inf
ROOT
ATOM      1  C   UNL     1       7.469   5.290  18.159  1.00  0.00    -0.045 A 
ATOM      2  C   UNL     1       8.832   5.077  17.894  1.00  0.00     0.049 A 
ATOM      3  C   UNL     1       9.410   3.820  18.130  1.00  0.00     0.115 A 
ATOM      4  C   UNL     1       8.623   2.774  18.621  1.00  0.00     0.046 A 
ATOM      5  C   UNL     1       7.264   2.977  18.873  1.00  0.00     0.004 A 
ATOM      6  C   UNL     1       6.686   4.228  18.639  1.00  0.00     0.004 A 
ENDROOT
BRANCH   1   7
ATOM      7  C   UNL     1       6.841   6.628  17.875  1.00  0.00     0.032 C 
ATOM      8  C   UNL     1       7.875   7.744  17.986  1.00  0.00     0.009 C 
ENDBRANCH   1   7
BRANCH   3   9
ATOM      9  O   UNL     1      10.763   3.603  17.876  1.00  0.00    -0.508 OA
ATOM     10  H   UNL     1      11.100   3.388  16.945  1.00  0.00     0.293 HD
ENDBRANCH   3   9
TORSDOF 2
ENDMDL
MODEL 3
REMARK VINA RESULT:    -4.992      1.884      3.606
REMARK INTER + INTRA:          -5.506
REMARK INTER:                  -5.455
REMARK INTRA:                  -0.051
REMARK UNBOUND:                -0.076
REMARK SMILES CCc1cccc(O)c1
REMARK SMILES IDX 3 1 9 2 7 3 6 4 5 5 4 6 2 7 1 8 8 9
REMARK H PARENT 8 10
REMARK Flexibility Score: inf
ROOT
ATOM      1  C   UNL     1       7.998   2.819  18.226  1.00  0.00    -0.045 A 
ATOM      2  C   UNL     1       7.123   3.896  18.445  1.00  0.00     0.049 A 
ATOM      3  C   UNL     1       7.598   5.215  18.391  1.00  0.00     0.115 A 
ATOM      4  C   UNL     1       8.946   5.458  18.107  1.00  0.00     0.046 A 
ATOM      5  C   UNL     1       9.817   4.390  17.875  1.00  0.00     0.004 A 
ATOM      6  C   UNL     1       9.346   3.075  17.928  1.00  0.00     0.004 A 
ENDROOT
BRANCH   1   7
ATOM      7  C   UNL     1       7.483   1.405  18.251  1.00  0.00     0.032 C 
ATOM      8  C   UNL     1       6.001   1.377  18.610  1.00  0.00     0.009 C 
ENDBRANCH   1   7
BRANCH   3   9
ATOM      9  O   UNL     1       6.738   6.288  18.614  1.00  0.00    -0.508 OA
ATOM     10  H   UNL     1       6.162   6.668  17.873  1.00  0.00     0.293 HD
ENDBRANCH   3   9
TORSDOF 2
ENDMDL
MODEL 4
REMARK VINA RESULT:    -4.217      2.316      4.179
REMARK INTER + INTRA:          -4.663
REMARK INTER:                  -4.588
REMARK INTRA:                  -0.075
REMARK UNBOUND:                -0.076
REMARK SMILES CCc1cccc(O)c1
REMARK SMILES IDX 3 1 9 2 7 3 6 4 5 5 4 6 2 7 1 8 8 9
REMARK H PARENT 8 10
REMARK Flexibility Score: inf
ROOT
ATOM      1  C   UNL     1       8.335   4.105  18.234  1.00  0.00    -0.045 A 
ATOM      2  C   UNL     1       8.866   5.375  17.954  1.00  0.00     0.049 A 
ATOM      3  C   UNL     1       8.090   6.526  18.157  1.00  0.00     0.115 A 
ATOM      4  C   UNL     1       6.787   6.408  18.650  1.00  0.00     0.046 A 
ATOM      5  C   UNL     1       6.259   5.149  18.943  1.00  0.00     0.004 A 
ATOM      6  C   UNL     1       7.030   4.000  18.742  1.00  0.00     0.004 A 
ENDROOT
BRANCH   1   7
ATOM      7  C   UNL     1       9.178   2.872  18.048  1.00  0.00     0.032 C 
ATOM      8  C   UNL     1       8.343   1.612  18.250  1.00  0.00     0.009 C 
ENDBRANCH   1   7
BRANCH   3   9
ATOM      9  O   UNL     1       8.607   7.789  17.875  1.00  0.00    -0.508 OA
ATOM     10  H   UNL     1       8.267   8.619  18.346  1.00  0.00     0.293 HD
ENDBRANCH   3   9
TORSDOF 2
ENDMDL
