MODEL 1
REMARK VINA RESULT:    -3.300      0.000      0.000
REMARK INTER + INTRA:          -5.397
REMARK INTER:                  -5.037
REMARK INTRA:                  -0.360
REMARK UNBOUND:                -0.360
REMARK SMILES CC1=CCC[C@@H](C)C(=O)C[C@@H](C(C)C)C(=O)C1
REMARK SMILES IDX 8 1 9 2 6 3 7 4 5 5 4 6 3 7 2 8 1 9 10 11 11 12 15 13 16 14
REMARK SMILES IDX 17 15 12 17 13 18 14 19
REMARK H PARENT
REMARK Flexibility Score: 70.00
ROOT
ATOM      1  C   UNL     1      19.235 -43.855  -6.838  1.00  0.00     0.136 C 
ATOM      2  O   UNL     1      19.907 -42.910  -7.223  1.00  0.00    -0.299 OA
ENDROOT
BRANCH   1   3
ATOM      3  C   UNL     1      19.836 -45.245  -6.846  1.00  0.00     0.053 C 
ATOM      4  C   UNL     1      20.976 -45.303  -5.823  1.00  0.00     0.016 C 
BRANCH   3   5
ATOM      5  C   UNL     1      20.355 -45.663  -8.244  1.00  0.00     0.015 C 
BRANCH   5   6
ATOM      6  C   UNL     1      19.239 -45.939  -9.266  1.00  0.00     0.028 C 
BRANCH   6   7
ATOM      7  C   UNL     1      19.010 -44.768 -10.192  1.00  0.00    -0.028 C 
ATOM      8  C   UNL     1      17.834 -44.124 -10.377  1.00  0.00    -0.070 CG0
ATOM      9  C   UNL     1      17.733 -43.160 -11.536  1.00  0.00     0.039 C 
ATOM     10  G   UNL     1      16.575 -44.446  -9.596  1.00  0.00     0.000 G0
ENDBRANCH   6   7
ENDBRANCH   5   6
ENDBRANCH   3   5
ENDBRANCH   1   3
BRANCH   1  11
ATOM     11  C   UNL     1      17.880 -43.603  -6.206  1.00  0.00     0.087 C 
BRANCH  11  12
ATOM     12  C   UNL     1      16.680 -44.302  -6.905  1.00  0.00     0.066 C 
BRANCH  12  13
ATOM     13  C   UNL     1      16.396 -43.704  -8.281  1.00  0.00     0.140 C 
ATOM     14  O   UNL     1      16.101 -42.518  -8.323  1.00  0.00    -0.299 OA
BRANCH  13  15
ATOM     15  C   UNL     1      16.540 -44.427  -9.606  1.00  0.00     0.106 CG0
ATOM     16  G   UNL     1      17.822 -44.115 -10.353  1.00  0.00     0.000 G0
ENDBRANCH  13  15
ENDBRANCH  12  13
BRANCH  12  17
ATOM     17  C   UNL     1      15.439 -44.605  -5.987  1.00  0.00    -0.006 C 
ATOM     18  C   UNL     1      14.203 -45.141  -6.725  1.00  0.00     0.008 C 
ATOM     19  C   UNL     1      15.027 -43.356  -5.188  1.00  0.00     0.008 C 
ENDBRANCH  12  17
ENDBRANCH  11  12
ENDBRANCH   1  11
TORSDOF 1
ENDMDL
MODEL 2
REMARK VINA RESULT:    -3.268     14.855     16.455
REMARK INTER + INTRA:          -5.347
REMARK INTER:                  -4.918
REMARK INTRA:                  -0.429
REMARK UNBOUND:                -0.360
REMARK SMILES CC1=CCC[C@@H](C)C(=O)C[C@@H](C(C)C)C(=O)C1
REMARK SMILES IDX 8 1 9 2 6 3 7 4 5 5 4 6 3 7 2 8 1 9 10 11 11 12 15 13 16 14
REMARK SMILES IDX 17 15 12 17 13 18 14 19
REMARK H PARENT
REMARK Flexibility Score: 70.00
ROOT
ATOM      1  C   UNL     1      26.445 -30.489 -13.450  1.00  0.00     0.136 C 
ATOM      2  O   UNL     1      25.553 -29.979 -14.110  1.00  0.00    -0.299 OA
ENDROOT
BRANCH   1   3
ATOM      3  C   UNL     1      27.871 -30.428 -13.958  1.00  0.00     0.053 C 
ATOM      4  C   UNL     1      28.160 -29.013 -14.469  1.00  0.00     0.016 C 
BRANCH   3   5
ATOM      5  C   UNL     1      28.152 -31.465 -15.073  1.00  0.00     0.015 C 
BRANCH   5   6
ATOM      6  C   UNL     1      28.928 -32.702 -14.593  1.00  0.00     0.028 C 
BRANCH   6   7
ATOM      7  C   UNL     1      28.049 -33.928 -14.500  1.00  0.00    -0.028 C 
ATOM      8  C   UNL     1      27.744 -34.598 -13.364  1.00  0.00    -0.070 CG0
ATOM      9  C   UNL     1      27.078 -35.947 -13.499  1.00  0.00     0.039 C 
ATOM     10  G   UNL     1      28.188 -34.148 -11.985  1.00  0.00     0.000 G0
ENDBRANCH   6   7
ENDBRANCH   5   6
ENDBRANCH   3   5
ENDBRANCH   1   3
BRANCH   1  11
ATOM     11  C   UNL     1      26.141 -31.023 -12.064  1.00  0.00     0.087 C 
BRANCH  11  12
ATOM     12  C   UNL     1      27.344 -31.674 -11.324  1.00  0.00     0.066 C 
BRANCH  12  13
ATOM     13  C   UNL     1      27.228 -33.197 -11.281  1.00  0.00     0.140 C 
ATOM     14  O   UNL     1      26.255 -33.666 -10.708  1.00  0.00    -0.299 OA
BRANCH  13  15
ATOM     15  C   UNL     1      28.164 -34.173 -11.966  1.00  0.00     0.106 CG0
ATOM     16  G   UNL     1      27.724 -34.591 -13.357  1.00  0.00     0.000 G0
ENDBRANCH  13  15
ENDBRANCH  12  13
BRANCH  12  17
ATOM     17  C   UNL     1      27.800 -30.955 -10.002  1.00  0.00    -0.006 C 
ATOM     18  C   UNL     1      28.626 -31.825  -9.042  1.00  0.00     0.008 C 
ATOM     19  C   UNL     1      26.591 -30.392  -9.233  1.00  0.00     0.008 C 
ENDBRANCH  12  17
ENDBRANCH  11  12
ENDBRANCH   1  11
TORSDOF 1
ENDMDL
MODEL 3
REMARK VINA RESULT:    -3.008     15.208     17.004
REMARK INTER + INTRA:          -4.950
REMARK INTER:                  -4.506
REMARK INTRA:                  -0.444
REMARK UNBOUND:                -0.360
REMARK SMILES CC1=CCC[C@@H](C)C(=O)C[C@@H](C(C)C)C(=O)C1
REMARK SMILES IDX 8 1 9 2 6 3 7 4 5 5 4 6 3 7 2 8 1 9 10 11 11 12 15 13 16 14
REMARK SMILES IDX 17 15 12 17 13 18 14 19
REMARK H PARENT
REMARK Flexibility Score: 70.00
ROOT
ATOM      1  C   UNL     1      26.864 -32.765 -14.904  1.00  0.00     0.136 C 
ATOM      2  O   UNL     1      26.242 -33.491 -15.665  1.00  0.00    -0.299 OA
ENDROOT
BRANCH   1   3
ATOM      3  C   UNL     1      28.330 -33.045 -14.645  1.00  0.00     0.053 C 
ATOM      4  C   UNL     1      29.015 -33.393 -15.971  1.00  0.00     0.016 C 
BRANCH   3   5
ATOM      5  C   UNL     1      28.548 -34.183 -13.618  1.00  0.00     0.015 C 
BRANCH   5   6
ATOM      6  C   UNL     1      29.092 -33.704 -12.262  1.00  0.00     0.028 C 
BRANCH   6   7
ATOM      7  C   UNL     1      28.077 -33.852 -11.154  1.00  0.00    -0.028 C 
ATOM      8  C   UNL     1      27.458 -32.836 -10.507  1.00  0.00    -0.070 CG0
ATOM      9  C   UNL     1      26.683 -33.168  -9.253  1.00  0.00     0.039 C 
ATOM     10  G   UNL     1      27.644 -31.377 -10.875  1.00  0.00     0.000 G0
ENDBRANCH   6   7
ENDBRANCH   5   6
ENDBRANCH   3   5
ENDBRANCH   1   3
BRANCH   1  11
ATOM     11  C   UNL     1      26.211 -31.507 -14.366  1.00  0.00     0.087 C 
BRANCH  11  12
ATOM     12  C   UNL     1      27.099 -30.649 -13.421  1.00  0.00     0.066 C 
BRANCH  12  13
ATOM     13  C   UNL     1      26.719 -30.840 -11.954  1.00  0.00     0.140 C 
ATOM     14  O   UNL     1      25.554 -30.628 -11.649  1.00  0.00    -0.299 OA
BRANCH  13  15
ATOM     15  C   UNL     1      27.636 -31.357 -10.864  1.00  0.00     0.106 CG0
ATOM     16  G   UNL     1      27.441 -32.823 -10.526  1.00  0.00     0.000 G0
ENDBRANCH  13  15
ENDBRANCH  12  13
BRANCH  12  17
ATOM     17  C   UNL     1      27.381 -29.178 -13.901  1.00  0.00    -0.006 C 
ATOM     18  C   UNL     1      26.220 -28.508 -14.652  1.00  0.00     0.008 C 
ATOM     19  C   UNL     1      28.636 -29.118 -14.790  1.00  0.00     0.008 C 
ENDBRANCH  12  17
ENDBRANCH  11  12
ENDBRANCH   1  11
TORSDOF 1
ENDMDL
MODEL 4
REMARK VINA RESULT:    -2.982     12.813     15.030
REMARK INTER + INTRA:          -4.911
REMARK INTER:                  -4.291
REMARK INTRA:                  -0.620
REMARK UNBOUND:                -0.360
REMARK SMILES CC1=CCC[C@@H](C)C(=O)C[C@@H](C(C)C)C(=O)C1
REMARK SMILES IDX 8 1 9 2 6 3 7 4 5 5 4 6 3 7 2 8 1 9 10 11 11 12 15 13 16 14
REMARK SMILES IDX 17 15 12 17 13 18 14 19
REMARK H PARENT
REMARK Flexibility Score: 70.00
ROOT
ATOM      1  C   UNL     1      27.857 -42.050 -20.651  1.00  0.00     0.136 C 
ATOM      2  O   UNL     1      28.526 -41.134 -21.103  1.00  0.00    -0.299 OA
ENDROOT
BRANCH   1   3
ATOM      3  C   UNL     1      27.405 -43.164 -21.573  1.00  0.00     0.053 C 
ATOM      4  C   UNL     1      28.580 -43.584 -22.463  1.00  0.00     0.016 C 
BRANCH   3   5
ATOM      5  C   UNL     1      26.192 -42.760 -22.447  1.00  0.00     0.015 C 
BRANCH   5   6
ATOM      6  C   UNL     1      25.008 -42.194 -21.647  1.00  0.00     0.028 C 
BRANCH   6   7
ATOM      7  C   UNL     1      24.105 -43.282 -21.115  1.00  0.00    -0.028 C 
ATOM      8  C   UNL     1      23.947 -43.613 -19.812  1.00  0.00    -0.070 CG0
ATOM      9  C   UNL     1      23.216 -44.895 -19.494  1.00  0.00     0.039 C 
ATOM     10  G   UNL     1      24.611 -42.860 -18.674  1.00  0.00     0.000 G0
ENDBRANCH   6   7
ENDBRANCH   5   6
ENDBRANCH   3   5
ENDBRANCH   1   3
BRANCH   1  11
ATOM     11  C   UNL     1      27.632 -42.147 -19.155  1.00  0.00     0.087 C 
BRANCH  11  12
ATOM     12  C   UNL     1      27.228 -43.555 -18.633  1.00  0.00     0.066 C 
BRANCH  12  13
ATOM     13  C   UNL     1      25.813 -43.563 -18.057  1.00  0.00     0.140 C 
ATOM     14  O   UNL     1      25.656 -44.112 -16.975  1.00  0.00    -0.299 OA
BRANCH  13  15
ATOM     15  C   UNL     1      24.608 -42.871 -18.663  1.00  0.00     0.106 CG0
ATOM     16  G   UNL     1      23.969 -43.623 -19.815  1.00  0.00     0.000 G0
ENDBRANCH  13  15
ENDBRANCH  12  13
BRANCH  12  17
ATOM     17  C   UNL     1      28.334 -44.325 -17.823  1.00  0.00    -0.006 C 
ATOM     18  C   UNL     1      29.216 -43.440 -16.928  1.00  0.00     0.008 C 
ATOM     19  C   UNL     1      29.247 -45.131 -18.764  1.00  0.00     0.008 C 
ENDBRANCH  12  17
ENDBRANCH  11  12
ENDBRANCH   1  11
TORSDOF 1
ENDMDL
MODEL 5
REMARK VINA RESULT:    -2.973     13.096     15.380
REMARK INTER + INTRA:          -4.897
REMARK INTER:                  -4.729
REMARK INTRA:                  -0.167
REMARK UNBOUND:                -0.360
REMARK SMILES CC1=CCC[C@@H](C)C(=O)C[C@@H](C(C)C)C(=O)C1
REMARK SMILES IDX 8 1 9 2 6 3 7 4 5 5 4 6 3 7 2 8 1 9 10 11 11 12 15 13 16 14
REMARK SMILES IDX 17 15 12 17 13 18 14 19
REMARK H PARENT
REMARK Flexibility Score: 70.00
ROOT
ATOM      1  C   UNL     1      28.450 -44.312 -19.321  1.00  0.00     0.136 C 
ATOM      2  O   UNL     1      29.032 -45.318 -18.946  1.00  0.00    -0.299 OA
ENDROOT
BRANCH   1   3
ATOM      3  C   UNL     1      27.966 -43.309 -18.295  1.00  0.00     0.053 C 
ATOM      4  C   UNL     1      29.118 -42.974 -17.341  1.00  0.00     0.016 C 
BRANCH   3   5
ATOM      5  C   UNL     1      26.743 -43.818 -17.494  1.00  0.00     0.015 C 
BRANCH   5   6
ATOM      6  C   UNL     1      25.422 -43.122 -17.862  1.00  0.00     0.028 C 
BRANCH   6   7
ATOM      7  C   UNL     1      24.411 -44.084 -18.440  1.00  0.00    -0.028 C 
ATOM      8  C   UNL     1      24.008 -44.127 -19.732  1.00  0.00    -0.070 CG0
ATOM      9  C   UNL     1      22.799 -44.969 -20.065  1.00  0.00     0.039 C 
ATOM     10  G   UNL     1      24.595 -43.247 -20.819  1.00  0.00     0.000 G0
ENDBRANCH   6   7
ENDBRANCH   5   6
ENDBRANCH   3   5
ENDBRANCH   1   3
BRANCH   1  11
ATOM     11  C   UNL     1      28.369 -44.001 -20.803  1.00  0.00     0.087 C 
BRANCH  11  12
ATOM     12  C   UNL     1      27.251 -43.001 -21.212  1.00  0.00     0.066 C 
BRANCH  12  13
ATOM     13  C   UNL     1      25.908 -43.700 -21.414  1.00  0.00     0.140 C 
ATOM     14  O   UNL     1      25.918 -44.759 -22.025  1.00  0.00    -0.299 OA
BRANCH  13  15
ATOM     15  C   UNL     1      24.580 -43.243 -20.844  1.00  0.00     0.106 CG0
ATOM     16  G   UNL     1      24.024 -44.142 -19.756  1.00  0.00     0.000 G0
ENDBRANCH  13  15
ENDBRANCH  12  13
BRANCH  12  17
ATOM     17  C   UNL     1      27.661 -41.919 -22.278  1.00  0.00    -0.006 C 
ATOM     18  C   UNL     1      26.891 -40.593 -22.185  1.00  0.00     0.008 C 
ATOM     19  C   UNL     1      27.515 -42.470 -23.708  1.00  0.00     0.008 C 
ENDBRANCH  12  17
ENDBRANCH  11  12
ENDBRANCH   1  11
TORSDOF 1
ENDMDL
MODEL 6
REMARK VINA RESULT:    -2.972     12.458     14.965
REMARK INTER + INTRA:          -4.896
REMARK INTER:                  -4.531
REMARK INTRA:                  -0.365
REMARK UNBOUND:                -0.360
REMARK SMILES CC1=CCC[C@@H](C)C(=O)C[C@@H](C(C)C)C(=O)C1
REMARK SMILES IDX 8 1 9 2 6 3 7 4 5 5 4 6 3 7 2 8 1 9 10 11 11 12 15 13 16 14
REMARK SMILES IDX 17 15 12 17 13 18 14 19
REMARK H PARENT
REMARK Flexibility Score: 70.00
ROOT
ATOM      1  C   UNL     1      28.757 -42.503 -19.374  1.00  0.00     0.136 C 
ATOM      2  O   UNL     1      28.744 -41.281 -19.386  1.00  0.00    -0.299 OA
ENDROOT
BRANCH   1   3
ATOM      3  C   UNL     1      29.451 -43.226 -18.237  1.00  0.00     0.053 C 
ATOM      4  C   UNL     1      29.293 -44.737 -18.437  1.00  0.00     0.016 C 
BRANCH   3   5
ATOM      5  C   UNL     1      28.908 -42.813 -16.847  1.00  0.00     0.015 C 
BRANCH   5   6
ATOM      6  C   UNL     1      27.666 -43.603 -16.404  1.00  0.00     0.028 C 
BRANCH   6   7
ATOM      7  C   UNL     1      26.404 -42.775 -16.483  1.00  0.00    -0.028 C 
ATOM      8  C   UNL     1      25.470 -42.848 -17.460  1.00  0.00    -0.070 CG0
ATOM      9  C   UNL     1      24.422 -41.762 -17.515  1.00  0.00     0.039 C 
ATOM     10  G   UNL     1      25.524 -43.856 -18.592  1.00  0.00     0.000 G0
ENDBRANCH   6   7
ENDBRANCH   5   6
ENDBRANCH   3   5
ENDBRANCH   1   3
BRANCH   1  11
ATOM     11  C   UNL     1      27.943 -43.272 -20.395  1.00  0.00     0.087 C 
BRANCH  11  12
ATOM     12  C   UNL     1      26.580 -42.631 -20.778  1.00  0.00     0.066 C 
BRANCH  12  13
ATOM     13  C   UNL     1      25.422 -43.245 -19.993  1.00  0.00     0.140 C 
ATOM     14  O   UNL     1      24.337 -43.302 -20.555  1.00  0.00    -0.299 OA
BRANCH  13  15
ATOM     15  C   UNL     1      25.522 -43.872 -18.617  1.00  0.00     0.106 CG0
ATOM     16  G   UNL     1      25.463 -42.879 -17.472  1.00  0.00     0.000 G0
ENDBRANCH  13  15
ENDBRANCH  12  13
BRANCH  12  17
ATOM     17  C   UNL     1      26.350 -42.384 -22.315  1.00  0.00    -0.006 C 
ATOM     18  C   UNL     1      26.379 -43.649 -23.185  1.00  0.00     0.008 C 
ATOM     19  C   UNL     1      27.379 -41.384 -22.873  1.00  0.00     0.008 C 
ENDBRANCH  12  17
ENDBRANCH  11  12
ENDBRANCH   1  11
TORSDOF 1
ENDMDL
MODEL 7
REMARK VINA RESULT:    -2.945     13.850     16.159
REMARK INTER + INTRA:          -4.854
REMARK INTER:                  -4.888
REMARK INTRA:                   0.034
REMARK UNBOUND:                -0.360
REMARK SMILES CC1=CCC[C@@H](C)C(=O)C[C@@H](C(C)C)C(=O)C1
REMARK SMILES IDX 8 1 9 2 6 3 7 4 5 5 4 6 3 7 2 8 1 9 10 11 11 12 15 13 16 14
REMARK SMILES IDX 17 15 12 17 13 18 14 19
REMARK H PARENT
REMARK Flexibility Score: 70.00
ROOT
ATOM      1  C   UNL     1      25.755 -44.273 -19.495  1.00  0.00     0.136 C 
ATOM      2  O   UNL     1      25.288 -44.641 -18.428  1.00  0.00    -0.299 OA
ENDROOT
BRANCH   1   3
ATOM      3  C   UNL     1      24.909 -43.423 -20.422  1.00  0.00     0.053 C 
ATOM      4  C   UNL     1      23.640 -42.989 -19.681  1.00  0.00     0.016 C 
BRANCH   3   5
ATOM      5  C   UNL     1      24.536 -44.159 -21.732  1.00  0.00     0.015 C 
BRANCH   5   6
ATOM      6  C   UNL     1      25.588 -44.022 -22.845  1.00  0.00     0.028 C 
BRANCH   6   7
ATOM      7  C   UNL     1      26.015 -42.588 -23.054  1.00  0.00    -0.028 C 
ATOM      8  C   UNL     1      27.198 -42.051 -22.672  1.00  0.00    -0.070 CG0
ATOM      9  C   UNL     1      27.338 -40.548 -22.720  1.00  0.00     0.039 C 
ATOM     10  G   UNL     1      28.316 -42.860 -22.042  1.00  0.00     0.000 G0
ENDBRANCH   6   7
ENDBRANCH   5   6
ENDBRANCH   3   5
ENDBRANCH   1   3
BRANCH   1  11
ATOM     11  C   UNL     1      27.218 -44.527 -19.801  1.00  0.00     0.087 C 
BRANCH  11  12
ATOM     12  C   UNL     1      28.191 -43.386 -19.390  1.00  0.00     0.066 C 
BRANCH  12  13
ATOM     13  C   UNL     1      28.585 -42.516 -20.582  1.00  0.00     0.140 C 
ATOM     14  O   UNL     1      29.218 -41.497 -20.343  1.00  0.00    -0.299 OA
BRANCH  13  15
ATOM     15  C   UNL     1      28.340 -42.852 -22.039  1.00  0.00     0.106 CG0
ATOM     16  G   UNL     1      27.198 -42.081 -22.676  1.00  0.00     0.000 G0
ENDBRANCH  13  15
ENDBRANCH  12  13
BRANCH  12  17
ATOM     17  C   UNL     1      29.338 -43.796 -18.394  1.00  0.00    -0.006 C 
ATOM     18  C   UNL     1      29.359 -45.281 -18.004  1.00  0.00     0.008 C 
ATOM     19  C   UNL     1      29.279 -42.953 -17.107  1.00  0.00     0.008 C 
ENDBRANCH  12  17
ENDBRANCH  11  12
ENDBRANCH   1  11
TORSDOF 1
ENDMDL
MODEL 8
REMARK VINA RESULT:    -2.781     15.015     16.464
REMARK INTER + INTRA:          -4.604
REMARK INTER:                  -4.383
REMARK INTRA:                  -0.221
REMARK UNBOUND:                -0.360
REMARK SMILES CC1=CCC[C@@H](C)C(=O)C[C@@H](C(C)C)C(=O)C1
REMARK SMILES IDX 8 1 9 2 6 3 7 4 5 5 4 6 3 7 2 8 1 9 10 11 11 12 15 13 16 14
REMARK SMILES IDX 17 15 12 17 13 18 14 19
REMARK H PARENT
REMARK Flexibility Score: 70.00
ROOT
ATOM      1  C   UNL     1      25.936 -31.550 -11.056  1.00  0.00     0.136 C 
ATOM      2  O   UNL     1      24.991 -30.796 -10.883  1.00  0.00    -0.299 OA
ENDROOT
BRANCH   1   3
ATOM      3  C   UNL     1      26.972 -31.705  -9.961  1.00  0.00     0.053 C 
ATOM      4  C   UNL     1      28.219 -30.896 -10.335  1.00  0.00     0.016 C 
BRANCH   3   5
ATOM      5  C   UNL     1      27.353 -33.184  -9.705  1.00  0.00     0.015 C 
BRANCH   5   6
ATOM      6  C   UNL     1      28.779 -33.546 -10.153  1.00  0.00     0.028 C 
BRANCH   6   7
ATOM      7  C   UNL     1      28.788 -34.596 -11.239  1.00  0.00    -0.028 C 
ATOM      8  C   UNL     1      28.828 -34.356 -12.571  1.00  0.00    -0.070 CG0
ATOM      9  C   UNL     1      28.558 -35.513 -13.503  1.00  0.00     0.039 C 
ATOM     10  G   UNL     1      28.957 -32.966 -13.165  1.00  0.00     0.000 G0
ENDBRANCH   6   7
ENDBRANCH   5   6
ENDBRANCH   3   5
ENDBRANCH   1   3
BRANCH   1  11
ATOM     11  C   UNL     1      25.972 -32.438 -12.284  1.00  0.00     0.087 C 
BRANCH  11  12
ATOM     12  C   UNL     1      26.567 -31.782 -13.562  1.00  0.00     0.066 C 
BRANCH  12  13
ATOM     13  C   UNL     1      27.820 -32.509 -14.045  1.00  0.00     0.140 C 
ATOM     14  O   UNL     1      27.937 -32.675 -15.251  1.00  0.00    -0.299 OA
BRANCH  13  15
ATOM     15  C   UNL     1      28.972 -32.960 -13.170  1.00  0.00     0.106 CG0
ATOM     16  G   UNL     1      28.803 -34.346 -12.577  1.00  0.00     0.000 G0
ENDBRANCH  13  15
ENDBRANCH  12  13
BRANCH  12  17
ATOM     17  C   UNL     1      26.608 -30.209 -13.564  1.00  0.00    -0.006 C 
ATOM     18  C   UNL     1      25.620 -29.536 -14.529  1.00  0.00     0.008 C 
ATOM     19  C   UNL     1      28.024 -29.695 -13.878  1.00  0.00     0.008 C 
ENDBRANCH  12  17
ENDBRANCH  11  12
ENDBRANCH   1  11
TORSDOF 1
ENDMDL
MODEL 9
REMARK VINA RESULT:    -2.665     15.506     17.114
REMARK INTER + INTRA:          -4.427
REMARK INTER:                  -4.274
REMARK INTRA:                  -0.153
REMARK UNBOUND:                -0.360
REMARK SMILES CC1=CCC[C@@H](C)C(=O)C[C@@H](C(C)C)C(=O)C1
REMARK SMILES IDX 8 1 9 2 6 3 7 4 5 5 4 6 3 7 2 8 1 9 10 11 11 12 15 13 16 14
REMARK SMILES IDX 17 15 12 17 13 18 14 19
REMARK H PARENT
REMARK Flexibility Score: 70.00
ROOT
ATOM      1  C   UNL     1      27.440 -30.579 -15.000  1.00  0.00     0.136 C 
ATOM      2  O   UNL     1      27.668 -29.379 -15.016  1.00  0.00    -0.299 OA
ENDROOT
BRANCH   1   3
ATOM      3  C   UNL     1      26.008 -31.060 -14.885  1.00  0.00     0.053 C 
ATOM      4  C   UNL     1      25.140 -30.287 -15.885  1.00  0.00     0.016 C 
BRANCH   3   5
ATOM      5  C   UNL     1      25.438 -30.905 -13.454  1.00  0.00     0.015 C 
BRANCH   5   6
ATOM      6  C   UNL     1      25.539 -32.181 -12.602  1.00  0.00     0.028 C 
BRANCH   6   7
ATOM      7  C   UNL     1      26.617 -32.081 -11.548  1.00  0.00    -0.028 C 
ATOM      8  C   UNL     1      27.696 -32.891 -11.441  1.00  0.00    -0.070 CG0
ATOM      9  C   UNL     1      28.515 -32.810 -10.174  1.00  0.00     0.039 C 
ATOM     10  G   UNL     1      28.019 -33.986 -12.440  1.00  0.00     0.000 G0
ENDBRANCH   6   7
ENDBRANCH   5   6
ENDBRANCH   3   5
ENDBRANCH   1   3
BRANCH   1  11
ATOM     11  C   UNL     1      28.565 -31.560 -15.261  1.00  0.00     0.087 C 
BRANCH  11  12
ATOM     12  C   UNL     1      28.230 -33.050 -14.969  1.00  0.00     0.066 C 
BRANCH  12  13
ATOM     13  C   UNL     1      28.826 -33.519 -13.643  1.00  0.00     0.140 C 
ATOM     14  O   UNL     1      30.040 -33.440 -13.520  1.00  0.00    -0.299 OA
BRANCH  13  15
ATOM     15  C   UNL     1      28.038 -33.985 -12.435  1.00  0.00     0.106 CG0
ATOM     16  G   UNL     1      27.713 -32.888 -11.439  1.00  0.00     0.000 G0
ENDBRANCH  13  15
ENDBRANCH  12  13
BRANCH  12  17
ATOM     17  C   UNL     1      28.353 -34.029 -16.194  1.00  0.00    -0.006 C 
ATOM     18  C   UNL     1      27.019 -34.576 -16.724  1.00  0.00     0.008 C 
ATOM     19  C   UNL     1      29.270 -35.219 -15.859  1.00  0.00     0.008 C 
ENDBRANCH  12  17
ENDBRANCH  11  12
ENDBRANCH   1  11
TORSDOF 1
ENDMDL
