MODEL 1
REMARK VINA RESULT:    -3.758      0.000      0.000
REMARK INTER + INTRA:          -9.963
REMARK INTER:                  -7.272
REMARK INTRA:                  -2.691
REMARK UNBOUND:                -2.691
REMARK SMILES CCCCCCCCCCCCCCCCCC(=O)[O-]
REMARK SMILES IDX 10 1 11 2 12 3 13 4 14 5 15 6 16 7 17 8 18 9 19 10 20 11
REMARK SMILES IDX 9 12 8 13 7 14 6 15 5 16 4 17 3 18 2 19 1 20
REMARK H PARENT
REMARK Flexibility Score: inf
ROOT
ATOM      1  C   UNL     1      32.244  33.317   3.440  1.00  0.00     0.000 C 
ENDROOT
BRANCH   1   2
ATOM      2  C   UNL     1      30.938  32.928   4.157  1.00  0.00     0.000 C 
BRANCH   2   3
ATOM      3  C   UNL     1      29.685  33.239   3.327  1.00  0.00     0.000 C 
BRANCH   3   4
ATOM      4  C   UNL     1      28.602  33.897   4.194  1.00  0.00     0.000 C 
BRANCH   4   5
ATOM      5  C   UNL     1      27.192  33.754   3.598  1.00  0.00     0.000 C 
BRANCH   5   6
ATOM      6  C   UNL     1      27.184  32.965   2.277  1.00  0.00     0.000 C 
BRANCH   6   7
ATOM      7  C   UNL     1      25.977  33.315   1.390  1.00  0.00     0.006 C 
BRANCH   7   8
ATOM      8  C   UNL     1      26.327  34.332   0.293  1.00  0.00     0.053 C 
BRANCH   8   9
ATOM      9  C   UNL     1      25.309  35.427   0.254  1.00  0.00     0.041 C 
ATOM     10  O   UNL     1      25.438  36.383  -0.556  1.00  0.00    -0.550 OA
ATOM     11  O   UNL     1      24.241  35.417   1.142  1.00  0.00    -0.550 OA
ENDBRANCH   8   9
ENDBRANCH   7   8
ENDBRANCH   6   7
ENDBRANCH   5   6
ENDBRANCH   4   5
ENDBRANCH   3   4
ENDBRANCH   2   3
ENDBRANCH   1   2
BRANCH   1  12
ATOM     12  C   UNL     1      32.612  32.434   2.230  1.00  0.00     0.000 C 
BRANCH  12  13
ATOM     13  C   UNL     1      33.411  33.144   1.119  1.00  0.00    -0.000 C 
BRANCH  13  14
ATOM     14  C   UNL     1      32.850  32.957  -0.305  1.00  0.00    -0.000 C 
BRANCH  14  15
ATOM     15  C   UNL     1      31.315  33.051  -0.414  1.00  0.00    -0.000 C 
BRANCH  15  16
ATOM     16  C   UNL     1      30.774  34.445  -0.790  1.00  0.00    -0.000 C 
BRANCH  16  17
ATOM     17  C   UNL     1      30.005  35.173   0.332  1.00  0.00    -0.000 C 
BRANCH  17  18
ATOM     18  C   UNL     1      30.887  35.957   1.321  1.00  0.00    -0.000 C 
BRANCH  18  19
ATOM     19  C   UNL     1      30.070  36.833   2.282  1.00  0.00    -0.003 C 
ATOM     20  C   UNL     1      28.586  36.801   1.928  1.00  0.00     0.004 C 
ENDBRANCH  18  19
ENDBRANCH  17  18
ENDBRANCH  16  17
ENDBRANCH  15  16
ENDBRANCH  14  15
ENDBRANCH  13  14
ENDBRANCH  12  13
ENDBRANCH   1  12
TORSDOF 16
ENDMDL
MODEL 2
REMARK VINA RESULT:    -3.753      3.481      6.657
REMARK INTER + INTRA:          -9.955
REMARK INTER:                  -7.305
REMARK INTRA:                  -2.649
REMARK UNBOUND:                -2.691
REMARK SMILES CCCCCCCCCCCCCCCCCC(=O)[O-]
REMARK SMILES IDX 10 1 11 2 12 3 13 4 14 5 15 6 16 7 17 8 18 9 19 10 20 11
REMARK SMILES IDX 9 12 8 13 7 14 6 15 5 16 4 17 3 18 2 19 1 20
REMARK H PARENT
REMARK Flexibility Score: inf
ROOT
ATOM      1  C   UNL     1      29.037  36.641   2.373  1.00  0.00     0.000 C 
ENDROOT
BRANCH   1   2
ATOM      2  C   UNL     1      30.185  35.863   1.704  1.00  0.00     0.000 C 
BRANCH   2   3
ATOM      3  C   UNL     1      29.721  35.027   0.503  1.00  0.00     0.000 C 
BRANCH   3   4
ATOM      4  C   UNL     1      30.918  34.393  -0.220  1.00  0.00     0.000 C 
BRANCH   4   5
ATOM      5  C   UNL     1      31.332  33.041   0.383  1.00  0.00     0.000 C 
BRANCH   5   6
ATOM      6  C   UNL     1      32.838  32.964   0.689  1.00  0.00     0.000 C 
BRANCH   6   7
ATOM      7  C   UNL     1      33.123  32.551   2.143  1.00  0.00     0.006 C 
BRANCH   7   8
ATOM      8  C   UNL     1      32.953  33.713   3.131  1.00  0.00     0.053 C 
BRANCH   8   9
ATOM      9  C   UNL     1      34.288  34.235   3.557  1.00  0.00     0.041 C 
ATOM     10  O   UNL     1      34.578  34.308   4.781  1.00  0.00    -0.550 OA
ATOM     11  O   UNL     1      35.197  34.683   2.606  1.00  0.00    -0.550 OA
ENDBRANCH   8   9
ENDBRANCH   7   8
ENDBRANCH   6   7
ENDBRANCH   5   6
ENDBRANCH   4   5
ENDBRANCH   3   4
ENDBRANCH   2   3
ENDBRANCH   1   2
BRANCH   1  12
ATOM     12  C   UNL     1      27.947  37.153   1.408  1.00  0.00     0.000 C 
BRANCH  12  13
ATOM     13  C   UNL     1      26.498  36.970   1.901  1.00  0.00    -0.000 C 
BRANCH  13  14
ATOM     14  C   UNL     1      25.618  36.073   1.008  1.00  0.00    -0.000 C 
BRANCH  14  15
ATOM     15  C   UNL     1      25.358  34.660   1.565  1.00  0.00    -0.000 C 
BRANCH  15  16
ATOM     16  C   UNL     1      26.394  33.597   1.151  1.00  0.00    -0.000 C 
BRANCH  16  17
ATOM     17  C   UNL     1      27.172  32.951   2.316  1.00  0.00    -0.000 C 
BRANCH  17  18
ATOM     18  C   UNL     1      27.100  33.717   3.649  1.00  0.00    -0.000 C 
BRANCH  18  19
ATOM     19  C   UNL     1      28.464  33.830   4.347  1.00  0.00    -0.003 C 
ATOM     20  C   UNL     1      29.506  32.955   3.657  1.00  0.00     0.004 C 
ENDBRANCH  18  19
ENDBRANCH  17  18
ENDBRANCH  16  17
ENDBRANCH  15  16
ENDBRANCH  14  15
ENDBRANCH  13  14
ENDBRANCH  12  13
ENDBRANCH   1  12
TORSDOF 16
ENDMDL
MODEL 3
REMARK VINA RESULT:    -3.679      1.234      1.949
REMARK INTER + INTRA:          -9.811
REMARK INTER:                  -7.155
REMARK INTRA:                  -2.656
REMARK UNBOUND:                -2.691
REMARK SMILES CCCCCCCCCCCCCCCCCC(=O)[O-]
REMARK SMILES IDX 10 1 11 2 12 3 13 4 14 5 15 6 16 7 17 8 18 9 19 10 20 11
REMARK SMILES IDX 9 12 8 13 7 14 6 15 5 16 4 17 3 18 2 19 1 20
REMARK H PARENT
REMARK Flexibility Score: inf
ROOT
ATOM      1  C   UNL     1      32.806  32.934   2.321  1.00  0.00     0.000 C 
ENDROOT
BRANCH   1   2
ATOM      2  C   UNL     1      31.716  33.734   3.055  1.00  0.00     0.000 C 
BRANCH   2   3
ATOM      3  C   UNL     1      30.879  32.869   4.009  1.00  0.00     0.000 C 
BRANCH   3   4
ATOM      4  C   UNL     1      29.412  33.323   4.017  1.00  0.00     0.000 C 
BRANCH   4   5
ATOM      5  C   UNL     1      28.633  32.845   2.781  1.00  0.00     0.000 C 
BRANCH   5   6
ATOM      6  C   UNL     1      27.122  33.109   2.895  1.00  0.00     0.000 C 
BRANCH   6   7
ATOM      7  C   UNL     1      26.440  33.225   1.521  1.00  0.00     0.006 C 
BRANCH   7   8
ATOM      8  C   UNL     1      25.334  34.290   1.499  1.00  0.00     0.053 C 
BRANCH   8   9
ATOM      9  C   UNL     1      24.170  33.816   0.689  1.00  0.00     0.041 C 
ATOM     10  O   UNL     1      23.444  34.644   0.078  1.00  0.00    -0.550 OA
ATOM     11  O   UNL     1      23.857  32.462   0.644  1.00  0.00    -0.550 OA
ENDBRANCH   8   9
ENDBRANCH   7   8
ENDBRANCH   6   7
ENDBRANCH   5   6
ENDBRANCH   4   5
ENDBRANCH   3   4
ENDBRANCH   2   3
ENDBRANCH   1   2
BRANCH   1  12
ATOM     12  C   UNL     1      32.758  33.025   0.781  1.00  0.00     0.000 C 
BRANCH  12  13
ATOM     13  C   UNL     1      31.344  33.108   0.174  1.00  0.00    -0.000 C 
BRANCH  13  14
ATOM     14  C   UNL     1      30.923  34.513  -0.302  1.00  0.00    -0.000 C 
BRANCH  14  15
ATOM     15  C   UNL     1      29.619  34.556  -1.122  1.00  0.00    -0.000 C 
BRANCH  15  16
ATOM     16  C   UNL     1      28.504  35.437  -0.525  1.00  0.00    -0.000 C 
BRANCH  16  17
ATOM     17  C   UNL     1      28.984  36.525   0.458  1.00  0.00    -0.000 C 
BRANCH  17  18
ATOM     18  C   UNL     1      28.316  36.490   1.844  1.00  0.00    -0.000 C 
BRANCH  18  19
ATOM     19  C   UNL     1      29.288  36.828   2.983  1.00  0.00    -0.003 C 
ATOM     20  C   UNL     1      30.656  37.226   2.437  1.00  0.00     0.004 C 
ENDBRANCH  18  19
ENDBRANCH  17  18
ENDBRANCH  16  17
ENDBRANCH  15  16
ENDBRANCH  14  15
ENDBRANCH  13  14
ENDBRANCH  12  13
ENDBRANCH   1  12
TORSDOF 16
ENDMDL
MODEL 4
REMARK VINA RESULT:    -3.631      1.765      3.648
REMARK INTER + INTRA:          -9.719
REMARK INTER:                  -7.166
REMARK INTRA:                  -2.553
REMARK UNBOUND:                -2.691
REMARK SMILES CCCCCCCCCCCCCCCCCC(=O)[O-]
REMARK SMILES IDX 10 1 11 2 12 3 13 4 14 5 15 6 16 7 17 8 18 9 19 10 20 11
REMARK SMILES IDX 9 12 8 13 7 14 6 15 5 16 4 17 3 18 2 19 1 20
REMARK H PARENT
REMARK Flexibility Score: inf
ROOT
ATOM      1  C   UNL     1      29.319  33.904   3.617  1.00  0.00     0.000 C 
ENDROOT
BRANCH   1   2
ATOM      2  C   UNL     1      28.553  32.844   2.805  1.00  0.00     0.000 C 
BRANCH   2   3
ATOM      3  C   UNL     1      27.030  32.950   2.972  1.00  0.00     0.000 C 
BRANCH   3   4
ATOM      4  C   UNL     1      26.358  33.328   1.643  1.00  0.00     0.000 C 
BRANCH   4   5
ATOM      5  C   UNL     1      25.780  34.752   1.651  1.00  0.00     0.000 C 
BRANCH   5   6
ATOM      6  C   UNL     1      25.214  35.170   0.283  1.00  0.00     0.000 C 
BRANCH   6   7
ATOM      7  C   UNL     1      25.317  34.047  -0.764  1.00  0.00     0.006 C 
BRANCH   7   8
ATOM      8  C   UNL     1      24.021  33.868  -1.566  1.00  0.00     0.053 C 
BRANCH   8   9
ATOM      9  C   UNL     1      22.995  33.151  -0.748  1.00  0.00     0.041 C 
ATOM     10  O   UNL     1      21.770  33.384  -0.921  1.00  0.00    -0.550 OA
ATOM     11  O   UNL     1      23.393  32.258   0.241  1.00  0.00    -0.550 OA
ENDBRANCH   8   9
ENDBRANCH   7   8
ENDBRANCH   6   7
ENDBRANCH   5   6
ENDBRANCH   4   5
ENDBRANCH   3   4
ENDBRANCH   2   3
ENDBRANCH   1   2
BRANCH   1  12
ATOM     12  C   UNL     1      29.064  35.365   3.190  1.00  0.00     0.000 C 
BRANCH  12  13
ATOM     13  C   UNL     1      29.847  35.829   1.946  1.00  0.00    -0.000 C 
BRANCH  13  14
ATOM     14  C   UNL     1      29.024  35.882   0.643  1.00  0.00    -0.000 C 
BRANCH  14  15
ATOM     15  C   UNL     1      29.234  34.684  -0.305  1.00  0.00    -0.000 C 
BRANCH  15  16
ATOM     16  C   UNL     1      30.705  34.287  -0.537  1.00  0.00    -0.000 C 
BRANCH  16  17
ATOM     17  C   UNL     1      31.188  33.064   0.270  1.00  0.00    -0.000 C 
BRANCH  17  18
ATOM     18  C   UNL     1      32.691  33.055   0.599  1.00  0.00    -0.000 C 
BRANCH  18  19
ATOM     19  C   UNL     1      32.993  32.482   1.991  1.00  0.00    -0.003 C 
ATOM     20  C   UNL     1      33.043  33.588   3.041  1.00  0.00     0.004 C 
ENDBRANCH  18  19
ENDBRANCH  17  18
ENDBRANCH  16  17
ENDBRANCH  15  16
ENDBRANCH  14  15
ENDBRANCH  13  14
ENDBRANCH  12  13
ENDBRANCH   1  12
TORSDOF 16
ENDMDL
MODEL 5
REMARK VINA RESULT:    -3.629      3.464      6.368
REMARK INTER + INTRA:          -9.713
REMARK INTER:                  -7.049
REMARK INTRA:                  -2.664
REMARK UNBOUND:                -2.691
REMARK SMILES CCCCCCCCCCCCCCCCCC(=O)[O-]
REMARK SMILES IDX 10 1 11 2 12 3 13 4 14 5 15 6 16 7 17 8 18 9 19 10 20 11
REMARK SMILES IDX 9 12 8 13 7 14 6 15 5 16 4 17 3 18 2 19 1 20
REMARK H PARENT
REMARK Flexibility Score: inf
ROOT
ATOM      1  C   UNL     1      30.241  35.176   2.402  1.00  0.00     0.000 C 
ENDROOT
BRANCH   1   2
ATOM      2  C   UNL     1      30.130  35.396   0.883  1.00  0.00     0.000 C 
BRANCH   2   3
ATOM      3  C   UNL     1      30.127  34.083   0.087  1.00  0.00     0.000 C 
BRANCH   3   4
ATOM      4  C   UNL     1      31.044  34.184  -1.141  1.00  0.00     0.000 C 
BRANCH   4   5
ATOM      5  C   UNL     1      32.534  34.241  -0.770  1.00  0.00     0.000 C 
BRANCH   5   6
ATOM      6  C   UNL     1      33.071  32.890  -0.266  1.00  0.00     0.000 C 
BRANCH   6   7
ATOM      7  C   UNL     1      33.615  32.972   1.170  1.00  0.00     0.006 C 
BRANCH   7   8
ATOM      8  C   UNL     1      33.928  34.412   1.601  1.00  0.00     0.053 C 
BRANCH   8   9
ATOM      9  C   UNL     1      34.436  34.437   3.007  1.00  0.00     0.041 C 
ATOM     10  O   UNL     1      33.864  33.757   3.900  1.00  0.00    -0.550 OA
ATOM     11  O   UNL     1      35.514  35.247   3.345  1.00  0.00    -0.550 OA
ENDBRANCH   8   9
ENDBRANCH   7   8
ENDBRANCH   6   7
ENDBRANCH   5   6
ENDBRANCH   4   5
ENDBRANCH   3   4
ENDBRANCH   2   3
ENDBRANCH   1   2
BRANCH   1  12
ATOM     12  C   UNL     1      30.540  33.724   2.831  1.00  0.00     0.000 C 
BRANCH  12  13
ATOM     13  C   UNL     1      29.559  33.131   3.862  1.00  0.00    -0.000 C 
BRANCH  13  14
ATOM     14  C   UNL     1      28.379  34.048   4.238  1.00  0.00    -0.000 C 
BRANCH  14  15
ATOM     15  C   UNL     1      27.001  33.569   3.738  1.00  0.00    -0.000 C 
BRANCH  15  16
ATOM     16  C   UNL     1      27.008  32.908   2.346  1.00  0.00    -0.000 C 
BRANCH  16  17
ATOM     17  C   UNL     1      26.613  33.836   1.179  1.00  0.00    -0.000 C 
BRANCH  17  18
ATOM     18  C   UNL     1      25.212  34.463   1.291  1.00  0.00    -0.000 C 
BRANCH  18  19
ATOM     19  C   UNL     1      25.240  35.998   1.246  1.00  0.00    -0.003 C 
ATOM     20  C   UNL     1      26.616  36.533   1.632  1.00  0.00     0.004 C 
ENDBRANCH  18  19
ENDBRANCH  17  18
ENDBRANCH  16  17
ENDBRANCH  15  16
ENDBRANCH  14  15
ENDBRANCH  13  14
ENDBRANCH  12  13
ENDBRANCH   1  12
TORSDOF 16
ENDMDL
MODEL 6
REMARK VINA RESULT:    -3.620      3.727      6.221
REMARK INTER + INTRA:          -9.697
REMARK INTER:                  -7.043
REMARK INTRA:                  -2.654
REMARK UNBOUND:                -2.691
REMARK SMILES CCCCCCCCCCCCCCCCCC(=O)[O-]
REMARK SMILES IDX 10 1 11 2 12 3 13 4 14 5 15 6 16 7 17 8 18 9 19 10 20 11
REMARK SMILES IDX 9 12 8 13 7 14 6 15 5 16 4 17 3 18 2 19 1 20
REMARK H PARENT
REMARK Flexibility Score: inf
ROOT
ATOM      1  C   UNL     1      28.364  33.963   4.161  1.00  0.00     0.000 C 
ENDROOT
BRANCH   1   2
ATOM      2  C   UNL     1      29.473  32.997   3.707  1.00  0.00     0.000 C 
BRANCH   2   3
ATOM      3  C   UNL     1      30.604  33.702   2.944  1.00  0.00     0.000 C 
BRANCH   3   4
ATOM      4  C   UNL     1      30.477  33.464   1.432  1.00  0.00     0.000 C 
BRANCH   4   5
ATOM      5  C   UNL     1      31.772  32.927   0.801  1.00  0.00     0.000 C 
BRANCH   5   6
ATOM      6  C   UNL     1      32.916  32.791   1.822  1.00  0.00     0.000 C 
BRANCH   6   7
ATOM      7  C   UNL     1      34.041  33.812   1.585  1.00  0.00     0.006 C 
BRANCH   7   8
ATOM      8  C   UNL     1      34.034  34.948   2.619  1.00  0.00     0.053 C 
BRANCH   8   9
ATOM      9  C   UNL     1      34.741  34.522   3.866  1.00  0.00     0.041 C 
ATOM     10  O   UNL     1      34.082  34.117   4.861  1.00  0.00    -0.550 OA
ATOM     11  O   UNL     1      36.125  34.614   3.949  1.00  0.00    -0.550 OA
ENDBRANCH   8   9
ENDBRANCH   7   8
ENDBRANCH   6   7
ENDBRANCH   5   6
ENDBRANCH   4   5
ENDBRANCH   3   4
ENDBRANCH   2   3
ENDBRANCH   1   2
BRANCH   1  12
ATOM     12  C   UNL     1      26.958  33.647   3.609  1.00  0.00     0.000 C 
BRANCH  12  13
ATOM     13  C   UNL     1      26.936  32.865   2.281  1.00  0.00    -0.000 C 
BRANCH  13  14
ATOM     14  C   UNL     1      26.175  33.557   1.133  1.00  0.00    -0.000 C 
BRANCH  14  15
ATOM     15  C   UNL     1      26.427  35.073   1.009  1.00  0.00    -0.000 C 
BRANCH  15  16
ATOM     16  C   UNL     1      27.726  35.458   0.273  1.00  0.00    -0.000 C 
BRANCH  16  17
ATOM     17  C   UNL     1      28.423  36.730   0.797  1.00  0.00    -0.000 C 
BRANCH  17  18
ATOM     18  C   UNL     1      28.080  37.108   2.249  1.00  0.00    -0.000 C 
BRANCH  18  19
ATOM     19  C   UNL     1      29.326  37.269   3.133  1.00  0.00    -0.003 C 
ATOM     20  C   UNL     1      30.598  37.287   2.291  1.00  0.00     0.004 C 
ENDBRANCH  18  19
ENDBRANCH  17  18
ENDBRANCH  16  17
ENDBRANCH  15  16
ENDBRANCH  14  15
ENDBRANCH  13  14
ENDBRANCH  12  13
ENDBRANCH   1  12
TORSDOF 16
ENDMDL
MODEL 7
REMARK VINA RESULT:    -3.602      1.456      2.937
REMARK INTER + INTRA:          -9.662
REMARK INTER:                  -6.638
REMARK INTRA:                  -3.024
REMARK UNBOUND:                -2.691
REMARK SMILES CCCCCCCCCCCCCCCCCC(=O)[O-]
REMARK SMILES IDX 10 1 11 2 12 3 13 4 14 5 15 6 16 7 17 8 18 9 19 10 20 11
REMARK SMILES IDX 9 12 8 13 7 14 6 15 5 16 4 17 3 18 2 19 1 20
REMARK H PARENT
REMARK Flexibility Score: inf
ROOT
ATOM      1  C   UNL     1      30.041  35.708   2.369  1.00  0.00     0.000 C 
ENDROOT
BRANCH   1   2
ATOM      2  C   UNL     1      28.982  35.197   3.361  1.00  0.00     0.000 C 
BRANCH   2   3
ATOM      3  C   UNL     1      29.172  33.718   3.730  1.00  0.00     0.000 C 
BRANCH   3   4
ATOM      4  C   UNL     1      28.213  32.825   2.928  1.00  0.00     0.000 C 
BRANCH   4   5
ATOM      5  C   UNL     1      26.765  33.341   2.943  1.00  0.00     0.000 C 
BRANCH   5   6
ATOM      6  C   UNL     1      26.062  33.171   1.585  1.00  0.00     0.000 C 
BRANCH   6   7
ATOM      7  C   UNL     1      26.193  34.418   0.694  1.00  0.00     0.006 C 
BRANCH   7   8
ATOM      8  C   UNL     1      25.841  35.714   1.439  1.00  0.00     0.053 C 
BRANCH   8   9
ATOM      9  C   UNL     1      24.457  36.158   1.087  1.00  0.00     0.041 C 
ATOM     10  O   UNL     1      23.720  35.429   0.372  1.00  0.00    -0.550 OA
ATOM     11  O   UNL     1      23.995  37.399   1.509  1.00  0.00    -0.550 OA
ENDBRANCH   8   9
ENDBRANCH   7   8
ENDBRANCH   6   7
ENDBRANCH   5   6
ENDBRANCH   4   5
ENDBRANCH   3   4
ENDBRANCH   2   3
ENDBRANCH   1   2
BRANCH   1  12
ATOM     12  C   UNL     1      29.659  35.576   0.879  1.00  0.00     0.000 C 
BRANCH  12  13
ATOM     13  C   UNL     1      30.678  34.815   0.008  1.00  0.00    -0.000 C 
BRANCH  13  14
ATOM     14  C   UNL     1      30.898  33.341   0.404  1.00  0.00    -0.000 C 
BRANCH  14  15
ATOM     15  C   UNL     1      32.324  33.006   0.886  1.00  0.00    -0.000 C 
BRANCH  15  16
ATOM     16  C   UNL     1      32.427  32.573   2.361  1.00  0.00    -0.000 C 
BRANCH  16  17
ATOM     17  C   UNL     1      33.040  33.624   3.310  1.00  0.00    -0.000 C 
BRANCH  17  18
ATOM     18  C   UNL     1      34.086  34.551   2.666  1.00  0.00    -0.000 C 
BRANCH  18  19
ATOM     19  C   UNL     1      33.707  36.036   2.763  1.00  0.00    -0.003 C 
ATOM     20  C   UNL     1      33.574  36.660   1.378  1.00  0.00     0.004 C 
ENDBRANCH  18  19
ENDBRANCH  17  18
ENDBRANCH  16  17
ENDBRANCH  15  16
ENDBRANCH  14  15
ENDBRANCH  13  14
ENDBRANCH  12  13
ENDBRANCH   1  12
TORSDOF 16
ENDMDL
MODEL 8
REMARK VINA RESULT:    -3.599      1.274      3.144
REMARK INTER + INTRA:          -9.656
REMARK INTER:                  -6.832
REMARK INTRA:                  -2.823
REMARK UNBOUND:                -2.691
REMARK SMILES CCCCCCCCCCCCCCCCCC(=O)[O-]
REMARK SMILES IDX 10 1 11 2 12 3 13 4 14 5 15 6 16 7 17 8 18 9 19 10 20 11
REMARK SMILES IDX 9 12 8 13 7 14 6 15 5 16 4 17 3 18 2 19 1 20
REMARK H PARENT
REMARK Flexibility Score: inf
ROOT
ATOM      1  C   UNL     1      29.747  33.956   2.932  1.00  0.00     0.000 C 
ENDROOT
BRANCH   1   2
ATOM      2  C   UNL     1      28.835  33.675   4.139  1.00  0.00     0.000 C 
BRANCH   2   3
ATOM      3  C   UNL     1      27.351  33.576   3.758  1.00  0.00     0.000 C 
BRANCH   3   4
ATOM      4  C   UNL     1      27.177  32.853   2.414  1.00  0.00     0.000 C 
BRANCH   4   5
ATOM      5  C   UNL     1      25.972  33.367   1.611  1.00  0.00     0.000 C 
BRANCH   5   6
ATOM      6  C   UNL     1      25.857  34.902   1.632  1.00  0.00     0.000 C 
BRANCH   6   7
ATOM      7  C   UNL     1      26.471  35.554   0.382  1.00  0.00     0.006 C 
BRANCH   7   8
ATOM      8  C   UNL     1      26.326  34.680  -0.872  1.00  0.00     0.053 C 
BRANCH   8   9
ATOM      9  C   UNL     1      24.991  34.899  -1.509  1.00  0.00     0.041 C 
ATOM     10  O   UNL     1      24.255  33.917  -1.794  1.00  0.00    -0.550 OA
ATOM     11  O   UNL     1      24.575  36.186  -1.830  1.00  0.00    -0.550 OA
ENDBRANCH   8   9
ENDBRANCH   7   8
ENDBRANCH   6   7
ENDBRANCH   5   6
ENDBRANCH   4   5
ENDBRANCH   3   4
ENDBRANCH   2   3
ENDBRANCH   1   2
BRANCH   1  12
ATOM     12  C   UNL     1      29.844  35.439   2.518  1.00  0.00     0.000 C 
BRANCH  12  13
ATOM     13  C   UNL     1      30.148  35.684   1.026  1.00  0.00    -0.000 C 
BRANCH  13  14
ATOM     14  C   UNL     1      29.936  34.462   0.111  1.00  0.00    -0.000 C 
BRANCH  14  15
ATOM     15  C   UNL     1      31.161  34.067  -0.737  1.00  0.00    -0.000 C 
BRANCH  15  16
ATOM     16  C   UNL     1      31.928  32.828  -0.234  1.00  0.00    -0.000 C 
BRANCH  16  17
ATOM     17  C   UNL     1      33.160  33.133   0.643  1.00  0.00    -0.000 C 
BRANCH  17  18
ATOM     18  C   UNL     1      33.110  32.542   2.063  1.00  0.00    -0.000 C 
BRANCH  18  19
ATOM     19  C   UNL     1      33.444  33.574   3.150  1.00  0.00    -0.003 C 
ATOM     20  C   UNL     1      33.527  34.980   2.565  1.00  0.00     0.004 C 
ENDBRANCH  18  19
ENDBRANCH  17  18
ENDBRANCH  16  17
ENDBRANCH  15  16
ENDBRANCH  14  15
ENDBRANCH  13  14
ENDBRANCH  12  13
ENDBRANCH   1  12
TORSDOF 16
ENDMDL
MODEL 9
REMARK VINA RESULT:    -3.588      2.790      5.664
REMARK INTER + INTRA:          -9.635
REMARK INTER:                  -7.411
REMARK INTRA:                  -2.225
REMARK UNBOUND:                -2.691
REMARK SMILES CCCCCCCCCCCCCCCCCC(=O)[O-]
REMARK SMILES IDX 10 1 11 2 12 3 13 4 14 5 15 6 16 7 17 8 18 9 19 10 20 11
REMARK SMILES IDX 9 12 8 13 7 14 6 15 5 16 4 17 3 18 2 19 1 20
REMARK H PARENT
REMARK Flexibility Score: inf
ROOT
ATOM      1  C   UNL     1      27.112  33.651   3.724  1.00  0.00     0.000 C 
ENDROOT
BRANCH   1   2
ATOM      2  C   UNL     1      28.551  33.912   4.204  1.00  0.00     0.000 C 
BRANCH   2   3
ATOM      3  C   UNL     1      29.612  33.340   3.253  1.00  0.00     0.000 C 
BRANCH   3   4
ATOM      4  C   UNL     1      30.878  32.937   4.022  1.00  0.00     0.000 C 
BRANCH   4   5
ATOM      5  C   UNL     1      32.171  33.371   3.312  1.00  0.00     0.000 C 
BRANCH   5   6
ATOM      6  C   UNL     1      32.502  32.491   2.094  1.00  0.00     0.000 C 
BRANCH   6   7
ATOM      7  C   UNL     1      33.523  33.152   1.151  1.00  0.00     0.006 C 
BRANCH   7   8
ATOM      8  C   UNL     1      32.866  33.753  -0.100  1.00  0.00     0.053 C 
BRANCH   8   9
ATOM      9  C   UNL     1      32.779  32.730  -1.186  1.00  0.00     0.041 C 
ATOM     10  O   UNL     1      33.806  32.413  -1.842  1.00  0.00    -0.550 OA
ATOM     11  O   UNL     1      31.554  32.157  -1.507  1.00  0.00    -0.550 OA
ENDBRANCH   8   9
ENDBRANCH   7   8
ENDBRANCH   6   7
ENDBRANCH   5   6
ENDBRANCH   4   5
ENDBRANCH   3   4
ENDBRANCH   2   3
ENDBRANCH   1   2
BRANCH   1  12
ATOM     12  C   UNL     1      26.997  32.864   2.402  1.00  0.00     0.000 C 
BRANCH  12  13
ATOM     13  C   UNL     1      26.318  33.624   1.245  1.00  0.00    -0.000 C 
BRANCH  13  14
ATOM     14  C   UNL     1      25.597  34.923   1.656  1.00  0.00    -0.000 C 
BRANCH  14  15
ATOM     15  C   UNL     1      26.221  36.216   1.093  1.00  0.00    -0.000 C 
BRANCH  15  16
ATOM     16  C   UNL     1      27.746  36.338   1.280  1.00  0.00    -0.000 C 
BRANCH  16  17
ATOM     17  C   UNL     1      28.194  37.312   2.390  1.00  0.00    -0.000 C 
BRANCH  17  18
ATOM     18  C   UNL     1      29.623  37.088   2.914  1.00  0.00    -0.000 C 
BRANCH  18  19
ATOM     19  C   UNL     1      30.539  36.417   1.880  1.00  0.00    -0.003 C 
ATOM     20  C   UNL     1      31.352  37.454   1.112  1.00  0.00     0.004 C 
ENDBRANCH  18  19
ENDBRANCH  17  18
ENDBRANCH  16  17
ENDBRANCH  15  16
ENDBRANCH  14  15
ENDBRANCH  13  14
ENDBRANCH  12  13
ENDBRANCH   1  12
TORSDOF 16
ENDMDL
