MODEL 1
REMARK VINA RESULT:    -5.253      0.000      0.000
REMARK INTER + INTRA:         -11.673
REMARK INTER:                  -9.859
REMARK INTRA:                  -1.814
REMARK UNBOUND:                -1.814
REMARK SMILES O=C([O-])CCCCCCCCCCCCCCC(=O)[O-]
REMARK SMILES IDX 10 1 9 2 8 3 7 4 6 5 5 6 4 7 2 8 1 9 3 10 11 11 12 12 13 13
REMARK SMILES IDX 14 14 15 15 16 16 17 17 18 18 19 19 20 20
REMARK H PARENT
REMARK Flexibility Score: inf
ROOT
ATOM      1  C   UNL     1      18.999  20.371  34.374  1.00  0.00     0.000 C 
ENDROOT
BRANCH   1   2
ATOM      2  C   UNL     1      19.851  20.194  35.643  1.00  0.00     0.000 C 
BRANCH   2   3
ATOM      3  C   UNL     1      20.194  18.737  36.005  1.00  0.00     0.000 C 
BRANCH   3   4
ATOM      4  C   UNL     1      18.961  17.919  36.429  1.00  0.00     0.000 C 
BRANCH   4   5
ATOM      5  C   UNL     1      18.812  16.617  35.627  1.00  0.00     0.000 C 
BRANCH   5   6
ATOM      6  C   UNL     1      17.390  16.040  35.689  1.00  0.00     0.006 C 
BRANCH   6   7
ATOM      7  C   UNL     1      16.469  16.940  36.517  1.00  0.00     0.053 C 
BRANCH   7   8
ATOM      8  C   UNL     1      15.450  16.122  37.245  1.00  0.00     0.041 C 
ATOM      9  O   UNL     1      14.376  16.650  37.639  1.00  0.00    -0.550 OA
ATOM     10  O   UNL     1      15.708  14.788  37.534  1.00  0.00    -0.550 OA
ENDBRANCH   7   8
ENDBRANCH   6   7
ENDBRANCH   5   6
ENDBRANCH   4   5
ENDBRANCH   3   4
ENDBRANCH   2   3
ENDBRANCH   1   2
BRANCH   1  11
ATOM     11  C   UNL     1      19.474  19.496  33.204  1.00  0.00     0.000 C 
BRANCH  11  12
ATOM     12  C   UNL     1      18.280  18.851  32.483  1.00  0.00     0.000 C 
BRANCH  12  13
ATOM     13  C   UNL     1      16.980  18.925  33.301  1.00  0.00     0.000 C 
BRANCH  13  14
ATOM     14  C   UNL     1      15.862  18.048  32.712  1.00  0.00     0.000 C 
BRANCH  14  15
ATOM     15  C   UNL     1      14.700  18.876  32.139  1.00  0.00     0.000 C 
BRANCH  15  16
ATOM     16  C   UNL     1      14.112  18.265  30.855  1.00  0.00     0.006 C 
BRANCH  16  17
ATOM     17  C   UNL     1      12.944  17.315  31.151  1.00  0.00     0.053 C 
BRANCH  17  18
ATOM     18  C   UNL     1      13.407  15.902  31.329  1.00  0.00     0.041 C 
ATOM     19  O   UNL     1      13.495  15.402  32.482  1.00  0.00    -0.550 OA
ATOM     20  O   UNL     1      13.772  15.145  30.222  1.00  0.00    -0.550 OA
ENDBRANCH  17  18
ENDBRANCH  16  17
ENDBRANCH  15  16
ENDBRANCH  14  15
ENDBRANCH  13  14
ENDBRANCH  12  13
ENDBRANCH  11  12
ENDBRANCH   1  11
TORSDOF 15
ENDMDL
MODEL 2
REMARK VINA RESULT:    -5.096      1.314      2.204
REMARK INTER + INTRA:         -11.379
REMARK INTER:                  -9.306
REMARK INTRA:                  -2.073
REMARK UNBOUND:                -1.814
REMARK SMILES O=C([O-])CCCCCCCCCCCCCCC(=O)[O-]
REMARK SMILES IDX 10 1 9 2 8 3 7 4 6 5 5 6 4 7 2 8 1 9 3 10 11 11 12 12 13 13
REMARK SMILES IDX 14 14 15 15 16 16 17 17 18 18 19 19 20 20
REMARK H PARENT
REMARK Flexibility Score: inf
ROOT
ATOM      1  C   UNL     1      20.622  19.476  35.462  1.00  0.00     0.000 C 
ENDROOT
BRANCH   1   2
ATOM      2  C   UNL     1      20.961  18.525  36.623  1.00  0.00     0.000 C 
BRANCH   2   3
ATOM      3  C   UNL     1      20.770  17.027  36.321  1.00  0.00     0.000 C 
BRANCH   3   4
ATOM      4  C   UNL     1      20.301  16.762  34.880  1.00  0.00     0.000 C 
BRANCH   4   5
ATOM      5  C   UNL     1      18.915  16.100  34.822  1.00  0.00     0.000 C 
BRANCH   5   6
ATOM      6  C   UNL     1      18.098  16.318  36.105  1.00  0.00     0.006 C 
BRANCH   6   7
ATOM      7  C   UNL     1      16.596  16.230  35.819  1.00  0.00     0.053 C 
BRANCH   7   8
ATOM      8  C   UNL     1      15.812  16.818  36.949  1.00  0.00     0.041 C 
ATOM      9  O   UNL     1      16.286  17.773  37.620  1.00  0.00    -0.550 OA
ATOM     10  O   UNL     1      14.580  16.278  37.295  1.00  0.00    -0.550 OA
ENDBRANCH   7   8
ENDBRANCH   6   7
ENDBRANCH   5   6
ENDBRANCH   4   5
ENDBRANCH   3   4
ENDBRANCH   2   3
ENDBRANCH   1   2
BRANCH   1  11
ATOM     11  C   UNL     1      19.299  20.228  35.667  1.00  0.00     0.000 C 
BRANCH  11  12
ATOM     12  C   UNL     1      18.358  20.018  34.470  1.00  0.00     0.000 C 
BRANCH  12  13
ATOM     13  C   UNL     1      19.113  19.714  33.166  1.00  0.00     0.000 C 
BRANCH  13  14
ATOM     14  C   UNL     1      18.324  18.781  32.231  1.00  0.00     0.000 C 
BRANCH  14  15
ATOM     15  C   UNL     1      16.914  18.469  32.758  1.00  0.00     0.000 C 
BRANCH  15  16
ATOM     16  C   UNL     1      15.886  18.280  31.628  1.00  0.00     0.006 C 
BRANCH  16  17
ATOM     17  C   UNL     1      14.504  18.827  32.009  1.00  0.00     0.053 C 
BRANCH  17  18
ATOM     18  C   UNL     1      13.400  18.071  31.335  1.00  0.00     0.041 C 
ATOM     19  O   UNL     1      13.539  17.666  30.151  1.00  0.00    -0.550 OA
ATOM     20  O   UNL     1      12.205  17.840  32.006  1.00  0.00    -0.550 OA
ENDBRANCH  17  18
ENDBRANCH  16  17
ENDBRANCH  15  16
ENDBRANCH  14  15
ENDBRANCH  13  14
ENDBRANCH  12  13
ENDBRANCH  11  12
ENDBRANCH   1  11
TORSDOF 15
ENDMDL
MODEL 3
REMARK VINA RESULT:    -5.082      0.920      5.429
REMARK INTER + INTRA:         -11.352
REMARK INTER:                  -9.629
REMARK INTRA:                  -1.722
REMARK UNBOUND:                -1.814
REMARK SMILES O=C([O-])CCCCCCCCCCCCCCC(=O)[O-]
REMARK SMILES IDX 10 1 9 2 8 3 7 4 6 5 5 6 4 7 2 8 1 9 3 10 11 11 12 12 13 13
REMARK SMILES IDX 14 14 15 15 16 16 17 17 18 18 19 19 20 20
REMARK H PARENT
REMARK Flexibility Score: inf
ROOT
ATOM      1  C   UNL     1      17.997  19.894  34.134  1.00  0.00     0.000 C 
ENDROOT
BRANCH   1   2
ATOM      2  C   UNL     1      18.391  19.201  32.818  1.00  0.00     0.000 C 
BRANCH   2   3
ATOM      3  C   UNL     1      17.703  17.848  32.559  1.00  0.00     0.000 C 
BRANCH   3   4
ATOM      4  C   UNL     1      16.187  17.887  32.819  1.00  0.00     0.000 C 
BRANCH   4   5
ATOM      5  C   UNL     1      15.364  17.861  31.522  1.00  0.00     0.000 C 
BRANCH   5   6
ATOM      6  C   UNL     1      13.913  18.324  31.728  1.00  0.00     0.006 C 
BRANCH   6   7
ATOM      7  C   UNL     1      12.925  17.273  31.216  1.00  0.00     0.053 C 
BRANCH   7   8
ATOM      8  C   UNL     1      13.479  15.896  31.404  1.00  0.00     0.041 C 
ATOM      9  O   UNL     1      13.504  15.375  32.551  1.00  0.00    -0.550 OA
ATOM     10  O   UNL     1      14.015  15.208  30.323  1.00  0.00    -0.550 OA
ENDBRANCH   7   8
ENDBRANCH   6   7
ENDBRANCH   5   6
ENDBRANCH   4   5
ENDBRANCH   3   4
ENDBRANCH   2   3
ENDBRANCH   1   2
BRANCH   1  11
ATOM     11  C   UNL     1      19.206  20.247  35.014  1.00  0.00     0.000 C 
BRANCH  11  12
ATOM     12  C   UNL     1      20.471  19.530  34.518  1.00  0.00     0.000 C 
BRANCH  12  13
ATOM     13  C   UNL     1      21.064  18.575  35.567  1.00  0.00     0.000 C 
BRANCH  13  14
ATOM     14  C   UNL     1      19.983  17.770  36.309  1.00  0.00     0.000 C 
BRANCH  14  15
ATOM     15  C   UNL     1      19.492  16.556  35.503  1.00  0.00     0.000 C 
BRANCH  15  16
ATOM     16  C   UNL     1      18.144  16.013  36.010  1.00  0.00     0.006 C 
BRANCH  16  17
ATOM     17  C   UNL     1      17.178  17.139  36.401  1.00  0.00     0.053 C 
BRANCH  17  18
ATOM     18  C   UNL     1      15.888  16.603  36.942  1.00  0.00     0.041 C 
ATOM     19  O   UNL     1      15.488  16.946  38.086  1.00  0.00    -0.550 OA
ATOM     20  O   UNL     1      15.142  15.700  36.194  1.00  0.00    -0.550 OA
ENDBRANCH  17  18
ENDBRANCH  16  17
ENDBRANCH  15  16
ENDBRANCH  14  15
ENDBRANCH  13  14
ENDBRANCH  12  13
ENDBRANCH  11  12
ENDBRANCH   1  11
TORSDOF 15
ENDMDL
MODEL 4
REMARK VINA RESULT:    -5.042      1.328      2.065
REMARK INTER + INTRA:         -11.277
REMARK INTER:                  -9.098
REMARK INTRA:                  -2.179
REMARK UNBOUND:                -1.814
REMARK SMILES O=C([O-])CCCCCCCCCCCCCCC(=O)[O-]
REMARK SMILES IDX 10 1 9 2 8 3 7 4 6 5 5 6 4 7 2 8 1 9 3 10 11 11 12 12 13 13
REMARK SMILES IDX 14 14 15 15 16 16 17 17 18 18 19 19 20 20
REMARK H PARENT
REMARK Flexibility Score: inf
ROOT
ATOM      1  C   UNL     1      20.002  18.308  33.451  1.00  0.00     0.000 C 
ENDROOT
BRANCH   1   2
ATOM      2  C   UNL     1      19.260  19.641  33.248  1.00  0.00     0.000 C 
BRANCH   2   3
ATOM      3  C   UNL     1      18.606  20.227  34.514  1.00  0.00     0.000 C 
BRANCH   3   4
ATOM      4  C   UNL     1      19.494  20.094  35.763  1.00  0.00     0.000 C 
BRANCH   4   5
ATOM      5  C   UNL     1      18.910  19.125  36.803  1.00  0.00     0.000 C 
BRANCH   5   6
ATOM      6  C   UNL     1      17.490  18.656  36.448  1.00  0.00     0.006 C 
BRANCH   6   7
ATOM      7  C   UNL     1      17.421  17.129  36.370  1.00  0.00     0.053 C 
BRANCH   7   8
ATOM      8  C   UNL     1      16.119  16.634  36.916  1.00  0.00     0.041 C 
ATOM      9  O   UNL     1      15.474  15.741  36.305  1.00  0.00    -0.550 OA
ATOM     10  O   UNL     1      15.592  17.195  38.072  1.00  0.00    -0.550 OA
ENDBRANCH   7   8
ENDBRANCH   6   7
ENDBRANCH   5   6
ENDBRANCH   4   5
ENDBRANCH   3   4
ENDBRANCH   2   3
ENDBRANCH   1   2
BRANCH   1  11
ATOM     11  C   UNL     1      19.599  17.235  32.428  1.00  0.00     0.000 C 
BRANCH  11  12
ATOM     12  C   UNL     1      18.144  17.428  31.976  1.00  0.00     0.000 C 
BRANCH  12  13
ATOM     13  C   UNL     1      17.168  16.476  32.687  1.00  0.00     0.000 C 
BRANCH  13  14
ATOM     14  C   UNL     1      15.842  17.160  33.059  1.00  0.00     0.000 C 
BRANCH  14  15
ATOM     15  C   UNL     1      15.806  18.642  32.653  1.00  0.00     0.000 C 
BRANCH  15  16
ATOM     16  C   UNL     1      14.585  18.992  31.784  1.00  0.00     0.006 C 
BRANCH  16  17
ATOM     17  C   UNL     1      14.259  17.883  30.774  1.00  0.00     0.053 C 
BRANCH  17  18
ATOM     18  C   UNL     1      12.896  17.306  31.000  1.00  0.00     0.041 C 
ATOM     19  O   UNL     1      12.172  17.734  31.938  1.00  0.00    -0.550 OA
ATOM     20  O   UNL     1      12.436  16.272  30.194  1.00  0.00    -0.550 OA
ENDBRANCH  17  18
ENDBRANCH  16  17
ENDBRANCH  15  16
ENDBRANCH  14  15
ENDBRANCH  13  14
ENDBRANCH  12  13
ENDBRANCH  11  12
ENDBRANCH   1  11
TORSDOF 15
ENDMDL
MODEL 5
REMARK VINA RESULT:    -4.983      1.480      5.499
REMARK INTER + INTRA:         -11.166
REMARK INTER:                  -9.318
REMARK INTRA:                  -1.848
REMARK UNBOUND:                -1.814
REMARK SMILES O=C([O-])CCCCCCCCCCCCCCC(=O)[O-]
REMARK SMILES IDX 10 1 9 2 8 3 7 4 6 5 5 6 4 7 2 8 1 9 3 10 11 11 12 12 13 13
REMARK SMILES IDX 14 14 15 15 16 16 17 17 18 18 19 19 20 20
REMARK H PARENT
REMARK Flexibility Score: inf
ROOT
ATOM      1  C   UNL     1      18.854  20.230  33.500  1.00  0.00     0.000 C 
ENDROOT
BRANCH   1   2
ATOM      2  C   UNL     1      17.567  19.394  33.615  1.00  0.00     0.000 C 
BRANCH   2   3
ATOM      3  C   UNL     1      17.512  18.147  32.712  1.00  0.00     0.000 C 
BRANCH   3   4
ATOM      4  C   UNL     1      18.091  18.398  31.309  1.00  0.00     0.000 C 
BRANCH   4   5
ATOM      5  C   UNL     1      17.000  18.652  30.257  1.00  0.00     0.000 C 
BRANCH   5   6
ATOM      6  C   UNL     1      15.831  17.661  30.360  1.00  0.00     0.006 C 
BRANCH   6   7
ATOM      7  C   UNL     1      14.486  18.390  30.282  1.00  0.00     0.053 C 
BRANCH   7   8
ATOM      8  C   UNL     1      13.739  18.252  31.570  1.00  0.00     0.041 C 
ATOM      9  O   UNL     1      14.048  18.965  32.562  1.00  0.00    -0.550 OA
ATOM     10  O   UNL     1      12.734  17.300  31.692  1.00  0.00    -0.550 OA
ENDBRANCH   7   8
ENDBRANCH   6   7
ENDBRANCH   5   6
ENDBRANCH   4   5
ENDBRANCH   3   4
ENDBRANCH   2   3
ENDBRANCH   1   2
BRANCH   1  11
ATOM     11  C   UNL     1      19.992  19.706  34.388  1.00  0.00     0.000 C 
BRANCH  11  12
ATOM     12  C   UNL     1      19.694  19.969  35.872  1.00  0.00     0.000 C 
BRANCH  12  13
ATOM     13  C   UNL     1      19.620  18.677  36.702  1.00  0.00     0.000 C 
BRANCH  13  14
ATOM     14  C   UNL     1      20.178  17.458  35.947  1.00  0.00     0.000 C 
BRANCH  14  15
ATOM     15  C   UNL     1      19.089  16.430  35.598  1.00  0.00     0.000 C 
BRANCH  15  16
ATOM     16  C   UNL     1      17.717  16.792  36.192  1.00  0.00     0.006 C 
BRANCH  16  17
ATOM     17  C   UNL     1      16.981  15.561  36.737  1.00  0.00     0.053 C 
BRANCH  17  18
ATOM     18  C   UNL     1      15.592  15.896  37.186  1.00  0.00     0.041 C 
ATOM     19  O   UNL     1      15.406  16.744  38.099  1.00  0.00    -0.550 OA
ATOM     20  O   UNL     1      14.503  15.247  36.618  1.00  0.00    -0.550 OA
ENDBRANCH  17  18
ENDBRANCH  16  17
ENDBRANCH  15  16
ENDBRANCH  14  15
ENDBRANCH  13  14
ENDBRANCH  12  13
ENDBRANCH  11  12
ENDBRANCH   1  11
TORSDOF 15
ENDMDL
MODEL 6
REMARK VINA RESULT:    -4.973      1.154      5.091
REMARK INTER + INTRA:         -11.148
REMARK INTER:                  -8.983
REMARK INTRA:                  -2.165
REMARK UNBOUND:                -1.814
REMARK SMILES O=C([O-])CCCCCCCCCCCCCCC(=O)[O-]
REMARK SMILES IDX 10 1 9 2 8 3 7 4 6 5 5 6 4 7 2 8 1 9 3 10 11 11 12 12 13 13
REMARK SMILES IDX 14 14 15 15 16 16 17 17 18 18 19 19 20 20
REMARK H PARENT
REMARK Flexibility Score: inf
ROOT
ATOM      1  C   UNL     1      18.870  19.742  35.797  1.00  0.00     0.000 C 
ENDROOT
BRANCH   1   2
ATOM      2  C   UNL     1      17.932  19.873  34.584  1.00  0.00     0.000 C 
BRANCH   2   3
ATOM      3  C   UNL     1      18.626  19.822  33.210  1.00  0.00     0.000 C 
BRANCH   3   4
ATOM      4  C   UNL     1      18.052  18.731  32.289  1.00  0.00     0.000 C 
BRANCH   4   5
ATOM      5  C   UNL     1      16.630  18.309  32.688  1.00  0.00     0.000 C 
BRANCH   5   6
ATOM      6  C   UNL     1      15.644  18.350  31.510  1.00  0.00     0.006 C 
BRANCH   6   7
ATOM      7  C   UNL     1      15.248  16.934  31.079  1.00  0.00     0.053 C 
BRANCH   7   8
ATOM      8  C   UNL     1      14.031  16.482  31.822  1.00  0.00     0.041 C 
ATOM      9  O   UNL     1      12.977  17.172  31.792  1.00  0.00    -0.550 OA
ATOM     10  O   UNL     1      14.075  15.325  32.590  1.00  0.00    -0.550 OA
ENDBRANCH   7   8
ENDBRANCH   6   7
ENDBRANCH   5   6
ENDBRANCH   4   5
ENDBRANCH   3   4
ENDBRANCH   2   3
ENDBRANCH   1   2
BRANCH   1  11
ATOM     11  C   UNL     1      20.357  19.811  35.417  1.00  0.00     0.000 C 
BRANCH  11  12
ATOM     12  C   UNL     1      21.125  18.609  35.988  1.00  0.00     0.000 C 
BRANCH  12  13
ATOM     13  C   UNL     1      20.238  17.366  36.165  1.00  0.00     0.000 C 
BRANCH  13  14
ATOM     14  C   UNL     1      20.104  16.548  34.868  1.00  0.00     0.000 C 
BRANCH  14  15
ATOM     15  C   UNL     1      18.703  15.940  34.695  1.00  0.00     0.000 C 
BRANCH  15  16
ATOM     16  C   UNL     1      17.912  15.882  36.014  1.00  0.00     0.006 C 
BRANCH  16  17
ATOM     17  C   UNL     1      16.619  16.706  35.948  1.00  0.00     0.053 C 
BRANCH  17  18
ATOM     18  C   UNL     1      15.608  16.237  36.949  1.00  0.00     0.041 C 
ATOM     19  O   UNL     1      14.828  15.288  36.668  1.00  0.00    -0.550 OA
ATOM     20  O   UNL     1      15.506  16.869  38.182  1.00  0.00    -0.550 OA
ENDBRANCH  17  18
ENDBRANCH  16  17
ENDBRANCH  15  16
ENDBRANCH  14  15
ENDBRANCH  13  14
ENDBRANCH  12  13
ENDBRANCH  11  12
ENDBRANCH   1  11
TORSDOF 15
ENDMDL
MODEL 7
REMARK VINA RESULT:    -4.877      2.263      5.993
REMARK INTER + INTRA:         -10.968
REMARK INTER:                  -9.233
REMARK INTRA:                  -1.735
REMARK UNBOUND:                -1.814
REMARK SMILES O=C([O-])CCCCCCCCCCCCCCC(=O)[O-]
REMARK SMILES IDX 10 1 9 2 8 3 7 4 6 5 5 6 4 7 2 8 1 9 3 10 11 11 12 12 13 13
REMARK SMILES IDX 14 14 15 15 16 16 17 17 18 18 19 19 20 20
REMARK H PARENT
REMARK Flexibility Score: inf
ROOT
ATOM      1  C   UNL     1      18.741  20.260  34.388  1.00  0.00     0.000 C 
ENDROOT
BRANCH   1   2
ATOM      2  C   UNL     1      19.113  19.409  33.161  1.00  0.00     0.000 C 
BRANCH   2   3
ATOM      3  C   UNL     1      18.017  18.442  32.677  1.00  0.00     0.000 C 
BRANCH   3   4
ATOM      4  C   UNL     1      16.614  18.825  33.182  1.00  0.00     0.000 C 
BRANCH   4   5
ATOM      5  C   UNL     1      15.501  18.400  32.212  1.00  0.00     0.000 C 
BRANCH   5   6
ATOM      6  C   UNL     1      16.045  17.758  30.926  1.00  0.00     0.006 C 
BRANCH   6   7
ATOM      7  C   UNL     1      15.887  18.704  29.732  1.00  0.00     0.053 C 
BRANCH   7   8
ATOM      8  C   UNL     1      17.206  18.931  29.065  1.00  0.00     0.041 C 
ATOM      9  O   UNL     1      18.177  18.164  29.302  1.00  0.00    -0.550 OA
ATOM     10  O   UNL     1      17.379  20.019  28.219  1.00  0.00    -0.550 OA
ENDBRANCH   7   8
ENDBRANCH   6   7
ENDBRANCH   5   6
ENDBRANCH   4   5
ENDBRANCH   3   4
ENDBRANCH   2   3
ENDBRANCH   1   2
BRANCH   1  11
ATOM     11  C   UNL     1      19.770  20.159  35.524  1.00  0.00     0.000 C 
BRANCH  11  12
ATOM     12  C   UNL     1      20.719  18.972  35.299  1.00  0.00     0.000 C 
BRANCH  12  13
ATOM     13  C   UNL     1      20.444  17.800  36.256  1.00  0.00     0.000 C 
BRANCH  13  14
ATOM     14  C   UNL     1      19.430  16.795  35.683  1.00  0.00     0.000 C 
BRANCH  14  15
ATOM     15  C   UNL     1      18.031  16.950  36.300  1.00  0.00     0.000 C 
BRANCH  15  16
ATOM     16  C   UNL     1      17.028  15.911  35.766  1.00  0.00     0.006 C 
BRANCH  16  17
ATOM     17  C   UNL     1      16.365  15.115  36.898  1.00  0.00     0.053 C 
BRANCH  17  18
ATOM     18  C   UNL     1      14.903  15.416  37.009  1.00  0.00     0.041 C 
ATOM     19  O   UNL     1      14.054  14.658  36.469  1.00  0.00    -0.550 OA
ATOM     20  O   UNL     1      14.477  16.555  37.683  1.00  0.00    -0.550 OA
ENDBRANCH  17  18
ENDBRANCH  16  17
ENDBRANCH  15  16
ENDBRANCH  14  15
ENDBRANCH  13  14
ENDBRANCH  12  13
ENDBRANCH  11  12
ENDBRANCH   1  11
TORSDOF 15
ENDMDL
MODEL 8
REMARK VINA RESULT:    -4.828      2.608      5.270
REMARK INTER + INTRA:         -10.875
REMARK INTER:                  -8.978
REMARK INTRA:                  -1.897
REMARK UNBOUND:                -1.814
REMARK SMILES O=C([O-])CCCCCCCCCCCCCCC(=O)[O-]
REMARK SMILES IDX 10 1 9 2 8 3 7 4 6 5 5 6 4 7 2 8 1 9 3 10 11 11 12 12 13 13
REMARK SMILES IDX 14 14 15 15 16 16 17 17 18 18 19 19 20 20
REMARK H PARENT
REMARK Flexibility Score: inf
ROOT
ATOM      1  C   UNL     1      16.497  17.384  32.437  1.00  0.00     0.000 C 
ENDROOT
BRANCH   1   2
ATOM      2  C   UNL     1      17.389  18.638  32.430  1.00  0.00     0.000 C 
BRANCH   2   3
ATOM      3  C   UNL     1      17.775  19.176  33.821  1.00  0.00     0.000 C 
BRANCH   3   4
ATOM      4  C   UNL     1      19.123  19.919  33.823  1.00  0.00     0.000 C 
BRANCH   4   5
ATOM      5  C   UNL     1      20.258  19.081  34.431  1.00  0.00     0.000 C 
BRANCH   5   6
ATOM      6  C   UNL     1      20.977  19.800  35.583  1.00  0.00     0.006 C 
BRANCH   6   7
ATOM      7  C   UNL     1      20.610  19.175  36.932  1.00  0.00     0.053 C 
BRANCH   7   8
ATOM      8  C   UNL     1      20.039  20.208  37.851  1.00  0.00     0.041 C 
ATOM      9  O   UNL     1      18.808  20.205  38.122  1.00  0.00    -0.550 OA
ATOM     10  O   UNL     1      20.855  21.205  38.370  1.00  0.00    -0.550 OA
ENDBRANCH   7   8
ENDBRANCH   6   7
ENDBRANCH   5   6
ENDBRANCH   4   5
ENDBRANCH   3   4
ENDBRANCH   2   3
ENDBRANCH   1   2
BRANCH   1  11
ATOM     11  C   UNL     1      17.202  16.142  31.873  1.00  0.00     0.000 C 
BRANCH  11  12
ATOM     12  C   UNL     1      18.693  16.142  32.245  1.00  0.00     0.000 C 
BRANCH  12  13
ATOM     13  C   UNL     1      19.034  15.114  33.336  1.00  0.00     0.000 C 
BRANCH  13  14
ATOM     14  C   UNL     1      19.457  15.775  34.659  1.00  0.00     0.000 C 
BRANCH  14  15
ATOM     15  C   UNL     1      18.497  15.452  35.815  1.00  0.00     0.000 C 
BRANCH  15  16
ATOM     16  C   UNL     1      17.069  15.966  35.563  1.00  0.00     0.006 C 
BRANCH  16  17
ATOM     17  C   UNL     1      16.482  16.665  36.797  1.00  0.00     0.053 C 
BRANCH  17  18
ATOM     18  C   UNL     1      15.125  16.134  37.145  1.00  0.00     0.041 C 
ATOM     19  O   UNL     1      14.368  16.781  37.917  1.00  0.00    -0.550 OA
ATOM     20  O   UNL     1      14.709  14.908  36.643  1.00  0.00    -0.550 OA
ENDBRANCH  17  18
ENDBRANCH  16  17
ENDBRANCH  15  16
ENDBRANCH  14  15
ENDBRANCH  13  14
ENDBRANCH  12  13
ENDBRANCH  11  12
ENDBRANCH   1  11
TORSDOF 15
ENDMDL
MODEL 9
REMARK VINA RESULT:    -4.819      1.503      2.009
REMARK INTER + INTRA:         -10.859
REMARK INTER:                  -8.819
REMARK INTRA:                  -2.040
REMARK UNBOUND:                -1.814
REMARK SMILES O=C([O-])CCCCCCCCCCCCCCC(=O)[O-]
REMARK SMILES IDX 10 1 9 2 8 3 7 4 6 5 5 6 4 7 2 8 1 9 3 10 11 11 12 12 13 13
REMARK SMILES IDX 14 14 15 15 16 16 17 17 18 18 19 19 20 20
REMARK H PARENT
REMARK Flexibility Score: inf
ROOT
ATOM      1  C   UNL     1      18.596  19.709  33.766  1.00  0.00     0.000 C 
ENDROOT
BRANCH   1   2
ATOM      2  C   UNL     1      20.078  19.296  33.739  1.00  0.00     0.000 C 
BRANCH   2   3
ATOM      3  C   UNL     1      20.667  18.878  35.100  1.00  0.00     0.000 C 
BRANCH   3   4
ATOM      4  C   UNL     1      19.628  18.225  36.027  1.00  0.00     0.000 C 
BRANCH   4   5
ATOM      5  C   UNL     1      19.518  16.707  35.813  1.00  0.00     0.000 C 
BRANCH   5   6
ATOM      6  C   UNL     1      18.066  16.235  35.639  1.00  0.00     0.006 C 
BRANCH   6   7
ATOM      7  C   UNL     1      17.086  17.240  36.251  1.00  0.00     0.053 C 
BRANCH   7   8
ATOM      8  C   UNL     1      15.905  16.532  36.836  1.00  0.00     0.041 C 
ATOM      9  O   UNL     1      15.316  15.634  36.179  1.00  0.00    -0.550 OA
ATOM     10  O   UNL     1      15.424  16.899  38.086  1.00  0.00    -0.550 OA
ENDBRANCH   7   8
ENDBRANCH   6   7
ENDBRANCH   5   6
ENDBRANCH   4   5
ENDBRANCH   3   4
ENDBRANCH   2   3
ENDBRANCH   1   2
BRANCH   1  11
ATOM     11  C   UNL     1      17.702  18.796  32.913  1.00  0.00     0.000 C 
BRANCH  11  12
ATOM     12  C   UNL     1      18.545  17.758  32.155  1.00  0.00     0.000 C 
BRANCH  12  13
ATOM     13  C   UNL     1      18.153  17.643  30.673  1.00  0.00     0.000 C 
BRANCH  13  14
ATOM     14  C   UNL     1      17.279  18.818  30.200  1.00  0.00     0.000 C 
BRANCH  14  15
ATOM     15  C   UNL     1      16.363  18.438  29.025  1.00  0.00     0.000 C 
BRANCH  15  16
ATOM     16  C   UNL     1      14.896  18.252  29.452  1.00  0.00     0.006 C 
BRANCH  16  17
ATOM     17  C   UNL     1      14.637  18.775  30.871  1.00  0.00     0.053 C 
BRANCH  17  18
ATOM     18  C   UNL     1      13.974  17.744  31.732  1.00  0.00     0.041 C 
ATOM     19  O   UNL     1      14.662  16.858  32.305  1.00  0.00    -0.550 OA
ATOM     20  O   UNL     1      12.592  17.744  31.877  1.00  0.00    -0.550 OA
ENDBRANCH  17  18
ENDBRANCH  16  17
ENDBRANCH  15  16
ENDBRANCH  14  15
ENDBRANCH  13  14
ENDBRANCH  12  13
ENDBRANCH  11  12
ENDBRANCH   1  11
TORSDOF 15
ENDMDL
