MODEL 1
REMARK VINA RESULT:    -3.380      0.000      0.000
REMARK INTER + INTRA:          -7.563
REMARK INTER:                  -6.146
REMARK INTRA:                  -1.417
REMARK UNBOUND:                -1.417
REMARK SMILES CCCCCCCCCCCCCCCC(=O)[O-]
REMARK SMILES IDX 9 1 10 2 11 3 12 4 13 5 14 6 15 7 16 8 17 9 18 10 8 11 7 12
REMARK SMILES IDX 6 13 5 14 4 15 3 16 2 17 1 18
REMARK H PARENT
REMARK Flexibility Score: inf
ROOT
ATOM      1  C   UNL     1      -4.827  36.866   2.719  1.00  0.00     0.000 C 
ENDROOT
BRANCH   1   2
ATOM      2  C   UNL     1      -3.928  35.703   2.243  1.00  0.00     0.000 C 
BRANCH   2   3
ATOM      3  C   UNL     1      -4.739  34.575   1.583  1.00  0.00     0.000 C 
BRANCH   3   4
ATOM      4  C   UNL     1      -6.257  34.776   1.720  1.00  0.00     0.000 C 
BRANCH   4   5
ATOM      5  C   UNL     1      -7.052  34.049   0.626  1.00  0.00     0.000 C 
BRANCH   5   6
ATOM      6  C   UNL     1      -7.731  32.792   1.184  1.00  0.00     0.006 C 
BRANCH   6   7
ATOM      7  C   UNL     1      -6.733  31.638   1.311  1.00  0.00     0.053 C 
BRANCH   7   8
ATOM      8  C   UNL     1      -7.453  30.342   1.510  1.00  0.00     0.041 C 
ATOM      9  O   UNL     1      -7.771  29.635   0.516  1.00  0.00    -0.550 OA
ATOM     10  O   UNL     1      -7.731  29.889   2.793  1.00  0.00    -0.550 OA
ENDBRANCH   7   8
ENDBRANCH   6   7
ENDBRANCH   5   6
ENDBRANCH   4   5
ENDBRANCH   3   4
ENDBRANCH   2   3
ENDBRANCH   1   2
BRANCH   1  11
ATOM     11  C   UNL     1      -4.730  38.125   1.835  1.00  0.00     0.000 C 
BRANCH  11  12
ATOM     12  C   UNL     1      -4.120  37.887   0.441  1.00  0.00    -0.000 C 
BRANCH  12  13
ATOM     13  C   UNL     1      -5.141  37.849  -0.713  1.00  0.00    -0.000 C 
BRANCH  13  14
ATOM     14  C   UNL     1      -6.605  38.010  -0.250  1.00  0.00    -0.000 C 
BRANCH  14  15
ATOM     15  C   UNL     1      -7.599  37.366  -1.231  1.00  0.00    -0.000 C 
BRANCH  15  16
ATOM     16  C   UNL     1      -9.004  37.983  -1.142  1.00  0.00    -0.000 C 
BRANCH  16  17
ATOM     17  C   UNL     1     -10.072  37.128  -1.839  1.00  0.00    -0.003 C 
ATOM     18  C   UNL     1     -10.566  36.011  -0.924  1.00  0.00     0.004 C 
ENDBRANCH  16  17
ENDBRANCH  15  16
ENDBRANCH  14  15
ENDBRANCH  13  14
ENDBRANCH  12  13
ENDBRANCH  11  12
ENDBRANCH   1  11
TORSDOF 14
ENDMDL
MODEL 2
REMARK VINA RESULT:    -2.400     12.921     16.697
REMARK INTER + INTRA:          -5.781
REMARK INTER:                  -5.420
REMARK INTRA:                  -0.361
REMARK UNBOUND:                -1.417
REMARK SMILES CCCCCCCCCCCCCCCC(=O)[O-]
REMARK SMILES IDX 9 1 10 2 11 3 12 4 13 5 14 6 15 7 16 8 17 9 18 10 8 11 7 12
REMARK SMILES IDX 6 13 5 14 4 15 3 16 2 17 1 18
REMARK H PARENT
REMARK Flexibility Score: inf
ROOT
ATOM      1  C   UNL     1     -18.839  33.102  -9.506  1.00  0.00     0.000 C 
ENDROOT
BRANCH   1   2
ATOM      2  C   UNL     1     -17.721  33.863 -10.252  1.00  0.00     0.000 C 
BRANCH   2   3
ATOM      3  C   UNL     1     -17.935  33.862 -11.776  1.00  0.00     0.000 C 
BRANCH   3   4
ATOM      4  C   UNL     1     -16.619  33.729 -12.559  1.00  0.00     0.000 C 
BRANCH   4   5
ATOM      5  C   UNL     1     -15.454  33.245 -11.684  1.00  0.00     0.000 C 
BRANCH   5   6
ATOM      6  C   UNL     1     -14.619  34.428 -11.177  1.00  0.00     0.006 C 
BRANCH   6   7
ATOM      7  C   UNL     1     -14.481  34.392  -9.653  1.00  0.00     0.053 C 
BRANCH   7   8
ATOM      8  C   UNL     1     -13.482  35.406  -9.193  1.00  0.00     0.041 C 
ATOM      9  O   UNL     1     -12.655  35.894 -10.007  1.00  0.00    -0.550 OA
ATOM     10  O   UNL     1     -13.496  35.848  -7.876  1.00  0.00    -0.550 OA
ENDBRANCH   7   8
ENDBRANCH   6   7
ENDBRANCH   5   6
ENDBRANCH   4   5
ENDBRANCH   3   4
ENDBRANCH   2   3
ENDBRANCH   1   2
BRANCH   1  11
ATOM     11  C   UNL     1     -19.641  33.985  -8.529  1.00  0.00     0.000 C 
BRANCH  11  12
ATOM     12  C   UNL     1     -20.907  33.323  -7.954  1.00  0.00    -0.000 C 
BRANCH  12  13
ATOM     13  C   UNL     1     -21.887  34.293  -7.266  1.00  0.00    -0.000 C 
BRANCH  13  14
ATOM     14  C   UNL     1     -23.370  33.998  -7.577  1.00  0.00    -0.000 C 
BRANCH  14  15
ATOM     15  C   UNL     1     -24.125  35.252  -8.053  1.00  0.00    -0.000 C 
BRANCH  15  16
ATOM     16  C   UNL     1     -23.184  36.422  -8.380  1.00  0.00    -0.000 C 
BRANCH  16  17
ATOM     17  C   UNL     1     -23.934  37.743  -8.599  1.00  0.00    -0.003 C 
ATOM     18  C   UNL     1     -24.104  38.038 -10.087  1.00  0.00     0.004 C 
ENDBRANCH  16  17
ENDBRANCH  15  16
ENDBRANCH  14  15
ENDBRANCH  13  14
ENDBRANCH  12  13
ENDBRANCH  11  12
ENDBRANCH   1  11
TORSDOF 14
ENDMDL
MODEL 3
REMARK VINA RESULT:    -2.035      2.687      5.532
REMARK INTER + INTRA:          -5.118
REMARK INTER:                  -4.130
REMARK INTRA:                  -0.988
REMARK UNBOUND:                -1.417
REMARK SMILES CCCCCCCCCCCCCCCC(=O)[O-]
REMARK SMILES IDX 9 1 10 2 11 3 12 4 13 5 14 6 15 7 16 8 17 9 18 10 8 11 7 12
REMARK SMILES IDX 6 13 5 14 4 15 3 16 2 17 1 18
REMARK H PARENT
REMARK Flexibility Score: inf
ROOT
ATOM      1  C   UNL     1      -4.547  36.912  -1.027  1.00  0.00     0.000 C 
ENDROOT
BRANCH   1   2
ATOM      2  C   UNL     1      -4.106  37.837  -2.183  1.00  0.00     0.000 C 
BRANCH   2   3
ATOM      3  C   UNL     1      -5.248  38.109  -3.178  1.00  0.00     0.000 C 
BRANCH   3   4
ATOM      4  C   UNL     1      -6.639  37.968  -2.538  1.00  0.00     0.000 C 
BRANCH   4   5
ATOM      5  C   UNL     1      -7.778  38.108  -3.558  1.00  0.00     0.000 C 
BRANCH   5   6
ATOM      6  C   UNL     1      -9.032  37.361  -3.086  1.00  0.00     0.006 C 
BRANCH   6   7
ATOM      7  C   UNL     1      -9.262  37.565  -1.586  1.00  0.00     0.053 C 
BRANCH   7   8
ATOM      8  C   UNL     1     -10.065  36.437  -1.020  1.00  0.00     0.041 C 
ATOM      9  O   UNL     1      -9.493  35.495  -0.410  1.00  0.00    -0.550 OA
ATOM     10  O   UNL     1     -11.450  36.449  -1.124  1.00  0.00    -0.550 OA
ENDBRANCH   7   8
ENDBRANCH   6   7
ENDBRANCH   5   6
ENDBRANCH   4   5
ENDBRANCH   3   4
ENDBRANCH   2   3
ENDBRANCH   1   2
BRANCH   1  11
ATOM     11  C   UNL     1      -4.824  37.661   0.292  1.00  0.00     0.000 C 
BRANCH  11  12
ATOM     12  C   UNL     1      -4.210  37.009   1.544  1.00  0.00    -0.000 C 
BRANCH  12  13
ATOM     13  C   UNL     1      -3.875  35.512   1.395  1.00  0.00    -0.000 C 
BRANCH  13  14
ATOM     14  C   UNL     1      -4.787  34.588   2.230  1.00  0.00    -0.000 C 
BRANCH  14  15
ATOM     15  C   UNL     1      -5.297  33.385   1.417  1.00  0.00    -0.000 C 
BRANCH  15  16
ATOM     16  C   UNL     1      -6.578  33.703   0.628  1.00  0.00    -0.000 C 
BRANCH  16  17
ATOM     17  C   UNL     1      -7.759  32.809   1.031  1.00  0.00    -0.003 C 
ATOM     18  C   UNL     1      -7.272  31.468   1.574  1.00  0.00     0.004 C 
ENDBRANCH  16  17
ENDBRANCH  15  16
ENDBRANCH  14  15
ENDBRANCH  13  14
ENDBRANCH  12  13
ENDBRANCH  11  12
ENDBRANCH   1  11
TORSDOF 14
ENDMDL
MODEL 4
REMARK VINA RESULT:    -2.033      3.047      5.608
REMARK INTER + INTRA:          -5.113
REMARK INTER:                  -4.332
REMARK INTRA:                  -0.781
REMARK UNBOUND:                -1.417
REMARK SMILES CCCCCCCCCCCCCCCC(=O)[O-]
REMARK SMILES IDX 9 1 10 2 11 3 12 4 13 5 14 6 15 7 16 8 17 9 18 10 8 11 7 12
REMARK SMILES IDX 6 13 5 14 4 15 3 16 2 17 1 18
REMARK H PARENT
REMARK Flexibility Score: inf
ROOT
ATOM      1  C   UNL     1      -6.913  36.633   1.869  1.00  0.00     0.000 C 
ENDROOT
BRANCH   1   2
ATOM      2  C   UNL     1      -6.802  36.664   0.329  1.00  0.00     0.000 C 
BRANCH   2   3
ATOM      3  C   UNL     1      -6.928  38.090  -0.234  1.00  0.00     0.000 C 
BRANCH   3   4
ATOM      4  C   UNL     1      -6.911  38.125  -1.770  1.00  0.00     0.000 C 
BRANCH   4   5
ATOM      5  C   UNL     1      -8.307  37.944  -2.383  1.00  0.00     0.000 C 
BRANCH   5   6
ATOM      6  C   UNL     1      -9.382  37.887  -1.291  1.00  0.00     0.006 C 
BRANCH   6   7
ATOM      7  C   UNL     1      -9.956  36.473  -1.156  1.00  0.00     0.053 C 
BRANCH   7   8
ATOM      8  C   UNL     1     -11.289  36.382  -1.830  1.00  0.00     0.041 C 
ATOM      9  O   UNL     1     -11.362  36.347  -3.087  1.00  0.00    -0.550 OA
ATOM     10  O   UNL     1     -12.447  36.287  -1.069  1.00  0.00    -0.550 OA
ENDBRANCH   7   8
ENDBRANCH   6   7
ENDBRANCH   5   6
ENDBRANCH   4   5
ENDBRANCH   3   4
ENDBRANCH   2   3
ENDBRANCH   1   2
BRANCH   1  11
ATOM     11  C   UNL     1      -5.606  37.019   2.591  1.00  0.00     0.000 C 
BRANCH  11  12
ATOM     12  C   UNL     1      -4.319  36.583   1.869  1.00  0.00    -0.000 C 
BRANCH  12  13
ATOM     13  C   UNL     1      -3.887  35.129   2.139  1.00  0.00    -0.000 C 
BRANCH  13  14
ATOM     14  C   UNL     1      -4.461  34.114   1.127  1.00  0.00    -0.000 C 
BRANCH  14  15
ATOM     15  C   UNL     1      -5.486  33.166   1.773  1.00  0.00    -0.000 C 
BRANCH  15  16
ATOM     16  C   UNL     1      -6.899  33.334   1.189  1.00  0.00    -0.000 C 
BRANCH  16  17
ATOM     17  C   UNL     1      -7.537  31.998   0.787  1.00  0.00    -0.003 C 
ATOM     18  C   UNL     1      -7.227  30.911   1.813  1.00  0.00     0.004 C 
ENDBRANCH  16  17
ENDBRANCH  15  16
ENDBRANCH  14  15
ENDBRANCH  13  14
ENDBRANCH  12  13
ENDBRANCH  11  12
ENDBRANCH   1  11
TORSDOF 14
ENDMDL
MODEL 5
REMARK VINA RESULT:    -2.014      1.054      4.099
REMARK INTER + INTRA:          -5.078
REMARK INTER:                  -3.817
REMARK INTRA:                  -1.262
REMARK UNBOUND:                -1.417
REMARK SMILES CCCCCCCCCCCCCCCC(=O)[O-]
REMARK SMILES IDX 9 1 10 2 11 3 12 4 13 5 14 6 15 7 16 8 17 9 18 10 8 11 7 12
REMARK SMILES IDX 6 13 5 14 4 15 3 16 2 17 1 18
REMARK H PARENT
REMARK Flexibility Score: inf
ROOT
ATOM      1  C   UNL     1      -9.518  37.093  -1.516  1.00  0.00     0.000 C 
ENDROOT
BRANCH   1   2
ATOM      2  C   UNL     1      -9.645  35.864  -0.590  1.00  0.00     0.000 C 
BRANCH   2   3
ATOM      3  C   UNL     1      -8.365  35.617   0.226  1.00  0.00     0.000 C 
BRANCH   3   4
ATOM      4  C   UNL     1      -8.123  34.127   0.515  1.00  0.00     0.000 C 
BRANCH   4   5
ATOM      5  C   UNL     1      -6.672  33.828   0.917  1.00  0.00     0.000 C 
BRANCH   5   6
ATOM      6  C   UNL     1      -6.473  32.331   1.184  1.00  0.00     0.006 C 
BRANCH   6   7
ATOM      7  C   UNL     1      -7.779  31.675   1.640  1.00  0.00     0.053 C 
BRANCH   7   8
ATOM      8  C   UNL     1      -7.628  30.188   1.693  1.00  0.00     0.041 C 
ATOM      9  O   UNL     1      -7.551  29.521   0.628  1.00  0.00    -0.550 OA
ATOM     10  O   UNL     1      -7.523  29.543   2.919  1.00  0.00    -0.550 OA
ENDBRANCH   7   8
ENDBRANCH   6   7
ENDBRANCH   5   6
ENDBRANCH   4   5
ENDBRANCH   3   4
ENDBRANCH   2   3
ENDBRANCH   1   2
BRANCH   1  11
ATOM     11  C   UNL     1      -8.325  38.007  -1.170  1.00  0.00     0.000 C 
BRANCH  11  12
ATOM     12  C   UNL     1      -7.200  38.024  -2.221  1.00  0.00    -0.000 C 
BRANCH  12  13
ATOM     13  C   UNL     1      -5.776  38.125  -1.640  1.00  0.00    -0.000 C 
BRANCH  13  14
ATOM     14  C   UNL     1      -5.116  36.754  -1.375  1.00  0.00    -0.000 C 
BRANCH  14  15
ATOM     15  C   UNL     1      -3.875  36.871  -0.474  1.00  0.00    -0.000 C 
BRANCH  15  16
ATOM     16  C   UNL     1      -4.124  37.740   0.769  1.00  0.00    -0.000 C 
BRANCH  16  17
ATOM     17  C   UNL     1      -4.496  36.912   2.006  1.00  0.00    -0.003 C 
ATOM     18  C   UNL     1      -3.974  37.567   3.282  1.00  0.00     0.004 C 
ENDBRANCH  16  17
ENDBRANCH  15  16
ENDBRANCH  14  15
ENDBRANCH  13  14
ENDBRANCH  12  13
ENDBRANCH  11  12
ENDBRANCH   1  11
TORSDOF 14
ENDMDL
MODEL 6
REMARK VINA RESULT:    -1.855     12.317     16.081
REMARK INTER + INTRA:          -4.791
REMARK INTER:                  -4.605
REMARK INTRA:                  -0.186
REMARK UNBOUND:                -1.417
REMARK SMILES CCCCCCCCCCCCCCCC(=O)[O-]
REMARK SMILES IDX 9 1 10 2 11 3 12 4 13 5 14 6 15 7 16 8 17 9 18 10 8 11 7 12
REMARK SMILES IDX 6 13 5 14 4 15 3 16 2 17 1 18
REMARK H PARENT
REMARK Flexibility Score: inf
ROOT
ATOM      1  C   UNL     1     -18.483  34.158 -12.484  1.00  0.00     0.000 C 
ENDROOT
BRANCH   1   2
ATOM      2  C   UNL     1     -17.425  33.036 -12.566  1.00  0.00     0.000 C 
BRANCH   2   3
ATOM      3  C   UNL     1     -15.994  33.571 -12.384  1.00  0.00     0.000 C 
BRANCH   3   4
ATOM      4  C   UNL     1     -15.397  33.215 -11.014  1.00  0.00     0.000 C 
BRANCH   4   5
ATOM      5  C   UNL     1     -14.735  34.417 -10.325  1.00  0.00     0.000 C 
BRANCH   5   6
ATOM      6  C   UNL     1     -15.085  34.456  -8.832  1.00  0.00     0.006 C 
BRANCH   6   7
ATOM      7  C   UNL     1     -13.910  34.981  -8.004  1.00  0.00     0.053 C 
BRANCH   7   8
ATOM      8  C   UNL     1     -13.062  35.902  -8.824  1.00  0.00     0.041 C 
ATOM      9  O   UNL     1     -12.433  35.463  -9.823  1.00  0.00    -0.550 OA
ATOM     10  O   UNL     1     -13.005  37.255  -8.514  1.00  0.00    -0.550 OA
ENDBRANCH   7   8
ENDBRANCH   6   7
ENDBRANCH   5   6
ENDBRANCH   4   5
ENDBRANCH   3   4
ENDBRANCH   2   3
ENDBRANCH   1   2
BRANCH   1  11
ATOM     11  C   UNL     1     -18.763  34.640 -11.046  1.00  0.00     0.000 C 
BRANCH  11  12
ATOM     12  C   UNL     1     -18.770  33.526  -9.983  1.00  0.00    -0.000 C 
BRANCH  12  13
ATOM     13  C   UNL     1     -19.133  33.992  -8.560  1.00  0.00    -0.000 C 
BRANCH  13  14
ATOM     14  C   UNL     1     -20.343  33.248  -7.955  1.00  0.00    -0.000 C 
BRANCH  14  15
ATOM     15  C   UNL     1     -21.537  34.185  -7.704  1.00  0.00    -0.000 C 
BRANCH  15  16
ATOM     16  C   UNL     1     -22.829  33.423  -7.371  1.00  0.00    -0.000 C 
BRANCH  16  17
ATOM     17  C   UNL     1     -24.094  34.211  -7.741  1.00  0.00    -0.003 C 
ATOM     18  C   UNL     1     -23.753  35.649  -8.121  1.00  0.00     0.004 C 
ENDBRANCH  16  17
ENDBRANCH  15  16
ENDBRANCH  14  15
ENDBRANCH  13  14
ENDBRANCH  12  13
ENDBRANCH  11  12
ENDBRANCH   1  11
TORSDOF 14
ENDMDL
MODEL 7
REMARK VINA RESULT:    -1.578     12.435     16.114
REMARK INTER + INTRA:          -4.286
REMARK INTER:                  -3.431
REMARK INTRA:                  -0.854
REMARK UNBOUND:                -1.417
REMARK SMILES CCCCCCCCCCCCCCCC(=O)[O-]
REMARK SMILES IDX 9 1 10 2 11 3 12 4 13 5 14 6 15 7 16 8 17 9 18 10 8 11 7 12
REMARK SMILES IDX 6 13 5 14 4 15 3 16 2 17 1 18
REMARK H PARENT
REMARK Flexibility Score: inf
ROOT
ATOM      1  C   UNL     1     -17.522  33.773 -13.122  1.00  0.00     0.000 C 
ENDROOT
BRANCH   1   2
ATOM      2  C   UNL     1     -18.805  34.014 -12.297  1.00  0.00     0.000 C 
BRANCH   2   3
ATOM      3  C   UNL     1     -18.496  34.381 -10.836  1.00  0.00     0.000 C 
BRANCH   3   4
ATOM      4  C   UNL     1     -18.827  33.244  -9.856  1.00  0.00     0.000 C 
BRANCH   4   5
ATOM      5  C   UNL     1     -19.067  33.746  -8.424  1.00  0.00     0.000 C 
BRANCH   5   6
ATOM      6  C   UNL     1     -20.401  33.224  -7.876  1.00  0.00     0.006 C 
BRANCH   6   7
ATOM      7  C   UNL     1     -21.395  34.368  -7.661  1.00  0.00     0.053 C 
BRANCH   7   8
ATOM      8  C   UNL     1     -22.778  33.832  -7.466  1.00  0.00     0.041 C 
ATOM      9  O   UNL     1     -22.958  32.766  -6.821  1.00  0.00    -0.550 OA
ATOM     10  O   UNL     1     -23.872  34.535  -7.955  1.00  0.00    -0.550 OA
ENDBRANCH   7   8
ENDBRANCH   6   7
ENDBRANCH   5   6
ENDBRANCH   4   5
ENDBRANCH   3   4
ENDBRANCH   2   3
ENDBRANCH   1   2
BRANCH   1  11
ATOM     11  C   UNL     1     -16.435  32.989 -12.359  1.00  0.00     0.000 C 
BRANCH  11  12
ATOM     12  C   UNL     1     -15.052  33.663 -12.336  1.00  0.00    -0.000 C 
BRANCH  12  13
ATOM     13  C   UNL     1     -14.683  34.336 -11.000  1.00  0.00    -0.000 C 
BRANCH  13  14
ATOM     14  C   UNL     1     -15.246  33.605  -9.762  1.00  0.00    -0.000 C 
BRANCH  14  15
ATOM     15  C   UNL     1     -15.522  34.566  -8.593  1.00  0.00    -0.000 C 
BRANCH  15  16
ATOM     16  C   UNL     1     -14.316  34.717  -7.652  1.00  0.00    -0.000 C 
BRANCH  16  17
ATOM     17  C   UNL     1     -13.525  36.008  -7.905  1.00  0.00    -0.003 C 
ATOM     18  C   UNL     1     -12.634  35.874  -9.137  1.00  0.00     0.004 C 
ENDBRANCH  16  17
ENDBRANCH  15  16
ENDBRANCH  14  15
ENDBRANCH  13  14
ENDBRANCH  12  13
ENDBRANCH  11  12
ENDBRANCH   1  11
TORSDOF 14
ENDMDL
MODEL 8
REMARK VINA RESULT:    -0.982      2.893      5.602
REMARK INTER + INTRA:          -3.202
REMARK INTER:                  -2.888
REMARK INTRA:                  -0.314
REMARK UNBOUND:                -1.417
REMARK SMILES CCCCCCCCCCCCCCCC(=O)[O-]
REMARK SMILES IDX 9 1 10 2 11 3 12 4 13 5 14 6 15 7 16 8 17 9 18 10 8 11 7 12
REMARK SMILES IDX 6 13 5 14 4 15 3 16 2 17 1 18
REMARK H PARENT
REMARK Flexibility Score: inf
ROOT
ATOM      1  C   UNL     1      -3.875  37.140   1.950  1.00  0.00     0.000 C 
ENDROOT
BRANCH   1   2
ATOM      2  C   UNL     1      -4.663  37.614   3.191  1.00  0.00     0.000 C 
BRANCH   2   3
ATOM      3  C   UNL     1      -6.068  38.125   2.828  1.00  0.00     0.000 C 
BRANCH   3   4
ATOM      4  C   UNL     1      -6.693  37.357   1.653  1.00  0.00     0.000 C 
BRANCH   4   5
ATOM      5  C   UNL     1      -6.392  38.006   0.294  1.00  0.00     0.000 C 
BRANCH   5   6
ATOM      6  C   UNL     1      -7.619  37.950  -0.624  1.00  0.00     0.006 C 
BRANCH   6   7
ATOM      7  C   UNL     1      -8.512  36.756  -0.278  1.00  0.00     0.053 C 
BRANCH   7   8
ATOM      8  C   UNL     1      -9.738  36.752  -1.136  1.00  0.00     0.041 C 
ATOM      9  O   UNL     1      -9.894  37.633  -2.023  1.00  0.00    -0.550 OA
ATOM     10  O   UNL     1     -10.686  35.747  -0.990  1.00  0.00    -0.550 OA
ENDBRANCH   7   8
ENDBRANCH   6   7
ENDBRANCH   5   6
ENDBRANCH   4   5
ENDBRANCH   3   4
ENDBRANCH   2   3
ENDBRANCH   1   2
BRANCH   1  11
ATOM     11  C   UNL     1      -4.044  35.638   1.648  1.00  0.00     0.000 C 
BRANCH  11  12
ATOM     12  C   UNL     1      -4.380  35.309   0.182  1.00  0.00    -0.000 C 
BRANCH  12  13
ATOM     13  C   UNL     1      -5.116  33.972  -0.028  1.00  0.00    -0.000 C 
BRANCH  13  14
ATOM     14  C   UNL     1      -5.445  33.233   1.287  1.00  0.00    -0.000 C 
BRANCH  14  15
ATOM     15  C   UNL     1      -6.880  32.678   1.299  1.00  0.00    -0.000 C 
BRANCH  15  16
ATOM     16  C   UNL     1      -6.926  31.158   1.526  1.00  0.00    -0.000 C 
BRANCH  16  17
ATOM     17  C   UNL     1      -8.142  30.719   2.352  1.00  0.00    -0.003 C 
ATOM     18  C   UNL     1      -7.830  29.466   3.166  1.00  0.00     0.004 C 
ENDBRANCH  16  17
ENDBRANCH  15  16
ENDBRANCH  14  15
ENDBRANCH  13  14
ENDBRANCH  12  13
ENDBRANCH  11  12
ENDBRANCH   1  11
TORSDOF 14
ENDMDL
MODEL 9
REMARK VINA RESULT:    -0.671     13.284     16.974
REMARK INTER + INTRA:          -2.638
REMARK INTER:                  -1.898
REMARK INTRA:                  -0.740
REMARK UNBOUND:                -1.417
REMARK SMILES CCCCCCCCCCCCCCCC(=O)[O-]
REMARK SMILES IDX 9 1 10 2 11 3 12 4 13 5 14 6 15 7 16 8 17 9 18 10 8 11 7 12
REMARK SMILES IDX 6 13 5 14 4 15 3 16 2 17 1 18
REMARK H PARENT
REMARK Flexibility Score: inf
ROOT
ATOM      1  C   UNL     1     -18.237  33.232 -10.722  1.00  0.00     0.000 C 
ENDROOT
BRANCH   1   2
ATOM      2  C   UNL     1     -18.864  34.224  -9.718  1.00  0.00     0.000 C 
BRANCH   2   3
ATOM      3  C   UNL     1     -19.681  33.509  -8.628  1.00  0.00     0.000 C 
BRANCH   3   4
ATOM      4  C   UNL     1     -20.907  34.319  -8.179  1.00  0.00     0.000 C 
BRANCH   4   5
ATOM      5  C   UNL     1     -22.039  33.432  -7.639  1.00  0.00     0.000 C 
BRANCH   5   6
ATOM      6  C   UNL     1     -23.249  34.277  -7.224  1.00  0.00     0.006 C 
BRANCH   6   7
ATOM      7  C   UNL     1     -24.102  34.651  -8.440  1.00  0.00     0.053 C 
BRANCH   7   8
ATOM      8  C   UNL     1     -24.056  36.127  -8.679  1.00  0.00     0.041 C 
ATOM      9  O   UNL     1     -23.911  36.921  -7.712  1.00  0.00    -0.550 OA
ATOM     10  O   UNL     1     -24.125  36.624  -9.974  1.00  0.00    -0.550 OA
ENDBRANCH   7   8
ENDBRANCH   6   7
ENDBRANCH   5   6
ENDBRANCH   4   5
ENDBRANCH   3   4
ENDBRANCH   2   3
ENDBRANCH   1   2
BRANCH   1  11
ATOM     11  C   UNL     1     -18.019  33.829 -12.127  1.00  0.00     0.000 C 
BRANCH  11  12
ATOM     12  C   UNL     1     -16.641  33.534 -12.746  1.00  0.00    -0.000 C 
BRANCH  12  13
ATOM     13  C   UNL     1     -15.526  33.230 -11.726  1.00  0.00    -0.000 C 
BRANCH  13  14
ATOM     14  C   UNL     1     -14.695  34.469 -11.330  1.00  0.00    -0.000 C 
BRANCH  14  15
ATOM     15  C   UNL     1     -14.318  34.464  -9.838  1.00  0.00    -0.000 C 
BRANCH  15  16
ATOM     16  C   UNL     1     -13.126  35.382  -9.524  1.00  0.00    -0.000 C 
BRANCH  16  17
ATOM     17  C   UNL     1     -13.205  35.997  -8.121  1.00  0.00    -0.003 C 
ATOM     18  C   UNL     1     -14.330  35.364  -7.306  1.00  0.00     0.004 C 
ENDBRANCH  16  17
ENDBRANCH  15  16
ENDBRANCH  14  15
ENDBRANCH  13  14
ENDBRANCH  12  13
ENDBRANCH  11  12
ENDBRANCH   1  11
TORSDOF 14
ENDMDL
