MODEL 1
REMARK VINA RESULT:    -2.604      0.000      0.000
REMARK INTER + INTRA:          -2.604
REMARK INTER:                  -2.604
REMARK INTRA:                   0.000
REMARK UNBOUND:                 0.000
REMARK SMILES CC(=O)[O-]
REMARK SMILES IDX 1 1 2 2 3 3 4 4
REMARK H PARENT
REMARK Flexibility Score: inf
ROOT
ATOM      1  C   UNL     1      19.546  20.896  21.369  1.00  0.00     0.063 C 
ATOM      2  C   UNL     1      20.499  19.931  20.750  1.00  0.00     0.038 C 
ATOM      3  O   UNL     1      20.080  18.837  20.289  1.00  0.00    -0.550 OA
ATOM      4  O   UNL     1      21.843  20.260  20.631  1.00  0.00    -0.550 OA
ENDROOT
TORSDOF 0
ENDMDL
MODEL 2
REMARK VINA RESULT:    -2.561     15.993     16.235
REMARK INTER + INTRA:          -2.561
REMARK INTER:                  -2.561
REMARK INTRA:                   0.000
REMARK UNBOUND:                 0.000
REMARK SMILES CC(=O)[O-]
REMARK SMILES IDX 1 1 2 2 3 3 4 4
REMARK H PARENT
REMARK Flexibility Score: inf
ROOT
ATOM      1  C   UNL     1      10.361  22.873   7.935  1.00  0.00     0.063 C 
ATOM      2  C   UNL     1      10.835  21.464   7.825  1.00  0.00     0.038 C 
ATOM      3  O   UNL     1      10.032  20.511   8.003  1.00  0.00    -0.550 OA
ATOM      4  O   UNL     1      12.152  21.198   7.471  1.00  0.00    -0.550 OA
ENDROOT
TORSDOF 0
ENDMDL
MODEL 3
REMARK VINA RESULT:    -2.550      1.204      1.685
REMARK INTER + INTRA:          -2.550
REMARK INTER:                  -2.550
REMARK INTRA:                   0.000
REMARK UNBOUND:                 0.000
REMARK SMILES CC(=O)[O-]
REMARK SMILES IDX 1 1 2 2 3 3 4 4
REMARK H PARENT
REMARK Flexibility Score: inf
ROOT
ATOM      1  C   UNL     1      19.425  20.777  21.165  1.00  0.00     0.063 C 
ATOM      2  C   UNL     1      20.844  20.331  21.255  1.00  0.00     0.038 C 
ATOM      3  O   UNL     1      21.737  20.928  20.599  1.00  0.00    -0.550 OA
ATOM      4  O   UNL     1      21.194  19.288  22.104  1.00  0.00    -0.550 OA
ENDROOT
TORSDOF 0
ENDMDL
MODEL 4
REMARK VINA RESULT:    -2.508      1.728      2.482
REMARK INTER + INTRA:          -2.508
REMARK INTER:                  -2.508
REMARK INTRA:                   0.000
REMARK UNBOUND:                 0.000
REMARK SMILES CC(=O)[O-]
REMARK SMILES IDX 1 1 2 2 3 3 4 4
REMARK H PARENT
REMARK Flexibility Score: inf
ROOT
ATOM      1  C   UNL     1      21.103  19.713  22.112  1.00  0.00     0.063 C 
ATOM      2  C   UNL     1      20.244  20.758  21.486  1.00  0.00     0.038 C 
ATOM      3  O   UNL     1      20.499  21.977  21.666  1.00  0.00    -0.550 OA
ATOM      4  O   UNL     1      19.192  20.390  20.656  1.00  0.00    -0.550 OA
ENDROOT
TORSDOF 0
ENDMDL
MODEL 5
REMARK VINA RESULT:    -2.476      6.085      6.458
REMARK INTER + INTRA:          -2.476
REMARK INTER:                  -2.476
REMARK INTRA:                   0.000
REMARK UNBOUND:                 0.000
REMARK SMILES CC(=O)[O-]
REMARK SMILES IDX 1 1 2 2 3 3 4 4
REMARK H PARENT
REMARK Flexibility Score: inf
ROOT
ATOM      1  C   UNL     1      16.313  18.867  18.867  1.00  0.00     0.063 C 
ATOM      2  C   UNL     1      14.935  18.592  18.370  1.00  0.00     0.038 C 
ATOM      3  O   UNL     1      14.695  18.598  17.134  1.00  0.00    -0.550 OA
ATOM      4  O   UNL     1      13.922  18.275  19.267  1.00  0.00    -0.550 OA
ENDROOT
TORSDOF 0
ENDMDL
MODEL 6
REMARK VINA RESULT:    -2.440     10.368     11.032
REMARK INTER + INTRA:          -2.440
REMARK INTER:                  -2.440
REMARK INTRA:                   0.000
REMARK UNBOUND:                 0.000
REMARK SMILES CC(=O)[O-]
REMARK SMILES IDX 1 1 2 2 3 3 4 4
REMARK H PARENT
REMARK Flexibility Score: inf
ROOT
ATOM      1  C   UNL     1      10.230  22.148  18.407  1.00  0.00     0.063 C 
ATOM      2  C   UNL     1       9.839  21.521  19.702  1.00  0.00     0.038 C 
ATOM      3  O   UNL     1      10.723  21.090  20.487  1.00  0.00    -0.550 OA
ATOM      4  O   UNL     1       8.501  21.461  20.071  1.00  0.00    -0.550 OA
ENDROOT
TORSDOF 0
ENDMDL
MODEL 7
REMARK VINA RESULT:    -2.431     10.464     11.086
REMARK INTER + INTRA:          -2.431
REMARK INTER:                  -2.431
REMARK INTRA:                   0.000
REMARK UNBOUND:                 0.000
REMARK SMILES CC(=O)[O-]
REMARK SMILES IDX 1 1 2 2 3 3 4 4
REMARK H PARENT
REMARK Flexibility Score: inf
ROOT
ATOM      1  C   UNL     1      11.027  21.144  20.104  1.00  0.00     0.063 C 
ATOM      2  C   UNL     1       9.799  21.685  19.454  1.00  0.00     0.038 C 
ATOM      3  O   UNL     1       9.880  22.288  18.353  1.00  0.00    -0.550 OA
ATOM      4  O   UNL     1       8.555  21.477  20.037  1.00  0.00    -0.550 OA
ENDROOT
TORSDOF 0
ENDMDL
MODEL 8
REMARK VINA RESULT:    -2.345      9.339      9.761
REMARK INTER + INTRA:          -2.345
REMARK INTER:                  -2.345
REMARK INTRA:                   0.000
REMARK UNBOUND:                 0.000
REMARK SMILES CC(=O)[O-]
REMARK SMILES IDX 1 1 2 2 3 3 4 4
REMARK H PARENT
REMARK Flexibility Score: inf
ROOT
ATOM      1  C   UNL     1      18.942  18.873  12.010  1.00  0.00     0.063 C 
ATOM      2  C   UNL     1      17.527  19.221  11.695  1.00  0.00     0.038 C 
ATOM      3  O   UNL     1      16.661  19.235  12.609  1.00  0.00    -0.550 OA
ATOM      4  O   UNL     1      17.170  19.585  10.402  1.00  0.00    -0.550 OA
ENDROOT
TORSDOF 0
ENDMDL
MODEL 9
REMARK VINA RESULT:    -2.341     16.115     16.514
REMARK INTER + INTRA:          -2.341
REMARK INTER:                  -2.341
REMARK INTRA:                   0.000
REMARK UNBOUND:                 0.000
REMARK SMILES CC(=O)[O-]
REMARK SMILES IDX 1 1 2 2 3 3 4 4
REMARK H PARENT
REMARK Flexibility Score: inf
ROOT
ATOM      1  C   UNL     1      10.400  23.057   7.910  1.00  0.00     0.063 C 
ATOM      2  C   UNL     1       9.942  21.696   8.310  1.00  0.00     0.038 C 
ATOM      3  O   UNL     1      10.766  20.748   8.381  1.00  0.00    -0.550 OA
ATOM      4  O   UNL     1       8.614  21.483   8.658  1.00  0.00    -0.550 OA
ENDROOT
TORSDOF 0
ENDMDL
