MODEL 1
REMARK VINA RESULT:    -7.945      0.000      0.000
REMARK INTER + INTRA:          -9.649
REMARK INTER:                  -9.339
REMARK INTRA:                  -0.311
REMARK UNBOUND:                -0.311
REMARK SMILES O=c1cc(-c2ccc(O)c(O)c2)oc2cc(O)cc(O)c12
REMARK SMILES IDX 4 1 3 2 2 3 1 4 21 5 19 6 18 7 16 8 15 9 14 10 13 11 5 12
REMARK SMILES IDX 6 13 7 14 8 15 12 16 10 17 9 18 11 20 20 22 17 24
REMARK H PARENT 9 19 11 21 20 23 17 25
REMARK Flexibility Score: inf
ROOT
ATOM      1  C   UNL     1      38.978 -12.678   8.764  1.00  0.00     0.138 A 
ATOM      2  C   UNL     1      39.114 -11.359   9.217  1.00  0.00     0.100 A 
ATOM      3  C   UNL     1      40.195 -11.016  10.031  1.00  0.00     0.197 A 
ATOM      4  O   UNL     1      40.256  -9.839  10.473  1.00  0.00    -0.289 OA
ATOM      5  C   UNL     1      41.161 -11.995  10.367  1.00  0.00     0.107 A 
ATOM      6  C   UNL     1      42.324 -11.751  11.156  1.00  0.00     0.134 A 
ATOM      7  C   UNL     1      43.148 -12.824  11.520  1.00  0.00     0.093 A 
ATOM      8  C   UNL     1      42.884 -14.118  11.075  1.00  0.00     0.123 A 
ATOM      9  C   UNL     1      41.780 -14.360  10.258  1.00  0.00     0.094 A 
ATOM     10  C   UNL     1      40.919 -13.317   9.906  1.00  0.00     0.146 A 
ATOM     11  O   UNL     1      39.869 -13.590   9.138  1.00  0.00    -0.456 OA
ENDROOT
BRANCH   1  12
ATOM     12  C   UNL     1      37.849 -13.096   7.895  1.00  0.00     0.021 A 
ATOM     13  C   UNL     1      36.647 -12.363   7.839  1.00  0.00     0.016 A 
ATOM     14  C   UNL     1      35.605 -12.774   7.005  1.00  0.00     0.051 A 
ATOM     15  C   UNL     1      35.746 -13.915   6.206  1.00  0.00     0.157 A 
ATOM     16  C   UNL     1      37.987 -14.234   7.080  1.00  0.00     0.062 A 
ATOM     17  C   UNL     1      36.941 -14.646   6.243  1.00  0.00     0.158 A 
BRANCH  15  18
ATOM     18  O   UNL     1      34.708 -14.329   5.374  1.00  0.00    -0.504 OA
ATOM     19  H   UNL     1      34.825 -14.380   4.368  1.00  0.00     0.293 HD
ENDBRANCH  15  18
BRANCH  17  20
ATOM     20  O   UNL     1      37.080 -15.780   5.445  1.00  0.00    -0.504 OA
ATOM     21  H   UNL     1      36.328 -16.106   4.850  1.00  0.00     0.293 HD
ENDBRANCH  17  20
ENDBRANCH   1  12
BRANCH   6  22
ATOM     22  O   UNL     1      42.727 -10.481  11.582  1.00  0.00    -0.507 OA
ATOM     23  H   UNL     1      43.130 -10.277  12.483  1.00  0.00     0.293 HD
ENDBRANCH   6  22
BRANCH   8  24
ATOM     24  O   UNL     1      43.735 -15.158  11.445  1.00  0.00    -0.508 OA
ATOM     25  H   UNL     1      44.368 -15.072  12.231  1.00  0.00     0.293 HD
ENDBRANCH   8  24
TORSDOF 5
ENDMDL
MODEL 2
REMARK VINA RESULT:    -7.737      0.920      1.477
REMARK INTER + INTRA:          -9.405
REMARK INTER:                  -9.116
REMARK INTRA:                  -0.289
REMARK UNBOUND:                -0.311
REMARK SMILES O=c1cc(-c2ccc(O)c(O)c2)oc2cc(O)cc(O)c12
REMARK SMILES IDX 4 1 3 2 2 3 1 4 21 5 19 6 18 7 16 8 15 9 14 10 13 11 5 12
REMARK SMILES IDX 6 13 7 14 8 15 12 16 10 17 9 18 11 20 20 22 17 24
REMARK H PARENT 9 19 11 21 20 23 17 25
REMARK Flexibility Score: inf
ROOT
ATOM      1  C   UNL     1      39.125 -12.577   8.350  1.00  0.00     0.138 A 
ATOM      2  C   UNL     1      39.181 -11.278   8.874  1.00  0.00     0.100 A 
ATOM      3  C   UNL     1      40.191 -10.942   9.778  1.00  0.00     0.197 A 
ATOM      4  O   UNL     1      40.179  -9.788  10.280  1.00  0.00    -0.289 OA
ATOM      5  C   UNL     1      41.165 -11.905  10.134  1.00  0.00     0.107 A 
ATOM      6  C   UNL     1      42.262 -11.664  11.015  1.00  0.00     0.134 A 
ATOM      7  C   UNL     1      43.097 -12.726  11.385  1.00  0.00     0.093 A 
ATOM      8  C   UNL     1      42.911 -14.004  10.860  1.00  0.00     0.123 A 
ATOM      9  C   UNL     1      41.875 -14.240   9.956  1.00  0.00     0.094 A 
ATOM     10  C   UNL     1      41.003 -13.209   9.594  1.00  0.00     0.146 A 
ATOM     11  O   UNL     1      40.020 -13.477   8.742  1.00  0.00    -0.456 OA
ENDROOT
BRANCH   1  12
ATOM     12  C   UNL     1      38.074 -12.986   7.384  1.00  0.00     0.021 A 
ATOM     13  C   UNL     1      37.683 -14.332   7.242  1.00  0.00     0.016 A 
ATOM     14  C   UNL     1      36.684 -14.687   6.332  1.00  0.00     0.051 A 
ATOM     15  C   UNL     1      36.053 -13.707   5.557  1.00  0.00     0.157 A 
ATOM     16  C   UNL     1      37.426 -12.007   6.610  1.00  0.00     0.062 A 
ATOM     17  C   UNL     1      36.423 -12.364   5.697  1.00  0.00     0.158 A 
BRANCH  15  18
ATOM     18  O   UNL     1      35.057 -14.058   4.647  1.00  0.00    -0.504 OA
ATOM     19  H   UNL     1      34.739 -15.016   4.554  1.00  0.00     0.293 HD
ENDBRANCH  15  18
BRANCH  17  20
ATOM     20  O   UNL     1      35.791 -11.389   4.927  1.00  0.00    -0.504 OA
ATOM     21  H   UNL     1      35.500 -11.573   3.974  1.00  0.00     0.293 HD
ENDBRANCH  17  20
ENDBRANCH   1  12
BRANCH   6  22
ATOM     22  O   UNL     1      42.588 -10.405  11.530  1.00  0.00    -0.507 OA
ATOM     23  H   UNL     1      43.527 -10.071  11.684  1.00  0.00     0.293 HD
ENDBRANCH   6  22
BRANCH   8  24
ATOM     24  O   UNL     1      43.770 -15.034  11.239  1.00  0.00    -0.508 OA
ATOM     25  H   UNL     1      44.150 -15.090  12.176  1.00  0.00     0.293 HD
ENDBRANCH   8  24
TORSDOF 5
ENDMDL
MODEL 3
REMARK VINA RESULT:    -7.644      5.565     11.757
REMARK INTER + INTRA:          -9.295
REMARK INTER:                  -8.981
REMARK INTRA:                  -0.314
REMARK UNBOUND:                -0.311
REMARK SMILES O=c1cc(-c2ccc(O)c(O)c2)oc2cc(O)cc(O)c12
REMARK SMILES IDX 4 1 3 2 2 3 1 4 21 5 19 6 18 7 16 8 15 9 14 10 13 11 5 12
REMARK SMILES IDX 6 13 7 14 8 15 12 16 10 17 9 18 11 20 20 22 17 24
REMARK H PARENT 9 19 11 21 20 23 17 25
REMARK Flexibility Score: inf
ROOT
ATOM      1  C   UNL     1      33.196 -14.861   3.073  1.00  0.00     0.138 A 
ATOM      2  C   UNL     1      33.538 -15.293   1.785  1.00  0.00     0.100 A 
ATOM      3  C   UNL     1      32.537 -15.478   0.829  1.00  0.00     0.197 A 
ATOM      4  O   UNL     1      32.868 -15.927  -0.299  1.00  0.00    -0.289 OA
ATOM      5  C   UNL     1      31.190 -15.198   1.159  1.00  0.00     0.107 A 
ATOM      6  C   UNL     1      30.091 -15.311   0.256  1.00  0.00     0.134 A 
ATOM      7  C   UNL     1      28.787 -15.119   0.728  1.00  0.00     0.093 A 
ATOM      8  C   UNL     1      28.546 -14.760   2.053  1.00  0.00     0.123 A 
ATOM      9  C   UNL     1      29.616 -14.593   2.932  1.00  0.00     0.094 A 
ATOM     10  C   UNL     1      30.927 -14.812   2.501  1.00  0.00     0.146 A 
ATOM     11  O   UNL     1      31.917 -14.657   3.373  1.00  0.00    -0.456 OA
ENDROOT
BRANCH   1  12
ATOM     12  C   UNL     1      34.220 -14.647   4.126  1.00  0.00     0.021 A 
ATOM     13  C   UNL     1      35.527 -15.157   4.002  1.00  0.00     0.016 A 
ATOM     14  C   UNL     1      36.474 -14.932   5.004  1.00  0.00     0.051 A 
ATOM     15  C   UNL     1      36.137 -14.187   6.140  1.00  0.00     0.157 A 
ATOM     16  C   UNL     1      33.895 -13.888   5.265  1.00  0.00     0.062 A 
ATOM     17  C   UNL     1      34.845 -13.662   6.271  1.00  0.00     0.158 A 
BRANCH  15  18
ATOM     18  O   UNL     1      37.079 -13.961   7.143  1.00  0.00    -0.504 OA
ATOM     19  H   UNL     1      37.632 -14.717   7.529  1.00  0.00     0.293 HD
ENDBRANCH  15  18
BRANCH  17  20
ATOM     20  O   UNL     1      34.513 -12.918   7.401  1.00  0.00    -0.504 OA
ATOM     21  H   UNL     1      34.127 -13.355   8.229  1.00  0.00     0.293 HD
ENDBRANCH  17  20
ENDBRANCH   1  12
BRANCH   6  22
ATOM     22  O   UNL     1      30.228 -15.583  -1.109  1.00  0.00    -0.507 OA
ATOM     23  H   UNL     1      30.368 -16.500  -1.503  1.00  0.00     0.293 HD
ENDBRANCH   6  22
BRANCH   8  24
ATOM     24  O   UNL     1      27.235 -14.562   2.484  1.00  0.00    -0.508 OA
ATOM     25  H   UNL     1      27.005 -13.861   3.177  1.00  0.00     0.293 HD
ENDBRANCH   8  24
TORSDOF 5
ENDMDL
MODEL 4
REMARK VINA RESULT:    -7.576      7.553     10.724
REMARK INTER + INTRA:          -9.215
REMARK INTER:                  -8.951
REMARK INTRA:                  -0.264
REMARK UNBOUND:                -0.311
REMARK SMILES O=c1cc(-c2ccc(O)c(O)c2)oc2cc(O)cc(O)c12
REMARK SMILES IDX 4 1 3 2 2 3 1 4 21 5 19 6 18 7 16 8 15 9 14 10 13 11 5 12
REMARK SMILES IDX 6 13 7 14 8 15 12 16 10 17 9 18 11 20 20 22 17 24
REMARK H PARENT 9 19 11 21 20 23 17 25
REMARK Flexibility Score: inf
ROOT
ATOM      1  C   UNL     1      32.179 -14.515   1.478  1.00  0.00     0.138 A 
ATOM      2  C   UNL     1      32.865 -15.309   2.407  1.00  0.00     0.100 A 
ATOM      3  C   UNL     1      34.062 -14.848   2.958  1.00  0.00     0.197 A 
ATOM      4  O   UNL     1      34.688 -15.609   3.741  1.00  0.00    -0.289 OA
ATOM      5  C   UNL     1      34.557 -13.572   2.598  1.00  0.00     0.107 A 
ATOM      6  C   UNL     1      35.744 -12.982   3.126  1.00  0.00     0.134 A 
ATOM      7  C   UNL     1      36.197 -11.762   2.608  1.00  0.00     0.093 A 
ATOM      8  C   UNL     1      35.476 -11.083   1.628  1.00  0.00     0.123 A 
ATOM      9  C   UNL     1      34.284 -11.623   1.143  1.00  0.00     0.094 A 
ATOM     10  C   UNL     1      33.824 -12.856   1.613  1.00  0.00     0.146 A 
ATOM     11  O   UNL     1      32.693 -13.344   1.116  1.00  0.00    -0.456 OA
ENDROOT
BRANCH   1  12
ATOM     12  C   UNL     1      30.902 -14.956   0.863  1.00  0.00     0.021 A 
ATOM     13  C   UNL     1      30.826 -15.345  -0.489  1.00  0.00     0.016 A 
ATOM     14  C   UNL     1      29.613 -15.765  -1.039  1.00  0.00     0.051 A 
ATOM     15  C   UNL     1      28.458 -15.815  -0.249  1.00  0.00     0.157 A 
ATOM     16  C   UNL     1      29.739 -15.021   1.652  1.00  0.00     0.062 A 
ATOM     17  C   UNL     1      28.521 -15.444   1.100  1.00  0.00     0.158 A 
BRANCH  15  18
ATOM     18  O   UNL     1      27.245 -16.232  -0.794  1.00  0.00    -0.504 OA
ATOM     19  H   UNL     1      26.730 -15.651  -1.445  1.00  0.00     0.293 HD
ENDBRANCH  15  18
BRANCH  17  20
ATOM     20  O   UNL     1      27.371 -15.497   1.886  1.00  0.00    -0.504 OA
ATOM     21  H   UNL     1      26.532 -14.991   1.631  1.00  0.00     0.293 HD
ENDBRANCH  17  20
ENDBRANCH   1  12
BRANCH   6  22
ATOM     22  O   UNL     1      36.495 -13.536   4.167  1.00  0.00    -0.507 OA
ATOM     23  H   UNL     1      37.409 -13.948   4.062  1.00  0.00     0.293 HD
ENDBRANCH   6  22
BRANCH   8  24
ATOM     24  O   UNL     1      35.949  -9.863   1.147  1.00  0.00    -0.508 OA
ATOM     25  H   UNL     1      36.812  -9.458   1.488  1.00  0.00     0.293 HD
ENDBRANCH   8  24
TORSDOF 5
ENDMDL
MODEL 5
REMARK VINA RESULT:    -7.377      6.750     10.355
REMARK INTER + INTRA:          -8.981
REMARK INTER:                  -8.695
REMARK INTRA:                  -0.286
REMARK UNBOUND:                -0.311
REMARK SMILES O=c1cc(-c2ccc(O)c(O)c2)oc2cc(O)cc(O)c12
REMARK SMILES IDX 4 1 3 2 2 3 1 4 21 5 19 6 18 7 16 8 15 9 14 10 13 11 5 12
REMARK SMILES IDX 6 13 7 14 8 15 12 16 10 17 9 18 11 20 20 22 17 24
REMARK H PARENT 9 19 11 21 20 23 17 25
REMARK Flexibility Score: inf
ROOT
ATOM      1  C   UNL     1      31.946 -14.194   1.408  1.00  0.00     0.138 A 
ATOM      2  C   UNL     1      32.616 -13.186   0.701  1.00  0.00     0.100 A 
ATOM      3  C   UNL     1      33.805 -12.659   1.209  1.00  0.00     0.197 A 
ATOM      4  O   UNL     1      34.350 -11.713   0.584  1.00  0.00    -0.289 OA
ATOM      5  C   UNL     1      34.340 -13.167   2.417  1.00  0.00     0.107 A 
ATOM      6  C   UNL     1      35.564 -12.735   3.008  1.00  0.00     0.134 A 
ATOM      7  C   UNL     1      35.935 -13.228   4.266  1.00  0.00     0.093 A 
ATOM      8  C   UNL     1      35.158 -14.180   4.924  1.00  0.00     0.123 A 
ATOM      9  C   UNL     1      33.986 -14.651   4.331  1.00  0.00     0.094 A 
ATOM     10  C   UNL     1      33.571 -14.153   3.093  1.00  0.00     0.146 A 
ATOM     11  O   UNL     1      32.441 -14.615   2.567  1.00  0.00    -0.456 OA
ENDROOT
BRANCH   1  12
ATOM     12  C   UNL     1      30.680 -14.789   0.912  1.00  0.00     0.021 A 
ATOM     13  C   UNL     1      30.577 -15.340  -0.380  1.00  0.00     0.016 A 
ATOM     14  C   UNL     1      29.376 -15.904  -0.816  1.00  0.00     0.051 A 
ATOM     15  C   UNL     1      28.261 -15.936   0.030  1.00  0.00     0.157 A 
ATOM     16  C   UNL     1      29.559 -14.838   1.761  1.00  0.00     0.062 A 
ATOM     17  C   UNL     1      28.353 -15.403   1.323  1.00  0.00     0.158 A 
BRANCH  15  18
ATOM     18  O   UNL     1      27.060 -16.496  -0.402  1.00  0.00    -0.504 OA
ATOM     19  H   UNL     1      26.334 -15.929  -0.825  1.00  0.00     0.293 HD
ENDBRANCH  15  18
BRANCH  17  20
ATOM     20  O   UNL     1      27.243 -15.439   2.165  1.00  0.00    -0.504 OA
ATOM     21  H   UNL     1      26.790 -14.590   2.481  1.00  0.00     0.293 HD
ENDBRANCH  17  20
ENDBRANCH   1  12
BRANCH   6  22
ATOM     22  O   UNL     1      36.458 -11.850   2.396  1.00  0.00    -0.507 OA
ATOM     23  H   UNL     1      37.408 -12.073   2.146  1.00  0.00     0.293 HD
ENDBRANCH   6  22
BRANCH   8  24
ATOM     24  O   UNL     1      35.565 -14.660   6.167  1.00  0.00    -0.508 OA
ATOM     25  H   UNL     1      34.935 -14.682   6.960  1.00  0.00     0.293 HD
ENDBRANCH   8  24
TORSDOF 5
ENDMDL
MODEL 6
REMARK VINA RESULT:    -7.319      2.093      7.076
REMARK INTER + INTRA:          -8.913
REMARK INTER:                  -8.633
REMARK INTRA:                  -0.281
REMARK UNBOUND:                -0.311
REMARK SMILES O=c1cc(-c2ccc(O)c(O)c2)oc2cc(O)cc(O)c12
REMARK SMILES IDX 4 1 3 2 2 3 1 4 21 5 19 6 18 7 16 8 15 9 14 10 13 11 5 12
REMARK SMILES IDX 6 13 7 14 8 15 12 16 10 17 9 18 11 20 20 22 17 24
REMARK H PARENT 9 19 11 21 20 23 17 25
REMARK Flexibility Score: inf
ROOT
ATOM      1  C   UNL     1      40.041 -12.081   8.299  1.00  0.00     0.138 A 
ATOM      2  C   UNL     1      40.279 -11.082   7.344  1.00  0.00     0.100 A 
ATOM      3  C   UNL     1      39.344 -10.859   6.331  1.00  0.00     0.197 A 
ATOM      4  O   UNL     1      39.614 -10.000   5.453  1.00  0.00    -0.289 OA
ATOM      5  C   UNL     1      38.152 -11.622   6.294  1.00  0.00     0.107 A 
ATOM      6  C   UNL     1      37.111 -11.455   5.332  1.00  0.00     0.134 A 
ATOM      7  C   UNL     1      36.030 -12.346   5.324  1.00  0.00     0.093 A 
ATOM      8  C   UNL     1      35.923 -13.356   6.278  1.00  0.00     0.123 A 
ATOM      9  C   UNL     1      36.907 -13.495   7.256  1.00  0.00     0.094 A 
ATOM     10  C   UNL     1      38.016 -12.645   7.270  1.00  0.00     0.146 A 
ATOM     11  O   UNL     1      38.939 -12.819   8.209  1.00  0.00    -0.456 OA
ENDROOT
BRANCH   1  12
ATOM     12  C   UNL     1      41.000 -12.358   9.398  1.00  0.00     0.021 A 
ATOM     13  C   UNL     1      41.276 -13.671   9.826  1.00  0.00     0.016 A 
ATOM     14  C   UNL     1      42.191 -13.903  10.856  1.00  0.00     0.051 A 
ATOM     15  C   UNL     1      42.852 -12.832  11.469  1.00  0.00     0.157 A 
ATOM     16  C   UNL     1      41.678 -11.289  10.011  1.00  0.00     0.062 A 
ATOM     17  C   UNL     1      42.597 -11.522  11.044  1.00  0.00     0.158 A 
BRANCH  15  18
ATOM     18  O   UNL     1      43.765 -13.059  12.498  1.00  0.00    -0.504 OA
ATOM     19  H   UNL     1      43.459 -13.214  13.451  1.00  0.00     0.293 HD
ENDBRANCH  15  18
BRANCH  17  20
ATOM     20  O   UNL     1      43.258 -10.457  11.654  1.00  0.00    -0.504 OA
ATOM     21  H   UNL     1      44.051 -10.607  12.266  1.00  0.00     0.293 HD
ENDBRANCH  17  20
ENDBRANCH   1  12
BRANCH   6  22
ATOM     22  O   UNL     1      37.078 -10.424   4.387  1.00  0.00    -0.507 OA
ATOM     23  H   UNL     1      36.254 -10.123   3.892  1.00  0.00     0.293 HD
ENDBRANCH   6  22
BRANCH   8  24
ATOM     24  O   UNL     1      34.825 -14.215   6.249  1.00  0.00    -0.508 OA
ATOM     25  H   UNL     1      33.995 -13.996   5.711  1.00  0.00     0.293 HD
ENDBRANCH   8  24
TORSDOF 5
ENDMDL
MODEL 7
REMARK VINA RESULT:    -7.244      2.632      7.181
REMARK INTER + INTRA:          -8.825
REMARK INTER:                  -8.561
REMARK INTRA:                  -0.264
REMARK UNBOUND:                -0.311
REMARK SMILES O=c1cc(-c2ccc(O)c(O)c2)oc2cc(O)cc(O)c12
REMARK SMILES IDX 4 1 3 2 2 3 1 4 21 5 19 6 18 7 16 8 15 9 14 10 13 11 5 12
REMARK SMILES IDX 6 13 7 14 8 15 12 16 10 17 9 18 11 20 20 22 17 24
REMARK H PARENT 9 19 11 21 20 23 17 25
REMARK Flexibility Score: inf
ROOT
ATOM      1  C   UNL     1      39.908 -11.699   8.684  1.00  0.00     0.138 A 
ATOM      2  C   UNL     1      38.659 -12.258   8.989  1.00  0.00     0.100 A 
ATOM      3  C   UNL     1      37.655 -12.274   8.019  1.00  0.00     0.197 A 
ATOM      4  O   UNL     1      36.525 -12.726   8.342  1.00  0.00    -0.289 OA
ATOM      5  C   UNL     1      37.915 -11.754   6.729  1.00  0.00     0.107 A 
ATOM      6  C   UNL     1      36.981 -11.753   5.650  1.00  0.00     0.134 A 
ATOM      7  C   UNL     1      37.310 -11.106   4.452  1.00  0.00     0.093 A 
ATOM      8  C   UNL     1      38.559 -10.514   4.274  1.00  0.00     0.123 A 
ATOM      9  C   UNL     1      39.501 -10.555   5.303  1.00  0.00     0.094 A 
ATOM     10  C   UNL     1      39.190 -11.162   6.522  1.00  0.00     0.146 A 
ATOM     11  O   UNL     1      40.108 -11.168   7.483  1.00  0.00    -0.456 OA
ENDROOT
BRANCH   1  12
ATOM     12  C   UNL     1      41.011 -11.658   9.677  1.00  0.00     0.021 A 
ATOM     13  C   UNL     1      41.408 -10.455  10.293  1.00  0.00     0.016 A 
ATOM     14  C   UNL     1      42.442 -10.448  11.232  1.00  0.00     0.051 A 
ATOM     15  C   UNL     1      43.091 -11.639  11.579  1.00  0.00     0.157 A 
ATOM     16  C   UNL     1      41.660 -12.852  10.041  1.00  0.00     0.062 A 
ATOM     17  C   UNL     1      42.698 -12.844  10.983  1.00  0.00     0.158 A 
BRANCH  15  18
ATOM     18  O   UNL     1      44.125 -11.635  12.514  1.00  0.00    -0.504 OA
ATOM     19  H   UNL     1      43.997 -12.017  13.444  1.00  0.00     0.293 HD
ENDBRANCH  15  18
BRANCH  17  20
ATOM     20  O   UNL     1      43.343 -14.029  11.332  1.00  0.00    -0.504 OA
ATOM     21  H   UNL     1      44.354 -14.093  11.365  1.00  0.00     0.293 HD
ENDBRANCH  17  20
ENDBRANCH   1  12
BRANCH   6  22
ATOM     22  O   UNL     1      35.736 -12.391   5.693  1.00  0.00    -0.507 OA
ATOM     23  H   UNL     1      34.859 -11.957   5.454  1.00  0.00     0.293 HD
ENDBRANCH   6  22
BRANCH   8  24
ATOM     24  O   UNL     1      38.858  -9.892   3.063  1.00  0.00    -0.508 OA
ATOM     25  H   UNL     1      38.808 -10.391   2.184  1.00  0.00     0.293 HD
ENDBRANCH   8  24
TORSDOF 5
ENDMDL
MODEL 8
REMARK VINA RESULT:    -7.115      2.562      7.895
REMARK INTER + INTRA:          -8.673
REMARK INTER:                  -8.355
REMARK INTRA:                  -0.318
REMARK UNBOUND:                -0.311
REMARK SMILES O=c1cc(-c2ccc(O)c(O)c2)oc2cc(O)cc(O)c12
REMARK SMILES IDX 4 1 3 2 2 3 1 4 21 5 19 6 18 7 16 8 15 9 14 10 13 11 5 12
REMARK SMILES IDX 6 13 7 14 8 15 12 16 10 17 9 18 11 20 20 22 17 24
REMARK H PARENT 9 19 11 21 20 23 17 25
REMARK Flexibility Score: inf
ROOT
ATOM      1  C   UNL     1      38.096 -11.790   7.252  1.00  0.00     0.138 A 
ATOM      2  C   UNL     1      37.739 -13.146   7.269  1.00  0.00     0.100 A 
ATOM      3  C   UNL     1      37.005 -13.680   6.208  1.00  0.00     0.197 A 
ATOM      4  O   UNL     1      36.646 -14.884   6.281  1.00  0.00    -0.289 OA
ATOM      5  C   UNL     1      36.654 -12.857   5.111  1.00  0.00     0.107 A 
ATOM      6  C   UNL     1      35.942 -13.302   3.957  1.00  0.00     0.134 A 
ATOM      7  C   UNL     1      35.549 -12.370   2.988  1.00  0.00     0.093 A 
ATOM      8  C   UNL     1      35.893 -11.025   3.101  1.00  0.00     0.123 A 
ATOM      9  C   UNL     1      36.635 -10.587   4.198  1.00  0.00     0.094 A 
ATOM     10  C   UNL     1      37.013 -11.485   5.200  1.00  0.00     0.146 A 
ATOM     11  O   UNL     1      37.706 -11.027   6.236  1.00  0.00    -0.456 OA
ENDROOT
BRANCH   1  12
ATOM     12  C   UNL     1      38.877 -11.172   8.353  1.00  0.00     0.021 A 
ATOM     13  C   UNL     1      39.274 -11.911   9.484  1.00  0.00     0.016 A 
ATOM     14  C   UNL     1      40.018 -11.306  10.500  1.00  0.00     0.051 A 
ATOM     15  C   UNL     1      40.385  -9.959  10.402  1.00  0.00     0.157 A 
ATOM     16  C   UNL     1      39.261  -9.823   8.256  1.00  0.00     0.062 A 
ATOM     17  C   UNL     1      40.007  -9.215   9.276  1.00  0.00     0.158 A 
BRANCH  15  18
ATOM     18  O   UNL     1      41.125  -9.351  11.414  1.00  0.00    -0.504 OA
ATOM     19  H   UNL     1      42.016  -9.728  11.717  1.00  0.00     0.293 HD
ENDBRANCH  15  18
BRANCH  17  20
ATOM     20  O   UNL     1      40.376  -7.875   9.179  1.00  0.00    -0.504 OA
ATOM     21  H   UNL     1      41.030  -7.555   8.474  1.00  0.00     0.293 HD
ENDBRANCH  17  20
ENDBRANCH   1  12
BRANCH   6  22
ATOM     22  O   UNL     1      35.622 -14.639   3.704  1.00  0.00    -0.507 OA
ATOM     23  H   UNL     1      35.240 -15.279   4.384  1.00  0.00     0.293 HD
ENDBRANCH   6  22
BRANCH   8  24
ATOM     24  O   UNL     1      35.498 -10.129   2.109  1.00  0.00    -0.508 OA
ATOM     25  H   UNL     1      34.698 -10.313   1.515  1.00  0.00     0.293 HD
ENDBRANCH   8  24
TORSDOF 5
ENDMDL
MODEL 9
REMARK VINA RESULT:    -7.005      5.554      8.641
REMARK INTER + INTRA:          -8.544
REMARK INTER:                  -8.263
REMARK INTRA:                  -0.281
REMARK UNBOUND:                -0.311
REMARK SMILES O=c1cc(-c2ccc(O)c(O)c2)oc2cc(O)cc(O)c12
REMARK SMILES IDX 4 1 3 2 2 3 1 4 21 5 19 6 18 7 16 8 15 9 14 10 13 11 5 12
REMARK SMILES IDX 6 13 7 14 8 15 12 16 10 17 9 18 11 20 20 22 17 24
REMARK H PARENT 9 19 11 21 20 23 17 25
REMARK Flexibility Score: inf
ROOT
ATOM      1  C   UNL     1      33.636 -14.203   2.721  1.00  0.00     0.138 A 
ATOM      2  C   UNL     1      33.505 -14.555   4.071  1.00  0.00     0.100 A 
ATOM      3  C   UNL     1      34.480 -14.154   4.987  1.00  0.00     0.197 A 
ATOM      4  O   UNL     1      34.367 -14.538   6.180  1.00  0.00    -0.289 OA
ATOM      5  C   UNL     1      35.575 -13.372   4.551  1.00  0.00     0.107 A 
ATOM      6  C   UNL     1      36.607 -12.873   5.401  1.00  0.00     0.134 A 
ATOM      7  C   UNL     1      37.704 -12.207   4.838  1.00  0.00     0.093 A 
ATOM      8  C   UNL     1      37.775 -11.970   3.467  1.00  0.00     0.123 A 
ATOM      9  C   UNL     1      36.746 -12.405   2.632  1.00  0.00     0.094 A 
ATOM     10  C   UNL     1      35.656 -13.103   3.158  1.00  0.00     0.146 A 
ATOM     11  O   UNL     1      34.703 -13.514   2.328  1.00  0.00    -0.456 OA
ENDROOT
BRANCH   1  12
ATOM     12  C   UNL     1      32.629 -14.601   1.706  1.00  0.00     0.021 A 
ATOM     13  C   UNL     1      33.002 -14.985   0.403  1.00  0.00     0.016 A 
ATOM     14  C   UNL     1      32.032 -15.365  -0.528  1.00  0.00     0.051 A 
ATOM     15  C   UNL     1      30.677 -15.377  -0.174  1.00  0.00     0.157 A 
ATOM     16  C   UNL     1      31.267 -14.628   2.057  1.00  0.00     0.062 A 
ATOM     17  C   UNL     1      30.294 -15.009   1.122  1.00  0.00     0.158 A 
BRANCH  15  18
ATOM     18  O   UNL     1      29.707 -15.754  -1.101  1.00  0.00    -0.504 OA
ATOM     19  H   UNL     1      29.846 -15.619  -2.096  1.00  0.00     0.293 HD
ENDBRANCH  15  18
BRANCH  17  20
ATOM     20  O   UNL     1      28.945 -15.025   1.473  1.00  0.00    -0.504 OA
ATOM     21  H   UNL     1      28.641 -14.829   2.419  1.00  0.00     0.293 HD
ENDBRANCH  17  20
ENDBRANCH   1  12
BRANCH   6  22
ATOM     22  O   UNL     1      36.591 -12.982   6.795  1.00  0.00    -0.507 OA
ATOM     23  H   UNL     1      37.385 -12.819   7.395  1.00  0.00     0.293 HD
ENDBRANCH   6  22
BRANCH   8  24
ATOM     24  O   UNL     1      38.874 -11.291   2.944  1.00  0.00    -0.508 OA
ATOM     25  H   UNL     1      38.914 -10.279   2.929  1.00  0.00     0.293 HD
ENDBRANCH   8  24
TORSDOF 5
ENDMDL
