MODEL 1
REMARK VINA RESULT:    -6.057      0.000      0.000
REMARK INTER + INTRA:          -6.747
REMARK INTER:                  -6.412
REMARK INTRA:                  -0.336
REMARK UNBOUND:                -0.336
REMARK SMILES CC1=C[C@H]2C(=C(C)CC[C@@H]2C(C)C)CC1
REMARK SMILES IDX 1 1 2 2 3 3 4 4 10 5 9 6 8 7 6 8 5 9 14 10 15 11 7 12 11 13
REMARK SMILES IDX 12 14 13 15
REMARK H PARENT
REMARK Flexibility Score: inf
ROOT
ATOM      1  C   UNL     1     106.287 106.221 130.105  1.00  0.00     0.039 C 
ATOM      2  C   UNL     1     105.465 105.281 129.265  1.00  0.00    -0.076 C 
ATOM      3  C   UNL     1     105.942 104.039 129.015  1.00  0.00    -0.020 C 
ATOM      4  C   UNL     1     105.167 102.997 128.222  1.00  0.00     0.041 C 
ATOM      5  C   UNL     1     106.122 101.929 127.572  1.00  0.00     0.003 C 
ATOM      6  C   UNL     1     105.599 101.498 126.184  1.00  0.00     0.009 C 
ATOM      7  C   UNL     1     105.341 102.713 125.303  1.00  0.00     0.031 C 
ATOM      8  C   UNL     1     104.310 103.617 125.921  1.00  0.00    -0.073 C 
ATOM      9  C   UNL     1     104.229 103.728 127.272  1.00  0.00    -0.064 C 
ATOM     10  C   UNL     1     103.332 104.724 127.972  1.00  0.00     0.036 C 
ATOM     11  C   UNL     1     104.204 105.816 128.603  1.00  0.00     0.035 C 
ATOM     12  C   UNL     1     103.442 104.439 124.998  1.00  0.00     0.039 C 
ENDROOT
BRANCH   5  13
ATOM     13  C   UNL     1     106.323 100.674 128.497  1.00  0.00    -0.013 C 
ATOM     14  C   UNL     1     107.640 100.739 129.295  1.00  0.00     0.007 C 
ATOM     15  C   UNL     1     105.164 100.478 129.489  1.00  0.00     0.007 C 
ENDBRANCH   5  13
TORSDOF 1
ENDMDL
MODEL 2
REMARK VINA RESULT:    -6.038      4.189      5.483
REMARK INTER + INTRA:          -6.726
REMARK INTER:                  -6.403
REMARK INTRA:                  -0.324
REMARK UNBOUND:                -0.336
REMARK SMILES CC1=C[C@H]2C(=C(C)CC[C@@H]2C(C)C)CC1
REMARK SMILES IDX 1 1 2 2 3 3 4 4 10 5 9 6 8 7 6 8 5 9 14 10 15 11 7 12 11 13
REMARK SMILES IDX 12 14 13 15
REMARK H PARENT
REMARK Flexibility Score: inf
ROOT
ATOM      1  C   UNL     1     106.275 106.088 129.961  1.00  0.00     0.039 C 
ATOM      2  C   UNL     1     107.253 105.348 129.089  1.00  0.00    -0.076 C 
ATOM      3  C   UNL     1     108.492 105.864 128.909  1.00  0.00    -0.020 C 
ATOM      4  C   UNL     1     109.570 105.169 128.090  1.00  0.00     0.041 C 
ATOM      5  C   UNL     1     110.635 106.187 127.542  1.00  0.00     0.003 C 
ATOM      6  C   UNL     1     111.113 105.777 126.132  1.00  0.00     0.009 C 
ATOM      7  C   UNL     1     109.927 105.563 125.200  1.00  0.00     0.031 C 
ATOM      8  C   UNL     1     109.027 104.473 125.715  1.00  0.00    -0.073 C 
ATOM      9  C   UNL     1     108.882 104.290 127.054  1.00  0.00    -0.064 C 
ATOM     10  C   UNL     1     107.886 103.327 127.658  1.00  0.00     0.036 C 
ATOM     11  C   UNL     1     106.761 104.130 128.320  1.00  0.00     0.035 C 
ATOM     12  C   UNL     1     108.247 103.662 124.709  1.00  0.00     0.039 C 
ENDROOT
BRANCH   5  13
ATOM     13  C   UNL     1     111.861 106.341 128.513  1.00  0.00    -0.013 C 
ATOM     14  C   UNL     1     111.794 107.640 129.340  1.00  0.00     0.007 C 
ATOM     15  C   UNL     1     112.001 105.156 129.484  1.00  0.00     0.007 C 
ENDBRANCH   5  13
TORSDOF 1
ENDMDL
MODEL 3
REMARK VINA RESULT:    -6.028      4.108      5.352
REMARK INTER + INTRA:          -6.716
REMARK INTER:                  -6.384
REMARK INTRA:                  -0.333
REMARK UNBOUND:                -0.336
REMARK SMILES CC1=C[C@H]2C(=C(C)CC[C@@H]2C(C)C)CC1
REMARK SMILES IDX 1 1 2 2 3 3 4 4 10 5 9 6 8 7 6 8 5 9 14 10 15 11 7 12 11 13
REMARK SMILES IDX 12 14 13 15
REMARK H PARENT
REMARK Flexibility Score: inf
ROOT
ATOM      1  C   UNL     1     106.235 106.333 130.048  1.00  0.00     0.039 C 
ATOM      2  C   UNL     1     105.268 107.101 129.187  1.00  0.00    -0.076 C 
ATOM      3  C   UNL     1     104.039 106.582 128.959  1.00  0.00    -0.020 C 
ATOM      4  C   UNL     1     102.971 107.302 128.147  1.00  0.00     0.041 C 
ATOM      5  C   UNL     1     101.928 106.298 127.534  1.00  0.00     0.003 C 
ATOM      6  C   UNL     1     101.477 106.764 126.132  1.00  0.00     0.009 C 
ATOM      7  C   UNL     1     102.679 107.028 125.237  1.00  0.00     0.031 C 
ATOM      8  C   UNL     1     103.557 108.103 125.817  1.00  0.00    -0.073 C 
ATOM      9  C   UNL     1     103.672 108.230 127.164  1.00  0.00    -0.064 C 
ATOM     10  C   UNL     1     104.646 109.175 127.830  1.00  0.00     0.036 C 
ATOM     11  C   UNL     1     105.764 108.355 128.482  1.00  0.00     0.035 C 
ATOM     12  C   UNL     1     104.350 108.963 124.863  1.00  0.00     0.039 C 
ENDROOT
BRANCH   5  13
ATOM     13  C   UNL     1     100.684 106.091 128.471  1.00  0.00    -0.013 C 
ATOM     14  C   UNL     1     100.774 104.787 129.286  1.00  0.00     0.007 C 
ATOM     15  C   UNL     1     100.478 107.261 129.449  1.00  0.00     0.007 C 
ENDBRANCH   5  13
TORSDOF 1
ENDMDL
MODEL 4
REMARK VINA RESULT:    -5.991      1.827      4.744
REMARK INTER + INTRA:          -6.677
REMARK INTER:                  -6.349
REMARK INTRA:                  -0.328
REMARK UNBOUND:                -0.336
REMARK SMILES CC1=C[C@H]2C(=C(C)CC[C@@H]2C(C)C)CC1
REMARK SMILES IDX 1 1 2 2 3 3 4 4 10 5 9 6 8 7 6 8 5 9 14 10 15 11 7 12 11 13
REMARK SMILES IDX 12 14 13 15
REMARK H PARENT
REMARK Flexibility Score: inf
ROOT
ATOM      1  C   UNL     1     105.324 101.846 129.363  1.00  0.00     0.039 C 
ATOM      2  C   UNL     1     104.956 102.966 128.428  1.00  0.00    -0.076 C 
ATOM      3  C   UNL     1     103.947 103.802 128.772  1.00  0.00    -0.020 C 
ATOM      4  C   UNL     1     103.532 104.995 127.923  1.00  0.00     0.041 C 
ATOM      5  C   UNL     1     102.039 105.409 128.189  1.00  0.00     0.003 C 
ATOM      6  C   UNL     1     101.360 105.885 126.886  1.00  0.00     0.009 C 
ATOM      7  C   UNL     1     101.525 104.849 125.782  1.00  0.00     0.031 C 
ATOM      8  C   UNL     1     102.980 104.610 125.481  1.00  0.00    -0.073 C 
ATOM      9  C   UNL     1     103.900 104.696 126.476  1.00  0.00    -0.064 C 
ATOM     10  C   UNL     1     105.354 104.322 126.298  1.00  0.00     0.036 C 
ATOM     11  C   UNL     1     105.628 103.023 127.064  1.00  0.00     0.035 C 
ATOM     12  C   UNL     1     103.356 104.202 124.077  1.00  0.00     0.039 C 
ENDROOT
BRANCH   5  13
ATOM     13  C   UNL     1     101.920 106.512 129.304  1.00  0.00    -0.013 C 
ATOM     14  C   UNL     1     103.036 107.570 129.202  1.00  0.00     0.007 C 
ATOM     15  C   UNL     1     100.562 107.235 129.279  1.00  0.00     0.007 C 
ENDBRANCH   5  13
TORSDOF 1
ENDMDL
MODEL 5
REMARK VINA RESULT:    -5.990      1.845      5.549
REMARK INTER + INTRA:          -6.675
REMARK INTER:                  -6.355
REMARK INTRA:                  -0.320
REMARK UNBOUND:                -0.336
REMARK SMILES CC1=C[C@H]2C(=C(C)CC[C@@H]2C(C)C)CC1
REMARK SMILES IDX 1 1 2 2 3 3 4 4 10 5 9 6 8 7 6 8 5 9 14 10 15 11 7 12 11 13
REMARK SMILES IDX 12 14 13 15
REMARK H PARENT
REMARK Flexibility Score: inf
ROOT
ATOM      1  C   UNL     1     104.517 103.080 125.180  1.00  0.00     0.039 C 
ATOM      2  C   UNL     1     104.499 103.651 126.573  1.00  0.00    -0.076 C 
ATOM      3  C   UNL     1     103.495 104.490 126.924  1.00  0.00    -0.020 C 
ATOM      4  C   UNL     1     103.357 105.079 128.320  1.00  0.00     0.041 C 
ATOM      5  C   UNL     1     102.538 106.421 128.309  1.00  0.00     0.003 C 
ATOM      6  C   UNL     1     103.103 107.418 129.345  1.00  0.00     0.009 C 
ATOM      7  C   UNL     1     104.601 107.607 129.151  1.00  0.00     0.031 C 
ATOM      8  C   UNL     1     105.336 106.305 129.319  1.00  0.00    -0.073 C 
ATOM      9  C   UNL     1     104.743 105.141 128.946  1.00  0.00    -0.064 C 
ATOM     10  C   UNL     1     105.460 103.810 128.935  1.00  0.00     0.036 C 
ATOM     11  C   UNL     1     105.690 103.384 127.481  1.00  0.00     0.035 C 
ATOM     12  C   UNL     1     106.754 106.351 129.833  1.00  0.00     0.039 C 
ENDROOT
BRANCH   5  13
ATOM     13  C   UNL     1     101.005 106.181 128.558  1.00  0.00    -0.013 C 
ATOM     14  C   UNL     1     100.728 104.837 129.259  1.00  0.00     0.007 C 
ATOM     15  C   UNL     1     100.357 107.303 129.388  1.00  0.00     0.007 C 
ENDBRANCH   5  13
TORSDOF 1
ENDMDL
MODEL 6
REMARK VINA RESULT:    -5.988      4.704      7.619
REMARK INTER + INTRA:          -6.674
REMARK INTER:                  -6.339
REMARK INTRA:                  -0.335
REMARK UNBOUND:                -0.336
REMARK SMILES CC1=C[C@H]2C(=C(C)CC[C@@H]2C(C)C)CC1
REMARK SMILES IDX 1 1 2 2 3 3 4 4 10 5 9 6 8 7 6 8 5 9 14 10 15 11 7 12 11 13
REMARK SMILES IDX 12 14 13 15
REMARK H PARENT
REMARK Flexibility Score: inf
ROOT
ATOM      1  C   UNL     1     106.339 106.203 130.050  1.00  0.00     0.039 C 
ATOM      2  C   UNL     1     107.121 107.173 129.207  1.00  0.00    -0.076 C 
ATOM      3  C   UNL     1     106.610 108.407 128.982  1.00  0.00    -0.020 C 
ATOM      4  C   UNL     1     107.344 109.477 128.188  1.00  0.00     0.041 C 
ATOM      5  C   UNL     1     106.352 110.529 127.569  1.00  0.00     0.003 C 
ATOM      6  C   UNL     1     106.839 110.990 126.177  1.00  0.00     0.009 C 
ATOM      7  C   UNL     1     107.111 109.793 125.276  1.00  0.00     0.031 C 
ATOM      8  C   UNL     1     108.175 108.906 125.863  1.00  0.00    -0.073 C 
ATOM      9  C   UNL     1     108.283 108.781 127.212  1.00  0.00    -0.064 C 
ATOM     10  C   UNL     1     109.216 107.799 127.883  1.00  0.00     0.036 C 
ATOM     11  C   UNL     1     108.383 106.678 128.515  1.00  0.00     0.035 C 
ATOM     12  C   UNL     1     109.045 108.118 124.915  1.00  0.00     0.039 C 
ENDROOT
BRANCH   5  13
ATOM     13  C   UNL     1     106.137 111.767 128.513  1.00  0.00    -0.013 C 
ATOM     14  C   UNL     1     104.833 111.664 129.327  1.00  0.00     0.007 C 
ATOM     15  C   UNL     1     107.305 111.974 129.492  1.00  0.00     0.007 C 
ENDBRANCH   5  13
TORSDOF 1
ENDMDL
MODEL 7
REMARK VINA RESULT:    -5.983      4.939      7.031
REMARK INTER + INTRA:          -6.668
REMARK INTER:                  -6.341
REMARK INTRA:                  -0.327
REMARK UNBOUND:                -0.336
REMARK SMILES CC1=C[C@H]2C(=C(C)CC[C@@H]2C(C)C)CC1
REMARK SMILES IDX 1 1 2 2 3 3 4 4 10 5 9 6 8 7 6 8 5 9 14 10 15 11 7 12 11 13
REMARK SMILES IDX 12 14 13 15
REMARK H PARENT
REMARK Flexibility Score: inf
ROOT
ATOM      1  C   UNL     1     101.822 107.145 129.347  1.00  0.00     0.039 C 
ATOM      2  C   UNL     1     102.936 107.536 128.415  1.00  0.00    -0.076 C 
ATOM      3  C   UNL     1     103.773 108.537 128.778  1.00  0.00    -0.020 C 
ATOM      4  C   UNL     1     104.960 108.973 127.932  1.00  0.00     0.041 C 
ATOM      5  C   UNL     1     105.375 110.461 128.231  1.00  0.00     0.003 C 
ATOM      6  C   UNL     1     105.842 111.170 126.941  1.00  0.00     0.009 C 
ATOM      7  C   UNL     1     104.801 111.029 125.839  1.00  0.00     0.031 C 
ATOM      8  C   UNL     1     104.561 109.582 125.505  1.00  0.00    -0.073 C 
ATOM      9  C   UNL     1     104.653 108.639 126.479  1.00  0.00    -0.064 C 
ATOM     10  C   UNL     1     104.280 107.189 126.269  1.00  0.00     0.036 C 
ATOM     11  C   UNL     1     102.985 106.896 127.035  1.00  0.00     0.035 C 
ATOM     12  C   UNL     1     104.145 109.238 124.096  1.00  0.00     0.039 C 
ENDROOT
BRANCH   5  13
ATOM     13  C   UNL     1     106.484 110.554 129.341  1.00  0.00    -0.013 C 
ATOM     14  C   UNL     1     107.551 109.452 129.197  1.00  0.00     0.007 C 
ATOM     15  C   UNL     1     107.195 111.919 129.354  1.00  0.00     0.007 C 
ENDBRANCH   5  13
TORSDOF 1
ENDMDL
MODEL 8
REMARK VINA RESULT:    -5.889      6.214      7.964
REMARK INTER + INTRA:          -6.569
REMARK INTER:                  -6.333
REMARK INTRA:                  -0.237
REMARK UNBOUND:                -0.336
REMARK SMILES CC1=C[C@H]2C(=C(C)CC[C@@H]2C(C)C)CC1
REMARK SMILES IDX 1 1 2 2 3 3 4 4 10 5 9 6 8 7 6 8 5 9 14 10 15 11 7 12 11 13
REMARK SMILES IDX 12 14 13 15
REMARK H PARENT
REMARK Flexibility Score: inf
ROOT
ATOM      1  C   UNL     1     111.415 107.378 127.086  1.00  0.00     0.039 C 
ATOM      2  C   UNL     1     109.989 107.842 126.969  1.00  0.00    -0.076 C 
ATOM      3  C   UNL     1     109.483 108.100 125.739  1.00  0.00    -0.020 C 
ATOM      4  C   UNL     1     108.040 108.524 125.508  1.00  0.00     0.041 C 
ATOM      5  C   UNL     1     107.874 109.321 124.162  1.00  0.00     0.003 C 
ATOM      6  C   UNL     1     106.824 110.443 124.315  1.00  0.00     0.009 C 
ATOM      7  C   UNL     1     107.144 111.322 125.516  1.00  0.00     0.031 C 
ATOM      8  C   UNL     1     107.143 110.518 126.788  1.00  0.00    -0.073 C 
ATOM      9  C   UNL     1     107.545 109.220 126.768  1.00  0.00    -0.064 C 
ATOM     10  C   UNL     1     107.722 108.387 128.017  1.00  0.00     0.036 C 
ATOM     11  C   UNL     1     109.219 108.151 128.245  1.00  0.00     0.035 C 
ATOM     12  C   UNL     1     106.763 111.218 128.070  1.00  0.00     0.039 C 
ENDROOT
BRANCH   5  13
ATOM     13  C   UNL     1     107.500 108.380 122.960  1.00  0.00    -0.013 C 
ATOM     14  C   UNL     1     106.496 109.036 121.993  1.00  0.00     0.007 C 
ATOM     15  C   UNL     1     108.731 107.934 122.152  1.00  0.00     0.007 C 
ENDBRANCH   5  13
TORSDOF 1
ENDMDL
MODEL 9
REMARK VINA RESULT:    -5.861      1.754      4.625
REMARK INTER + INTRA:          -6.540
REMARK INTER:                  -6.327
REMARK INTRA:                  -0.212
REMARK UNBOUND:                -0.336
REMARK SMILES CC1=C[C@H]2C(=C(C)CC[C@@H]2C(C)C)CC1
REMARK SMILES IDX 1 1 2 2 3 3 4 4 10 5 9 6 8 7 6 8 5 9 14 10 15 11 7 12 11 13
REMARK SMILES IDX 12 14 13 15
REMARK H PARENT
REMARK Flexibility Score: inf
ROOT
ATOM      1  C   UNL     1     101.047 105.246 126.808  1.00  0.00     0.039 C 
ATOM      2  C   UNL     1     102.465 104.743 126.761  1.00  0.00    -0.076 C 
ATOM      3  C   UNL     1     103.003 104.411 125.564  1.00  0.00    -0.020 C 
ATOM      4  C   UNL     1     104.442 103.943 125.403  1.00  0.00     0.041 C 
ATOM      5  C   UNL     1     104.632 103.075 124.105  1.00  0.00     0.003 C 
ATOM      6  C   UNL     1     105.648 101.938 124.348  1.00  0.00     0.009 C 
ATOM      7  C   UNL     1     105.269 101.129 125.581  1.00  0.00     0.031 C 
ATOM      8  C   UNL     1     105.249 101.997 126.810  1.00  0.00    -0.073 C 
ATOM      9  C   UNL     1     104.880 103.301 126.712  1.00  0.00    -0.064 C 
ATOM     10  C   UNL     1     104.683 104.201 127.910  1.00  0.00     0.036 C 
ATOM     11  C   UNL     1     103.185 104.482 128.076  1.00  0.00     0.035 C 
ATOM     12  C   UNL     1     105.569 101.355 128.138  1.00  0.00     0.039 C 
ENDROOT
BRANCH   5  13
ATOM     13  C   UNL     1     105.067 103.945 122.870  1.00  0.00    -0.013 C 
ATOM     14  C   UNL     1     105.984 103.171 121.903  1.00  0.00     0.007 C 
ATOM     15  C   UNL     1     103.867 104.485 122.073  1.00  0.00     0.007 C 
ENDBRANCH   5  13
TORSDOF 1
ENDMDL
