MODEL 1
REMARK VINA RESULT:    -3.736      0.000      0.000
REMARK INTER + INTRA:          -8.092
REMARK INTER:                  -6.576
REMARK INTRA:                  -1.516
REMARK UNBOUND:                -1.516
REMARK SMILES CCCCCCC=CCCCCCCCC(=O)[O-]
REMARK SMILES IDX 10 1 11 2 12 3 13 4 14 5 15 6 16 7 17 8 18 9 9 10 8 11 7 12
REMARK SMILES IDX 6 13 5 14 4 15 3 16 2 17 1 18
REMARK H PARENT
REMARK Flexibility Score: inf
ROOT
ATOM      1  C   UNL     1      32.569   2.747 -33.778  1.00  0.00     0.004 C 
ENDROOT
BRANCH   1   2
ATOM      2  C   UNL     1      33.073   3.926 -32.927  1.00  0.00     0.000 C 
BRANCH   2   3
ATOM      3  C   UNL     1      34.587   4.152 -33.054  1.00  0.00     0.000 C 
BRANCH   3   4
ATOM      4  C   UNL     1      34.906   5.639 -33.253  1.00  0.00     0.000 C 
BRANCH   4   5
ATOM      5  C   UNL     1      35.790   6.168 -32.118  1.00  0.00     0.006 C 
BRANCH   5   6
ATOM      6  C   UNL     1      34.956   6.483 -30.871  1.00  0.00     0.053 C 
BRANCH   6   7
ATOM      7  C   UNL     1      33.855   7.446 -31.195  1.00  0.00     0.041 C 
ATOM      8  O   UNL     1      34.126   8.631 -31.527  1.00  0.00    -0.550 OA
ATOM      9  O   UNL     1      32.528   7.041 -31.121  1.00  0.00    -0.550 OA
ENDBRANCH   6   7
ENDBRANCH   5   6
ENDBRANCH   4   5
ENDBRANCH   3   4
ENDBRANCH   2   3
ENDBRANCH   1   2
BRANCH   1  10
ATOM     10  C   UNL     1      33.652   1.720 -34.149  1.00  0.00     0.027 C 
BRANCH  10  11
ATOM     11  C   UNL     1      33.120   0.308 -34.160  1.00  0.00    -0.031 C 
ATOM     12  C   UNL     1      33.227  -0.545 -35.197  1.00  0.00    -0.031 C 
BRANCH  12  13
ATOM     13  C   UNL     1      33.969  -0.246 -36.475  1.00  0.00     0.027 C 
BRANCH  13  14
ATOM     14  C   UNL     1      33.151  -0.687 -37.698  1.00  0.00     0.004 C 
BRANCH  14  15
ATOM     15  C   UNL     1      32.364   0.473 -38.329  1.00  0.00     0.000 C 
BRANCH  15  16
ATOM     16  C   UNL     1      30.892   0.493 -37.880  1.00  0.00    -0.000 C 
BRANCH  16  17
ATOM     17  C   UNL     1      30.636   1.518 -36.766  1.00  0.00    -0.003 C 
ATOM     18  C   UNL     1      29.573   1.051 -35.772  1.00  0.00     0.004 C 
ENDBRANCH  16  17
ENDBRANCH  15  16
ENDBRANCH  14  15
ENDBRANCH  13  14
ENDBRANCH  12  13
ENDBRANCH  10  11
ENDBRANCH   1  10
TORSDOF 13
ENDMDL
MODEL 2
REMARK VINA RESULT:    -3.703      4.674      7.008
REMARK INTER + INTRA:          -8.034
REMARK INTER:                  -6.310
REMARK INTRA:                  -1.724
REMARK UNBOUND:                -1.516
REMARK SMILES CCCCCCC=CCCCCCCCC(=O)[O-]
REMARK SMILES IDX 10 1 11 2 12 3 13 4 14 5 15 6 16 7 17 8 18 9 9 10 8 11 7 12
REMARK SMILES IDX 6 13 5 14 4 15 3 16 2 17 1 18
REMARK H PARENT
REMARK Flexibility Score: inf
ROOT
ATOM      1  C   UNL     1      33.525   7.885 -30.327  1.00  0.00     0.004 C 
ENDROOT
BRANCH   1   2
ATOM      2  C   UNL     1      32.726   9.197 -30.230  1.00  0.00     0.000 C 
BRANCH   2   3
ATOM      3  C   UNL     1      31.465   9.067 -29.362  1.00  0.00     0.000 C 
BRANCH   3   4
ATOM      4  C   UNL     1      31.386  10.205 -28.335  1.00  0.00     0.000 C 
BRANCH   4   5
ATOM      5  C   UNL     1      32.749  10.447 -27.677  1.00  0.00     0.006 C 
BRANCH   5   6
ATOM      6  C   UNL     1      32.858   9.699 -26.343  1.00  0.00     0.053 C 
BRANCH   6   7
ATOM      7  C   UNL     1      33.663  10.485 -25.354  1.00  0.00     0.041 C 
ATOM      8  O   UNL     1      33.661  11.744 -25.394  1.00  0.00    -0.550 OA
ATOM      9  O   UNL     1      34.423   9.830 -24.393  1.00  0.00    -0.550 OA
ENDBRANCH   6   7
ENDBRANCH   5   6
ENDBRANCH   4   5
ENDBRANCH   3   4
ENDBRANCH   2   3
ENDBRANCH   1   2
BRANCH   1  10
ATOM     10  C   UNL     1      34.407   7.767 -31.581  1.00  0.00     0.027 C 
BRANCH  10  11
ATOM     11  C   UNL     1      35.629   6.914 -31.342  1.00  0.00    -0.031 C 
ATOM     12  C   UNL     1      36.007   5.880 -32.118  1.00  0.00    -0.031 C 
BRANCH  12  13
ATOM     13  C   UNL     1      35.313   5.471 -33.393  1.00  0.00     0.027 C 
BRANCH  13  14
ATOM     14  C   UNL     1      34.449   4.221 -33.167  1.00  0.00     0.004 C 
BRANCH  14  15
ATOM     15  C   UNL     1      32.967   4.562 -32.944  1.00  0.00     0.000 C 
BRANCH  15  16
ATOM     16  C   UNL     1      32.556   4.450 -31.466  1.00  0.00    -0.000 C 
BRANCH  16  17
ATOM     17  C   UNL     1      33.451   3.478 -30.683  1.00  0.00    -0.003 C 
ATOM     18  C   UNL     1      34.084   4.126 -29.451  1.00  0.00     0.004 C 
ENDBRANCH  16  17
ENDBRANCH  15  16
ENDBRANCH  14  15
ENDBRANCH  13  14
ENDBRANCH  12  13
ENDBRANCH  10  11
ENDBRANCH   1  10
TORSDOF 13
ENDMDL
MODEL 3
REMARK VINA RESULT:    -3.701      1.169      2.124
REMARK INTER + INTRA:          -8.031
REMARK INTER:                  -6.391
REMARK INTRA:                  -1.640
REMARK UNBOUND:                -1.516
REMARK SMILES CCCCCCC=CCCCCCCCC(=O)[O-]
REMARK SMILES IDX 10 1 11 2 12 3 13 4 14 5 15 6 16 7 17 8 18 9 9 10 8 11 7 12
REMARK SMILES IDX 6 13 5 14 4 15 3 16 2 17 1 18
REMARK H PARENT
REMARK Flexibility Score: inf
ROOT
ATOM      1  C   UNL     1      33.021   0.487 -33.981  1.00  0.00     0.004 C 
ENDROOT
BRANCH   1   2
ATOM      2  C   UNL     1      33.501   1.834 -33.411  1.00  0.00     0.000 C 
BRANCH   2   3
ATOM      3  C   UNL     1      32.546   2.994 -33.729  1.00  0.00     0.000 C 
BRANCH   3   4
ATOM      4  C   UNL     1      33.078   4.315 -33.159  1.00  0.00     0.000 C 
BRANCH   4   5
ATOM      5  C   UNL     1      34.610   4.310 -33.096  1.00  0.00     0.006 C 
BRANCH   5   6
ATOM      6  C   UNL     1      35.174   5.722 -33.287  1.00  0.00     0.053 C 
BRANCH   6   7
ATOM      7  C   UNL     1      35.296   6.431 -31.973  1.00  0.00     0.041 C 
ATOM      8  O   UNL     1      35.959   5.916 -31.035  1.00  0.00    -0.550 OA
ATOM      9  O   UNL     1      34.671   7.657 -31.780  1.00  0.00    -0.550 OA
ENDBRANCH   6   7
ENDBRANCH   5   6
ENDBRANCH   4   5
ENDBRANCH   3   4
ENDBRANCH   2   3
ENDBRANCH   1   2
BRANCH   1  10
ATOM     10  C   UNL     1      33.528   0.180 -35.400  1.00  0.00     0.027 C 
BRANCH  10  11
ATOM     11  C   UNL     1      33.411  -1.285 -35.744  1.00  0.00    -0.031 C 
ATOM     12  C   UNL     1      33.284  -1.773 -36.993  1.00  0.00    -0.031 C 
BRANCH  12  13
ATOM     13  C   UNL     1      33.323  -0.935 -38.245  1.00  0.00     0.027 C 
BRANCH  13  14
ATOM     14  C   UNL     1      31.903  -0.570 -38.703  1.00  0.00     0.004 C 
BRANCH  14  15
ATOM     15  C   UNL     1      31.582   0.919 -38.496  1.00  0.00     0.000 C 
BRANCH  15  16
ATOM     16  C   UNL     1      30.422   1.136 -37.509  1.00  0.00    -0.000 C 
BRANCH  16  17
ATOM     17  C   UNL     1      29.805  -0.187 -37.033  1.00  0.00    -0.003 C 
ATOM     18  C   UNL     1      29.774  -0.307 -35.510  1.00  0.00     0.004 C 
ENDBRANCH  16  17
ENDBRANCH  15  16
ENDBRANCH  14  15
ENDBRANCH  13  14
ENDBRANCH  12  13
ENDBRANCH  10  11
ENDBRANCH   1  10
TORSDOF 13
ENDMDL
MODEL 4
REMARK VINA RESULT:    -3.678     12.158     14.001
REMARK INTER + INTRA:          -7.990
REMARK INTER:                  -5.648
REMARK INTRA:                  -2.341
REMARK UNBOUND:                -1.516
REMARK SMILES CCCCCCC=CCCCCCCCC(=O)[O-]
REMARK SMILES IDX 10 1 11 2 12 3 13 4 14 5 15 6 16 7 17 8 18 9 9 10 8 11 7 12
REMARK SMILES IDX 6 13 5 14 4 15 3 16 2 17 1 18
REMARK H PARENT
REMARK Flexibility Score: inf
ROOT
ATOM      1  C   UNL     1      24.182  -5.874 -26.756  1.00  0.00     0.004 C 
ENDROOT
BRANCH   1   2
ATOM      2  C   UNL     1      25.230  -4.825 -27.168  1.00  0.00     0.000 C 
BRANCH   2   3
ATOM      3  C   UNL     1      24.677  -3.777 -28.145  1.00  0.00     0.000 C 
BRANCH   3   4
ATOM      4  C   UNL     1      25.009  -4.150 -29.596  1.00  0.00     0.000 C 
BRANCH   4   5
ATOM      5  C   UNL     1      23.763  -4.654 -30.333  1.00  0.00     0.006 C 
BRANCH   5   6
ATOM      6  C   UNL     1      24.144  -5.604 -31.474  1.00  0.00     0.053 C 
BRANCH   6   7
ATOM      7  C   UNL     1      24.405  -4.844 -32.738  1.00  0.00     0.041 C 
ATOM      8  O   UNL     1      23.490  -4.155 -33.263  1.00  0.00    -0.550 OA
ATOM      9  O   UNL     1      25.654  -4.901 -33.343  1.00  0.00    -0.550 OA
ENDBRANCH   6   7
ENDBRANCH   5   6
ENDBRANCH   4   5
ENDBRANCH   3   4
ENDBRANCH   2   3
ENDBRANCH   1   2
BRANCH   1  10
ATOM     10  C   UNL     1      24.626  -7.332 -26.959  1.00  0.00     0.027 C 
BRANCH  10  11
ATOM     11  C   UNL     1      24.535  -7.761 -28.403  1.00  0.00    -0.031 C 
ATOM     12  C   UNL     1      25.593  -8.016 -29.197  1.00  0.00    -0.031 C 
BRANCH  12  13
ATOM     13  C   UNL     1      27.029  -7.994 -28.738  1.00  0.00     0.027 C 
BRANCH  13  14
ATOM     14  C   UNL     1      27.727  -6.704 -29.194  1.00  0.00     0.004 C 
BRANCH  14  15
ATOM     15  C   UNL     1      28.626  -6.104 -28.101  1.00  0.00     0.000 C 
BRANCH  15  16
ATOM     16  C   UNL     1      28.417  -6.780 -26.735  1.00  0.00    -0.000 C 
BRANCH  16  17
ATOM     17  C   UNL     1      29.646  -6.648 -25.824  1.00  0.00    -0.003 C 
ATOM     18  C   UNL     1      29.812  -5.236 -25.262  1.00  0.00     0.004 C 
ENDBRANCH  16  17
ENDBRANCH  15  16
ENDBRANCH  14  15
ENDBRANCH  13  14
ENDBRANCH  12  13
ENDBRANCH  10  11
ENDBRANCH   1  10
TORSDOF 13
ENDMDL
MODEL 5
REMARK VINA RESULT:    -3.589      3.859      6.298
REMARK INTER + INTRA:          -7.832
REMARK INTER:                  -5.208
REMARK INTRA:                  -2.624
REMARK UNBOUND:                -1.516
REMARK SMILES CCCCCCC=CCCCCCCCC(=O)[O-]
REMARK SMILES IDX 10 1 11 2 12 3 13 4 14 5 15 6 16 7 17 8 18 9 9 10 8 11 7 12
REMARK SMILES IDX 6 13 5 14 4 15 3 16 2 17 1 18
REMARK H PARENT
REMARK Flexibility Score: inf
ROOT
ATOM      1  C   UNL     1      32.249   3.174 -31.788  1.00  0.00     0.004 C 
ENDROOT
BRANCH   1   2
ATOM      2  C   UNL     1      31.578   3.869 -30.589  1.00  0.00     0.000 C 
BRANCH   2   3
ATOM      3  C   UNL     1      31.621   5.401 -30.684  1.00  0.00     0.000 C 
BRANCH   3   4
ATOM      4  C   UNL     1      32.044   6.023 -29.347  1.00  0.00     0.000 C 
BRANCH   4   5
ATOM      5  C   UNL     1      32.596   7.439 -29.550  1.00  0.00     0.006 C 
BRANCH   5   6
ATOM      6  C   UNL     1      32.009   8.084 -30.811  1.00  0.00     0.053 C 
BRANCH   6   7
ATOM      7  C   UNL     1      32.020   9.578 -30.701  1.00  0.00     0.041 C 
ATOM      8  O   UNL     1      31.024  10.185 -30.227  1.00  0.00    -0.550 OA
ATOM      9  O   UNL     1      33.125  10.303 -31.131  1.00  0.00    -0.550 OA
ENDBRANCH   6   7
ENDBRANCH   5   6
ENDBRANCH   4   5
ENDBRANCH   3   4
ENDBRANCH   2   3
ENDBRANCH   1   2
BRANCH   1  10
ATOM     10  C   UNL     1      32.585   4.110 -32.960  1.00  0.00     0.027 C 
BRANCH  10  11
ATOM     11  C   UNL     1      34.021   3.976 -33.406  1.00  0.00    -0.031 C 
ATOM     12  C   UNL     1      34.983   4.892 -33.184  1.00  0.00    -0.031 C 
BRANCH  12  13
ATOM     13  C   UNL     1      34.791   6.155 -32.383  1.00  0.00     0.027 C 
BRANCH  13  14
ATOM     14  C   UNL     1      35.584   6.093 -31.069  1.00  0.00     0.004 C 
BRANCH  14  15
ATOM     15  C   UNL     1      35.430   4.742 -30.351  1.00  0.00     0.000 C 
BRANCH  15  16
ATOM     16  C   UNL     1      35.530   4.877 -28.822  1.00  0.00    -0.000 C 
BRANCH  16  17
ATOM     17  C   UNL     1      34.711   3.807 -28.087  1.00  0.00    -0.003 C 
ATOM     18  C   UNL     1      34.582   2.512 -28.888  1.00  0.00     0.004 C 
ENDBRANCH  16  17
ENDBRANCH  15  16
ENDBRANCH  14  15
ENDBRANCH  13  14
ENDBRANCH  12  13
ENDBRANCH  10  11
ENDBRANCH   1  10
TORSDOF 13
ENDMDL
MODEL 6
REMARK VINA RESULT:    -3.588      1.743      3.070
REMARK INTER + INTRA:          -7.830
REMARK INTER:                  -5.830
REMARK INTRA:                  -2.000
REMARK UNBOUND:                -1.516
REMARK SMILES CCCCCCC=CCCCCCCCC(=O)[O-]
REMARK SMILES IDX 10 1 11 2 12 3 13 4 14 5 15 6 16 7 17 8 18 9 9 10 8 11 7 12
REMARK SMILES IDX 6 13 5 14 4 15 3 16 2 17 1 18
REMARK H PARENT
REMARK Flexibility Score: inf
ROOT
ATOM      1  C   UNL     1      30.100   0.685 -34.728  1.00  0.00     0.004 C 
ENDROOT
BRANCH   1   2
ATOM      2  C   UNL     1      30.868   1.874 -35.331  1.00  0.00     0.000 C 
BRANCH   2   3
ATOM      3  C   UNL     1      31.520   2.768 -34.266  1.00  0.00     0.000 C 
BRANCH   3   4
ATOM      4  C   UNL     1      32.995   2.397 -34.064  1.00  0.00     0.000 C 
BRANCH   4   5
ATOM      5  C   UNL     1      33.570   3.086 -32.821  1.00  0.00     0.006 C 
BRANCH   5   6
ATOM      6  C   UNL     1      33.582   4.609 -32.991  1.00  0.00     0.053 C 
BRANCH   6   7
ATOM      7  C   UNL     1      34.955   5.161 -32.761  1.00  0.00     0.041 C 
ATOM      8  O   UNL     1      35.699   5.436 -33.739  1.00  0.00    -0.550 OA
ATOM      9  O   UNL     1      35.419   5.365 -31.467  1.00  0.00    -0.550 OA
ENDBRANCH   6   7
ENDBRANCH   5   6
ENDBRANCH   4   5
ENDBRANCH   3   4
ENDBRANCH   2   3
ENDBRANCH   1   2
BRANCH   1  10
ATOM     10  C   UNL     1      30.747  -0.687 -34.984  1.00  0.00     0.027 C 
BRANCH  10  11
ATOM     11  C   UNL     1      31.934  -0.936 -34.086  1.00  0.00    -0.031 C 
ATOM     12  C   UNL     1      33.146  -1.342 -34.510  1.00  0.00    -0.031 C 
BRANCH  12  13
ATOM     13  C   UNL     1      33.525  -1.529 -35.957  1.00  0.00     0.027 C 
BRANCH  13  14
ATOM     14  C   UNL     1      33.826  -0.177 -36.622  1.00  0.00     0.004 C 
BRANCH  14  15
ATOM     15  C   UNL     1      33.452  -0.158 -38.113  1.00  0.00     0.000 C 
BRANCH  15  16
ATOM     16  C   UNL     1      32.201   0.692 -38.391  1.00  0.00    -0.000 C 
BRANCH  16  17
ATOM     17  C   UNL     1      30.949  -0.167 -38.618  1.00  0.00    -0.003 C 
ATOM     18  C   UNL     1      31.288  -1.609 -38.996  1.00  0.00     0.004 C 
ENDBRANCH  16  17
ENDBRANCH  15  16
ENDBRANCH  14  15
ENDBRANCH  13  14
ENDBRANCH  12  13
ENDBRANCH  10  11
ENDBRANCH   1  10
TORSDOF 13
ENDMDL
MODEL 7
REMARK VINA RESULT:    -3.580      1.893      3.553
REMARK INTER + INTRA:          -7.817
REMARK INTER:                  -5.593
REMARK INTRA:                  -2.224
REMARK UNBOUND:                -1.516
REMARK SMILES CCCCCCC=CCCCCCCCC(=O)[O-]
REMARK SMILES IDX 10 1 11 2 12 3 13 4 14 5 15 6 16 7 17 8 18 9 9 10 8 11 7 12
REMARK SMILES IDX 6 13 5 14 4 15 3 16 2 17 1 18
REMARK H PARENT
REMARK Flexibility Score: inf
ROOT
ATOM      1  C   UNL     1      33.104  -0.567 -34.922  1.00  0.00     0.004 C 
ENDROOT
BRANCH   1   2
ATOM      2  C   UNL     1      31.776   0.155 -34.631  1.00  0.00     0.000 C 
BRANCH   2   3
ATOM      3  C   UNL     1      31.820   1.651 -34.976  1.00  0.00     0.000 C 
BRANCH   3   4
ATOM      4  C   UNL     1      32.121   2.494 -33.730  1.00  0.00     0.000 C 
BRANCH   4   5
ATOM      5  C   UNL     1      33.572   2.988 -33.738  1.00  0.00     0.006 C 
BRANCH   5   6
ATOM      6  C   UNL     1      33.899   3.761 -32.456  1.00  0.00     0.053 C 
BRANCH   6   7
ATOM      7  C   UNL     1      34.315   5.166 -32.770  1.00  0.00     0.041 C 
ATOM      8  O   UNL     1      35.146   5.389 -33.690  1.00  0.00    -0.550 OA
ATOM      9  O   UNL     1      33.795   6.228 -32.041  1.00  0.00    -0.550 OA
ENDBRANCH   6   7
ENDBRANCH   5   6
ENDBRANCH   4   5
ENDBRANCH   3   4
ENDBRANCH   2   3
ENDBRANCH   1   2
BRANCH   1  10
ATOM     10  C   UNL     1      33.905   0.020 -36.095  1.00  0.00     0.027 C 
BRANCH  10  11
ATOM     11  C   UNL     1      33.765  -0.802 -37.352  1.00  0.00    -0.031 C 
ATOM     12  C   UNL     1      32.946  -0.503 -38.378  1.00  0.00    -0.031 C 
BRANCH  12  13
ATOM     13  C   UNL     1      32.106   0.746 -38.464  1.00  0.00     0.027 C 
BRANCH  13  14
ATOM     14  C   UNL     1      30.613   0.411 -38.318  1.00  0.00     0.004 C 
BRANCH  14  15
ATOM     15  C   UNL     1      30.338  -1.098 -38.404  1.00  0.00     0.000 C 
BRANCH  15  16
ATOM     16  C   UNL     1      29.643  -1.638 -37.142  1.00  0.00    -0.000 C 
BRANCH  16  17
ATOM     17  C   UNL     1      30.440  -2.769 -36.475  1.00  0.00    -0.003 C 
ATOM     18  C   UNL     1      31.203  -3.625 -37.486  1.00  0.00     0.004 C 
ENDBRANCH  16  17
ENDBRANCH  15  16
ENDBRANCH  14  15
ENDBRANCH  13  14
ENDBRANCH  12  13
ENDBRANCH  10  11
ENDBRANCH   1  10
TORSDOF 13
ENDMDL
MODEL 8
REMARK VINA RESULT:    -3.551      1.498      3.105
REMARK INTER + INTRA:          -7.766
REMARK INTER:                  -5.968
REMARK INTRA:                  -1.798
REMARK UNBOUND:                -1.516
REMARK SMILES CCCCCCC=CCCCCCCCC(=O)[O-]
REMARK SMILES IDX 10 1 11 2 12 3 13 4 14 5 15 6 16 7 17 8 18 9 9 10 8 11 7 12
REMARK SMILES IDX 6 13 5 14 4 15 3 16 2 17 1 18
REMARK H PARENT
REMARK Flexibility Score: inf
ROOT
ATOM      1  C   UNL     1      31.645   0.728 -34.354  1.00  0.00     0.004 C 
ENDROOT
BRANCH   1   2
ATOM      2  C   UNL     1      33.140   0.832 -34.005  1.00  0.00     0.000 C 
BRANCH   2   3
ATOM      3  C   UNL     1      33.665   2.275 -34.041  1.00  0.00     0.000 C 
BRANCH   3   4
ATOM      4  C   UNL     1      33.270   3.035 -32.768  1.00  0.00     0.000 C 
BRANCH   4   5
ATOM      5  C   UNL     1      33.283   4.550 -33.006  1.00  0.00     0.006 C 
BRANCH   5   6
ATOM      6  C   UNL     1      34.717   5.076 -33.128  1.00  0.00     0.053 C 
BRANCH   6   7
ATOM      7  C   UNL     1      35.070   5.941 -31.957  1.00  0.00     0.041 C 
ATOM      8  O   UNL     1      34.745   7.158 -31.948  1.00  0.00    -0.550 OA
ATOM      9  O   UNL     1      35.766   5.408 -30.879  1.00  0.00    -0.550 OA
ENDBRANCH   6   7
ENDBRANCH   5   6
ENDBRANCH   4   5
ENDBRANCH   3   4
ENDBRANCH   2   3
ENDBRANCH   1   2
BRANCH   1  10
ATOM     10  C   UNL     1      31.230   1.503 -35.616  1.00  0.00     0.027 C 
BRANCH  10  11
ATOM     11  C   UNL     1      30.487   0.634 -36.602  1.00  0.00    -0.031 C 
ATOM     12  C   UNL     1      30.891   0.385 -37.862  1.00  0.00    -0.031 C 
BRANCH  12  13
ATOM     13  C   UNL     1      32.191   0.868 -38.453  1.00  0.00     0.027 C 
BRANCH  13  14
ATOM     14  C   UNL     1      33.320  -0.140 -38.188  1.00  0.00     0.004 C 
BRANCH  14  15
ATOM     15  C   UNL     1      32.955  -1.564 -38.638  1.00  0.00     0.000 C 
BRANCH  15  16
ATOM     16  C   UNL     1      33.438  -2.633 -37.643  1.00  0.00    -0.000 C 
BRANCH  16  17
ATOM     17  C   UNL     1      33.250  -2.200 -36.183  1.00  0.00    -0.003 C 
ATOM     18  C   UNL     1      31.961  -2.748 -35.569  1.00  0.00     0.004 C 
ENDBRANCH  16  17
ENDBRANCH  15  16
ENDBRANCH  14  15
ENDBRANCH  13  14
ENDBRANCH  12  13
ENDBRANCH  10  11
ENDBRANCH   1  10
TORSDOF 13
ENDMDL
MODEL 9
REMARK VINA RESULT:    -3.548      1.929      3.157
REMARK INTER + INTRA:          -7.761
REMARK INTER:                  -6.287
REMARK INTRA:                  -1.474
REMARK UNBOUND:                -1.516
REMARK SMILES CCCCCCC=CCCCCCCCC(=O)[O-]
REMARK SMILES IDX 10 1 11 2 12 3 13 4 14 5 15 6 16 7 17 8 18 9 9 10 8 11 7 12
REMARK SMILES IDX 6 13 5 14 4 15 3 16 2 17 1 18
REMARK H PARENT
REMARK Flexibility Score: inf
ROOT
ATOM      1  C   UNL     1      31.922   0.455 -35.783  1.00  0.00     0.004 C 
ENDROOT
BRANCH   1   2
ATOM      2  C   UNL     1      32.063   1.622 -34.789  1.00  0.00     0.000 C 
BRANCH   2   3
ATOM      3  C   UNL     1      33.452   1.690 -34.138  1.00  0.00     0.000 C 
BRANCH   3   4
ATOM      4  C   UNL     1      33.471   2.704 -32.987  1.00  0.00     0.000 C 
BRANCH   4   5
ATOM      5  C   UNL     1      34.266   3.957 -33.373  1.00  0.00     0.006 C 
BRANCH   5   6
ATOM      6  C   UNL     1      34.000   5.103 -32.391  1.00  0.00     0.053 C 
BRANCH   6   7
ATOM      7  C   UNL     1      35.192   5.344 -31.516  1.00  0.00     0.041 C 
ATOM      8  O   UNL     1      35.352   4.671 -30.464  1.00  0.00    -0.550 OA
ATOM      9  O   UNL     1      36.123   6.319 -31.856  1.00  0.00    -0.550 OA
ENDBRANCH   6   7
ENDBRANCH   5   6
ENDBRANCH   4   5
ENDBRANCH   3   4
ENDBRANCH   2   3
ENDBRANCH   1   2
BRANCH   1  10
ATOM     10  C   UNL     1      33.257  -0.157 -36.239  1.00  0.00     0.027 C 
BRANCH  10  11
ATOM     11  C   UNL     1      33.439  -0.083 -37.735  1.00  0.00    -0.031 C 
ATOM     12  C   UNL     1      33.185  -1.092 -38.591  1.00  0.00    -0.031 C 
BRANCH  12  13
ATOM     13  C   UNL     1      32.600  -2.423 -38.192  1.00  0.00     0.027 C 
BRANCH  13  14
ATOM     14  C   UNL     1      31.334  -2.729 -39.006  1.00  0.00     0.004 C 
BRANCH  14  15
ATOM     15  C   UNL     1      30.112  -1.936 -38.515  1.00  0.00     0.000 C 
BRANCH  15  16
ATOM     16  C   UNL     1      29.740  -0.785 -39.465  1.00  0.00    -0.000 C 
BRANCH  16  17
ATOM     17  C   UNL     1      29.652   0.565 -38.740  1.00  0.00    -0.003 C 
ATOM     18  C   UNL     1      30.530   1.637 -39.386  1.00  0.00     0.004 C 
ENDBRANCH  16  17
ENDBRANCH  15  16
ENDBRANCH  14  15
ENDBRANCH  13  14
ENDBRANCH  12  13
ENDBRANCH  10  11
ENDBRANCH   1  10
TORSDOF 13
ENDMDL
