MODEL 1
REMARK VINA RESULT:    -5.807      0.000      0.000
REMARK INTER + INTRA:         -10.349
REMARK INTER:                  -8.693
REMARK INTRA:                  -1.656
REMARK UNBOUND:                -1.656
REMARK SMILES COC(=O)C1=CO[C@H](O[C@H]2O[C@H](CO)[C@H](O)[C@@H](O)[C@H]2O)[C@H]2C(CO)=CC[C@@H]12
REMARK SMILES IDX 9 1 8 2 5 3 6 4 27 5 7 6 21 7 26 8 22 9 25 10 3 11 4 12 2 13
REMARK SMILES IDX 1 14 23 15 24 16 10 18 19 19 11 20 17 21 12 22 15 23 20 24
REMARK SMILES IDX 18 26 13 28 14 29 16 31
REMARK H PARENT 24 17 20 25 18 27 14 30 16 32
REMARK Flexibility Score: inf
ROOT
ATOM      1  O   UNL     1       5.709  -7.439  24.657  1.00  0.00    -0.310 OA
ENDROOT
BRANCH   1   2
ATOM      2  C   UNL     1       6.311  -6.978  25.853  1.00  0.00     0.316 C 
ATOM      3  C   UNL     1       6.389  -6.416  28.671  1.00  0.00     0.076 C 
ATOM      4  C   UNL     1       5.613  -5.698  27.845  1.00  0.00     0.202 C 
ATOM      5  C   UNL     1       7.007  -7.720  28.202  1.00  0.00     0.047 C 
ATOM      6  O   UNL     1       5.420  -6.086  26.520  1.00  0.00    -0.471 OA
ATOM      7  C   UNL     1       6.617  -8.175  26.774  1.00  0.00     0.094 C 
ATOM      8  C   UNL     1       8.541  -7.690  28.200  1.00  0.00     0.037 C 
ATOM      9  C   UNL     1       7.853  -8.896  26.325  1.00  0.00    -0.039 C 
ATOM     10  C   UNL     1       8.899  -8.618  27.095  1.00  0.00    -0.024 C 
BRANCH   3  11
ATOM     11  C   UNL     1       6.587  -5.987  30.077  1.00  0.00     0.337 C 
ATOM     12  O   UNL     1       7.545  -5.226  30.385  1.00  0.00    -0.246 OA
BRANCH  11  13
ATOM     13  O   UNL     1       5.703  -6.434  31.065  1.00  0.00    -0.466 OA
ATOM     14  C   UNL     1       5.586  -5.801  32.334  1.00  0.00     0.282 C 
ENDBRANCH  11  13
ENDBRANCH   3  11
BRANCH   9  15
ATOM     15  C   UNL     1       7.911  -9.857  25.174  1.00  0.00     0.187 C 
BRANCH  15  16
ATOM     16  O   UNL     1       8.701  -9.318  24.150  1.00  0.00    -0.392 OA
ATOM     17  H   UNL     1       8.126  -9.300  23.340  1.00  0.00     0.211 HD
ENDBRANCH  15  16
ENDBRANCH   9  15
ENDBRANCH   1   2
BRANCH   1  18
ATOM     18  C   UNL     1       6.232  -6.754  23.523  1.00  0.00     0.286 C 
ATOM     19  C   UNL     1       5.130  -5.919  22.826  1.00  0.00     0.202 C 
ATOM     20  O   UNL     1       6.835  -7.665  22.615  1.00  0.00    -0.341 OA
ATOM     21  C   UNL     1       4.091  -6.817  22.123  1.00  0.00     0.179 C 
ATOM     22  C   UNL     1       5.889  -8.582  22.083  1.00  0.00     0.178 C 
ATOM     23  C   UNL     1       4.817  -7.848  21.243  1.00  0.00     0.177 C 
BRANCH  19  24
ATOM     24  O   UNL     1       4.522  -5.010  23.710  1.00  0.00    -0.385 OA
ATOM     25  H   UNL     1       3.541  -5.043  23.565  1.00  0.00     0.211 HD
ENDBRANCH  19  24
BRANCH  21  26
ATOM     26  O   UNL     1       3.292  -7.492  23.064  1.00  0.00    -0.387 OA
ATOM     27  H   UNL     1       3.622  -7.236  23.965  1.00  0.00     0.211 HD
ENDBRANCH  21  26
BRANCH  22  28
ATOM     28  C   UNL     1       6.639  -9.629  21.252  1.00  0.00     0.191 C 
BRANCH  28  29
ATOM     29  O   UNL     1       5.884  -9.988  20.128  1.00  0.00    -0.394 OA
ATOM     30  H   UNL     1       6.103  -9.324  19.424  1.00  0.00     0.210 HD
ENDBRANCH  28  29
ENDBRANCH  22  28
BRANCH  23  31
ATOM     31  O   UNL     1       5.425  -7.206  20.149  1.00  0.00    -0.387 OA
ATOM     32  H   UNL     1       5.824  -6.365  20.495  1.00  0.00     0.211 HD
ENDBRANCH  23  31
ENDBRANCH   1  18
TORSDOF 11
ENDMDL
MODEL 2
REMARK VINA RESULT:    -5.752      1.717      2.598
REMARK INTER + INTRA:         -10.266
REMARK INTER:                  -8.415
REMARK INTRA:                  -1.851
REMARK UNBOUND:                -1.656
REMARK SMILES COC(=O)C1=CO[C@H](O[C@H]2O[C@H](CO)[C@H](O)[C@@H](O)[C@H]2O)[C@H]2C(CO)=CC[C@@H]12
REMARK SMILES IDX 9 1 8 2 5 3 6 4 27 5 7 6 21 7 26 8 22 9 25 10 3 11 4 12 2 13
REMARK SMILES IDX 1 14 23 15 24 16 10 18 19 19 11 20 17 21 12 22 15 23 20 24
REMARK SMILES IDX 18 26 13 28 14 29 16 31
REMARK H PARENT 24 17 20 25 18 27 14 30 16 32
REMARK Flexibility Score: inf
ROOT
ATOM      1  O   UNL     1       5.089  -8.025  25.014  1.00  0.00    -0.310 OA
ENDROOT
BRANCH   1   2
ATOM      2  C   UNL     1       5.709  -7.984  26.285  1.00  0.00     0.316 C 
ATOM      3  C   UNL     1       7.031  -6.696  28.490  1.00  0.00     0.076 C 
ATOM      4  C   UNL     1       7.650  -6.852  27.310  1.00  0.00     0.202 C 
ATOM      5  C   UNL     1       5.534  -6.916  28.606  1.00  0.00     0.047 C 
ATOM      6  O   UNL     1       6.954  -7.295  26.185  1.00  0.00    -0.471 OA
ATOM      7  C   UNL     1       4.797  -7.245  27.285  1.00  0.00     0.094 C 
ATOM      8  C   UNL     1       5.168  -8.065  29.556  1.00  0.00     0.037 C 
ATOM      9  C   UNL     1       3.685  -8.134  27.756  1.00  0.00    -0.039 C 
ATOM     10  C   UNL     1       3.899  -8.588  28.986  1.00  0.00    -0.024 C 
BRANCH   3  11
ATOM     11  C   UNL     1       7.786  -6.227  29.677  1.00  0.00     0.337 C 
ATOM     12  O   UNL     1       9.014  -6.493  29.801  1.00  0.00    -0.246 OA
BRANCH  11  13
ATOM     13  O   UNL     1       7.128  -5.487  30.664  1.00  0.00    -0.466 OA
ATOM     14  C   UNL     1       7.488  -5.547  32.039  1.00  0.00     0.282 C 
ENDBRANCH  11  13
ENDBRANCH   3  11
BRANCH   9  15
ATOM     15  C   UNL     1       2.448  -8.448  26.967  1.00  0.00     0.187 C 
BRANCH  15  16
ATOM     16  O   UNL     1       2.266  -7.480  25.972  1.00  0.00    -0.392 OA
ATOM     17  H   UNL     1       3.072  -7.525  25.393  1.00  0.00     0.211 HD
ENDBRANCH  15  16
ENDBRANCH   9  15
ENDBRANCH   1   2
BRANCH   1  18
ATOM     18  C   UNL     1       5.689  -7.092  24.121  1.00  0.00     0.286 C 
ATOM     19  C   UNL     1       4.619  -6.180  23.473  1.00  0.00     0.202 C 
ATOM     20  O   UNL     1       6.457  -7.762  23.130  1.00  0.00    -0.341 OA
ATOM     21  C   UNL     1       3.734  -6.955  22.475  1.00  0.00     0.179 C 
ATOM     22  C   UNL     1       5.646  -8.588  22.305  1.00  0.00     0.178 C 
ATOM     23  C   UNL     1       4.629  -7.742  21.503  1.00  0.00     0.177 C 
BRANCH  19  24
ATOM     24  O   UNL     1       3.849  -5.507  24.440  1.00  0.00    -0.385 OA
ATOM     25  H   UNL     1       3.644  -6.144  25.173  1.00  0.00     0.211 HD
ENDBRANCH  19  24
BRANCH  21  26
ATOM     26  O   UNL     1       2.882  -7.849  23.148  1.00  0.00    -0.387 OA
ATOM     27  H   UNL     1       2.548  -8.498  22.475  1.00  0.00     0.211 HD
ENDBRANCH  21  26
BRANCH  22  28
ATOM     28  C   UNL     1       6.559  -9.400  21.381  1.00  0.00     0.191 C 
BRANCH  28  29
ATOM     29  O   UNL     1       5.878  -9.745  20.206  1.00  0.00    -0.394 OA
ATOM     30  H   UNL     1       4.913  -9.749  20.437  1.00  0.00     0.210 HD
ENDBRANCH  28  29
ENDBRANCH  22  28
BRANCH  23  31
ATOM     31  O   UNL     1       5.312  -6.856  20.650  1.00  0.00    -0.387 OA
ATOM     32  H   UNL     1       4.844  -6.882  19.775  1.00  0.00     0.211 HD
ENDBRANCH  23  31
ENDBRANCH   1  18
TORSDOF 11
ENDMDL
MODEL 3
REMARK VINA RESULT:    -5.692      2.547      7.223
REMARK INTER + INTRA:         -10.176
REMARK INTER:                  -8.508
REMARK INTRA:                  -1.668
REMARK UNBOUND:                -1.656
REMARK SMILES COC(=O)C1=CO[C@H](O[C@H]2O[C@H](CO)[C@H](O)[C@@H](O)[C@H]2O)[C@H]2C(CO)=CC[C@@H]12
REMARK SMILES IDX 9 1 8 2 5 3 6 4 27 5 7 6 21 7 26 8 22 9 25 10 3 11 4 12 2 13
REMARK SMILES IDX 1 14 23 15 24 16 10 18 19 19 11 20 17 21 12 22 15 23 20 24
REMARK SMILES IDX 18 26 13 28 14 29 16 31
REMARK H PARENT 24 17 20 25 18 27 14 30 16 32
REMARK Flexibility Score: inf
ROOT
ATOM      1  O   UNL     1       6.059  -6.721  27.399  1.00  0.00    -0.310 OA
ENDROOT
BRANCH   1   2
ATOM      2  C   UNL     1       5.155  -6.453  26.343  1.00  0.00     0.316 C 
ATOM      3  C   UNL     1       4.398  -6.163  23.584  1.00  0.00     0.076 C 
ATOM      4  C   UNL     1       5.216  -5.278  24.172  1.00  0.00     0.202 C 
ATOM      5  C   UNL     1       4.094  -7.490  24.256  1.00  0.00     0.047 C 
ATOM      6  O   UNL     1       5.742  -5.516  25.442  1.00  0.00    -0.471 OA
ATOM      7  C   UNL     1       4.841  -7.759  25.585  1.00  0.00     0.094 C 
ATOM      8  C   UNL     1       2.608  -7.662  24.599  1.00  0.00     0.037 C 
ATOM      9  C   UNL     1       3.850  -8.592  26.341  1.00  0.00    -0.039 C 
ATOM     10  C   UNL     1       2.635  -8.525  25.809  1.00  0.00    -0.024 C 
BRANCH   3  11
ATOM     11  C   UNL     1       3.844  -5.894  22.235  1.00  0.00     0.337 C 
ATOM     12  O   UNL     1       4.474  -6.250  21.201  1.00  0.00    -0.246 OA
BRANCH  11  13
ATOM     13  O   UNL     1       2.613  -5.240  22.114  1.00  0.00    -0.466 OA
ATOM     14  C   UNL     1       2.081  -4.408  23.137  1.00  0.00     0.282 C 
ENDBRANCH  11  13
ENDBRANCH   3  11
BRANCH   9  15
ATOM     15  C   UNL     1       4.180  -9.445  27.531  1.00  0.00     0.187 C 
BRANCH  15  16
ATOM     16  O   UNL     1       3.893  -8.742  28.708  1.00  0.00    -0.392 OA
ATOM     17  H   UNL     1       3.979  -7.779  28.481  1.00  0.00     0.211 HD
ENDBRANCH  15  16
ENDBRANCH   9  15
ENDBRANCH   1   2
BRANCH   1  18
ATOM     18  C   UNL     1       5.944  -5.746  28.430  1.00  0.00     0.286 C 
ATOM     19  C   UNL     1       7.253  -4.930  28.567  1.00  0.00     0.202 C 
ATOM     20  O   UNL     1       5.590  -6.354  29.665  1.00  0.00    -0.341 OA
ATOM     21  C   UNL     1       8.400  -5.782  29.148  1.00  0.00     0.179 C 
ATOM     22  C   UNL     1       6.596  -7.249  30.118  1.00  0.00     0.178 C 
ATOM     23  C   UNL     1       7.914  -6.496  30.420  1.00  0.00     0.177 C 
BRANCH  19  24
ATOM     24  O   UNL     1       7.619  -4.320  27.354  1.00  0.00    -0.385 OA
ATOM     25  H   UNL     1       7.420  -3.350  27.420  1.00  0.00     0.211 HD
ENDBRANCH  19  24
BRANCH  21  26
ATOM     26  O   UNL     1       8.836  -6.741  28.216  1.00  0.00    -0.387 OA
ATOM     27  H   UNL     1       8.910  -6.283  27.339  1.00  0.00     0.211 HD
ENDBRANCH  21  26
BRANCH  22  28
ATOM     28  C   UNL     1       6.071  -7.987  31.355  1.00  0.00     0.191 C 
BRANCH  28  29
ATOM     29  O   UNL     1       4.670  -7.982  31.365  1.00  0.00    -0.394 OA
ATOM     30  H   UNL     1       4.400  -8.080  32.315  1.00  0.00     0.210 HD
ENDBRANCH  28  29
ENDBRANCH  22  28
BRANCH  23  31
ATOM     31  O   UNL     1       7.704  -5.560  31.449  1.00  0.00    -0.387 OA
ATOM     32  H   UNL     1       6.738  -5.592  31.674  1.00  0.00     0.211 HD
ENDBRANCH  23  31
ENDBRANCH   1  18
TORSDOF 11
ENDMDL
MODEL 4
REMARK VINA RESULT:    -5.630      2.040      2.828
REMARK INTER + INTRA:         -10.084
REMARK INTER:                  -8.604
REMARK INTRA:                  -1.480
REMARK UNBOUND:                -1.656
REMARK SMILES COC(=O)C1=CO[C@H](O[C@H]2O[C@H](CO)[C@H](O)[C@@H](O)[C@H]2O)[C@H]2C(CO)=CC[C@@H]12
REMARK SMILES IDX 9 1 8 2 5 3 6 4 27 5 7 6 21 7 26 8 22 9 25 10 3 11 4 12 2 13
REMARK SMILES IDX 1 14 23 15 24 16 10 18 19 19 11 20 17 21 12 22 15 23 20 24
REMARK SMILES IDX 18 26 13 28 14 29 16 31
REMARK H PARENT 24 17 20 25 18 27 14 30 16 32
REMARK Flexibility Score: inf
ROOT
ATOM      1  O   UNL     1       5.181  -6.627  26.035  1.00  0.00    -0.310 OA
ENDROOT
BRANCH   1   2
ATOM      2  C   UNL     1       5.852  -6.863  27.259  1.00  0.00     0.316 C 
ATOM      3  C   UNL     1       6.695  -6.202  29.927  1.00  0.00     0.076 C 
ATOM      4  C   UNL     1       7.188  -5.546  28.865  1.00  0.00     0.202 C 
ATOM      5  C   UNL     1       5.473  -7.090  29.781  1.00  0.00     0.047 C 
ATOM      6  O   UNL     1       6.644  -5.724  27.593  1.00  0.00    -0.471 OA
ATOM      7  C   UNL     1       4.821  -7.112  28.377  1.00  0.00     0.094 C 
ATOM      8  C   UNL     1       5.760  -8.563  30.103  1.00  0.00     0.037 C 
ATOM      9  C   UNL     1       4.277  -8.508  28.303  1.00  0.00    -0.039 C 
ATOM     10  C   UNL     1       4.801  -9.296  29.235  1.00  0.00    -0.024 C 
BRANCH   3  11
ATOM     11  C   UNL     1       7.288  -6.005  31.272  1.00  0.00     0.337 C 
ATOM     12  O   UNL     1       8.424  -6.481  31.547  1.00  0.00    -0.246 OA
BRANCH  11  13
ATOM     13  O   UNL     1       6.578  -5.286  32.239  1.00  0.00    -0.466 OA
ATOM     14  C   UNL     1       5.568  -5.876  33.048  1.00  0.00     0.282 C 
ENDBRANCH  11  13
ENDBRANCH   3  11
BRANCH   9  15
ATOM     15  C   UNL     1       3.230  -8.968  27.331  1.00  0.00     0.187 C 
BRANCH  15  16
ATOM     16  O   UNL     1       2.550  -7.859  26.813  1.00  0.00    -0.392 OA
ATOM     17  H   UNL     1       2.555  -7.970  25.826  1.00  0.00     0.211 HD
ENDBRANCH  15  16
ENDBRANCH   9  15
ENDBRANCH   1   2
BRANCH   1  18
ATOM     18  C   UNL     1       6.024  -6.917  24.924  1.00  0.00     0.286 C 
ATOM     19  C   UNL     1       6.008  -5.755  23.901  1.00  0.00     0.202 C 
ATOM     20  O   UNL     1       5.651  -8.143  24.312  1.00  0.00    -0.341 OA
ATOM     21  C   UNL     1       4.652  -5.654  23.171  1.00  0.00     0.179 C 
ATOM     22  C   UNL     1       4.339  -8.082  23.768  1.00  0.00     0.178 C 
ATOM     23  C   UNL     1       4.259  -7.038  22.629  1.00  0.00     0.177 C 
BRANCH  19  24
ATOM     24  O   UNL     1       6.376  -4.532  24.490  1.00  0.00    -0.385 OA
ATOM     25  H   UNL     1       6.478  -3.857  23.770  1.00  0.00     0.211 HD
ENDBRANCH  19  24
BRANCH  21  26
ATOM     26  O   UNL     1       3.647  -5.194  24.041  1.00  0.00    -0.387 OA
ATOM     27  H   UNL     1       3.956  -4.327  24.412  1.00  0.00     0.211 HD
ENDBRANCH  21  26
BRANCH  22  28
ATOM     28  C   UNL     1       3.948  -9.481  23.280  1.00  0.00     0.191 C 
BRANCH  28  29
ATOM     29  O   UNL     1       3.120  -9.388  22.154  1.00  0.00    -0.394 OA
ATOM     30  H   UNL     1       3.684  -9.632  21.375  1.00  0.00     0.210 HD
ENDBRANCH  28  29
ENDBRANCH  22  28
BRANCH  23  31
ATOM     31  O   UNL     1       5.120  -7.408  21.580  1.00  0.00    -0.387 OA
ATOM     32  H   UNL     1       5.768  -8.058  21.957  1.00  0.00     0.211 HD
ENDBRANCH  23  31
ENDBRANCH   1  18
TORSDOF 11
ENDMDL
MODEL 5
REMARK VINA RESULT:    -5.590      9.278     13.306
REMARK INTER + INTRA:         -10.024
REMARK INTER:                  -8.814
REMARK INTRA:                  -1.210
REMARK UNBOUND:                -1.656
REMARK SMILES COC(=O)C1=CO[C@H](O[C@H]2O[C@H](CO)[C@H](O)[C@@H](O)[C@H]2O)[C@H]2C(CO)=CC[C@@H]12
REMARK SMILES IDX 9 1 8 2 5 3 6 4 27 5 7 6 21 7 26 8 22 9 25 10 3 11 4 12 2 13
REMARK SMILES IDX 1 14 23 15 24 16 10 18 19 19 11 20 17 21 12 22 15 23 20 24
REMARK SMILES IDX 18 26 13 28 14 29 16 31
REMARK H PARENT 24 17 20 25 18 27 14 30 16 32
REMARK Flexibility Score: inf
ROOT
ATOM      1  O   UNL     1      15.652  -7.448  20.207  1.00  0.00    -0.310 OA
ENDROOT
BRANCH   1   2
ATOM      2  C   UNL     1      15.641  -7.594  18.799  1.00  0.00     0.316 C 
ATOM      3  C   UNL     1      15.144  -8.994  16.338  1.00  0.00     0.076 C 
ATOM      4  C   UNL     1      16.122  -9.385  17.169  1.00  0.00     0.202 C 
ATOM      5  C   UNL     1      14.090  -8.006  16.804  1.00  0.00     0.047 C 
ATOM      6  O   UNL     1      16.242  -8.838  18.446  1.00  0.00    -0.471 OA
ATOM      7  C   UNL     1      14.188  -7.566  18.285  1.00  0.00     0.094 C 
ATOM      8  C   UNL     1      14.100  -6.696  16.005  1.00  0.00     0.037 C 
ATOM      9  C   UNL     1      13.664  -6.162  18.234  1.00  0.00    -0.039 C 
ATOM     10  C   UNL     1      13.631  -5.689  16.993  1.00  0.00    -0.024 C 
BRANCH   3  11
ATOM     11  C   UNL     1      15.031  -9.581  14.980  1.00  0.00     0.337 C 
ATOM     12  O   UNL     1      13.922 -10.010  14.558  1.00  0.00    -0.246 OA
BRANCH  11  13
ATOM     13  O   UNL     1      16.166  -9.657  14.167  1.00  0.00    -0.466 OA
ATOM     14  C   UNL     1      16.253  -9.006  12.905  1.00  0.00     0.282 C 
ENDBRANCH  11  13
ENDBRANCH   3  11
BRANCH   9  15
ATOM     15  C   UNL     1      13.184  -5.384  19.423  1.00  0.00     0.187 C 
BRANCH  15  16
ATOM     16  O   UNL     1      14.263  -5.110  20.273  1.00  0.00    -0.392 OA
ATOM     17  H   UNL     1      13.973  -5.384  21.182  1.00  0.00     0.211 HD
ENDBRANCH  15  16
ENDBRANCH   9  15
ENDBRANCH   1   2
BRANCH   1  18
ATOM     18  C   UNL     1      15.929  -8.688  20.849  1.00  0.00     0.286 C 
ATOM     19  C   UNL     1      14.865  -9.002  21.928  1.00  0.00     0.202 C 
ATOM     20  O   UNL     1      17.237  -8.689  21.405  1.00  0.00    -0.341 OA
ATOM     21  C   UNL     1      14.984  -8.056  23.141  1.00  0.00     0.179 C 
ATOM     22  C   UNL     1      17.375  -7.711  22.426  1.00  0.00     0.178 C 
ATOM     23  C   UNL     1      16.444  -8.021  23.622  1.00  0.00     0.177 C 
BRANCH  19  24
ATOM     24  O   UNL     1      13.563  -9.006  21.395  1.00  0.00    -0.385 OA
ATOM     25  H   UNL     1      13.631  -8.941  20.408  1.00  0.00     0.211 HD
ENDBRANCH  19  24
BRANCH  21  26
ATOM     26  O   UNL     1      14.576  -6.752  22.803  1.00  0.00    -0.387 OA
ATOM     27  H   UNL     1      13.700  -6.830  22.345  1.00  0.00     0.211 HD
ENDBRANCH  21  26
BRANCH  22  28
ATOM     28  C   UNL     1      18.846  -7.658  22.855  1.00  0.00     0.191 C 
BRANCH  28  29
ATOM     29  O   UNL     1      19.452  -6.492  22.367  1.00  0.00    -0.394 OA
ATOM     30  H   UNL     1      19.525  -5.874  23.140  1.00  0.00     0.210 HD
ENDBRANCH  28  29
ENDBRANCH  22  28
BRANCH  23  31
ATOM     31  O   UNL     1      16.794  -9.259  24.191  1.00  0.00    -0.387 OA
ATOM     32  H   UNL     1      16.113  -9.916  23.889  1.00  0.00     0.211 HD
ENDBRANCH  23  31
ENDBRANCH   1  18
TORSDOF 11
ENDMDL
MODEL 6
REMARK VINA RESULT:    -5.221      1.828      6.986
REMARK INTER + INTRA:          -9.471
REMARK INTER:                  -7.934
REMARK INTRA:                  -1.537
REMARK UNBOUND:                -1.656
REMARK SMILES COC(=O)C1=CO[C@H](O[C@H]2O[C@H](CO)[C@H](O)[C@@H](O)[C@H]2O)[C@H]2C(CO)=CC[C@@H]12
REMARK SMILES IDX 9 1 8 2 5 3 6 4 27 5 7 6 21 7 26 8 22 9 25 10 3 11 4 12 2 13
REMARK SMILES IDX 1 14 23 15 24 16 10 18 19 19 11 20 17 21 12 22 15 23 20 24
REMARK SMILES IDX 18 26 13 28 14 29 16 31
REMARK H PARENT 24 17 20 25 18 27 14 30 16 32
REMARK Flexibility Score: inf
ROOT
ATOM      1  O   UNL     1       6.804  -6.683  27.235  1.00  0.00    -0.310 OA
ENDROOT
BRANCH   1   2
ATOM      2  C   UNL     1       5.966  -6.931  26.122  1.00  0.00     0.316 C 
ATOM      3  C   UNL     1       5.064  -6.564  23.417  1.00  0.00     0.076 C 
ATOM      4  C   UNL     1       4.897  -5.602  24.337  1.00  0.00     0.202 C 
ATOM      5  C   UNL     1       5.990  -7.735  23.691  1.00  0.00     0.047 C 
ATOM      6  O   UNL     1       5.501  -5.692  25.590  1.00  0.00    -0.471 OA
ATOM      7  C   UNL     1       6.756  -7.687  25.035  1.00  0.00     0.094 C 
ATOM      8  C   UNL     1       5.262  -9.086  23.702  1.00  0.00     0.037 C 
ATOM      9  C   UNL     1       6.884  -9.141  25.378  1.00  0.00    -0.039 C 
ATOM     10  C   UNL     1       6.059  -9.895  24.660  1.00  0.00    -0.024 C 
BRANCH   3  11
ATOM     11  C   UNL     1       4.411  -6.455  22.089  1.00  0.00     0.337 C 
ATOM     12  O   UNL     1       5.106  -6.350  21.041  1.00  0.00    -0.246 OA
BRANCH  11  13
ATOM     13  O   UNL     1       3.015  -6.471  22.005  1.00  0.00    -0.466 OA
ATOM     14  C   UNL     1       2.262  -7.676  21.946  1.00  0.00     0.282 C 
ENDBRANCH  11  13
ENDBRANCH   3  11
BRANCH   9  15
ATOM     15  C   UNL     1       7.854  -9.703  26.376  1.00  0.00     0.187 C 
BRANCH  15  16
ATOM     16  O   UNL     1       8.729  -8.696  26.799  1.00  0.00    -0.392 OA
ATOM     17  H   UNL     1       8.381  -7.849  26.415  1.00  0.00     0.211 HD
ENDBRANCH  15  16
ENDBRANCH   9  15
ENDBRANCH   1   2
BRANCH   1  18
ATOM     18  C   UNL     1       6.134  -5.895  28.215  1.00  0.00     0.286 C 
ATOM     19  C   UNL     1       7.122  -4.931  28.917  1.00  0.00     0.202 C 
ATOM     20  O   UNL     1       5.467  -6.721  29.159  1.00  0.00    -0.341 OA
ATOM     21  C   UNL     1       8.108  -5.688  29.830  1.00  0.00     0.179 C 
ATOM     22  C   UNL     1       6.381  -7.521  29.896  1.00  0.00     0.178 C 
ATOM     23  C   UNL     1       7.326  -6.642  30.749  1.00  0.00     0.177 C 
BRANCH  19  24
ATOM     24  O   UNL     1       7.791  -4.105  27.997  1.00  0.00    -0.385 OA
ATOM     25  H   UNL     1       8.654  -3.825  28.400  1.00  0.00     0.211 HD
ENDBRANCH  19  24
BRANCH  21  26
ATOM     26  O   UNL     1       9.030  -6.430  29.069  1.00  0.00    -0.387 OA
ATOM     27  H   UNL     1       9.232  -5.898  28.256  1.00  0.00     0.211 HD
ENDBRANCH  21  26
BRANCH  22  28
ATOM     28  C   UNL     1       5.581  -8.498  30.766  1.00  0.00     0.191 C 
BRANCH  28  29
ATOM     29  O   UNL     1       4.414  -7.884  31.238  1.00  0.00    -0.394 OA
ATOM     30  H   UNL     1       4.638  -6.926  31.365  1.00  0.00     0.210 HD
ENDBRANCH  28  29
ENDBRANCH  22  28
BRANCH  23  31
ATOM     31  O   UNL     1       6.579  -5.906  31.685  1.00  0.00    -0.387 OA
ATOM     32  H   UNL     1       6.160  -6.563  32.300  1.00  0.00     0.211 HD
ENDBRANCH  23  31
ENDBRANCH   1  18
TORSDOF 11
ENDMDL
MODEL 7
REMARK VINA RESULT:    -5.106      2.143      3.241
REMARK INTER + INTRA:          -9.299
REMARK INTER:                  -7.601
REMARK INTRA:                  -1.698
REMARK UNBOUND:                -1.656
REMARK SMILES COC(=O)C1=CO[C@H](O[C@H]2O[C@H](CO)[C@H](O)[C@@H](O)[C@H]2O)[C@H]2C(CO)=CC[C@@H]12
REMARK SMILES IDX 9 1 8 2 5 3 6 4 27 5 7 6 21 7 26 8 22 9 25 10 3 11 4 12 2 13
REMARK SMILES IDX 1 14 23 15 24 16 10 18 19 19 11 20 17 21 12 22 15 23 20 24
REMARK SMILES IDX 18 26 13 28 14 29 16 31
REMARK H PARENT 24 17 20 25 18 27 14 30 16 32
REMARK Flexibility Score: inf
ROOT
ATOM      1  O   UNL     1       5.120  -7.760  25.354  1.00  0.00    -0.310 OA
ENDROOT
BRANCH   1   2
ATOM      2  C   UNL     1       5.164  -7.336  26.703  1.00  0.00     0.316 C 
ATOM      3  C   UNL     1       6.036  -7.468  29.439  1.00  0.00     0.076 C 
ATOM      4  C   UNL     1       5.224  -8.405  28.928  1.00  0.00     0.202 C 
ATOM      5  C   UNL     1       6.754  -6.492  28.524  1.00  0.00     0.047 C 
ATOM      6  O   UNL     1       4.956  -8.456  27.561  1.00  0.00    -0.471 OA
ATOM      7  C   UNL     1       6.541  -6.711  27.007  1.00  0.00     0.094 C 
ATOM      8  C   UNL     1       6.352  -5.032  28.770  1.00  0.00     0.037 C 
ATOM      9  C   UNL     1       6.626  -5.313  26.471  1.00  0.00    -0.039 C 
ATOM     10  C   UNL     1       6.509  -4.404  27.432  1.00  0.00    -0.024 C 
BRANCH   3  11
ATOM     11  C   UNL     1       6.308  -7.423  30.897  1.00  0.00     0.337 C 
ATOM     12  O   UNL     1       5.481  -7.908  31.717  1.00  0.00    -0.246 OA
BRANCH  11  13
ATOM     13  O   UNL     1       7.492  -6.840  31.360  1.00  0.00    -0.466 OA
ATOM     14  C   UNL     1       7.505  -5.717  32.233  1.00  0.00     0.282 C 
ENDBRANCH  11  13
ENDBRANCH   3  11
BRANCH   9  15
ATOM     15  C   UNL     1       6.862  -4.962  25.031  1.00  0.00     0.187 C 
BRANCH  15  16
ATOM     16  O   UNL     1       5.653  -4.586  24.434  1.00  0.00    -0.392 OA
ATOM     17  H   UNL     1       5.638  -3.593  24.446  1.00  0.00     0.211 HD
ENDBRANCH  15  16
ENDBRANCH   9  15
ENDBRANCH   1   2
BRANCH   1  18
ATOM     18  C   UNL     1       3.850  -7.485  24.771  1.00  0.00     0.286 C 
ATOM     19  C   UNL     1       3.090  -8.797  24.460  1.00  0.00     0.202 C 
ATOM     20  O   UNL     1       3.990  -6.686  23.605  1.00  0.00    -0.341 OA
ATOM     21  C   UNL     1       3.741  -9.573  23.296  1.00  0.00     0.179 C 
ATOM     22  C   UNL     1       4.719  -7.361  22.589  1.00  0.00     0.178 C 
ATOM     23  C   UNL     1       3.962  -8.622  22.108  1.00  0.00     0.177 C 
BRANCH  19  24
ATOM     24  O   UNL     1       2.941  -9.601  25.604  1.00  0.00    -0.385 OA
ATOM     25  H   UNL     1       2.791 -10.537  25.311  1.00  0.00     0.211 HD
ENDBRANCH  19  24
BRANCH  21  26
ATOM     26  O   UNL     1       4.975 -10.122  23.687  1.00  0.00    -0.387 OA
ATOM     27  H   UNL     1       4.966 -11.079  23.425  1.00  0.00     0.211 HD
ENDBRANCH  21  26
BRANCH  22  28
ATOM     28  C   UNL     1       4.972  -6.382  21.437  1.00  0.00     0.191 C 
BRANCH  28  29
ATOM     29  O   UNL     1       6.165  -5.679  21.652  1.00  0.00    -0.394 OA
ATOM     30  H   UNL     1       6.163  -5.418  22.610  1.00  0.00     0.210 HD
ENDBRANCH  28  29
ENDBRANCH  22  28
BRANCH  23  31
ATOM     31  O   UNL     1       2.726  -8.253  21.548  1.00  0.00    -0.387 OA
ATOM     32  H   UNL     1       2.916  -7.566  20.858  1.00  0.00     0.211 HD
ENDBRANCH  23  31
ENDBRANCH   1  18
TORSDOF 11
ENDMDL
MODEL 8
REMARK VINA RESULT:    -5.067      2.060      3.518
REMARK INTER + INTRA:          -9.241
REMARK INTER:                  -7.523
REMARK INTRA:                  -1.718
REMARK UNBOUND:                -1.656
REMARK SMILES COC(=O)C1=CO[C@H](O[C@H]2O[C@H](CO)[C@H](O)[C@@H](O)[C@H]2O)[C@H]2C(CO)=CC[C@@H]12
REMARK SMILES IDX 9 1 8 2 5 3 6 4 27 5 7 6 21 7 26 8 22 9 25 10 3 11 4 12 2 13
REMARK SMILES IDX 1 14 23 15 24 16 10 18 19 19 11 20 17 21 12 22 15 23 20 24
REMARK SMILES IDX 18 26 13 28 14 29 16 31
REMARK H PARENT 24 17 20 25 18 27 14 30 16 32
REMARK Flexibility Score: inf
ROOT
ATOM      1  O   UNL     1       5.570  -7.871  25.964  1.00  0.00    -0.310 OA
ENDROOT
BRANCH   1   2
ATOM      2  C   UNL     1       6.064  -7.871  27.291  1.00  0.00     0.316 C 
ATOM      3  C   UNL     1       7.120  -6.648  29.669  1.00  0.00     0.076 C 
ATOM      4  C   UNL     1       7.854  -6.727  28.549  1.00  0.00     0.202 C 
ATOM      5  C   UNL     1       5.627  -6.923  29.629  1.00  0.00     0.047 C 
ATOM      6  O   UNL     1       7.286  -7.138  27.343  1.00  0.00    -0.471 OA
ATOM      7  C   UNL     1       5.033  -7.211  28.228  1.00  0.00     0.094 C 
ATOM      8  C   UNL     1       5.216  -8.128  30.486  1.00  0.00     0.037 C 
ATOM      9  C   UNL     1       3.916  -8.158  28.549  1.00  0.00    -0.039 C 
ATOM     10  C   UNL     1       4.028  -8.664  29.772  1.00  0.00    -0.024 C 
BRANCH   3  11
ATOM     11  C   UNL     1       7.739  -6.213  30.944  1.00  0.00     0.337 C 
ATOM     12  O   UNL     1       8.844  -6.697  31.317  1.00  0.00    -0.246 OA
BRANCH  11  13
ATOM     13  O   UNL     1       7.091  -5.260  31.736  1.00  0.00    -0.466 OA
ATOM     14  C   UNL     1       6.572  -5.556  33.026  1.00  0.00     0.282 C 
ENDBRANCH  11  13
ENDBRANCH   3  11
BRANCH   9  15
ATOM     15  C   UNL     1       2.772  -8.475  27.629  1.00  0.00     0.187 C 
BRANCH  15  16
ATOM     16  O   UNL     1       2.724  -7.530  26.597  1.00  0.00    -0.392 OA
ATOM     17  H   UNL     1       3.386  -6.828  26.835  1.00  0.00     0.211 HD
ENDBRANCH  15  16
ENDBRANCH   9  15
ENDBRANCH   1   2
BRANCH   1  18
ATOM     18  C   UNL     1       5.631  -9.174  25.395  1.00  0.00     0.286 C 
ATOM     19  C   UNL     1       6.831  -9.298  24.425  1.00  0.00     0.202 C 
ATOM     20  O   UNL     1       4.411  -9.499  24.742  1.00  0.00    -0.341 OA
ATOM     21  C   UNL     1       6.617  -8.469  23.141  1.00  0.00     0.179 C 
ATOM     22  C   UNL     1       4.154  -8.633  23.645  1.00  0.00     0.178 C 
ATOM     23  C   UNL     1       5.234  -8.790  22.549  1.00  0.00     0.177 C 
BRANCH  19  24
ATOM     24  O   UNL     1       8.048  -8.980  25.054  1.00  0.00    -0.385 OA
ATOM     25  H   UNL     1       8.708  -9.686  24.829  1.00  0.00     0.211 HD
ENDBRANCH  19  24
BRANCH  21  26
ATOM     26  O   UNL     1       6.696  -7.091  23.414  1.00  0.00    -0.387 OA
ATOM     27  H   UNL     1       6.680  -6.619  22.541  1.00  0.00     0.211 HD
ENDBRANCH  21  26
BRANCH  22  28
ATOM     28  C   UNL     1       2.752  -8.935  23.104  1.00  0.00     0.191 C 
BRANCH  28  29
ATOM     29  O   UNL     1       2.700  -8.685  21.726  1.00  0.00    -0.394 OA
ATOM     30  H   UNL     1       2.580  -9.568  21.289  1.00  0.00     0.210 HD
ENDBRANCH  28  29
ENDBRANCH  22  28
BRANCH  23  31
ATOM     31  O   UNL     1       5.218 -10.103  22.047  1.00  0.00    -0.387 OA
ATOM     32  H   UNL     1       4.599 -10.106  21.270  1.00  0.00     0.211 HD
ENDBRANCH  23  31
ENDBRANCH   1  18
TORSDOF 11
ENDMDL
MODEL 9
REMARK VINA RESULT:    -4.875      1.993      3.580
REMARK INTER + INTRA:          -8.954
REMARK INTER:                  -7.824
REMARK INTRA:                  -1.130
REMARK UNBOUND:                -1.656
REMARK SMILES COC(=O)C1=CO[C@H](O[C@H]2O[C@H](CO)[C@H](O)[C@@H](O)[C@H]2O)[C@H]2C(CO)=CC[C@@H]12
REMARK SMILES IDX 9 1 8 2 5 3 6 4 27 5 7 6 21 7 26 8 22 9 25 10 3 11 4 12 2 13
REMARK SMILES IDX 1 14 23 15 24 16 10 18 19 19 11 20 17 21 12 22 15 23 20 24
REMARK SMILES IDX 18 26 13 28 14 29 16 31
REMARK H PARENT 24 17 20 25 18 27 14 30 16 32
REMARK Flexibility Score: inf
ROOT
ATOM      1  O   UNL     1       5.622  -7.076  24.801  1.00  0.00    -0.310 OA
ENDROOT
BRANCH   1   2
ATOM      2  C   UNL     1       5.538  -6.876  26.200  1.00  0.00     0.316 C 
ATOM      3  C   UNL     1       6.222  -7.398  28.943  1.00  0.00     0.076 C 
ATOM      4  C   UNL     1       5.519  -8.288  28.226  1.00  0.00     0.202 C 
ATOM      5  C   UNL     1       6.929  -6.245  28.256  1.00  0.00     0.047 C 
ATOM      6  O   UNL     1       5.353  -8.132  26.850  1.00  0.00    -0.471 OA
ATOM      7  C   UNL     1       6.840  -6.226  26.710  1.00  0.00     0.094 C 
ATOM      8  C   UNL     1       6.403  -4.871  28.695  1.00  0.00     0.037 C 
ATOM      9  C   UNL     1       6.859  -4.757  26.410  1.00  0.00    -0.039 C 
ATOM     10  C   UNL     1       6.607  -4.026  27.490  1.00  0.00    -0.024 C 
BRANCH   3  11
ATOM     11  C   UNL     1       6.386  -7.575  30.407  1.00  0.00     0.337 C 
ATOM     12  O   UNL     1       5.538  -8.233  31.071  1.00  0.00    -0.246 OA
BRANCH  11  13
ATOM     13  O   UNL     1       7.490  -7.007  31.050  1.00  0.00    -0.466 OA
ATOM     14  C   UNL     1       7.367  -5.984  32.031  1.00  0.00     0.282 C 
ENDBRANCH  11  13
ENDBRANCH   3  11
BRANCH   9  15
ATOM     15  C   UNL     1       7.170  -4.162  25.068  1.00  0.00     0.187 C 
BRANCH  15  16
ATOM     16  O   UNL     1       6.162  -4.501  24.158  1.00  0.00    -0.392 OA
ATOM     17  H   UNL     1       6.355  -3.988  23.330  1.00  0.00     0.211 HD
ENDBRANCH  15  16
ENDBRANCH   9  15
ENDBRANCH   1   2
BRANCH   1  18
ATOM     18  C   UNL     1       4.597  -7.955  24.348  1.00  0.00     0.286 C 
ATOM     19  C   UNL     1       4.983  -8.602  22.995  1.00  0.00     0.202 C 
ATOM     20  O   UNL     1       3.353  -7.277  24.254  1.00  0.00    -0.341 OA
ATOM     21  C   UNL     1       4.964  -7.574  21.844  1.00  0.00     0.179 C 
ATOM     22  C   UNL     1       3.393  -6.235  23.288  1.00  0.00     0.178 C 
ATOM     23  C   UNL     1       3.635  -6.802  21.869  1.00  0.00     0.177 C 
BRANCH  19  24
ATOM     24  O   UNL     1       6.213  -9.279  23.070  1.00  0.00    -0.385 OA
ATOM     25  H   UNL     1       6.031 -10.254  23.109  1.00  0.00     0.211 HD
ENDBRANCH  19  24
BRANCH  21  26
ATOM     26  O   UNL     1       6.031  -6.665  21.965  1.00  0.00    -0.387 OA
ATOM     27  H   UNL     1       5.651  -5.812  22.300  1.00  0.00     0.211 HD
ENDBRANCH  21  26
BRANCH  22  28
ATOM     28  C   UNL     1       2.081  -5.447  23.365  1.00  0.00     0.191 C 
BRANCH  28  29
ATOM     29  O   UNL     1       2.293  -4.112  22.996  1.00  0.00    -0.394 OA
ATOM     30  H   UNL     1       2.760  -4.138  22.121  1.00  0.00     0.210 HD
ENDBRANCH  28  29
ENDBRANCH  22  28
BRANCH  23  31
ATOM     31  O   UNL     1       2.576  -7.653  21.508  1.00  0.00    -0.387 OA
ATOM     32  H   UNL     1       2.014  -7.155  20.859  1.00  0.00     0.211 HD
ENDBRANCH  23  31
ENDBRANCH   1  18
TORSDOF 11
ENDMDL
