MODEL 1
REMARK VINA RESULT:    -8.787      0.000      0.000
REMARK INTER + INTRA:          -9.238
REMARK INTER:                  -9.557
REMARK INTRA:                   0.319
REMARK UNBOUND:                 0.319
REMARK SMILES C[C@@H]1[C@H](C)CC[C@]2(C(=O)[O-])CC[C@]3(C)C(=CC[C@@H]4[C@@]5(C)CC[C@H](O)C(C)(C)[C@H]5CC[C@]43C)[C@@H]12
REMARK SMILES IDX 7 1 6 2 11 3 33 4 5 5 12 6 15 7 2 8 3 9 13 10 16 11 1 12
REMARK SMILES IDX 4 13 14 14 31 15 17 16 18 17 30 18 32 19 19 20 29 21 28 22
REMARK SMILES IDX 21 23 20 24 25 25 22 26 23 27 26 28 27 29 8 30 9 31 10 32
REMARK SMILES IDX 24 33
REMARK H PARENT 24 34
REMARK Flexibility Score: inf
ROOT
ATOM      1  C   UNL     1     173.319 145.931 158.435  1.00  0.00     0.017 C 
ATOM      2  C   UNL     1     173.853 146.311 159.840  1.00  0.00     0.014 C 
ATOM      3  C   UNL     1     171.960 146.656 158.234  1.00  0.00     0.014 C 
ATOM      4  C   UNL     1     173.044 144.392 158.340  1.00  0.00     0.030 C 
ATOM      5  C   UNL     1     175.071 145.476 160.239  1.00  0.00     0.004 C 
ATOM      6  C   UNL     1     171.309 146.348 156.872  1.00  0.00     0.013 C 
ATOM      7  C   UNL     1     172.480 144.076 156.938  1.00  0.00    -0.063 C 
ATOM      8  C   UNL     1     174.216 143.492 158.884  1.00  0.00    -0.003 C 
ATOM      9  C   UNL     1     174.736 143.978 160.273  1.00  0.00    -0.011 C 
ATOM     10  C   UNL     1     171.186 144.817 156.513  1.00  0.00    -0.006 C 
ATOM     11  C   UNL     1     173.111 143.217 156.092  1.00  0.00    -0.027 C 
ATOM     12  C   UNL     1     173.813 141.999 158.974  1.00  0.00     0.008 C 
ATOM     13  C   UNL     1     173.795 143.644 161.456  1.00  0.00     0.008 C 
ATOM     14  C   UNL     1     170.012 144.249 157.375  1.00  0.00     0.017 C 
ATOM     15  C   UNL     1     170.937 144.626 154.931  1.00  0.00    -0.020 C 
ATOM     16  C   UNL     1     172.531 142.680 154.800  1.00  0.00     0.032 C 
ATOM     17  C   UNL     1     171.050 143.097 154.591  1.00  0.00     0.006 C 
ATOM     18  C   UNL     1     169.535 145.096 154.495  1.00  0.00     0.008 C 
ATOM     19  C   UNL     1     172.010 145.458 154.130  1.00  0.00     0.012 C 
ATOM     20  C   UNL     1     170.278 142.586 153.260  1.00  0.00    -0.025 C 
ATOM     21  C   UNL     1     169.307 144.998 152.982  1.00  0.00     0.005 C 
ATOM     22  C   UNL     1     169.953 143.767 152.249  1.00  0.00     0.003 C 
ATOM     23  C   UNL     1     168.926 141.876 153.662  1.00  0.00     0.010 C 
ATOM     24  C   UNL     1     171.162 141.506 152.571  1.00  0.00     0.012 C 
ATOM     25  C   UNL     1     169.135 143.339 150.933  1.00  0.00    -0.006 C 
ATOM     26  C   UNL     1     167.726 142.107 152.719  1.00  0.00     0.033 C 
ATOM     27  C   UNL     1     168.094 142.191 151.232  1.00  0.00     0.120 C 
ATOM     28  C   UNL     1     170.121 142.925 149.795  1.00  0.00     0.014 C 
ATOM     29  C   UNL     1     168.356 144.543 150.315  1.00  0.00     0.014 C 
ENDROOT
BRANCH   1  30
ATOM     30  C   UNL     1     174.321 146.431 157.395  1.00  0.00     0.048 C 
ATOM     31  O   UNL     1     175.011 145.633 156.708  1.00  0.00    -0.550 OA
ATOM     32  O   UNL     1     174.511 147.801 157.225  1.00  0.00    -0.550 OA
ENDBRANCH   1  30
BRANCH  27  33
ATOM     33  O   UNL     1     168.525 140.924 150.799  1.00  0.00    -0.393 OA
ATOM     34  H   UNL     1     167.718 140.352 150.695  1.00  0.00     0.210 HD
ENDBRANCH  27  33
TORSDOF 2
ENDMDL
MODEL 2
REMARK VINA RESULT:    -8.472      1.708      7.956
REMARK INTER + INTRA:          -8.896
REMARK INTER:                  -9.274
REMARK INTRA:                   0.378
REMARK UNBOUND:                 0.319
REMARK SMILES C[C@@H]1[C@H](C)CC[C@]2(C(=O)[O-])CC[C@]3(C)C(=CC[C@@H]4[C@@]5(C)CC[C@H](O)C(C)(C)[C@H]5CC[C@]43C)[C@@H]12
REMARK SMILES IDX 7 1 6 2 11 3 33 4 5 5 12 6 15 7 2 8 3 9 13 10 16 11 1 12
REMARK SMILES IDX 4 13 14 14 31 15 17 16 18 17 30 18 32 19 19 20 29 21 28 22
REMARK SMILES IDX 21 23 20 24 25 25 22 26 23 27 26 28 27 29 8 30 9 31 10 32
REMARK SMILES IDX 24 33
REMARK H PARENT 24 34
REMARK Flexibility Score: inf
ROOT
ATOM      1  C   UNL     1     168.926 144.309 152.690  1.00  0.00     0.017 C 
ATOM      2  C   UNL     1     168.291 144.471 151.286  1.00  0.00     0.014 C 
ATOM      3  C   UNL     1     169.117 145.730 153.289  1.00  0.00     0.014 C 
ATOM      4  C   UNL     1     170.345 143.653 152.588  1.00  0.00     0.030 C 
ATOM      5  C   UNL     1     168.268 143.155 150.507  1.00  0.00     0.004 C 
ATOM      6  C   UNL     1     169.761 145.712 154.688  1.00  0.00     0.013 C 
ATOM      7  C   UNL     1     170.945 143.551 154.006  1.00  0.00    -0.063 C 
ATOM      8  C   UNL     1     170.400 142.376 151.669  1.00  0.00    -0.003 C 
ATOM      9  C   UNL     1     169.685 142.603 150.300  1.00  0.00    -0.011 C 
ATOM     10  C   UNL     1     171.089 144.869 154.810  1.00  0.00    -0.006 C 
ATOM     11  C   UNL     1     171.297 142.353 154.548  1.00  0.00    -0.027 C 
ATOM     12  C   UNL     1     171.852 141.895 151.424  1.00  0.00     0.008 C 
ATOM     13  C   UNL     1     170.485 143.477 149.305  1.00  0.00     0.008 C 
ATOM     14  C   UNL     1     172.217 145.713 154.135  1.00  0.00     0.017 C 
ATOM     15  C   UNL     1     171.408 144.538 156.356  1.00  0.00    -0.020 C 
ATOM     16  C   UNL     1     172.085 142.171 155.828  1.00  0.00     0.032 C 
ATOM     17  C   UNL     1     172.599 143.515 156.410  1.00  0.00     0.006 C 
ATOM     18  C   UNL     1     171.835 145.790 157.149  1.00  0.00     0.008 C 
ATOM     19  C   UNL     1     170.122 143.935 157.037  1.00  0.00     0.012 C 
ATOM     20  C   UNL     1     173.478 143.489 157.772  1.00  0.00    -0.025 C 
ATOM     21  C   UNL     1     172.066 145.512 158.639  1.00  0.00     0.005 C 
ATOM     22  C   UNL     1     172.712 144.128 159.008  1.00  0.00     0.003 C 
ATOM     23  C   UNL     1     174.831 144.273 157.554  1.00  0.00     0.010 C 
ATOM     24  C   UNL     1     173.862 142.011 158.073  1.00  0.00     0.012 C 
ATOM     25  C   UNL     1     173.549 144.187 160.379  1.00  0.00    -0.006 C 
ATOM     26  C   UNL     1     175.344 145.098 158.754  1.00  0.00     0.033 C 
ATOM     27  C   UNL     1     175.082 144.458 160.123  1.00  0.00     0.120 C 
ATOM     28  C   UNL     1     173.335 142.876 161.200  1.00  0.00     0.014 C 
ATOM     29  C   UNL     1     173.019 145.302 161.336  1.00  0.00     0.014 C 
ENDROOT
BRANCH   1  30
ATOM     30  C   UNL     1     167.954 143.516 153.562  1.00  0.00     0.048 C 
ATOM     31  O   UNL     1     167.820 142.270 153.434  1.00  0.00    -0.550 OA
ATOM     32  O   UNL     1     167.165 144.183 154.496  1.00  0.00    -0.550 OA
ENDBRANCH   1  30
BRANCH  27  33
ATOM     33  O   UNL     1     175.877 143.302 160.242  1.00  0.00    -0.393 OA
ATOM     34  H   UNL     1     175.687 142.725 159.454  1.00  0.00     0.210 HD
ENDBRANCH  27  33
TORSDOF 2
ENDMDL
MODEL 3
REMARK VINA RESULT:    -8.396      1.204      1.390
REMARK INTER + INTRA:          -8.813
REMARK INTER:                  -9.244
REMARK INTRA:                   0.431
REMARK UNBOUND:                 0.319
REMARK SMILES C[C@@H]1[C@H](C)CC[C@]2(C(=O)[O-])CC[C@]3(C)C(=CC[C@@H]4[C@@]5(C)CC[C@H](O)C(C)(C)[C@H]5CC[C@]43C)[C@@H]12
REMARK SMILES IDX 7 1 6 2 11 3 33 4 5 5 12 6 15 7 2 8 3 9 13 10 16 11 1 12
REMARK SMILES IDX 4 13 14 14 31 15 17 16 18 17 30 18 32 19 19 20 29 21 28 22
REMARK SMILES IDX 21 23 20 24 25 25 22 26 23 27 26 28 27 29 8 30 9 31 10 32
REMARK SMILES IDX 24 33
REMARK H PARENT 24 34
REMARK Flexibility Score: inf
ROOT
ATOM      1  C   UNL     1     172.361 145.161 157.919  1.00  0.00     0.017 C 
ATOM      2  C   UNL     1     172.717 145.291 159.422  1.00  0.00     0.014 C 
ATOM      3  C   UNL     1     170.983 145.842 157.699  1.00  0.00     0.014 C 
ATOM      4  C   UNL     1     172.207 143.656 157.511  1.00  0.00     0.030 C 
ATOM      5  C   UNL     1     173.943 144.457 159.800  1.00  0.00     0.004 C 
ATOM      6  C   UNL     1     170.501 145.768 156.238  1.00  0.00     0.013 C 
ATOM      7  C   UNL     1     171.816 143.586 156.019  1.00  0.00    -0.063 C 
ATOM      8  C   UNL     1     173.376 142.728 158.013  1.00  0.00    -0.003 C 
ATOM      9  C   UNL     1     173.713 142.965 159.518  1.00  0.00    -0.011 C 
ATOM     10  C   UNL     1     170.524 144.329 155.591  1.00  0.00    -0.006 C 
ATOM     11  C   UNL     1     172.591 142.936 155.108  1.00  0.00    -0.027 C 
ATOM     12  C   UNL     1     173.072 141.227 157.778  1.00  0.00     0.008 C 
ATOM     13  C   UNL     1     172.679 142.365 160.502  1.00  0.00     0.008 C 
ATOM     14  C   UNL     1     169.310 143.550 156.191  1.00  0.00     0.017 C 
ATOM     15  C   UNL     1     170.457 144.432 153.983  1.00  0.00    -0.020 C 
ATOM     16  C   UNL     1     172.189 142.628 153.682  1.00  0.00     0.032 C 
ATOM     17  C   UNL     1     170.712 143.003 153.382  1.00  0.00     0.006 C 
ATOM     18  C   UNL     1     169.078 144.906 153.481  1.00  0.00     0.008 C 
ATOM     19  C   UNL     1     171.546 145.453 153.479  1.00  0.00     0.012 C 
ATOM     20  C   UNL     1     170.121 142.718 151.900  1.00  0.00    -0.025 C 
ATOM     21  C   UNL     1     169.017 145.087 151.960  1.00  0.00     0.005 C 
ATOM     22  C   UNL     1     169.821 144.052 151.093  1.00  0.00     0.003 C 
ATOM     23  C   UNL     1     168.788 141.878 152.005  1.00  0.00     0.010 C 
ATOM     24  C   UNL     1     171.147 141.834 151.131  1.00  0.00     0.012 C 
ATOM     25  C   UNL     1     169.178 143.843 149.635  1.00  0.00    -0.006 C 
ATOM     26  C   UNL     1     167.680 142.225 150.987  1.00  0.00     0.033 C 
ATOM     27  C   UNL     1     168.194 142.610 149.595  1.00  0.00     0.120 C 
ATOM     28  C   UNL     1     170.304 143.704 148.562  1.00  0.00     0.014 C 
ATOM     29  C   UNL     1     168.384 145.103 149.163  1.00  0.00     0.014 C 
ENDROOT
BRANCH   1  30
ATOM     30  C   UNL     1     173.429 145.899 157.112  1.00  0.00     0.048 C 
ATOM     31  O   UNL     1     174.128 145.307 156.248  1.00  0.00    -0.550 OA
ATOM     32  O   UNL     1     173.669 147.248 157.360  1.00  0.00    -0.550 OA
ENDBRANCH   1  30
BRANCH  27  33
ATOM     33  O   UNL     1     168.757 141.471 148.989  1.00  0.00    -0.393 OA
ATOM     34  H   UNL     1     168.254 140.678 149.315  1.00  0.00     0.210 HD
ENDBRANCH  27  33
TORSDOF 2
ENDMDL
MODEL 4
REMARK VINA RESULT:    -8.041      1.820      3.440
REMARK INTER + INTRA:          -8.427
REMARK INTER:                  -8.683
REMARK INTRA:                   0.257
REMARK UNBOUND:                 0.319
REMARK SMILES C[C@@H]1[C@H](C)CC[C@]2(C(=O)[O-])CC[C@]3(C)C(=CC[C@@H]4[C@@]5(C)CC[C@H](O)C(C)(C)[C@H]5CC[C@]43C)[C@@H]12
REMARK SMILES IDX 7 1 6 2 11 3 33 4 5 5 12 6 15 7 2 8 3 9 13 10 16 11 1 12
REMARK SMILES IDX 4 13 14 14 31 15 17 16 18 17 30 18 32 19 19 20 29 21 28 22
REMARK SMILES IDX 21 23 20 24 25 25 22 26 23 27 26 28 27 29 8 30 9 31 10 32
REMARK SMILES IDX 24 33
REMARK H PARENT 24 34
REMARK Flexibility Score: inf
ROOT
ATOM      1  C   UNL     1     173.766 144.025 158.474  1.00  0.00     0.017 C 
ATOM      2  C   UNL     1     174.696 144.467 159.633  1.00  0.00     0.014 C 
ATOM      3  C   UNL     1     174.666 143.497 157.322  1.00  0.00     0.014 C 
ATOM      4  C   UNL     1     172.958 145.243 157.913  1.00  0.00     0.030 C 
ATOM      5  C   UNL     1     173.936 145.216 160.730  1.00  0.00     0.004 C 
ATOM      6  C   UNL     1     173.860 143.038 156.093  1.00  0.00     0.013 C 
ATOM      7  C   UNL     1     172.080 144.755 156.741  1.00  0.00    -0.063 C 
ATOM      8  C   UNL     1     172.281 146.135 159.021  1.00  0.00    -0.003 C 
ATOM      9  C   UNL     1     173.266 146.483 160.180  1.00  0.00    -0.011 C 
ATOM     10  C   UNL     1     172.805 144.077 155.549  1.00  0.00    -0.006 C 
ATOM     11  C   UNL     1     170.725 144.876 156.765  1.00  0.00    -0.027 C 
ATOM     12  C   UNL     1     171.684 147.439 158.437  1.00  0.00     0.008 C 
ATOM     13  C   UNL     1     174.319 147.557 159.816  1.00  0.00     0.008 C 
ATOM     14  C   UNL     1     173.613 145.183 154.797  1.00  0.00     0.017 C 
ATOM     15  C   UNL     1     171.729 143.345 154.597  1.00  0.00    -0.020 C 
ATOM     16  C   UNL     1     169.805 144.632 155.588  1.00  0.00     0.032 C 
ATOM     17  C   UNL     1     170.579 144.363 154.269  1.00  0.00     0.006 C 
ATOM     18  C   UNL     1     172.343 142.891 153.257  1.00  0.00     0.008 C 
ATOM     19  C   UNL     1     171.157 142.075 155.335  1.00  0.00     0.012 C 
ATOM     20  C   UNL     1     169.736 144.100 152.909  1.00  0.00    -0.025 C 
ATOM     21  C   UNL     1     171.358 142.121 152.369  1.00  0.00     0.005 C 
ATOM     22  C   UNL     1     169.862 142.605 152.390  1.00  0.00     0.003 C 
ATOM     23  C   UNL     1     170.232 145.077 151.772  1.00  0.00     0.010 C 
ATOM     24  C   UNL     1     168.247 144.458 153.187  1.00  0.00     0.012 C 
ATOM     25  C   UNL     1     169.097 142.290 151.012  1.00  0.00    -0.006 C 
ATOM     26  C   UNL     1     170.270 144.495 150.342  1.00  0.00     0.033 C 
ATOM     27  C   UNL     1     169.132 143.519 150.023  1.00  0.00     0.120 C 
ATOM     28  C   UNL     1     167.630 141.837 151.300  1.00  0.00     0.014 C 
ATOM     29  C   UNL     1     169.714 141.060 150.272  1.00  0.00     0.014 C 
ENDROOT
BRANCH   1  30
ATOM     30  C   UNL     1     172.877 142.892 158.985  1.00  0.00     0.048 C 
ATOM     31  O   UNL     1     171.761 143.122 159.523  1.00  0.00    -0.550 OA
ATOM     32  O   UNL     1     173.318 141.574 158.893  1.00  0.00    -0.550 OA
ENDBRANCH   1  30
BRANCH  27  33
ATOM     33  O   UNL     1     167.920 144.233 149.981  1.00  0.00    -0.393 OA
ATOM     34  H   UNL     1     167.419 144.019 150.813  1.00  0.00     0.210 HD
ENDBRANCH  27  33
TORSDOF 2
ENDMDL
MODEL 5
REMARK VINA RESULT:    -7.989      1.416      1.771
REMARK INTER + INTRA:          -8.371
REMARK INTER:                  -8.634
REMARK INTRA:                   0.264
REMARK UNBOUND:                 0.319
REMARK SMILES C[C@@H]1[C@H](C)CC[C@]2(C(=O)[O-])CC[C@]3(C)C(=CC[C@@H]4[C@@]5(C)CC[C@H](O)C(C)(C)[C@H]5CC[C@]43C)[C@@H]12
REMARK SMILES IDX 7 1 6 2 11 3 33 4 5 5 12 6 15 7 2 8 3 9 13 10 16 11 1 12
REMARK SMILES IDX 4 13 14 14 31 15 17 16 18 17 30 18 32 19 19 20 29 21 28 22
REMARK SMILES IDX 21 23 20 24 25 25 22 26 23 27 26 28 27 29 8 30 9 31 10 32
REMARK SMILES IDX 24 33
REMARK H PARENT 24 34
REMARK Flexibility Score: inf
ROOT
ATOM      1  C   UNL     1     174.726 146.502 159.045  1.00  0.00     0.017 C 
ATOM      2  C   UNL     1     175.523 146.841 160.331  1.00  0.00     0.014 C 
ATOM      3  C   UNL     1     173.234 146.844 159.310  1.00  0.00     0.014 C 
ATOM      4  C   UNL     1     174.803 144.969 158.730  1.00  0.00     0.030 C 
ATOM      5  C   UNL     1     176.964 146.331 160.269  1.00  0.00     0.004 C 
ATOM      6  C   UNL     1     172.324 146.535 158.106  1.00  0.00     0.013 C 
ATOM      7  C   UNL     1     173.965 144.682 157.467  1.00  0.00    -0.063 C 
ATOM      8  C   UNL     1     176.256 144.366 158.806  1.00  0.00    -0.003 C 
ATOM      9  C   UNL     1     177.011 144.806 160.099  1.00  0.00    -0.011 C 
ATOM     10  C   UNL     1     172.467 145.084 157.505  1.00  0.00    -0.006 C 
ATOM     11  C   UNL     1     174.520 144.136 156.350  1.00  0.00    -0.027 C 
ATOM     12  C   UNL     1     176.254 142.821 158.705  1.00  0.00     0.008 C 
ATOM     13  C   UNL     1     176.537 144.087 161.385  1.00  0.00     0.008 C 
ATOM     14  C   UNL     1     171.744 144.116 158.496  1.00  0.00     0.017 C 
ATOM     15  C   UNL     1     171.844 145.024 156.019  1.00  0.00    -0.020 C 
ATOM     16  C   UNL     1     173.749 143.621 155.154  1.00  0.00     0.032 C 
ATOM     17  C   UNL     1     172.213 143.637 155.380  1.00  0.00     0.006 C 
ATOM     18  C   UNL     1     170.307 145.140 156.020  1.00  0.00     0.008 C 
ATOM     19  C   UNL     1     172.429 146.208 155.159  1.00  0.00     0.012 C 
ATOM     20  C   UNL     1     171.245 143.097 154.197  1.00  0.00    -0.025 C 
ATOM     21  C   UNL     1     169.700 145.166 154.613  1.00  0.00     0.005 C 
ATOM     22  C   UNL     1     170.387 144.256 153.531  1.00  0.00     0.003 C 
ATOM     23  C   UNL     1     170.261 142.000 154.765  1.00  0.00     0.010 C 
ATOM     24  C   UNL     1     172.132 142.392 153.129  1.00  0.00     0.012 C 
ATOM     25  C   UNL     1     169.362 143.782 152.387  1.00  0.00    -0.006 C 
ATOM     26  C   UNL     1     168.828 142.005 154.190  1.00  0.00     0.033 C 
ATOM     27  C   UNL     1     168.742 142.365 152.702  1.00  0.00     0.120 C 
ATOM     28  C   UNL     1     170.065 143.795 150.993  1.00  0.00     0.014 C 
ATOM     29  C   UNL     1     168.184 144.791 152.207  1.00  0.00     0.014 C 
ENDROOT
BRANCH   1  30
ATOM     30  C   UNL     1     175.257 147.379 157.912  1.00  0.00     0.048 C 
ATOM     31  O   UNL     1     176.008 146.913 157.015  1.00  0.00    -0.550 OA
ATOM     32  O   UNL     1     174.941 148.735 157.885  1.00  0.00    -0.550 OA
ENDBRANCH   1  30
BRANCH  27  33
ATOM     33  O   UNL     1     169.321 141.326 151.950  1.00  0.00    -0.393 OA
ATOM     34  H   UNL     1     169.931 141.743 151.284  1.00  0.00     0.210 HD
ENDBRANCH  27  33
TORSDOF 2
ENDMDL
MODEL 6
REMARK VINA RESULT:    -7.886      1.494      8.224
REMARK INTER + INTRA:          -8.259
REMARK INTER:                  -8.930
REMARK INTRA:                   0.671
REMARK UNBOUND:                 0.319
REMARK SMILES C[C@@H]1[C@H](C)CC[C@]2(C(=O)[O-])CC[C@]3(C)C(=CC[C@@H]4[C@@]5(C)CC[C@H](O)C(C)(C)[C@H]5CC[C@]43C)[C@@H]12
REMARK SMILES IDX 7 1 6 2 11 3 33 4 5 5 12 6 15 7 2 8 3 9 13 10 16 11 1 12
REMARK SMILES IDX 4 13 14 14 31 15 17 16 18 17 30 18 32 19 19 20 29 21 28 22
REMARK SMILES IDX 21 23 20 24 25 25 22 26 23 27 26 28 27 29 8 30 9 31 10 32
REMARK SMILES IDX 24 33
REMARK H PARENT 24 34
REMARK Flexibility Score: inf
ROOT
ATOM      1  C   UNL     1     168.761 142.627 151.917  1.00  0.00     0.017 C 
ATOM      2  C   UNL     1     167.836 142.316 150.713  1.00  0.00     0.014 C 
ATOM      3  C   UNL     1     167.931 142.429 153.215  1.00  0.00     0.014 C 
ATOM      4  C   UNL     1     169.230 144.121 151.887  1.00  0.00     0.030 C 
ATOM      5  C   UNL     1     168.477 142.698 149.377  1.00  0.00     0.004 C 
ATOM      6  C   UNL     1     168.735 142.726 154.494  1.00  0.00     0.013 C 
ATOM      7  C   UNL     1     170.115 144.386 153.124  1.00  0.00    -0.063 C 
ATOM      8  C   UNL     1     169.758 144.605 150.485  1.00  0.00    -0.003 C 
ATOM      9  C   UNL     1     168.800 144.198 149.321  1.00  0.00    -0.011 C 
ATOM     10  C   UNL     1     169.486 144.114 154.515  1.00  0.00    -0.006 C 
ATOM     11  C   UNL     1     171.405 144.802 153.003  1.00  0.00    -0.027 C 
ATOM     12  C   UNL     1     170.001 146.134 150.447  1.00  0.00     0.008 C 
ATOM     13  C   UNL     1     167.507 145.044 149.239  1.00  0.00     0.008 C 
ATOM     14  C   UNL     1     168.396 145.206 154.763  1.00  0.00     0.017 C 
ATOM     15  C   UNL     1     170.633 144.118 155.648  1.00  0.00    -0.020 C 
ATOM     16  C   UNL     1     172.275 145.293 154.141  1.00  0.00     0.032 C 
ATOM     17  C   UNL     1     171.495 145.421 155.477  1.00  0.00     0.006 C 
ATOM     18  C   UNL     1     170.050 144.131 157.076  1.00  0.00     0.008 C 
ATOM     19  C   UNL     1     171.529 142.831 155.490  1.00  0.00     0.012 C 
ATOM     20  C   UNL     1     172.282 145.953 156.792  1.00  0.00    -0.025 C 
ATOM     21  C   UNL     1     171.123 144.055 158.168  1.00  0.00     0.005 C 
ATOM     22  C   UNL     1     172.466 144.824 157.894  1.00  0.00     0.003 C 
ATOM     23  C   UNL     1     171.500 147.165 157.432  1.00  0.00     0.010 C 
ATOM     24  C   UNL     1     173.665 146.503 156.337  1.00  0.00     0.012 C 
ATOM     25  C   UNL     1     173.188 145.299 159.249  1.00  0.00    -0.006 C 
ATOM     26  C   UNL     1     171.499 147.238 158.975  1.00  0.00     0.033 C 
ATOM     27  C   UNL     1     172.806 146.781 159.633  1.00  0.00     0.120 C 
ATOM     28  C   UNL     1     174.735 145.128 159.125  1.00  0.00     0.014 C 
ATOM     29  C   UNL     1     172.820 144.380 160.457  1.00  0.00     0.014 C 
ENDROOT
BRANCH   1  30
ATOM     30  C   UNL     1     169.919 141.630 151.896  1.00  0.00     0.048 C 
ATOM     31  O   UNL     1     170.156 140.875 152.877  1.00  0.00    -0.550 OA
ATOM     32  O   UNL     1     170.761 141.575 150.788  1.00  0.00    -0.550 OA
ENDBRANCH   1  30
BRANCH  27  33
ATOM     33  O   UNL     1     173.817 147.712 159.329  1.00  0.00    -0.393 OA
ATOM     34  H   UNL     1     174.159 147.496 158.420  1.00  0.00     0.210 HD
ENDBRANCH  27  33
TORSDOF 2
ENDMDL
MODEL 7
REMARK VINA RESULT:    -7.393      1.625      2.952
REMARK INTER + INTRA:          -7.721
REMARK INTER:                  -8.385
REMARK INTRA:                   0.664
REMARK UNBOUND:                 0.319
REMARK SMILES C[C@@H]1[C@H](C)CC[C@]2(C(=O)[O-])CC[C@]3(C)C(=CC[C@@H]4[C@@]5(C)CC[C@H](O)C(C)(C)[C@H]5CC[C@]43C)[C@@H]12
REMARK SMILES IDX 7 1 6 2 11 3 33 4 5 5 12 6 15 7 2 8 3 9 13 10 16 11 1 12
REMARK SMILES IDX 4 13 14 14 31 15 17 16 18 17 30 18 32 19 19 20 29 21 28 22
REMARK SMILES IDX 21 23 20 24 25 25 22 26 23 27 26 28 27 29 8 30 9 31 10 32
REMARK SMILES IDX 24 33
REMARK H PARENT 24 34
REMARK Flexibility Score: inf
ROOT
ATOM      1  C   UNL     1     173.345 145.829 159.137  1.00  0.00     0.017 C 
ATOM      2  C   UNL     1     174.267 146.220 160.320  1.00  0.00     0.014 C 
ATOM      3  C   UNL     1     172.783 144.410 159.426  1.00  0.00     0.014 C 
ATOM      4  C   UNL     1     174.158 145.743 157.801  1.00  0.00     0.030 C 
ATOM      5  C   UNL     1     175.057 147.500 160.037  1.00  0.00     0.004 C 
ATOM      6  C   UNL     1     171.856 143.891 158.310  1.00  0.00     0.013 C 
ATOM      7  C   UNL     1     173.203 145.314 156.667  1.00  0.00    -0.063 C 
ATOM      8  C   UNL     1     175.106 146.974 157.542  1.00  0.00    -0.003 C 
ATOM      9  C   UNL     1     175.953 147.342 158.801  1.00  0.00    -0.011 C 
ATOM     10  C   UNL     1     172.447 143.972 156.849  1.00  0.00    -0.006 C 
ATOM     11  C   UNL     1     172.998 146.096 155.572  1.00  0.00    -0.027 C 
ATOM     12  C   UNL     1     176.045 146.745 156.332  1.00  0.00     0.008 C 
ATOM     13  C   UNL     1     177.125 146.370 159.081  1.00  0.00     0.008 C 
ATOM     14  C   UNL     1     173.495 142.820 156.726  1.00  0.00     0.017 C 
ATOM     15  C   UNL     1     171.268 143.853 155.756  1.00  0.00    -0.020 C 
ATOM     16  C   UNL     1     172.260 145.670 154.321  1.00  0.00     0.032 C 
ATOM     17  C   UNL     1     171.870 144.167 154.339  1.00  0.00     0.006 C 
ATOM     18  C   UNL     1     170.660 142.437 155.699  1.00  0.00     0.008 C 
ATOM     19  C   UNL     1     170.119 144.871 156.113  1.00  0.00     0.012 C 
ATOM     20  C   UNL     1     171.088 143.549 153.060  1.00  0.00    -0.025 C 
ATOM     21  C   UNL     1     169.484 142.322 154.722  1.00  0.00     0.005 C 
ATOM     22  C   UNL     1     169.585 143.155 153.393  1.00  0.00     0.003 C 
ATOM     23  C   UNL     1     171.845 142.267 152.535  1.00  0.00     0.010 C 
ATOM     24  C   UNL     1     171.135 144.598 151.911  1.00  0.00     0.012 C 
ATOM     25  C   UNL     1     168.768 142.482 152.184  1.00  0.00    -0.006 C 
ATOM     26  C   UNL     1     170.957 141.113 152.021  1.00  0.00     0.033 C 
ATOM     27  C   UNL     1     169.689 141.565 151.288  1.00  0.00     0.120 C 
ATOM     28  C   UNL     1     168.063 143.582 151.330  1.00  0.00     0.014 C 
ATOM     29  C   UNL     1     167.580 141.609 152.699  1.00  0.00     0.014 C 
ENDROOT
BRANCH   1  30
ATOM     30  C   UNL     1     172.193 146.831 159.080  1.00  0.00     0.048 C 
ATOM     31  O   UNL     1     171.772 147.290 157.985  1.00  0.00    -0.550 OA
ATOM     32  O   UNL     1     171.616 147.285 160.264  1.00  0.00    -0.550 OA
ENDBRANCH   1  30
BRANCH  27  33
ATOM     33  O   UNL     1     170.059 142.170 150.072  1.00  0.00    -0.393 OA
ATOM     34  H   UNL     1     169.522 141.746 149.350  1.00  0.00     0.210 HD
ENDBRANCH  27  33
TORSDOF 2
ENDMDL
MODEL 8
REMARK VINA RESULT:    -6.946      1.712      8.125
REMARK INTER + INTRA:          -7.235
REMARK INTER:                  -7.946
REMARK INTRA:                   0.710
REMARK UNBOUND:                 0.319
REMARK SMILES C[C@@H]1[C@H](C)CC[C@]2(C(=O)[O-])CC[C@]3(C)C(=CC[C@@H]4[C@@]5(C)CC[C@H](O)C(C)(C)[C@H]5CC[C@]43C)[C@@H]12
REMARK SMILES IDX 7 1 6 2 11 3 33 4 5 5 12 6 15 7 2 8 3 9 13 10 16 11 1 12
REMARK SMILES IDX 4 13 14 14 31 15 17 16 18 17 30 18 32 19 19 20 29 21 28 22
REMARK SMILES IDX 21 23 20 24 25 25 22 26 23 27 26 28 27 29 8 30 9 31 10 32
REMARK SMILES IDX 24 33
REMARK H PARENT 24 34
REMARK Flexibility Score: inf
ROOT
ATOM      1  C   UNL     1     171.040 141.647 152.611  1.00  0.00     0.017 C 
ATOM      2  C   UNL     1     170.150 140.987 151.527  1.00  0.00     0.014 C 
ATOM      3  C   UNL     1     170.814 140.876 153.941  1.00  0.00     0.014 C 
ATOM      4  C   UNL     1     170.610 143.133 152.857  1.00  0.00     0.030 C 
ATOM      5  C   UNL     1     170.114 141.803 150.233  1.00  0.00     0.004 C 
ATOM      6  C   UNL     1     171.635 141.446 155.113  1.00  0.00     0.013 C 
ATOM      7  C   UNL     1     171.501 143.728 153.968  1.00  0.00    -0.063 C 
ATOM      8  C   UNL     1     170.412 143.974 151.539  1.00  0.00    -0.003 C 
ATOM      9  C   UNL     1     169.558 143.213 150.477  1.00  0.00    -0.011 C 
ATOM     10  C   UNL     1     171.501 143.002 155.338  1.00  0.00    -0.006 C 
ATOM     11  C   UNL     1     172.284 144.819 153.747  1.00  0.00    -0.027 C 
ATOM     12  C   UNL     1     169.780 145.359 151.820  1.00  0.00     0.008 C 
ATOM     13  C   UNL     1     168.044 143.168 150.796  1.00  0.00     0.008 C 
ATOM     14  C   UNL     1     170.105 143.240 155.999  1.00  0.00     0.017 C 
ATOM     15  C   UNL     1     172.715 143.548 156.248  1.00  0.00    -0.020 C 
ATOM     16  C   UNL     1     173.016 145.599 154.818  1.00  0.00     0.032 C 
ATOM     17  C   UNL     1     172.668 145.118 156.252  1.00  0.00     0.006 C 
ATOM     18  C   UNL     1     172.610 143.076 157.713  1.00  0.00     0.008 C 
ATOM     19  C   UNL     1     174.083 143.032 155.659  1.00  0.00     0.012 C 
ATOM     20  C   UNL     1     173.357 145.866 157.515  1.00  0.00    -0.025 C 
ATOM     21  C   UNL     1     173.797 143.517 158.577  1.00  0.00     0.005 C 
ATOM     22  C   UNL     1     174.395 144.941 158.283  1.00  0.00     0.003 C 
ATOM     23  C   UNL     1     172.246 146.337 158.533  1.00  0.00     0.010 C 
ATOM     24  C   UNL     1     174.057 147.154 156.991  1.00  0.00     0.012 C 
ATOM     25  C   UNL     1     175.073 145.602 159.582  1.00  0.00    -0.006 C 
ATOM     26  C   UNL     1     172.606 146.237 160.031  1.00  0.00     0.033 C 
ATOM     27  C   UNL     1     174.073 146.547 160.354  1.00  0.00     0.120 C 
ATOM     28  C   UNL     1     176.377 146.363 159.182  1.00  0.00     0.014 C 
ATOM     29  C   UNL     1     175.582 144.519 160.587  1.00  0.00     0.014 C 
ENDROOT
BRANCH   1  30
ATOM     30  C   UNL     1     172.498 141.503 152.180  1.00  0.00     0.048 C 
ATOM     31  O   UNL     1     172.896 141.906 151.055  1.00  0.00    -0.550 OA
ATOM     32  O   UNL     1     173.409 140.876 153.029  1.00  0.00    -0.550 OA
ENDBRANCH   1  30
BRANCH  27  33
ATOM     33  O   UNL     1     174.309 147.914 160.120  1.00  0.00    -0.393 OA
ATOM     34  H   UNL     1     174.385 148.361 161.005  1.00  0.00     0.210 HD
ENDBRANCH  27  33
TORSDOF 2
ENDMDL
