MODEL 1
REMARK VINA RESULT:    -7.506      0.000      0.000
REMARK INTER + INTRA:          -9.594
REMARK INTER:                  -9.262
REMARK INTRA:                  -0.333
REMARK UNBOUND:                -0.333
REMARK SMILES Oc1cc(O)c2cc(O)c(-c3cc(O)c(O)c(O)c3)[o+]c2c1
REMARK SMILES IDX 10 1 20 2 21 3 22 4 2 5 3 6 4 7 6 8 7 9 8 10 11 11 12 12
REMARK SMILES IDX 13 13 19 14 15 15 17 16 14 17 16 19 18 21 9 23 1 25 5 27
REMARK H PARENT 14 18 16 20 18 22 9 24 1 26 5 28
REMARK Flexibility Score: inf
ROOT
ATOM      1  C   UNL     1     -14.328 -31.902 -13.053  1.00  0.00     0.402 A 
ATOM      2  O   UNL     1     -14.850 -30.779 -13.539  1.00  0.00    -0.202 OA
ATOM      3  C   UNL     1     -14.610 -29.579 -13.018  1.00  0.00     0.368 A 
ATOM      4  C   UNL     1     -15.201 -28.455 -13.600  1.00  0.00     0.162 A 
ATOM      5  C   UNL     1     -14.965 -27.183 -13.078  1.00  0.00     0.128 A 
ATOM      6  C   UNL     1     -14.131 -27.032 -11.964  1.00  0.00     0.093 A 
ATOM      7  C   UNL     1     -13.527 -28.143 -11.362  1.00  0.00     0.136 A 
ATOM      8  C   UNL     1     -13.766 -29.438 -11.890  1.00  0.00     0.125 A 
ATOM      9  C   UNL     1     -13.215 -30.608 -11.345  1.00  0.00     0.078 A 
ATOM     10  C   UNL     1     -13.500 -31.851 -11.917  1.00  0.00     0.223 A 
ENDROOT
BRANCH   1  11
ATOM     11  C   UNL     1     -14.664 -33.178 -13.728  1.00  0.00     0.091 A 
ATOM     12  C   UNL     1     -15.900 -33.809 -13.523  1.00  0.00     0.068 A 
ATOM     13  C   UNL     1     -16.189 -35.026 -14.153  1.00  0.00     0.162 A 
ATOM     14  C   UNL     1     -13.708 -33.799 -14.543  1.00  0.00     0.068 A 
ATOM     15  C   UNL     1     -15.241 -35.634 -14.987  1.00  0.00     0.200 A 
ATOM     16  C   UNL     1     -13.984 -35.015 -15.180  1.00  0.00     0.162 A 
BRANCH  13  17
ATOM     17  O   UNL     1     -17.423 -35.644 -13.950  1.00  0.00    -0.504 OA
ATOM     18  H   UNL     1     -18.002 -35.424 -13.148  1.00  0.00     0.293 HD
ENDBRANCH  13  17
BRANCH  15  19
ATOM     19  O   UNL     1     -15.583 -36.844 -15.597  1.00  0.00    -0.502 OA
ATOM     20  H   UNL     1     -15.887 -36.930 -16.556  1.00  0.00     0.293 HD
ENDBRANCH  15  19
BRANCH  16  21
ATOM     21  O   UNL     1     -12.987 -35.567 -15.987  1.00  0.00    -0.504 OA
ATOM     22  H   UNL     1     -12.059 -35.181 -16.088  1.00  0.00     0.293 HD
ENDBRANCH  16  21
ENDBRANCH   1  11
BRANCH  10  23
ATOM     23  O   UNL     1     -12.992 -33.018 -11.346  1.00  0.00    -0.500 OA
ATOM     24  H   UNL     1     -12.691 -33.051 -10.379  1.00  0.00     0.294 HD
ENDBRANCH  10  23
BRANCH   5  25
ATOM     25  O   UNL     1     -15.564 -26.074 -13.671  1.00  0.00    -0.507 OA
ATOM     26  H   UNL     1     -15.892 -26.098 -14.629  1.00  0.00     0.293 HD
ENDBRANCH   5  25
BRANCH   7  27
ATOM     27  O   UNL     1     -12.705 -27.908 -10.256  1.00  0.00    -0.507 OA
ATOM     28  H   UNL     1     -12.165 -28.619  -9.785  1.00  0.00     0.293 HD
ENDBRANCH   7  27
TORSDOF 7
ENDMDL
MODEL 2
REMARK VINA RESULT:    -7.487      0.094      1.801
REMARK INTER + INTRA:          -9.570
REMARK INTER:                  -9.210
REMARK INTRA:                  -0.360
REMARK UNBOUND:                -0.333
REMARK SMILES Oc1cc(O)c2cc(O)c(-c3cc(O)c(O)c(O)c3)[o+]c2c1
REMARK SMILES IDX 10 1 20 2 21 3 22 4 2 5 3 6 4 7 6 8 7 9 8 10 11 11 12 12
REMARK SMILES IDX 13 13 19 14 15 15 17 16 14 17 16 19 18 21 9 23 1 25 5 27
REMARK H PARENT 14 18 16 20 18 22 9 24 1 26 5 28
REMARK Flexibility Score: inf
ROOT
ATOM      1  C   UNL     1     -14.278 -31.961 -13.072  1.00  0.00     0.402 A 
ATOM      2  O   UNL     1     -14.802 -30.839 -13.559  1.00  0.00    -0.202 OA
ATOM      3  C   UNL     1     -14.568 -29.639 -13.038  1.00  0.00     0.368 A 
ATOM      4  C   UNL     1     -15.161 -28.517 -13.623  1.00  0.00     0.162 A 
ATOM      5  C   UNL     1     -14.931 -27.244 -13.100  1.00  0.00     0.128 A 
ATOM      6  C   UNL     1     -14.100 -27.090 -11.984  1.00  0.00     0.093 A 
ATOM      7  C   UNL     1     -13.494 -28.198 -11.380  1.00  0.00     0.136 A 
ATOM      8  C   UNL     1     -13.728 -29.494 -11.908  1.00  0.00     0.125 A 
ATOM      9  C   UNL     1     -13.173 -30.662 -11.361  1.00  0.00     0.078 A 
ATOM     10  C   UNL     1     -13.453 -31.906 -11.933  1.00  0.00     0.223 A 
ENDROOT
BRANCH   1  11
ATOM     11  C   UNL     1     -14.607 -33.238 -13.747  1.00  0.00     0.091 A 
ATOM     12  C   UNL     1     -13.696 -33.861 -14.613  1.00  0.00     0.068 A 
ATOM     13  C   UNL     1     -14.035 -35.057 -15.260  1.00  0.00     0.162 A 
ATOM     14  C   UNL     1     -15.874 -33.809 -13.564  1.00  0.00     0.068 A 
ATOM     15  C   UNL     1     -15.294 -35.639 -15.057  1.00  0.00     0.200 A 
ATOM     16  C   UNL     1     -16.225 -35.004 -14.202  1.00  0.00     0.162 A 
BRANCH  13  17
ATOM     17  O   UNL     1     -13.121 -35.674 -16.114  1.00  0.00    -0.504 OA
ATOM     18  H   UNL     1     -12.780 -35.213 -16.949  1.00  0.00     0.293 HD
ENDBRANCH  13  17
BRANCH  15  19
ATOM     19  O   UNL     1     -15.578 -36.836 -15.720  1.00  0.00    -0.502 OA
ATOM     20  H   UNL     1     -15.176 -37.729 -15.475  1.00  0.00     0.293 HD
ENDBRANCH  15  19
BRANCH  16  21
ATOM     21  O   UNL     1     -17.501 -35.519 -13.961  1.00  0.00    -0.504 OA
ATOM     22  H   UNL     1     -17.690 -36.310 -13.363  1.00  0.00     0.293 HD
ENDBRANCH  16  21
ENDBRANCH   1  11
BRANCH  10  23
ATOM     23  O   UNL     1     -12.943 -33.072 -11.361  1.00  0.00    -0.500 OA
ATOM     24  H   UNL     1     -13.399 -33.968 -11.483  1.00  0.00     0.294 HD
ENDBRANCH  10  23
BRANCH   5  25
ATOM     25  O   UNL     1     -15.532 -26.138 -13.696  1.00  0.00    -0.507 OA
ATOM     26  H   UNL     1     -16.462 -25.833 -13.433  1.00  0.00     0.293 HD
ENDBRANCH   5  25
BRANCH   7  27
ATOM     27  O   UNL     1     -12.676 -27.960 -10.272  1.00  0.00    -0.507 OA
ATOM     28  H   UNL     1     -12.362 -28.673  -9.631  1.00  0.00     0.293 HD
ENDBRANCH   7  27
TORSDOF 7
ENDMDL
MODEL 3
REMARK VINA RESULT:    -7.224      4.008      5.561
REMARK INTER + INTRA:          -9.246
REMARK INTER:                  -8.896
REMARK INTRA:                  -0.351
REMARK UNBOUND:                -0.333
REMARK SMILES Oc1cc(O)c2cc(O)c(-c3cc(O)c(O)c(O)c3)[o+]c2c1
REMARK SMILES IDX 10 1 20 2 21 3 22 4 2 5 3 6 4 7 6 8 7 9 8 10 11 11 12 12
REMARK SMILES IDX 13 13 19 14 15 15 17 16 14 17 16 19 18 21 9 23 1 25 5 27
REMARK H PARENT 14 18 16 20 18 22 9 24 1 26 5 28
REMARK Flexibility Score: inf
ROOT
ATOM      1  C   UNL     1     -12.303 -29.707 -11.107  1.00  0.00     0.402 A 
ATOM      2  O   UNL     1     -13.455 -30.046 -11.679  1.00  0.00    -0.202 OA
ATOM      3  C   UNL     1     -14.307 -29.159 -12.184  1.00  0.00     0.368 A 
ATOM      4  C   UNL     1     -15.492 -29.613 -12.769  1.00  0.00     0.162 A 
ATOM      5  C   UNL     1     -16.404 -28.706 -13.311  1.00  0.00     0.128 A 
ATOM      6  C   UNL     1     -16.129 -27.334 -13.269  1.00  0.00     0.093 A 
ATOM      7  C   UNL     1     -14.949 -26.855 -12.688  1.00  0.00     0.136 A 
ATOM      8  C   UNL     1     -14.020 -27.774 -12.135  1.00  0.00     0.125 A 
ATOM      9  C   UNL     1     -12.819 -27.384 -11.522  1.00  0.00     0.078 A 
ATOM     10  C   UNL     1     -11.955 -28.348 -10.994  1.00  0.00     0.223 A 
ENDROOT
BRANCH   1  11
ATOM     11  C   UNL     1     -11.433 -30.789 -10.590  1.00  0.00     0.091 A 
ATOM     12  C   UNL     1     -10.616 -31.542 -11.447  1.00  0.00     0.068 A 
ATOM     13  C   UNL     1      -9.818 -32.576 -10.941  1.00  0.00     0.162 A 
ATOM     14  C   UNL     1     -11.467 -31.109  -9.225  1.00  0.00     0.068 A 
ATOM     15  C   UNL     1      -9.835 -32.878  -9.572  1.00  0.00     0.200 A 
ATOM     16  C   UNL     1     -10.674 -32.138  -8.706  1.00  0.00     0.162 A 
BRANCH  13  17
ATOM     17  O   UNL     1      -9.004 -33.315 -11.798  1.00  0.00    -0.504 OA
ATOM     18  H   UNL     1      -8.551 -32.890 -12.599  1.00  0.00     0.293 HD
ENDBRANCH  13  17
BRANCH  15  19
ATOM     19  O   UNL     1      -9.015 -33.914  -9.119  1.00  0.00    -0.502 OA
ATOM     20  H   UNL     1      -9.279 -34.889  -9.123  1.00  0.00     0.293 HD
ENDBRANCH  15  19
BRANCH  16  21
ATOM     21  O   UNL     1     -10.752 -32.390  -7.334  1.00  0.00    -0.504 OA
ATOM     22  H   UNL     1     -11.614 -32.555  -6.836  1.00  0.00     0.293 HD
ENDBRANCH  16  21
ENDBRANCH   1  11
BRANCH  10  23
ATOM     23  O   UNL     1     -10.786 -27.959 -10.341  1.00  0.00    -0.500 OA
ATOM     24  H   UNL     1     -10.133 -27.307 -10.762  1.00  0.00     0.294 HD
ENDBRANCH  10  23
BRANCH   5  25
ATOM     25  O   UNL     1     -17.581 -29.177 -13.889  1.00  0.00    -0.507 OA
ATOM     26  H   UNL     1     -17.595 -30.017 -14.453  1.00  0.00     0.293 HD
ENDBRANCH   5  25
BRANCH   7  27
ATOM     27  O   UNL     1     -14.747 -25.471 -12.689  1.00  0.00    -0.507 OA
ATOM     28  H   UNL     1     -15.488 -24.786 -12.666  1.00  0.00     0.293 HD
ENDBRANCH   7  27
TORSDOF 7
ENDMDL
MODEL 4
REMARK VINA RESULT:    -7.212      2.578      4.474
REMARK INTER + INTRA:          -9.231
REMARK INTER:                  -8.935
REMARK INTRA:                  -0.296
REMARK UNBOUND:                -0.333
REMARK SMILES Oc1cc(O)c2cc(O)c(-c3cc(O)c(O)c(O)c3)[o+]c2c1
REMARK SMILES IDX 10 1 20 2 21 3 22 4 2 5 3 6 4 7 6 8 7 9 8 10 11 11 12 12
REMARK SMILES IDX 13 13 19 14 15 15 17 16 14 17 16 19 18 21 9 23 1 25 5 27
REMARK H PARENT 14 18 16 20 18 22 9 24 1 26 5 28
REMARK Flexibility Score: inf
ROOT
ATOM      1  C   UNL     1     -13.310 -31.687 -12.093  1.00  0.00     0.402 A 
ATOM      2  O   UNL     1     -13.143 -30.368 -12.141  1.00  0.00    -0.202 OA
ATOM      3  C   UNL     1     -14.101 -29.526 -12.516  1.00  0.00     0.368 A 
ATOM      4  C   UNL     1     -13.832 -28.155 -12.530  1.00  0.00     0.162 A 
ATOM      5  C   UNL     1     -14.819 -27.246 -12.917  1.00  0.00     0.128 A 
ATOM      6  C   UNL     1     -16.085 -27.711 -13.291  1.00  0.00     0.093 A 
ATOM      7  C   UNL     1     -16.379 -29.080 -13.285  1.00  0.00     0.136 A 
ATOM      8  C   UNL     1     -15.377 -30.007 -12.895  1.00  0.00     0.125 A 
ATOM      9  C   UNL     1     -15.578 -31.396 -12.871  1.00  0.00     0.078 A 
ATOM     10  C   UNL     1     -14.542 -32.248 -12.479  1.00  0.00     0.223 A 
ENDROOT
BRANCH   1  11
ATOM     11  C   UNL     1     -12.169 -32.521 -11.649  1.00  0.00     0.091 A 
ATOM     12  C   UNL     1     -11.757 -32.540 -10.308  1.00  0.00     0.068 A 
ATOM     13  C   UNL     1     -10.662 -33.318  -9.911  1.00  0.00     0.162 A 
ATOM     14  C   UNL     1     -11.447 -33.263 -12.594  1.00  0.00     0.068 A 
ATOM     15  C   UNL     1      -9.956 -34.078 -10.853  1.00  0.00     0.200 A 
ATOM     16  C   UNL     1     -10.351 -34.045 -12.212  1.00  0.00     0.162 A 
BRANCH  13  17
ATOM     17  O   UNL     1     -10.264 -33.336  -8.575  1.00  0.00    -0.504 OA
ATOM     18  H   UNL     1      -9.338 -33.039  -8.292  1.00  0.00     0.293 HD
ENDBRANCH  13  17
BRANCH  15  19
ATOM     19  O   UNL     1      -8.875 -34.841 -10.404  1.00  0.00    -0.502 OA
ATOM     20  H   UNL     1      -7.907 -34.578 -10.523  1.00  0.00     0.293 HD
ENDBRANCH  15  19
BRANCH  16  21
ATOM     21  O   UNL     1      -9.688 -34.767 -13.208  1.00  0.00    -0.504 OA
ATOM     22  H   UNL     1     -10.006 -34.838 -14.163  1.00  0.00     0.293 HD
ENDBRANCH  16  21
ENDBRANCH   1  11
BRANCH  10  23
ATOM     23  O   UNL     1     -14.724 -33.630 -12.503  1.00  0.00    -0.500 OA
ATOM     24  H   UNL     1     -15.435 -34.064 -13.080  1.00  0.00     0.294 HD
ENDBRANCH  10  23
BRANCH   5  25
ATOM     25  O   UNL     1     -14.532 -25.883 -12.925  1.00  0.00    -0.507 OA
ATOM     26  H   UNL     1     -15.258 -25.189 -13.059  1.00  0.00     0.293 HD
ENDBRANCH   5  25
BRANCH   7  27
ATOM     27  O   UNL     1     -17.667 -29.463 -13.669  1.00  0.00    -0.507 OA
ATOM     28  H   UNL     1     -18.352 -28.839 -14.071  1.00  0.00     0.293 HD
ENDBRANCH   7  27
TORSDOF 7
ENDMDL
MODEL 5
REMARK VINA RESULT:    -7.205      2.584      4.664
REMARK INTER + INTRA:          -9.223
REMARK INTER:                  -8.962
REMARK INTRA:                  -0.260
REMARK UNBOUND:                -0.333
REMARK SMILES Oc1cc(O)c2cc(O)c(-c3cc(O)c(O)c(O)c3)[o+]c2c1
REMARK SMILES IDX 10 1 20 2 21 3 22 4 2 5 3 6 4 7 6 8 7 9 8 10 11 11 12 12
REMARK SMILES IDX 13 13 19 14 15 15 17 16 14 17 16 19 18 21 9 23 1 25 5 27
REMARK H PARENT 14 18 16 20 18 22 9 24 1 26 5 28
REMARK Flexibility Score: inf
ROOT
ATOM      1  C   UNL     1     -13.267 -31.668 -12.091  1.00  0.00     0.402 A 
ATOM      2  O   UNL     1     -13.116 -30.346 -12.132  1.00  0.00    -0.202 OA
ATOM      3  C   UNL     1     -14.085 -29.513 -12.497  1.00  0.00     0.368 A 
ATOM      4  C   UNL     1     -13.832 -28.139 -12.505  1.00  0.00     0.162 A 
ATOM      5  C   UNL     1     -14.831 -27.240 -12.880  1.00  0.00     0.128 A 
ATOM      6  C   UNL     1     -16.095 -27.717 -13.248  1.00  0.00     0.093 A 
ATOM      7  C   UNL     1     -16.373 -29.089 -13.247  1.00  0.00     0.136 A 
ATOM      8  C   UNL     1     -15.359 -30.006 -12.869  1.00  0.00     0.125 A 
ATOM      9  C   UNL     1     -15.543 -31.398 -12.852  1.00  0.00     0.078 A 
ATOM     10  C   UNL     1     -14.495 -32.240 -12.472  1.00  0.00     0.223 A 
ENDROOT
BRANCH   1  11
ATOM     11  C   UNL     1     -12.113 -32.490 -11.659  1.00  0.00     0.091 A 
ATOM     12  C   UNL     1     -11.439 -33.331 -12.556  1.00  0.00     0.068 A 
ATOM     13  C   UNL     1     -10.364 -34.119 -12.123  1.00  0.00     0.162 A 
ATOM     14  C   UNL     1     -11.720 -32.475 -10.313  1.00  0.00     0.068 A 
ATOM     15  C   UNL     1      -9.957 -34.083 -10.782  1.00  0.00     0.200 A 
ATOM     16  C   UNL     1     -10.647 -33.254  -9.866  1.00  0.00     0.162 A 
BRANCH  13  17
ATOM     17  O   UNL     1      -9.696 -34.947 -13.024  1.00  0.00    -0.504 OA
ATOM     18  H   UNL     1      -9.315 -34.590 -13.892  1.00  0.00     0.293 HD
ENDBRANCH  13  17
BRANCH  15  19
ATOM     19  O   UNL     1      -8.875 -34.883 -10.404  1.00  0.00    -0.502 OA
ATOM     20  H   UNL     1      -8.470 -34.886  -9.479  1.00  0.00     0.293 HD
ENDBRANCH  15  19
BRANCH  16  21
ATOM     21  O   UNL     1     -10.305 -33.177  -8.514  1.00  0.00    -0.504 OA
ATOM     22  H   UNL     1     -10.771 -32.581  -7.845  1.00  0.00     0.293 HD
ENDBRANCH  16  21
ENDBRANCH   1  11
BRANCH  10  23
ATOM     23  O   UNL     1     -14.662 -33.624 -12.501  1.00  0.00    -0.500 OA
ATOM     24  H   UNL     1     -14.273 -34.223 -11.782  1.00  0.00     0.294 HD
ENDBRANCH  10  23
BRANCH   5  25
ATOM     25  O   UNL     1     -14.560 -25.873 -12.883  1.00  0.00    -0.507 OA
ATOM     26  H   UNL     1     -14.659 -25.311 -12.047  1.00  0.00     0.293 HD
ENDBRANCH   5  25
BRANCH   7  27
ATOM     27  O   UNL     1     -17.660 -29.485 -13.625  1.00  0.00    -0.507 OA
ATOM     28  H   UNL     1     -18.416 -29.657 -12.979  1.00  0.00     0.293 HD
ENDBRANCH   7  27
TORSDOF 7
ENDMDL
MODEL 6
REMARK VINA RESULT:    -6.900      1.595      3.014
REMARK INTER + INTRA:          -8.846
REMARK INTER:                  -8.497
REMARK INTRA:                  -0.349
REMARK UNBOUND:                -0.333
REMARK SMILES Oc1cc(O)c2cc(O)c(-c3cc(O)c(O)c(O)c3)[o+]c2c1
REMARK SMILES IDX 10 1 20 2 21 3 22 4 2 5 3 6 4 7 6 8 7 9 8 10 11 11 12 12
REMARK SMILES IDX 13 13 19 14 15 15 17 16 14 17 16 19 18 21 9 23 1 25 5 27
REMARK H PARENT 14 18 16 20 18 22 9 24 1 26 5 28
REMARK Flexibility Score: inf
ROOT
ATOM      1  C   UNL     1     -13.971 -31.711 -12.691  1.00  0.00     0.402 A 
ATOM      2  O   UNL     1     -13.590 -31.757 -11.417  1.00  0.00    -0.202 OA
ATOM      3  C   UNL     1     -13.110 -30.704 -10.761  1.00  0.00     0.368 A 
ATOM      4  C   UNL     1     -12.740 -30.850  -9.422  1.00  0.00     0.162 A 
ATOM      5  C   UNL     1     -12.236 -29.763  -8.707  1.00  0.00     0.128 A 
ATOM      6  C   UNL     1     -12.102 -28.519  -9.335  1.00  0.00     0.093 A 
ATOM      7  C   UNL     1     -12.466 -28.347 -10.676  1.00  0.00     0.136 A 
ATOM      8  C   UNL     1     -12.977 -29.452 -11.406  1.00  0.00     0.125 A 
ATOM      9  C   UNL     1     -13.355 -29.376 -12.757  1.00  0.00     0.078 A 
ATOM     10  C   UNL     1     -13.846 -30.508 -13.412  1.00  0.00     0.223 A 
ENDROOT
BRANCH   1  11
ATOM     11  C   UNL     1     -14.499 -32.949 -13.309  1.00  0.00     0.091 A 
ATOM     12  C   UNL     1     -15.874 -33.129 -13.524  1.00  0.00     0.068 A 
ATOM     13  C   UNL     1     -16.356 -34.317 -14.089  1.00  0.00     0.162 A 
ATOM     14  C   UNL     1     -13.617 -33.989 -13.633  1.00  0.00     0.068 A 
ATOM     15  C   UNL     1     -15.469 -35.346 -14.436  1.00  0.00     0.200 A 
ATOM     16  C   UNL     1     -14.084 -35.180 -14.200  1.00  0.00     0.162 A 
BRANCH  13  17
ATOM     17  O   UNL     1     -17.723 -34.484 -14.306  1.00  0.00    -0.504 OA
ATOM     18  H   UNL     1     -18.334 -33.696 -14.483  1.00  0.00     0.293 HD
ENDBRANCH  13  17
BRANCH  15  19
ATOM     19  O   UNL     1     -16.001 -36.507 -15.002  1.00  0.00    -0.502 OA
ATOM     20  H   UNL     1     -15.793 -36.828 -15.936  1.00  0.00     0.293 HD
ENDBRANCH  15  19
BRANCH  16  21
ATOM     21  O   UNL     1     -13.144 -36.166 -14.508  1.00  0.00    -0.504 OA
ATOM     22  H   UNL     1     -12.488 -36.552 -13.844  1.00  0.00     0.293 HD
ENDBRANCH  16  21
ENDBRANCH   1  11
BRANCH  10  23
ATOM     23  O   UNL     1     -14.175 -30.447 -14.766  1.00  0.00    -0.500 OA
ATOM     24  H   UNL     1     -14.904 -31.028 -15.164  1.00  0.00     0.294 HD
ENDBRANCH  10  23
BRANCH   5  25
ATOM     25  O   UNL     1     -11.871 -29.928  -7.373  1.00  0.00    -0.507 OA
ATOM     26  H   UNL     1     -11.167 -30.601  -7.095  1.00  0.00     0.293 HD
ENDBRANCH   5  25
BRANCH   7  27
ATOM     27  O   UNL     1     -12.305 -27.074 -11.228  1.00  0.00    -0.507 OA
ATOM     28  H   UNL     1     -12.099 -26.242 -10.695  1.00  0.00     0.293 HD
ENDBRANCH   7  27
TORSDOF 7
ENDMDL
MODEL 7
REMARK VINA RESULT:    -6.855      1.482      3.422
REMARK INTER + INTRA:          -8.790
REMARK INTER:                  -8.411
REMARK INTRA:                  -0.380
REMARK UNBOUND:                -0.333
REMARK SMILES Oc1cc(O)c2cc(O)c(-c3cc(O)c(O)c(O)c3)[o+]c2c1
REMARK SMILES IDX 10 1 20 2 21 3 22 4 2 5 3 6 4 7 6 8 7 9 8 10 11 11 12 12
REMARK SMILES IDX 13 13 19 14 15 15 17 16 14 17 16 19 18 21 9 23 1 25 5 27
REMARK H PARENT 14 18 16 20 18 22 9 24 1 26 5 28
REMARK Flexibility Score: inf
ROOT
ATOM      1  C   UNL     1     -13.860 -31.986 -12.980  1.00  0.00     0.402 A 
ATOM      2  O   UNL     1     -13.478 -32.030 -11.706  1.00  0.00    -0.202 OA
ATOM      3  C   UNL     1     -13.065 -30.961 -11.032  1.00  0.00     0.368 A 
ATOM      4  C   UNL     1     -12.688 -31.105  -9.695  1.00  0.00     0.162 A 
ATOM      5  C   UNL     1     -12.253 -30.001  -8.961  1.00  0.00     0.128 A 
ATOM      6  C   UNL     1     -12.197 -28.741  -9.568  1.00  0.00     0.093 A 
ATOM      7  C   UNL     1     -12.570 -28.570 -10.906  1.00  0.00     0.136 A 
ATOM      8  C   UNL     1     -13.010 -29.691 -11.656  1.00  0.00     0.125 A 
ATOM      9  C   UNL     1     -13.391 -29.617 -13.005  1.00  0.00     0.078 A 
ATOM     10  C   UNL     1     -13.810 -30.767 -13.680  1.00  0.00     0.223 A 
ENDROOT
BRANCH   1  11
ATOM     11  C   UNL     1     -14.310 -33.245 -13.619  1.00  0.00     0.091 A 
ATOM     12  C   UNL     1     -13.402 -34.105 -14.255  1.00  0.00     0.068 A 
ATOM     13  C   UNL     1     -13.850 -35.280 -14.873  1.00  0.00     0.162 A 
ATOM     14  C   UNL     1     -15.676 -33.559 -13.640  1.00  0.00     0.068 A 
ATOM     15  C   UNL     1     -15.213 -35.604 -14.872  1.00  0.00     0.200 A 
ATOM     16  C   UNL     1     -16.137 -34.730 -14.252  1.00  0.00     0.162 A 
BRANCH  13  17
ATOM     17  O   UNL     1     -12.940 -36.132 -15.498  1.00  0.00    -0.504 OA
ATOM     18  H   UNL     1     -12.382 -35.829 -16.287  1.00  0.00     0.293 HD
ENDBRANCH  13  17
BRANCH  15  19
ATOM     19  O   UNL     1     -15.606 -36.791 -15.497  1.00  0.00    -0.502 OA
ATOM     20  H   UNL     1     -15.538 -37.704 -15.071  1.00  0.00     0.293 HD
ENDBRANCH  15  19
BRANCH  16  21
ATOM     21  O   UNL     1     -17.511 -34.982 -14.222  1.00  0.00    -0.504 OA
ATOM     22  H   UNL     1     -18.034 -35.173 -13.380  1.00  0.00     0.293 HD
ENDBRANCH  16  21
ENDBRANCH   1  11
BRANCH  10  23
ATOM     23  O   UNL     1     -14.141 -30.704 -15.034  1.00  0.00    -0.500 OA
ATOM     24  H   UNL     1     -14.935 -30.167 -15.363  1.00  0.00     0.294 HD
ENDBRANCH  10  23
BRANCH   5  25
ATOM     25  O   UNL     1     -11.880 -30.164  -7.629  1.00  0.00    -0.507 OA
ATOM     26  H   UNL     1     -11.637 -29.373  -7.045  1.00  0.00     0.293 HD
ENDBRANCH   5  25
BRANCH   7  27
ATOM     27  O   UNL     1     -12.487 -27.279 -11.438  1.00  0.00    -0.507 OA
ATOM     28  H   UNL     1     -11.968 -27.037 -12.269  1.00  0.00     0.293 HD
ENDBRANCH   7  27
TORSDOF 7
ENDMDL
MODEL 8
REMARK VINA RESULT:    -6.821      1.532      7.375
REMARK INTER + INTRA:          -8.749
REMARK INTER:                  -8.452
REMARK INTRA:                  -0.296
REMARK UNBOUND:                -0.333
REMARK SMILES Oc1cc(O)c2cc(O)c(-c3cc(O)c(O)c(O)c3)[o+]c2c1
REMARK SMILES IDX 10 1 20 2 21 3 22 4 2 5 3 6 4 7 6 8 7 9 8 10 11 11 12 12
REMARK SMILES IDX 13 13 19 14 15 15 17 16 14 17 16 19 18 21 9 23 1 25 5 27
REMARK H PARENT 14 18 16 20 18 22 9 24 1 26 5 28
REMARK Flexibility Score: inf
ROOT
ATOM      1  C   UNL     1     -14.185 -31.702 -12.577  1.00  0.00     0.402 A 
ATOM      2  O   UNL     1     -13.373 -32.714 -12.872  1.00  0.00    -0.202 OA
ATOM      3  C   UNL     1     -13.771 -33.801 -13.527  1.00  0.00     0.368 A 
ATOM      4  C   UNL     1     -12.843 -34.810 -13.794  1.00  0.00     0.162 A 
ATOM      5  C   UNL     1     -13.230 -35.961 -14.482  1.00  0.00     0.128 A 
ATOM      6  C   UNL     1     -14.556 -36.103 -14.909  1.00  0.00     0.093 A 
ATOM      7  C   UNL     1     -15.505 -35.106 -14.653  1.00  0.00     0.136 A 
ATOM      8  C   UNL     1     -15.114 -33.935 -13.951  1.00  0.00     0.125 A 
ATOM      9  C   UNL     1     -15.999 -32.891 -13.639  1.00  0.00     0.078 A 
ATOM     10  C   UNL     1     -15.542 -31.770 -12.941  1.00  0.00     0.223 A 
ENDROOT
BRANCH   1  11
ATOM     11  C   UNL     1     -13.620 -30.541 -11.851  1.00  0.00     0.091 A 
ATOM     12  C   UNL     1     -13.479 -29.290 -12.471  1.00  0.00     0.068 A 
ATOM     13  C   UNL     1     -12.921 -28.210 -11.774  1.00  0.00     0.162 A 
ATOM     14  C   UNL     1     -13.162 -30.705 -10.536  1.00  0.00     0.068 A 
ATOM     15  C   UNL     1     -12.487 -28.370 -10.452  1.00  0.00     0.200 A 
ATOM     16  C   UNL     1     -12.605 -29.635  -9.828  1.00  0.00     0.162 A 
BRANCH  13  17
ATOM     17  O   UNL     1     -12.791 -26.969 -12.396  1.00  0.00    -0.504 OA
ATOM     18  H   UNL     1     -12.774 -26.107 -11.864  1.00  0.00     0.293 HD
ENDBRANCH  13  17
BRANCH  15  19
ATOM     19  O   UNL     1     -11.945 -27.259  -9.800  1.00  0.00    -0.502 OA
ATOM     20  H   UNL     1     -10.985 -26.960  -9.894  1.00  0.00     0.293 HD
ENDBRANCH  15  19
BRANCH  16  21
ATOM     21  O   UNL     1     -12.183 -29.871  -8.517  1.00  0.00    -0.504 OA
ATOM     22  H   UNL     1     -12.802 -30.113  -7.757  1.00  0.00     0.293 HD
ENDBRANCH  16  21
ENDBRANCH   1  11
BRANCH  10  23
ATOM     23  O   UNL     1     -16.431 -30.755 -12.587  1.00  0.00    -0.500 OA
ATOM     24  H   UNL     1     -16.344 -29.817 -12.962  1.00  0.00     0.294 HD
ENDBRANCH  10  23
BRANCH   5  25
ATOM     25  O   UNL     1     -12.291 -36.957 -14.739  1.00  0.00    -0.507 OA
ATOM     26  H   UNL     1     -11.420 -36.755 -15.214  1.00  0.00     0.293 HD
ENDBRANCH   5  25
BRANCH   7  27
ATOM     27  O   UNL     1     -16.807 -35.322 -15.114  1.00  0.00    -0.507 OA
ATOM     28  H   UNL     1     -17.250 -34.785 -15.845  1.00  0.00     0.293 HD
ENDBRANCH   7  27
TORSDOF 7
ENDMDL
MODEL 9
REMARK VINA RESULT:    -6.697      1.594      7.115
REMARK INTER + INTRA:          -8.596
REMARK INTER:                  -8.222
REMARK INTRA:                  -0.373
REMARK UNBOUND:                -0.333
REMARK SMILES Oc1cc(O)c2cc(O)c(-c3cc(O)c(O)c(O)c3)[o+]c2c1
REMARK SMILES IDX 10 1 20 2 21 3 22 4 2 5 3 6 4 7 6 8 7 9 8 10 11 11 12 12
REMARK SMILES IDX 13 13 19 14 15 15 17 16 14 17 16 19 18 21 9 23 1 25 5 27
REMARK H PARENT 14 18 16 20 18 22 9 24 1 26 5 28
REMARK Flexibility Score: inf
ROOT
ATOM      1  C   UNL     1     -12.965 -31.879 -12.278  1.00  0.00     0.402 A 
ATOM      2  O   UNL     1     -14.184 -32.304 -12.601  1.00  0.00    -0.202 OA
ATOM      3  C   UNL     1     -14.409 -33.417 -13.292  1.00  0.00     0.368 A 
ATOM      4  C   UNL     1     -15.726 -33.784 -13.579  1.00  0.00     0.162 A 
ATOM      5  C   UNL     1     -15.994 -34.948 -14.299  1.00  0.00     0.128 A 
ATOM      6  C   UNL     1     -14.936 -35.755 -14.736  1.00  0.00     0.093 A 
ATOM      7  C   UNL     1     -13.607 -35.409 -14.461  1.00  0.00     0.136 A 
ATOM      8  C   UNL     1     -13.332 -34.224 -13.730  1.00  0.00     0.125 A 
ATOM      9  C   UNL     1     -12.032 -33.793 -13.420  1.00  0.00     0.078 A 
ATOM     10  C   UNL     1     -11.839 -32.611 -12.700  1.00  0.00     0.223 A 
ENDROOT
BRANCH   1  11
ATOM     11  C   UNL     1     -12.844 -30.627 -11.496  1.00  0.00     0.091 A 
ATOM     12  C   UNL     1     -12.644 -30.649 -10.108  1.00  0.00     0.068 A 
ATOM     13  C   UNL     1     -12.555 -29.454  -9.383  1.00  0.00     0.162 A 
ATOM     14  C   UNL     1     -12.990 -29.392 -12.144  1.00  0.00     0.068 A 
ATOM     15  C   UNL     1     -12.677 -28.220 -10.036  1.00  0.00     0.200 A 
ATOM     16  C   UNL     1     -12.902 -28.190 -11.433  1.00  0.00     0.162 A 
BRANCH  13  17
ATOM     17  O   UNL     1     -12.349 -29.485  -8.004  1.00  0.00    -0.504 OA
ATOM     18  H   UNL     1     -13.088 -29.745  -7.362  1.00  0.00     0.293 HD
ENDBRANCH  13  17
BRANCH  15  19
ATOM     19  O   UNL     1     -12.573 -27.057  -9.268  1.00  0.00    -0.502 OA
ATOM     20  H   UNL     1     -11.970 -26.961  -8.464  1.00  0.00     0.293 HD
ENDBRANCH  15  19
BRANCH  16  21
ATOM     21  O   UNL     1     -13.044 -26.999 -12.149  1.00  0.00    -0.504 OA
ATOM     22  H   UNL     1     -13.748 -26.302 -11.954  1.00  0.00     0.293 HD
ENDBRANCH  16  21
ENDBRANCH   1  11
BRANCH  10  23
ATOM     23  O   UNL     1     -10.548 -32.155 -12.434  1.00  0.00    -0.500 OA
ATOM     24  H   UNL     1      -9.919 -31.873 -13.177  1.00  0.00     0.294 HD
ENDBRANCH  10  23
BRANCH   5  25
ATOM     25  O   UNL     1     -17.313 -35.297 -14.577  1.00  0.00    -0.507 OA
ATOM     26  H   UNL     1     -18.060 -35.114 -13.918  1.00  0.00     0.293 HD
ENDBRANCH   5  25
BRANCH   7  27
ATOM     27  O   UNL     1     -12.609 -36.268 -14.929  1.00  0.00    -0.507 OA
ATOM     28  H   UNL     1     -12.148 -36.174 -15.822  1.00  0.00     0.293 HD
ENDBRANCH   7  27
TORSDOF 7
ENDMDL
