MODEL 1
REMARK VINA RESULT:    -6.020      0.000      0.000
REMARK INTER + INTRA:         -10.145
REMARK INTER:                  -8.836
REMARK INTRA:                  -1.309
REMARK UNBOUND:                -1.309
REMARK SMILES Cc1cc2c(C(C)C)c(O)c(O)c(C=O)c2c(O)c1-c1c(C)cc2c(C(C)C)c(O)c(O)c(C=O)c2c1O
REMARK SMILES IDX 1 1 2 2 3 3 4 4 16 5 13 6 11 7 9 8 5 9 17 10 19 11 20 12
REMARK SMILES IDX 37 13 21 14 36 15 23 16 22 17 24 18 33 19 25 20 31 21 29 22
REMARK SMILES IDX 38 23 34 25 35 26 26 27 27 28 28 29 32 30 30 32 18 34 6 36
REMARK SMILES IDX 7 37 8 38 14 39 15 40 10 41 12 43
REMARK H PARENT 38 24 32 31 30 33 18 35 10 42 12 44
REMARK Flexibility Score: inf
ROOT
ATOM      1  C   UNL     1      72.079  36.566 -30.384  1.00  0.00     0.045 C 
ATOM      2  C   UNL     1      71.553  37.745 -31.166  1.00  0.00    -0.039 A 
ATOM      3  C   UNL     1      71.251  37.592 -32.519  1.00  0.00     0.013 A 
ATOM      4  C   UNL     1      70.760  38.654 -33.305  1.00  0.00    -0.006 A 
ATOM      5  C   UNL     1      70.687  39.955 -32.718  1.00  0.00     0.039 A 
ATOM      6  C   UNL     1      70.369  41.071 -33.549  1.00  0.00     0.072 A 
ATOM      7  C   UNL     1      70.101  40.873 -34.918  1.00  0.00     0.169 A 
ATOM      8  C   UNL     1      70.071  39.583 -35.458  1.00  0.00     0.162 A 
ATOM      9  C   UNL     1      70.355  38.453 -34.662  1.00  0.00     0.008 A 
ATOM     10  C   UNL     1      70.915  40.093 -31.314  1.00  0.00     0.132 A 
ATOM     11  C   UNL     1      71.349  38.989 -30.550  1.00  0.00     0.031 A 
ENDROOT
BRANCH  11  12
ATOM     12  C   UNL     1      71.592  39.136 -29.090  1.00  0.00     0.031 A 
ATOM     13  C   UNL     1      70.535  38.964 -28.172  1.00  0.00     0.132 A 
ATOM     14  C   UNL     1      72.878  39.453 -28.629  1.00  0.00    -0.039 A 
ATOM     15  C   UNL     1      70.755  39.150 -26.773  1.00  0.00     0.039 A 
ATOM     16  C   UNL     1      73.110  39.557 -27.257  1.00  0.00     0.013 A 
ATOM     17  C   UNL     1      74.020  39.670 -29.593  1.00  0.00     0.045 C 
ATOM     18  C   UNL     1      72.090  39.360 -26.306  1.00  0.00    -0.006 A 
ATOM     19  C   UNL     1      69.688  39.119 -25.826  1.00  0.00     0.072 A 
ATOM     20  C   UNL     1      72.367  39.376 -24.902  1.00  0.00     0.008 A 
ATOM     21  C   UNL     1      69.964  39.266 -24.452  1.00  0.00     0.169 A 
ATOM     22  C   UNL     1      71.282  39.371 -23.998  1.00  0.00     0.162 A 
BRANCH  13  23
ATOM     23  O   UNL     1      69.276  38.580 -28.647  1.00  0.00    -0.507 OA
ATOM     24  H   UNL     1      68.421  39.088 -28.458  1.00  0.00     0.293 HD
ENDBRANCH  13  23
BRANCH  19  25
ATOM     25  C   UNL     1      68.274  39.019 -26.246  1.00  0.00     0.264 C 
ATOM     26  O   UNL     1      67.471  39.966 -26.031  1.00  0.00    -0.298 OA
ENDBRANCH  19  25
BRANCH  20  27
ATOM     27  C   UNL     1      73.789  39.399 -24.303  1.00  0.00     0.017 C 
ATOM     28  C   UNL     1      74.125  38.098 -23.562  1.00  0.00     0.012 C 
ATOM     29  C   UNL     1      74.114  40.665 -23.482  1.00  0.00     0.012 C 
ENDBRANCH  20  27
BRANCH  21  30
ATOM     30  O   UNL     1      68.938  39.337 -23.500  1.00  0.00    -0.504 OA
ATOM     31  H   UNL     1      68.253  40.080 -23.457  1.00  0.00     0.293 HD
ENDBRANCH  21  30
BRANCH  22  32
ATOM     32  O   UNL     1      71.522  39.493 -22.625  1.00  0.00    -0.504 OA
ATOM     33  H   UNL     1      70.981  39.003 -21.922  1.00  0.00     0.293 HD
ENDBRANCH  22  32
ENDBRANCH  11  12
BRANCH  10  34
ATOM     34  O   UNL     1      70.686  41.317 -30.674  1.00  0.00    -0.507 OA
ATOM     35  H   UNL     1      69.795  41.591 -30.279  1.00  0.00     0.293 HD
ENDBRANCH  10  34
BRANCH   9  36
ATOM     36  C   UNL     1      70.199  37.065 -35.319  1.00  0.00     0.017 C 
ATOM     37  C   UNL     1      71.551  36.449 -35.698  1.00  0.00     0.012 C 
ATOM     38  C   UNL     1      69.284  36.093 -34.545  1.00  0.00     0.012 C 
ENDBRANCH   9  36
BRANCH   6  39
ATOM     39  C   UNL     1      70.389  42.457 -33.036  1.00  0.00     0.264 C 
ATOM     40  O   UNL     1      71.430  43.161 -33.128  1.00  0.00    -0.298 OA
ENDBRANCH   6  39
BRANCH   8  41
ATOM     41  O   UNL     1      69.775  39.420 -36.816  1.00  0.00    -0.504 OA
ATOM     42  H   UNL     1      68.891  39.695 -37.227  1.00  0.00     0.293 HD
ENDBRANCH   8  41
BRANCH   7  43
ATOM     43  O   UNL     1      69.878  41.949 -35.786  1.00  0.00    -0.504 OA
ATOM     44  H   UNL     1      69.919  41.885 -36.795  1.00  0.00     0.293 HD
ENDBRANCH   7  43
TORSDOF 11
ENDMDL
MODEL 2
REMARK VINA RESULT:    -5.791      0.899      1.150
REMARK INTER + INTRA:          -9.808
REMARK INTER:                  -8.564
REMARK INTRA:                  -1.244
REMARK UNBOUND:                -1.309
REMARK SMILES Cc1cc2c(C(C)C)c(O)c(O)c(C=O)c2c(O)c1-c1c(C)cc2c(C(C)C)c(O)c(O)c(C=O)c2c1O
REMARK SMILES IDX 1 1 2 2 3 3 4 4 16 5 13 6 11 7 9 8 5 9 17 10 19 11 20 12
REMARK SMILES IDX 37 13 21 14 36 15 23 16 22 17 24 18 33 19 25 20 31 21 29 22
REMARK SMILES IDX 38 23 34 25 35 26 26 27 27 28 28 29 32 30 30 32 18 34 6 36
REMARK SMILES IDX 7 37 8 38 14 39 15 40 10 41 12 43
REMARK H PARENT 38 24 32 31 30 33 18 35 10 42 12 44
REMARK Flexibility Score: inf
ROOT
ATOM      1  C   UNL     1      72.076  37.595 -30.696  1.00  0.00     0.045 C 
ATOM      2  C   UNL     1      71.602  38.889 -31.312  1.00  0.00    -0.039 A 
ATOM      3  C   UNL     1      71.318  38.936 -32.677  1.00  0.00     0.013 A 
ATOM      4  C   UNL     1      70.877  40.114 -33.312  1.00  0.00    -0.006 A 
ATOM      5  C   UNL     1      70.837  41.323 -32.551  1.00  0.00     0.039 A 
ATOM      6  C   UNL     1      70.571  42.554 -33.222  1.00  0.00     0.072 A 
ATOM      7  C   UNL     1      70.319  42.557 -34.608  1.00  0.00     0.169 A 
ATOM      8  C   UNL     1      70.255  41.357 -35.323  1.00  0.00     0.162 A 
ATOM      9  C   UNL     1      70.488  40.118 -34.689  1.00  0.00     0.008 A 
ATOM     10  C   UNL     1      71.047  41.256 -31.139  1.00  0.00     0.132 A 
ATOM     11  C   UNL     1      71.430  40.041 -30.531  1.00  0.00     0.031 A 
ENDROOT
BRANCH  11  12
ATOM     12  C   UNL     1      71.654  39.976 -29.062  1.00  0.00     0.031 A 
ATOM     13  C   UNL     1      70.594  39.633 -28.196  1.00  0.00     0.132 A 
ATOM     14  C   UNL     1      72.924  40.261 -28.539  1.00  0.00    -0.039 A 
ATOM     15  C   UNL     1      70.794  39.615 -26.782  1.00  0.00     0.039 A 
ATOM     16  C   UNL     1      73.138  40.165 -27.164  1.00  0.00     0.013 A 
ATOM     17  C   UNL     1      74.066  40.657 -29.443  1.00  0.00     0.045 C 
ATOM     18  C   UNL     1      72.116  39.795 -26.269  1.00  0.00    -0.006 A 
ATOM     19  C   UNL     1      69.719  39.407 -25.866  1.00  0.00     0.072 A 
ATOM     20  C   UNL     1      72.378  39.608 -24.874  1.00  0.00     0.008 A 
ATOM     21  C   UNL     1      69.976  39.355 -24.481  1.00  0.00     0.169 A 
ATOM     22  C   UNL     1      71.285  39.433 -23.998  1.00  0.00     0.162 A 
BRANCH  13  23
ATOM     23  O   UNL     1      69.354  39.285 -28.742  1.00  0.00    -0.507 OA
ATOM     24  H   UNL     1      69.155  38.388 -29.169  1.00  0.00     0.293 HD
ENDBRANCH  13  23
BRANCH  19  25
ATOM     25  C   UNL     1      68.313  39.325 -26.317  1.00  0.00     0.264 C 
ATOM     26  O   UNL     1      67.532  40.302 -26.164  1.00  0.00    -0.298 OA
ENDBRANCH  19  25
BRANCH  20  27
ATOM     27  C   UNL     1      73.792  39.587 -24.257  1.00  0.00     0.017 C 
ATOM     28  C   UNL     1      74.124  38.231 -23.621  1.00  0.00     0.012 C 
ATOM     29  C   UNL     1      74.102  40.783 -23.332  1.00  0.00     0.012 C 
ENDBRANCH  20  27
BRANCH  21  30
ATOM     30  O   UNL     1      68.939  39.249 -23.546  1.00  0.00    -0.504 OA
ATOM     31  H   UNL     1      68.837  38.483 -22.894  1.00  0.00     0.293 HD
ENDBRANCH  21  30
BRANCH  22  32
ATOM     32  O   UNL     1      71.507  39.354 -22.618  1.00  0.00    -0.504 OA
ATOM     33  H   UNL     1      71.060  39.969 -21.949  1.00  0.00     0.293 HD
ENDBRANCH  22  32
ENDBRANCH  11  12
BRANCH  10  34
ATOM     34  O   UNL     1      70.847  42.386 -30.336  1.00  0.00    -0.507 OA
ATOM     35  H   UNL     1      70.021  42.969 -30.376  1.00  0.00     0.293 HD
ENDBRANCH  10  34
BRANCH   9  36
ATOM     36  C   UNL     1      70.296  38.842 -35.535  1.00  0.00     0.017 C 
ATOM     37  C   UNL     1      71.595  38.403 -36.222  1.00  0.00     0.012 C 
ATOM     38  C   UNL     1      69.580  37.690 -34.799  1.00  0.00     0.012 C 
ENDBRANCH   9  36
BRANCH   6  39
ATOM     39  C   UNL     1      70.628  43.854 -32.520  1.00  0.00     0.264 C 
ATOM     40  O   UNL     1      71.674  44.555 -32.553  1.00  0.00    -0.298 OA
ENDBRANCH   6  39
BRANCH   8  41
ATOM     41  O   UNL     1      69.976  41.396 -36.694  1.00  0.00    -0.504 OA
ATOM     42  H   UNL     1      70.001  42.248 -37.241  1.00  0.00     0.293 HD
ENDBRANCH   8  41
BRANCH   7  43
ATOM     43  O   UNL     1      70.147  43.751 -35.320  1.00  0.00    -0.504 OA
ATOM     44  H   UNL     1      70.054  43.806 -36.326  1.00  0.00     0.293 HD
ENDBRANCH   7  43
TORSDOF 11
ENDMDL
MODEL 3
REMARK VINA RESULT:    -5.758      1.416      9.066
REMARK INTER + INTRA:          -9.759
REMARK INTER:                  -8.324
REMARK INTRA:                  -1.435
REMARK UNBOUND:                -1.309
REMARK SMILES Cc1cc2c(C(C)C)c(O)c(O)c(C=O)c2c(O)c1-c1c(C)cc2c(C(C)C)c(O)c(O)c(C=O)c2c1O
REMARK SMILES IDX 1 1 2 2 3 3 4 4 16 5 13 6 11 7 9 8 5 9 17 10 19 11 20 12
REMARK SMILES IDX 37 13 21 14 36 15 23 16 22 17 24 18 33 19 25 20 31 21 29 22
REMARK SMILES IDX 38 23 34 25 35 26 26 27 27 28 28 29 32 30 30 32 18 34 6 36
REMARK SMILES IDX 7 37 8 38 14 39 15 40 10 41 12 43
REMARK H PARENT 38 24 32 31 30 33 18 35 10 42 12 44
REMARK Flexibility Score: inf
ROOT
ATOM      1  C   UNL     1      73.977  39.670 -29.655  1.00  0.00     0.045 C 
ATOM      2  C   UNL     1      72.841  39.754 -28.666  1.00  0.00    -0.039 A 
ATOM      3  C   UNL     1      73.086  39.508 -27.315  1.00  0.00     0.013 A 
ATOM      4  C   UNL     1      72.066  39.567 -26.343  1.00  0.00    -0.006 A 
ATOM      5  C   UNL     1      70.721  39.767 -26.781  1.00  0.00     0.039 A 
ATOM      6  C   UNL     1      69.660  39.646 -25.834  1.00  0.00     0.072 A 
ATOM      7  C   UNL     1      69.954  39.367 -24.484  1.00  0.00     0.169 A 
ATOM      8  C   UNL     1      71.279  39.278 -24.047  1.00  0.00     0.162 A 
ATOM      9  C   UNL     1      72.355  39.418 -24.949  1.00  0.00     0.008 A 
ATOM     10  C   UNL     1      70.484  40.101 -28.150  1.00  0.00     0.132 A 
ATOM     11  C   UNL     1      71.544  40.089 -29.082  1.00  0.00     0.031 A 
ENDROOT
BRANCH  11  12
ATOM     12  C   UNL     1      71.293  40.431 -30.507  1.00  0.00     0.031 A 
ATOM     13  C   UNL     1      71.359  41.772 -30.939  1.00  0.00     0.132 A 
ATOM     14  C   UNL     1      70.984  39.413 -31.422  1.00  0.00    -0.039 A 
ATOM     15  C   UNL     1      71.073  42.109 -32.298  1.00  0.00     0.039 A 
ATOM     16  C   UNL     1      70.783  39.733 -32.765  1.00  0.00     0.013 A 
ATOM     17  C   UNL     1      70.880  37.974 -30.978  1.00  0.00     0.045 C 
ATOM     18  C   UNL     1      70.873  41.055 -33.243  1.00  0.00    -0.006 A 
ATOM     19  C   UNL     1      70.996  43.463 -32.744  1.00  0.00     0.072 A 
ATOM     20  C   UNL     1      70.759  41.352 -34.638  1.00  0.00     0.008 A 
ATOM     21  C   UNL     1      70.753  43.741 -34.105  1.00  0.00     0.169 A 
ATOM     22  C   UNL     1      70.658  42.704 -35.036  1.00  0.00     0.162 A 
BRANCH  13  23
ATOM     23  O   UNL     1      71.736  42.764 -30.027  1.00  0.00    -0.507 OA
ATOM     24  H   UNL     1      72.668  43.157 -29.972  1.00  0.00     0.293 HD
ENDBRANCH  13  23
BRANCH  19  25
ATOM     25  C   UNL     1      71.081  44.601 -31.805  1.00  0.00     0.264 C 
ATOM     26  O   UNL     1      72.121  45.311 -31.749  1.00  0.00    -0.298 OA
ENDBRANCH  19  25
BRANCH  20  27
ATOM     27  C   UNL     1      70.737  40.282 -35.750  1.00  0.00     0.017 C 
ATOM     28  C   UNL     1      69.496  39.385 -35.664  1.00  0.00     0.012 C 
ATOM     29  C   UNL     1      72.052  39.487 -35.894  1.00  0.00     0.012 C 
ENDBRANCH  20  27
BRANCH  21  30
ATOM     30  O   UNL     1      70.575  45.051 -34.565  1.00  0.00    -0.504 OA
ATOM     31  H   UNL     1      69.780  45.361 -35.108  1.00  0.00     0.293 HD
ENDBRANCH  21  30
BRANCH  22  32
ATOM     32  O   UNL     1      70.440  43.016 -36.383  1.00  0.00    -0.504 OA
ATOM     33  H   UNL     1      70.046  42.362 -37.048  1.00  0.00     0.293 HD
ENDBRANCH  22  32
ENDBRANCH  11  12
BRANCH  10  34
ATOM     34  O   UNL     1      69.204  40.472 -28.580  1.00  0.00    -0.507 OA
ATOM     35  H   UNL     1      68.569  39.853 -29.069  1.00  0.00     0.293 HD
ENDBRANCH  10  34
BRANCH   9  36
ATOM     36  C   UNL     1      73.781  39.407 -24.360  1.00  0.00     0.017 C 
ATOM     37  C   UNL     1      74.112  40.710 -23.622  1.00  0.00     0.012 C 
ATOM     38  C   UNL     1      74.124  38.144 -23.544  1.00  0.00     0.012 C 
ENDBRANCH   9  36
BRANCH   6  39
ATOM     39  C   UNL     1      68.241  39.725 -26.237  1.00  0.00     0.264 C 
ATOM     40  O   UNL     1      67.507  40.663 -25.826  1.00  0.00    -0.298 OA
ENDBRANCH   6  39
BRANCH   8  41
ATOM     41  O   UNL     1      71.534  39.026 -22.694  1.00  0.00    -0.504 OA
ATOM     42  H   UNL     1      72.444  38.751 -22.344  1.00  0.00     0.293 HD
ENDBRANCH   8  41
BRANCH   7  43
ATOM     43  O   UNL     1      68.940  39.147 -23.543  1.00  0.00    -0.504 OA
ATOM     44  H   UNL     1      68.942  38.391 -22.871  1.00  0.00     0.293 HD
ENDBRANCH   7  43
TORSDOF 11
ENDMDL
MODEL 4
REMARK VINA RESULT:    -5.681      0.581      9.022
REMARK INTER + INTRA:          -9.647
REMARK INTER:                  -8.336
REMARK INTRA:                  -1.311
REMARK UNBOUND:                -1.309
REMARK SMILES Cc1cc2c(C(C)C)c(O)c(O)c(C=O)c2c(O)c1-c1c(C)cc2c(C(C)C)c(O)c(O)c(C=O)c2c1O
REMARK SMILES IDX 1 1 2 2 3 3 4 4 16 5 13 6 11 7 9 8 5 9 17 10 19 11 20 12
REMARK SMILES IDX 37 13 21 14 36 15 23 16 22 17 24 18 33 19 25 20 31 21 29 22
REMARK SMILES IDX 38 23 34 25 35 26 26 27 27 28 28 29 32 30 30 32 18 34 6 36
REMARK SMILES IDX 7 37 8 38 14 39 15 40 10 41 12 43
REMARK H PARENT 38 24 32 31 30 33 18 35 10 42 12 44
REMARK Flexibility Score: inf
ROOT
ATOM      1  C   UNL     1      73.717  38.029 -29.535  1.00  0.00     0.045 C 
ATOM      2  C   UNL     1      72.618  38.386 -28.565  1.00  0.00    -0.039 A 
ATOM      3  C   UNL     1      72.914  38.517 -27.208  1.00  0.00     0.013 A 
ATOM      4  C   UNL     1      71.931  38.843 -26.252  1.00  0.00    -0.006 A 
ATOM      5  C   UNL     1      70.569  38.923 -26.678  1.00  0.00     0.039 A 
ATOM      6  C   UNL     1      69.545  39.070 -25.694  1.00  0.00     0.072 A 
ATOM      7  C   UNL     1      69.890  39.168 -24.331  1.00  0.00     0.169 A 
ATOM      8  C   UNL     1      71.231  39.196 -23.937  1.00  0.00     0.162 A 
ATOM      9  C   UNL     1      72.272  39.079 -24.883  1.00  0.00     0.008 A 
ATOM     10  C   UNL     1      70.280  38.872 -28.076  1.00  0.00     0.132 A 
ATOM     11  C   UNL     1      71.304  38.601 -29.008  1.00  0.00     0.031 A 
ENDROOT
BRANCH  11  12
ATOM     12  C   UNL     1      70.998  38.542 -30.462  1.00  0.00     0.031 A 
ATOM     13  C   UNL     1      70.982  39.723 -31.234  1.00  0.00     0.132 A 
ATOM     14  C   UNL     1      70.721  37.306 -31.064  1.00  0.00    -0.039 A 
ATOM     15  C   UNL     1      70.643  39.675 -32.621  1.00  0.00     0.039 A 
ATOM     16  C   UNL     1      70.469  37.250 -32.436  1.00  0.00     0.013 A 
ATOM     17  C   UNL     1      70.706  36.032 -30.254  1.00  0.00     0.045 C 
ATOM     18  C   UNL     1      70.475  38.401 -33.247  1.00  0.00    -0.006 A 
ATOM     19  C   UNL     1      70.482  40.858 -33.404  1.00  0.00     0.072 A 
ATOM     20  C   UNL     1      70.309  38.313 -34.666  1.00  0.00     0.008 A 
ATOM     21  C   UNL     1      70.190  40.755 -34.779  1.00  0.00     0.169 A 
ATOM     22  C   UNL     1      70.126  39.505 -35.401  1.00  0.00     0.162 A 
BRANCH  13  23
ATOM     23  O   UNL     1      71.329  40.936 -30.630  1.00  0.00    -0.507 OA
ATOM     24  H   UNL     1      72.127  41.497 -30.903  1.00  0.00     0.293 HD
ENDBRANCH  13  23
BRANCH  19  25
ATOM     25  C   UNL     1      70.531  42.206 -32.801  1.00  0.00     0.264 C 
ATOM     26  O   UNL     1      71.552  42.932 -32.932  1.00  0.00    -0.298 OA
ENDBRANCH  19  25
BRANCH  20  27
ATOM     27  C   UNL     1      70.316  36.987 -35.455  1.00  0.00     0.017 C 
ATOM     28  C   UNL     1      69.329  35.965 -34.877  1.00  0.00     0.012 C 
ATOM     29  C   UNL     1      71.722  36.401 -35.702  1.00  0.00     0.012 C 
ENDBRANCH  20  27
BRANCH  21  30
ATOM     30  O   UNL     1      69.930  41.888 -35.561  1.00  0.00    -0.504 OA
ATOM     31  H   UNL     1      69.098  42.457 -35.480  1.00  0.00     0.293 HD
ENDBRANCH  21  30
BRANCH  22  32
ATOM     32  O   UNL     1      69.856  39.440 -36.773  1.00  0.00    -0.504 OA
ATOM     33  H   UNL     1      68.923  39.512 -37.159  1.00  0.00     0.293 HD
ENDBRANCH  22  32
ENDBRANCH  11  12
BRANCH  10  34
ATOM     34  O   UNL     1      68.982  39.117 -28.542  1.00  0.00    -0.507 OA
ATOM     35  H   UNL     1      68.480  38.501 -29.169  1.00  0.00     0.293 HD
ENDBRANCH  10  34
BRANCH   9  36
ATOM     36  C   UNL     1      73.719  39.222 -24.366  1.00  0.00     0.017 C 
ATOM     37  C   UNL     1      74.044  40.662 -23.948  1.00  0.00     0.012 C 
ATOM     38  C   UNL     1      74.125  38.177 -23.307  1.00  0.00     0.012 C 
ENDBRANCH   9  36
BRANCH   6  39
ATOM     39  C   UNL     1      68.111  39.042 -26.051  1.00  0.00     0.264 C 
ATOM     40  O   UNL     1      67.418  40.093 -26.007  1.00  0.00    -0.298 OA
ENDBRANCH   6  39
BRANCH   8  41
ATOM     41  O   UNL     1      71.538  39.321 -22.577  1.00  0.00    -0.504 OA
ATOM     42  H   UNL     1      71.451  40.192 -22.067  1.00  0.00     0.293 HD
ENDBRANCH   8  41
BRANCH   7  43
ATOM     43  O   UNL     1      68.913  39.218 -23.329  1.00  0.00    -0.504 OA
ATOM     44  H   UNL     1      68.745  38.478 -22.661  1.00  0.00     0.293 HD
ENDBRANCH   7  43
TORSDOF 11
ENDMDL
MODEL 5
REMARK VINA RESULT:    -5.679      2.378      3.876
REMARK INTER + INTRA:          -9.643
REMARK INTER:                  -8.580
REMARK INTRA:                  -1.063
REMARK UNBOUND:                -1.309
REMARK SMILES Cc1cc2c(C(C)C)c(O)c(O)c(C=O)c2c(O)c1-c1c(C)cc2c(C(C)C)c(O)c(O)c(C=O)c2c1O
REMARK SMILES IDX 1 1 2 2 3 3 4 4 16 5 13 6 11 7 9 8 5 9 17 10 19 11 20 12
REMARK SMILES IDX 37 13 21 14 36 15 23 16 22 17 24 18 33 19 25 20 31 21 29 22
REMARK SMILES IDX 38 23 34 25 35 26 26 27 27 28 28 29 32 30 30 32 18 34 6 36
REMARK SMILES IDX 7 37 8 38 14 39 15 40 10 41 12 43
REMARK H PARENT 38 24 32 31 30 33 18 35 10 42 12 44
REMARK Flexibility Score: inf
ROOT
ATOM      1  C   UNL     1      70.546  39.854 -31.264  1.00  0.00     0.045 C 
ATOM      2  C   UNL     1      70.841  38.417 -31.618  1.00  0.00    -0.039 A 
ATOM      3  C   UNL     1      70.675  37.986 -32.935  1.00  0.00     0.013 A 
ATOM      4  C   UNL     1      70.930  36.657 -33.327  1.00  0.00    -0.006 A 
ATOM      5  C   UNL     1      71.253  35.699 -32.316  1.00  0.00     0.039 A 
ATOM      6  C   UNL     1      71.332  34.319 -32.672  1.00  0.00     0.072 A 
ATOM      7  C   UNL     1      71.128  33.926 -34.010  1.00  0.00     0.169 A 
ATOM      8  C   UNL     1      70.918  34.882 -35.008  1.00  0.00     0.162 A 
ATOM      9  C   UNL     1      70.858  36.258 -34.700  1.00  0.00     0.008 A 
ATOM     10  C   UNL     1      71.503  36.158 -30.987  1.00  0.00     0.132 A 
ATOM     11  C   UNL     1      71.293  37.512 -30.647  1.00  0.00     0.031 A 
ENDROOT
BRANCH  11  12
ATOM     12  C   UNL     1      71.549  37.985 -29.261  1.00  0.00     0.031 A 
ATOM     13  C   UNL     1      70.492  38.058 -28.328  1.00  0.00     0.132 A 
ATOM     14  C   UNL     1      72.845  38.366 -28.884  1.00  0.00    -0.039 A 
ATOM     15  C   UNL     1      70.725  38.557 -27.010  1.00  0.00     0.039 A 
ATOM     16  C   UNL     1      73.088  38.778 -27.573  1.00  0.00     0.013 A 
ATOM     17  C   UNL     1      73.986  38.323 -29.872  1.00  0.00     0.045 C 
ATOM     18  C   UNL     1      72.068  38.833 -26.603  1.00  0.00    -0.006 A 
ATOM     19  C   UNL     1      69.663  38.774 -26.082  1.00  0.00     0.072 A 
ATOM     20  C   UNL     1      72.353  39.165 -25.241  1.00  0.00     0.008 A 
ATOM     21  C   UNL     1      69.950  39.227 -24.779  1.00  0.00     0.169 A 
ATOM     22  C   UNL     1      71.273  39.398 -24.361  1.00  0.00     0.162 A 
BRANCH  13  23
ATOM     23  O   UNL     1      69.221  37.608 -28.703  1.00  0.00    -0.507 OA
ATOM     24  H   UNL     1      68.715  37.952 -29.510  1.00  0.00     0.293 HD
ENDBRANCH  13  23
BRANCH  19  25
ATOM     25  C   UNL     1      68.245  38.617 -26.468  1.00  0.00     0.264 C 
ATOM     26  O   UNL     1      67.412  39.536 -26.243  1.00  0.00    -0.298 OA
ENDBRANCH  19  25
BRANCH  20  27
ATOM     27  C   UNL     1      73.778  39.288 -24.662  1.00  0.00     0.017 C 
ATOM     28  C   UNL     1      74.105  38.151 -23.685  1.00  0.00     0.012 C 
ATOM     29  C   UNL     1      74.120  40.685 -24.103  1.00  0.00     0.012 C 
ENDBRANCH  20  27
BRANCH  21  30
ATOM     30  O   UNL     1      68.932  39.543 -23.870  1.00  0.00    -0.504 OA
ATOM     31  H   UNL     1      68.326  40.348 -23.952  1.00  0.00     0.293 HD
ENDBRANCH  21  30
BRANCH  22  32
ATOM     32  O   UNL     1      71.523  39.827 -23.052  1.00  0.00    -0.504 OA
ATOM     33  H   UNL     1      71.569  39.196 -22.262  1.00  0.00     0.293 HD
ENDBRANCH  22  32
ENDBRANCH  11  12
BRANCH  10  34
ATOM     34  O   UNL     1      71.987  35.278 -30.011  1.00  0.00    -0.507 OA
ATOM     35  H   UNL     1      72.882  35.381 -29.549  1.00  0.00     0.293 HD
ENDBRANCH  10  34
BRANCH   9  36
ATOM     36  C   UNL     1      70.726  37.244 -35.879  1.00  0.00     0.017 C 
ATOM     37  C   UNL     1      69.679  38.332 -35.608  1.00  0.00     0.012 C 
ATOM     38  C   UNL     1      72.067  37.807 -36.394  1.00  0.00     0.012 C 
ENDBRANCH   9  36
BRANCH   6  39
ATOM     39  C   UNL     1      71.546  33.264 -31.659  1.00  0.00     0.264 C 
ATOM     40  O   UNL     1      72.656  32.675 -31.569  1.00  0.00    -0.298 OA
ENDBRANCH   6  39
BRANCH   8  41
ATOM     41  O   UNL     1      70.745  34.458 -36.331  1.00  0.00    -0.504 OA
ATOM     42  H   UNL     1      69.839  34.400 -36.780  1.00  0.00     0.293 HD
ENDBRANCH   8  41
BRANCH   7  43
ATOM     43  O   UNL     1      71.103  32.576 -34.382  1.00  0.00    -0.504 OA
ATOM     44  H   UNL     1      70.286  32.098 -34.737  1.00  0.00     0.293 HD
ENDBRANCH   7  43
TORSDOF 11
ENDMDL
MODEL 6
REMARK VINA RESULT:    -5.246      1.601      8.827
REMARK INTER + INTRA:          -9.009
REMARK INTER:                  -7.728
REMARK INTRA:                  -1.280
REMARK UNBOUND:                -1.309
REMARK SMILES Cc1cc2c(C(C)C)c(O)c(O)c(C=O)c2c(O)c1-c1c(C)cc2c(C(C)C)c(O)c(O)c(C=O)c2c1O
REMARK SMILES IDX 1 1 2 2 3 3 4 4 16 5 13 6 11 7 9 8 5 9 17 10 19 11 20 12
REMARK SMILES IDX 37 13 21 14 36 15 23 16 22 17 24 18 33 19 25 20 31 21 29 22
REMARK SMILES IDX 38 23 34 25 35 26 26 27 27 28 28 29 32 30 30 32 18 34 6 36
REMARK SMILES IDX 7 37 8 38 14 39 15 40 10 41 12 43
REMARK H PARENT 38 24 32 31 30 33 18 35 10 42 12 44
REMARK Flexibility Score: inf
ROOT
ATOM      1  C   UNL     1      73.797  38.689 -30.307  1.00  0.00     0.045 C 
ATOM      2  C   UNL     1      72.769  39.011 -29.250  1.00  0.00    -0.039 A 
ATOM      3  C   UNL     1      72.936  38.517 -27.956  1.00  0.00     0.013 A 
ATOM      4  C   UNL     1      72.009  38.779 -26.927  1.00  0.00    -0.006 A 
ATOM      5  C   UNL     1      70.805  39.473 -27.258  1.00  0.00     0.039 A 
ATOM      6  C   UNL     1      69.778  39.585 -26.272  1.00  0.00     0.072 A 
ATOM      7  C   UNL     1      69.979  39.043 -24.986  1.00  0.00     0.169 A 
ATOM      8  C   UNL     1      71.202  38.460 -24.642  1.00  0.00     0.162 A 
ATOM      9  C   UNL     1      72.250  38.355 -25.582  1.00  0.00     0.008 A 
ATOM     10  C   UNL     1      70.676  40.050 -28.559  1.00  0.00     0.132 A 
ATOM     11  C   UNL     1      71.656  39.813 -29.545  1.00  0.00     0.031 A 
ENDROOT
BRANCH  11  12
ATOM     12  C   UNL     1      71.516  40.408 -30.900  1.00  0.00     0.031 A 
ATOM     13  C   UNL     1      70.868  39.692 -31.929  1.00  0.00     0.132 A 
ATOM     14  C   UNL     1      72.037  41.686 -31.156  1.00  0.00    -0.039 A 
ATOM     15  C   UNL     1      70.773  40.242 -33.244  1.00  0.00     0.039 A 
ATOM     16  C   UNL     1      71.873  42.255 -32.419  1.00  0.00     0.013 A 
ATOM     17  C   UNL     1      72.758  42.461 -30.079  1.00  0.00     0.045 C 
ATOM     18  C   UNL     1      71.204  41.587 -33.463  1.00  0.00    -0.006 A 
ATOM     19  C   UNL     1      70.248  39.496 -34.342  1.00  0.00     0.072 A 
ATOM     20  C   UNL     1      70.962  42.225 -34.721  1.00  0.00     0.008 A 
ATOM     21  C   UNL     1      70.136  40.100 -35.611  1.00  0.00     0.169 A 
ATOM     22  C   UNL     1      70.468  41.446 -35.790  1.00  0.00     0.162 A 
BRANCH  13  23
ATOM     23  O   UNL     1      70.295  38.449 -31.636  1.00  0.00    -0.507 OA
ATOM     24  H   UNL     1      70.696  37.779 -30.991  1.00  0.00     0.293 HD
ENDBRANCH  13  23
BRANCH  19  25
ATOM     25  C   UNL     1      69.888  38.068 -34.215  1.00  0.00     0.264 C 
ATOM     26  O   UNL     1      70.187  37.247 -35.123  1.00  0.00    -0.298 OA
ENDBRANCH  19  25
BRANCH  20  27
ATOM     27  C   UNL     1      71.209  43.723 -34.991  1.00  0.00     0.017 C 
ATOM     28  C   UNL     1      72.704  44.064 -35.032  1.00  0.00     0.012 C 
ATOM     29  C   UNL     1      70.395  44.676 -34.090  1.00  0.00     0.012 C 
ENDBRANCH  20  27
BRANCH  21  30
ATOM     30  O   UNL     1      69.717  39.375 -36.734  1.00  0.00    -0.504 OA
ATOM     31  H   UNL     1      68.823  39.499 -37.190  1.00  0.00     0.293 HD
ENDBRANCH  21  30
BRANCH  22  32
ATOM     32  O   UNL     1      70.322  42.020 -37.058  1.00  0.00    -0.504 OA
ATOM     33  H   UNL     1      71.104  42.345 -37.612  1.00  0.00     0.293 HD
ENDBRANCH  22  32
ENDBRANCH  11  12
BRANCH  10  34
ATOM     34  O   UNL     1      69.590  40.880 -28.863  1.00  0.00    -0.507 OA
ATOM     35  H   UNL     1      69.516  41.846 -28.569  1.00  0.00     0.293 HD
ENDBRANCH  10  34
BRANCH   9  36
ATOM     36  C   UNL     1      73.596  37.790 -25.083  1.00  0.00     0.017 C 
ATOM     37  C   UNL     1      74.125  38.550 -23.860  1.00  0.00     0.012 C 
ATOM     38  C   UNL     1      73.617  36.258 -24.900  1.00  0.00     0.012 C 
ENDBRANCH   9  36
BRANCH   6  39
ATOM     39  C   UNL     1      68.463  40.186 -26.578  1.00  0.00     0.264 C 
ATOM     40  O   UNL     1      68.095  41.248 -26.012  1.00  0.00    -0.298 OA
ENDBRANCH   6  39
BRANCH   8  41
ATOM     41  O   UNL     1      71.376  37.956 -23.348  1.00  0.00    -0.504 OA
ATOM     42  H   UNL     1      71.558  36.979 -23.154  1.00  0.00     0.293 HD
ENDBRANCH   8  41
BRANCH   7  43
ATOM     43  O   UNL     1      68.963  39.047 -24.022  1.00  0.00    -0.504 OA
ATOM     44  H   UNL     1      68.109  38.510 -24.092  1.00  0.00     0.293 HD
ENDBRANCH   7  43
TORSDOF 11
ENDMDL
MODEL 7
REMARK VINA RESULT:    -4.969      2.237      2.527
REMARK INTER + INTRA:          -8.602
REMARK INTER:                  -7.168
REMARK INTRA:                  -1.435
REMARK UNBOUND:                -1.309
REMARK SMILES Cc1cc2c(C(C)C)c(O)c(O)c(C=O)c2c(O)c1-c1c(C)cc2c(C(C)C)c(O)c(O)c(C=O)c2c1O
REMARK SMILES IDX 1 1 2 2 3 3 4 4 16 5 13 6 11 7 9 8 5 9 17 10 19 11 20 12
REMARK SMILES IDX 37 13 21 14 36 15 23 16 22 17 24 18 33 19 25 20 31 21 29 22
REMARK SMILES IDX 38 23 34 25 35 26 26 27 27 28 28 29 32 30 30 32 18 34 6 36
REMARK SMILES IDX 7 37 8 38 14 39 15 40 10 41 12 43
REMARK H PARENT 38 24 32 31 30 33 18 35 10 42 12 44
REMARK Flexibility Score: inf
ROOT
ATOM      1  C   UNL     1      70.648  34.792 -30.256  1.00  0.00     0.045 C 
ATOM      2  C   UNL     1      71.205  35.954 -31.042  1.00  0.00    -0.039 A 
ATOM      3  C   UNL     1      71.159  35.926 -32.436  1.00  0.00     0.013 A 
ATOM      4  C   UNL     1      71.665  36.977 -33.226  1.00  0.00    -0.006 A 
ATOM      5  C   UNL     1      72.355  38.046 -32.574  1.00  0.00     0.039 A 
ATOM      6  C   UNL     1      73.031  39.019 -33.370  1.00  0.00     0.072 A 
ATOM      7  C   UNL     1      72.981  38.933 -34.776  1.00  0.00     0.169 A 
ATOM      8  C   UNL     1      72.216  37.945 -35.402  1.00  0.00     0.162 A 
ATOM      9  C   UNL     1      71.513  36.980 -34.649  1.00  0.00     0.008 A 
ATOM     10  C   UNL     1      72.328  38.115 -31.147  1.00  0.00     0.132 A 
ATOM     11  C   UNL     1      71.756  37.068 -30.392  1.00  0.00     0.031 A 
ENDROOT
BRANCH  11  12
ATOM     12  C   UNL     1      71.736  37.140 -28.907  1.00  0.00     0.031 A 
ATOM     13  C   UNL     1      70.697  37.826 -28.243  1.00  0.00     0.132 A 
ATOM     14  C   UNL     1      72.757  36.527 -28.167  1.00  0.00    -0.039 A 
ATOM     15  C   UNL     1      70.699  37.936 -26.818  1.00  0.00     0.039 A 
ATOM     16  C   UNL     1      72.716  36.566 -26.773  1.00  0.00     0.013 A 
ATOM     17  C   UNL     1      73.894  35.810 -28.856  1.00  0.00     0.045 C 
ATOM     18  C   UNL     1      71.680  37.212 -26.071  1.00  0.00    -0.006 A 
ATOM     19  C   UNL     1      69.745  38.734 -26.117  1.00  0.00     0.072 A 
ATOM     20  C   UNL     1      71.603  37.161 -24.643  1.00  0.00     0.008 A 
ATOM     21  C   UNL     1      69.764  38.775 -24.709  1.00  0.00     0.169 A 
ATOM     22  C   UNL     1      70.663  37.986 -23.986  1.00  0.00     0.162 A 
BRANCH  13  23
ATOM     23  O   UNL     1      69.651  38.371 -28.995  1.00  0.00    -0.507 OA
ATOM     24  H   UNL     1      69.768  39.120 -29.668  1.00  0.00     0.293 HD
ENDBRANCH  13  23
BRANCH  19  25
ATOM     25  C   UNL     1      68.775  39.595 -26.827  1.00  0.00     0.264 C 
ATOM     26  O   UNL     1      67.610  39.757 -26.375  1.00  0.00    -0.298 OA
ENDBRANCH  19  25
BRANCH  20  27
ATOM     27  C   UNL     1      72.488  36.255 -23.763  1.00  0.00     0.017 C 
ATOM     28  C   UNL     1      73.944  36.736 -23.719  1.00  0.00     0.012 C 
ATOM     29  C   UNL     1      72.357  34.747 -24.066  1.00  0.00     0.012 C 
ENDBRANCH  20  27
BRANCH  21  30
ATOM     30  O   UNL     1      68.908  39.617 -23.988  1.00  0.00    -0.504 OA
ATOM     31  H   UNL     1      69.023  39.841 -23.008  1.00  0.00     0.293 HD
ENDBRANCH  21  30
BRANCH  22  32
ATOM     32  O   UNL     1      70.639  38.033 -22.588  1.00  0.00    -0.504 OA
ATOM     33  H   UNL     1      71.016  37.298 -22.002  1.00  0.00     0.293 HD
ENDBRANCH  22  32
ENDBRANCH  11  12
BRANCH  10  34
ATOM     34  O   UNL     1      72.842  39.234 -30.480  1.00  0.00    -0.507 OA
ATOM     35  H   UNL     1      73.595  39.809 -30.837  1.00  0.00     0.293 HD
ENDBRANCH  10  34
BRANCH   9  36
ATOM     36  C   UNL     1      70.615  35.993 -35.423  1.00  0.00     0.017 C 
ATOM     37  C   UNL     1      71.335  34.674 -35.729  1.00  0.00     0.012 C 
ATOM     38  C   UNL     1      69.213  35.791 -34.810  1.00  0.00     0.012 C 
ENDBRANCH   9  36
BRANCH   6  39
ATOM     39  C   UNL     1      73.859  40.083 -32.764  1.00  0.00     0.264 C 
ATOM     40  O   UNL     1      73.463  41.279 -32.758  1.00  0.00    -0.298 OA
ENDBRANCH   6  39
BRANCH   8  41
ATOM     41  O   UNL     1      72.168  37.905 -36.800  1.00  0.00    -0.504 OA
ATOM     42  H   UNL     1      72.176  38.737 -37.379  1.00  0.00     0.293 HD
ENDBRANCH   8  41
BRANCH   7  43
ATOM     43  O   UNL     1      73.708  39.811 -35.590  1.00  0.00    -0.504 OA
ATOM     44  H   UNL     1      74.584  39.578 -36.038  1.00  0.00     0.293 HD
ENDBRANCH   7  43
TORSDOF 11
ENDMDL
