MODEL 1
REMARK VINA RESULT:    -4.161      0.000      0.000
REMARK INTER + INTRA:          -4.579
REMARK INTER:                  -4.405
REMARK INTRA:                  -0.175
REMARK UNBOUND:                -0.175
REMARK SMILES CC(C)[C@@H]1CC[C@@H](C)CC1=O
REMARK SMILES IDX 8 1 7 2 6 3 5 4 4 5 10 6 11 7 9 8 2 9 1 10 3 11
REMARK H PARENT
REMARK Flexibility Score: inf
ROOT
ATOM      1  C   UNL     1      -2.498   1.022 -38.125  1.00  0.00     0.008 C 
ATOM      2  C   UNL     1      -1.525   0.638 -37.005  1.00  0.00    -0.007 C 
ATOM      3  C   UNL     1      -0.078   0.584 -37.537  1.00  0.00     0.004 C 
ATOM      4  C   UNL     1       0.919   0.184 -36.433  1.00  0.00     0.012 C 
ATOM      5  C   UNL     1       0.554  -1.181 -35.798  1.00  0.00     0.058 C 
ATOM      6  C   UNL     1      -0.900  -1.105 -35.359  1.00  0.00     0.136 C 
ATOM      7  O   UNL     1      -1.235  -1.276 -34.196  1.00  0.00    -0.299 OA
ATOM      8  C   UNL     1      -1.927  -0.709 -36.381  1.00  0.00     0.079 C 
ENDROOT
BRANCH   5   9
ATOM      9  C   UNL     1       1.518  -1.600 -34.638  1.00  0.00    -0.007 C 
ATOM     10  C   UNL     1       2.570  -2.609 -35.136  1.00  0.00     0.008 C 
ATOM     11  C   UNL     1       2.251  -0.401 -34.010  1.00  0.00     0.008 C 
ENDBRANCH   5   9
TORSDOF 1
ENDMDL
MODEL 2
REMARK VINA RESULT:    -4.121      1.146      4.331
REMARK INTER + INTRA:          -4.537
REMARK INTER:                  -4.382
REMARK INTRA:                  -0.155
REMARK UNBOUND:                -0.175
REMARK SMILES CC(C)[C@@H]1CC[C@@H](C)CC1=O
REMARK SMILES IDX 8 1 7 2 6 3 5 4 4 5 10 6 11 7 9 8 2 9 1 10 3 11
REMARK H PARENT
REMARK Flexibility Score: inf
ROOT
ATOM      1  C   UNL     1       3.131  -3.187 -34.326  1.00  0.00     0.008 C 
ATOM      2  C   UNL     1       1.976  -2.465 -35.027  1.00  0.00    -0.007 C 
ATOM      3  C   UNL     1       2.362  -2.103 -36.476  1.00  0.00     0.004 C 
ATOM      4  C   UNL     1       1.221  -1.361 -37.199  1.00  0.00     0.012 C 
ATOM      5  C   UNL     1       0.803  -0.076 -36.443  1.00  0.00     0.058 C 
ATOM      6  C   UNL     1       0.508  -0.469 -35.004  1.00  0.00     0.136 C 
ATOM      7  O   UNL     1      -0.585  -0.275 -34.492  1.00  0.00    -0.299 OA
ATOM      8  C   UNL     1       1.570  -1.207 -34.241  1.00  0.00     0.079 C 
ENDROOT
BRANCH   5   9
ATOM      9  C   UNL     1      -0.387   0.681 -37.123  1.00  0.00    -0.007 C 
ATOM     10  C   UNL     1       0.132   1.730 -38.125  1.00  0.00     0.008 C 
ATOM     11  C   UNL     1      -1.351  -0.264 -37.861  1.00  0.00     0.008 C 
ENDBRANCH   5   9
TORSDOF 1
ENDMDL
MODEL 3
REMARK VINA RESULT:    -3.958      8.588     10.112
REMARK INTER + INTRA:          -4.364
REMARK INTER:                  -4.191
REMARK INTRA:                  -0.173
REMARK UNBOUND:                -0.175
REMARK SMILES CC(C)[C@@H]1CC[C@@H](C)CC1=O
REMARK SMILES IDX 8 1 7 2 6 3 5 4 4 5 10 6 11 7 9 8 2 9 1 10 3 11
REMARK H PARENT
REMARK Flexibility Score: inf
ROOT
ATOM      1  C   UNL     1      -4.267  -5.369 -24.738  1.00  0.00     0.008 C 
ATOM      2  C   UNL     1      -3.845  -4.825 -26.106  1.00  0.00    -0.007 C 
ATOM      3  C   UNL     1      -5.042  -4.814 -27.079  1.00  0.00     0.004 C 
ATOM      4  C   UNL     1      -4.640  -4.285 -28.469  1.00  0.00     0.012 C 
ATOM      5  C   UNL     1      -3.485  -5.111 -29.086  1.00  0.00     0.058 C 
ATOM      6  C   UNL     1      -2.361  -5.158 -28.062  1.00  0.00     0.136 C 
ATOM      7  O   UNL     1      -1.242  -4.734 -28.309  1.00  0.00    -0.299 OA
ATOM      8  C   UNL     1      -2.683  -5.652 -26.681  1.00  0.00     0.079 C 
ENDROOT
BRANCH   5   9
ATOM      9  C   UNL     1      -3.015  -4.575 -30.479  1.00  0.00    -0.007 C 
ATOM     10  C   UNL     1      -3.417  -5.546 -31.605  1.00  0.00     0.008 C 
ATOM     11  C   UNL     1      -3.590  -3.185 -30.806  1.00  0.00     0.008 C 
ENDBRANCH   5   9
TORSDOF 1
ENDMDL
MODEL 4
REMARK VINA RESULT:    -3.864      6.889      7.879
REMARK INTER + INTRA:          -4.265
REMARK INTER:                  -4.092
REMARK INTRA:                  -0.173
REMARK UNBOUND:                -0.175
REMARK SMILES CC(C)[C@@H]1CC[C@@H](C)CC1=O
REMARK SMILES IDX 8 1 7 2 6 3 5 4 4 5 10 6 11 7 9 8 2 9 1 10 3 11
REMARK H PARENT
REMARK Flexibility Score: inf
ROOT
ATOM      1  C   UNL     1      -4.321  -3.525 -33.976  1.00  0.00     0.008 C 
ATOM      2  C   UNL     1      -4.347  -4.060 -32.541  1.00  0.00    -0.007 C 
ATOM      3  C   UNL     1      -3.729  -3.034 -31.568  1.00  0.00     0.004 C 
ATOM      4  C   UNL     1      -3.728  -3.556 -30.118  1.00  0.00     0.012 C 
ATOM      5  C   UNL     1      -2.973  -4.902 -29.992  1.00  0.00     0.058 C 
ATOM      6  C   UNL     1      -3.563  -5.853 -31.020  1.00  0.00     0.136 C 
ATOM      7  O   UNL     1      -4.068  -6.920 -30.701  1.00  0.00    -0.299 OA
ATOM      8  C   UNL     1      -3.609  -5.407 -32.453  1.00  0.00     0.079 C 
ENDROOT
BRANCH   5   9
ATOM      9  C   UNL     1      -2.990  -5.488 -28.541  1.00  0.00    -0.007 C 
ATOM     10  C   UNL     1      -1.691  -5.135 -27.791  1.00  0.00     0.008 C 
ATOM     11  C   UNL     1      -4.184  -4.985 -27.710  1.00  0.00     0.008 C 
ENDBRANCH   5   9
TORSDOF 1
ENDMDL
MODEL 5
REMARK VINA RESULT:    -3.810      1.670      2.444
REMARK INTER + INTRA:          -4.207
REMARK INTER:                  -4.216
REMARK INTRA:                   0.009
REMARK UNBOUND:                -0.175
REMARK SMILES CC(C)[C@@H]1CC[C@@H](C)CC1=O
REMARK SMILES IDX 8 1 7 2 6 3 5 4 4 5 10 6 11 7 9 8 2 9 1 10 3 11
REMARK H PARENT
REMARK Flexibility Score: inf
ROOT
ATOM      1  C   UNL     1      -2.596   1.293 -38.125  1.00  0.00     0.008 C 
ATOM      2  C   UNL     1      -1.409   0.478 -37.603  1.00  0.00    -0.007 C 
ATOM      3  C   UNL     1      -1.712  -0.086 -36.199  1.00  0.00     0.004 C 
ATOM      4  C   UNL     1      -0.526  -0.897 -35.644  1.00  0.00     0.012 C 
ATOM      5  C   UNL     1       0.771  -0.053 -35.588  1.00  0.00     0.058 C 
ATOM      6  C   UNL     1       0.986   0.543 -36.970  1.00  0.00     0.136 C 
ATOM      7  O   UNL     1       1.999   0.325 -37.618  1.00  0.00    -0.299 OA
ATOM      8  C   UNL     1      -0.133   1.337 -37.580  1.00  0.00     0.079 C 
ENDROOT
BRANCH   5   9
ATOM      9  C   UNL     1       2.011  -0.857 -35.073  1.00  0.00    -0.007 C 
ATOM     10  C   UNL     1       1.923  -1.086 -33.552  1.00  0.00     0.008 C 
ATOM     11  C   UNL     1       2.163  -2.224 -35.764  1.00  0.00     0.008 C 
ENDBRANCH   5   9
TORSDOF 1
ENDMDL
MODEL 6
REMARK VINA RESULT:    -3.645      8.941      9.905
REMARK INTER + INTRA:          -4.033
REMARK INTER:                  -3.878
REMARK INTRA:                  -0.155
REMARK UNBOUND:                -0.175
REMARK SMILES CC(C)[C@@H]1CC[C@@H](C)CC1=O
REMARK SMILES IDX 8 1 7 2 6 3 5 4 4 5 10 6 11 7 9 8 2 9 1 10 3 11
REMARK H PARENT
REMARK Flexibility Score: inf
ROOT
ATOM      1  C   UNL     1      -3.891  -3.671 -31.384  1.00  0.00     0.008 C 
ATOM      2  C   UNL     1      -3.594  -3.887 -29.896  1.00  0.00    -0.007 C 
ATOM      3  C   UNL     1      -2.472  -4.930 -29.712  1.00  0.00     0.004 C 
ATOM      4  C   UNL     1      -2.165  -5.177 -28.223  1.00  0.00     0.012 C 
ATOM      5  C   UNL     1      -3.424  -5.635 -27.445  1.00  0.00     0.058 C 
ATOM      6  C   UNL     1      -4.522  -4.619 -27.719  1.00  0.00     0.136 C 
ATOM      7  O   UNL     1      -5.063  -3.993 -26.819  1.00  0.00    -0.299 OA
ATOM      8  C   UNL     1      -4.867  -4.319 -29.149  1.00  0.00     0.079 C 
ENDROOT
BRANCH   5   9
ATOM      9  C   UNL     1      -3.162  -5.851 -25.917  1.00  0.00    -0.007 C 
ATOM     10  C   UNL     1      -3.960  -7.058 -25.389  1.00  0.00     0.008 C 
ATOM     11  C   UNL     1      -1.673  -6.070 -25.594  1.00  0.00     0.008 C 
ENDBRANCH   5   9
TORSDOF 1
ENDMDL
MODEL 7
REMARK VINA RESULT:    -3.533      1.657      4.379
REMARK INTER + INTRA:          -3.914
REMARK INTER:                  -3.752
REMARK INTRA:                  -0.163
REMARK UNBOUND:                -0.175
REMARK SMILES CC(C)[C@@H]1CC[C@@H](C)CC1=O
REMARK SMILES IDX 8 1 7 2 6 3 5 4 4 5 10 6 11 7 9 8 2 9 1 10 3 11
REMARK H PARENT
REMARK Flexibility Score: inf
ROOT
ATOM      1  C   UNL     1       2.748  -2.945 -34.359  1.00  0.00     0.008 C 
ATOM      2  C   UNL     1       2.138  -2.132 -35.505  1.00  0.00    -0.007 C 
ATOM      3  C   UNL     1       2.077  -0.635 -35.135  1.00  0.00     0.004 C 
ATOM      4  C   UNL     1       1.451   0.205 -36.266  1.00  0.00     0.012 C 
ATOM      5  C   UNL     1       0.030  -0.292 -36.630  1.00  0.00     0.058 C 
ATOM      6  C   UNL     1       0.127  -1.784 -36.910  1.00  0.00     0.136 C 
ATOM      7  O   UNL     1      -0.200  -2.262 -37.986  1.00  0.00    -0.299 OA
ATOM      8  C   UNL     1       0.737  -2.663 -35.857  1.00  0.00     0.079 C 
ENDROOT
BRANCH   5   9
ATOM      9  C   UNL     1      -0.621   0.507 -37.808  1.00  0.00    -0.007 C 
ATOM     10  C   UNL     1      -2.090   0.848 -37.494  1.00  0.00     0.008 C 
ATOM     11  C   UNL     1       0.126   1.814 -38.125  1.00  0.00     0.008 C 
ENDBRANCH   5   9
TORSDOF 1
ENDMDL
MODEL 8
REMARK VINA RESULT:    -3.494      8.363     10.044
REMARK INTER + INTRA:          -3.873
REMARK INTER:                  -3.760
REMARK INTRA:                  -0.113
REMARK UNBOUND:                -0.175
REMARK SMILES CC(C)[C@@H]1CC[C@@H](C)CC1=O
REMARK SMILES IDX 8 1 7 2 6 3 5 4 4 5 10 6 11 7 9 8 2 9 1 10 3 11
REMARK H PARENT
REMARK Flexibility Score: inf
ROOT
ATOM      1  C   UNL     1      -1.961  -6.238 -25.422  1.00  0.00     0.008 C 
ATOM      2  C   UNL     1      -2.413  -6.140 -26.882  1.00  0.00    -0.007 C 
ATOM      3  C   UNL     1      -1.671  -4.997 -27.605  1.00  0.00     0.004 C 
ATOM      4  C   UNL     1      -2.120  -4.868 -29.074  1.00  0.00     0.012 C 
ATOM      5  C   UNL     1      -3.648  -4.641 -29.188  1.00  0.00     0.058 C 
ATOM      6  C   UNL     1      -4.333  -5.745 -28.398  1.00  0.00     0.136 C 
ATOM      7  O   UNL     1      -5.125  -6.517 -28.918  1.00  0.00    -0.299 OA
ATOM      8  C   UNL     1      -3.936  -5.938 -26.963  1.00  0.00     0.079 C 
ENDROOT
BRANCH   5   9
ATOM      9  C   UNL     1      -4.150  -4.552 -30.668  1.00  0.00    -0.007 C 
ATOM     10  C   UNL     1      -3.993  -3.120 -31.215  1.00  0.00     0.008 C 
ATOM     11  C   UNL     1      -3.407  -5.517 -31.608  1.00  0.00     0.008 C 
ENDBRANCH   5   9
TORSDOF 1
ENDMDL
MODEL 9
REMARK VINA RESULT:    -3.459      9.681     10.827
REMARK INTER + INTRA:          -3.836
REMARK INTER:                  -3.662
REMARK INTRA:                  -0.174
REMARK UNBOUND:                -0.175
REMARK SMILES CC(C)[C@@H]1CC[C@@H](C)CC1=O
REMARK SMILES IDX 8 1 7 2 6 3 5 4 4 5 10 6 11 7 9 8 2 9 1 10 3 11
REMARK H PARENT
REMARK Flexibility Score: inf
ROOT
ATOM      1  C   UNL     1      -3.174  -4.341 -30.778  1.00  0.00     0.008 C 
ATOM      2  C   UNL     1      -3.385  -5.031 -29.427  1.00  0.00    -0.007 C 
ATOM      3  C   UNL     1      -4.551  -4.375 -28.658  1.00  0.00     0.004 C 
ATOM      4  C   UNL     1      -4.774  -5.041 -27.287  1.00  0.00     0.012 C 
ATOM      5  C   UNL     1      -3.495  -5.000 -26.414  1.00  0.00     0.058 C 
ATOM      6  C   UNL     1      -2.361  -5.585 -27.240  1.00  0.00     0.136 C 
ATOM      7  O   UNL     1      -1.727  -6.562 -26.868  1.00  0.00    -0.299 OA
ATOM      8  C   UNL     1      -2.093  -4.993 -28.593  1.00  0.00     0.079 C 
ENDROOT
BRANCH   5   9
ATOM      9  C   UNL     1      -3.669  -5.710 -25.030  1.00  0.00    -0.007 C 
ATOM     10  C   UNL     1      -3.746  -4.677 -23.889  1.00  0.00     0.008 C 
ATOM     11  C   UNL     1      -4.924  -6.598 -24.969  1.00  0.00     0.008 C 
ENDBRANCH   5   9
TORSDOF 1
ENDMDL
