MODEL 1
REMARK VINA RESULT:    -5.414      0.000      0.000
REMARK INTER + INTRA:          -9.879
REMARK INTER:                  -8.420
REMARK INTRA:                  -1.458
REMARK UNBOUND:                -1.458
REMARK SMILES COc1cc(CNC(=O)CCCCC=CC(C)C)ccc1O
REMARK SMILES IDX 11 1 12 2 13 3 14 4 15 5 16 6 17 7 18 8 10 9 8 10 9 11 7 12
REMARK SMILES IDX 6 14 5 15 4 16 19 17 3 18 20 19 21 20 2 21 1 22 22 23
REMARK H PARENT 7 13 22 24
REMARK Flexibility Score: inf
ROOT
ATOM      1  C   UNL     1      -0.341   6.079  10.307  1.00  0.00     0.010 C 
ENDROOT
BRANCH   1   2
ATOM      2  C   UNL     1      -0.847   6.819   9.055  1.00  0.00     0.005 C 
BRANCH   2   3
ATOM      3  C   UNL     1      -2.373   6.993   9.044  1.00  0.00     0.027 C 
BRANCH   3   4
ATOM      4  C   UNL     1      -3.026   6.112  10.073  1.00  0.00    -0.031 C 
ATOM      5  C   UNL     1      -3.794   6.620  11.050  1.00  0.00    -0.028 C 
BRANCH   5   6
ATOM      6  C   UNL     1      -4.448   5.729  12.079  1.00  0.00     0.005 C 
ATOM      7  C   UNL     1      -5.596   4.934  11.447  1.00  0.00     0.012 C 
ATOM      8  C   UNL     1      -3.419   4.778  12.701  1.00  0.00     0.012 C 
ENDBRANCH   5   6
ENDBRANCH   3   4
ENDBRANCH   2   3
ENDBRANCH   1   2
BRANCH   1   9
ATOM      9  C   UNL     1       0.470   6.957  11.275  1.00  0.00     0.100 C 
BRANCH   9  10
ATOM     10  C   UNL     1       0.477   6.397  12.667  1.00  0.00     0.220 C 
ATOM     11  O   UNL     1      -0.006   7.079  13.611  1.00  0.00    -0.275 OA
ATOM     12  N   UNL     1       0.995   5.082  12.914  1.00  0.00    -0.352 N 
ATOM     13  H   UNL     1       1.361   4.519  12.114  1.00  0.00     0.163 HD
BRANCH  12  14
ATOM     14  C   UNL     1       1.005   4.481  14.246  1.00  0.00     0.151 C 
BRANCH  14  15
ATOM     15  C   UNL     1      -0.141   3.516  14.393  1.00  0.00    -0.025 A 
ATOM     16  C   UNL     1      -0.257   2.428  13.514  1.00  0.00     0.056 A 
ATOM     17  C   UNL     1      -1.084   3.681  15.416  1.00  0.00     0.009 A 
ATOM     18  C   UNL     1      -1.315   1.505  13.651  1.00  0.00     0.160 A 
ATOM     19  C   UNL     1      -2.135   2.772  15.557  1.00  0.00     0.050 A 
ATOM     20  C   UNL     1      -2.255   1.688  14.681  1.00  0.00     0.157 A 
BRANCH  18  21
ATOM     21  O   UNL     1      -1.458   0.407  12.789  1.00  0.00    -0.493 OA
ATOM     22  C   UNL     1      -1.058   0.395  11.422  1.00  0.00     0.278 C 
ENDBRANCH  18  21
BRANCH  20  23
ATOM     23  O   UNL     1      -3.318   0.800  14.852  1.00  0.00    -0.504 OA
ATOM     24  H   UNL     1      -4.095   0.757  14.205  1.00  0.00     0.293 HD
ENDBRANCH  20  23
ENDBRANCH  14  15
ENDBRANCH  12  14
ENDBRANCH   9  10
ENDBRANCH   1   9
TORSDOF 10
ENDMDL
MODEL 2
REMARK VINA RESULT:    -5.395      1.610      2.545
REMARK INTER + INTRA:          -9.849
REMARK INTER:                  -7.959
REMARK INTRA:                  -1.890
REMARK UNBOUND:                -1.458
REMARK SMILES COc1cc(CNC(=O)CCCCC=CC(C)C)ccc1O
REMARK SMILES IDX 11 1 12 2 13 3 14 4 15 5 16 6 17 7 18 8 10 9 8 10 9 11 7 12
REMARK SMILES IDX 6 14 5 15 4 16 19 17 3 18 20 19 21 20 2 21 1 22 22 23
REMARK H PARENT 7 13 22 24
REMARK Flexibility Score: inf
ROOT
ATOM      1  C   UNL     1       0.429   8.105  12.797  1.00  0.00     0.010 C 
ENDROOT
BRANCH   1   2
ATOM      2  C   UNL     1       0.775   7.126  11.660  1.00  0.00     0.005 C 
BRANCH   2   3
ATOM      3  C   UNL     1      -0.082   7.348  10.405  1.00  0.00     0.027 C 
BRANCH   3   4
ATOM      4  C   UNL     1      -1.225   6.371  10.349  1.00  0.00    -0.031 C 
ATOM      5  C   UNL     1      -2.135   6.296  11.331  1.00  0.00    -0.028 C 
BRANCH   5   6
ATOM      6  C   UNL     1      -3.281   5.313  11.267  1.00  0.00     0.005 C 
ATOM      7  C   UNL     1      -2.890   4.091  10.428  1.00  0.00     0.012 C 
ATOM      8  C   UNL     1      -3.700   4.882  12.676  1.00  0.00     0.012 C 
ENDBRANCH   5   6
ENDBRANCH   3   4
ENDBRANCH   2   3
ENDBRANCH   1   2
BRANCH   1   9
ATOM      9  C   UNL     1       1.237   7.885  14.087  1.00  0.00     0.100 C 
BRANCH   9  10
ATOM     10  C   UNL     1       0.987   6.530  14.681  1.00  0.00     0.220 C 
ATOM     11  O   UNL     1       1.942   5.900  15.211  1.00  0.00    -0.275 OA
ATOM     12  N   UNL     1      -0.335   5.972  14.678  1.00  0.00    -0.352 N 
ATOM     13  H   UNL     1      -1.120   6.523  14.263  1.00  0.00     0.163 HD
BRANCH  12  14
ATOM     14  C   UNL     1      -0.638   4.668  15.262  1.00  0.00     0.151 C 
BRANCH  14  15
ATOM     15  C   UNL     1      -0.654   3.607  14.194  1.00  0.00    -0.025 A 
ATOM     16  C   UNL     1      -1.403   2.436  14.383  1.00  0.00     0.056 A 
ATOM     17  C   UNL     1       0.056   3.788  12.999  1.00  0.00     0.009 A 
ATOM     18  C   UNL     1      -1.444   1.441  13.384  1.00  0.00     0.160 A 
ATOM     19  C   UNL     1       0.022   2.806  12.007  1.00  0.00     0.050 A 
ATOM     20  C   UNL     1      -0.722   1.636  12.192  1.00  0.00     0.157 A 
BRANCH  18  21
ATOM     21  O   UNL     1      -2.184   0.259  13.543  1.00  0.00    -0.493 OA
ATOM     22  C   UNL     1      -1.686  -0.932  14.145  1.00  0.00     0.278 C 
ENDBRANCH  18  21
BRANCH  20  23
ATOM     23  O   UNL     1      -0.733   0.678  11.178  1.00  0.00    -0.504 OA
ATOM     24  H   UNL     1      -1.370  -0.109  11.186  1.00  0.00     0.293 HD
ENDBRANCH  20  23
ENDBRANCH  14  15
ENDBRANCH  12  14
ENDBRANCH   9  10
ENDBRANCH   1   9
TORSDOF 10
ENDMDL
MODEL 3
REMARK VINA RESULT:    -5.375      4.033      6.185
REMARK INTER + INTRA:          -9.819
REMARK INTER:                  -9.033
REMARK INTRA:                  -0.785
REMARK UNBOUND:                -1.458
REMARK SMILES COc1cc(CNC(=O)CCCCC=CC(C)C)ccc1O
REMARK SMILES IDX 11 1 12 2 13 3 14 4 15 5 16 6 17 7 18 8 10 9 8 10 9 11 7 12
REMARK SMILES IDX 6 14 5 15 4 16 19 17 3 18 20 19 21 20 2 21 1 22 22 23
REMARK H PARENT 7 13 22 24
REMARK Flexibility Score: inf
ROOT
ATOM      1  C   UNL     1      -7.892   5.674   9.182  1.00  0.00     0.010 C 
ENDROOT
BRANCH   1   2
ATOM      2  C   UNL     1      -9.164   5.015   8.617  1.00  0.00     0.005 C 
BRANCH   2   3
ATOM      3  C   UNL     1     -10.324   5.003   9.625  1.00  0.00     0.027 C 
BRANCH   3   4
ATOM      4  C   UNL     1     -10.756   3.596   9.936  1.00  0.00    -0.031 C 
ATOM      5  C   UNL     1      -9.947   2.548   9.720  1.00  0.00    -0.028 C 
BRANCH   5   6
ATOM      6  C   UNL     1     -10.388   1.137  10.037  1.00  0.00     0.005 C 
ATOM      7  C   UNL     1     -10.011   0.190   8.892  1.00  0.00     0.012 C 
ATOM      8  C   UNL     1      -9.765   0.660  11.352  1.00  0.00     0.012 C 
ENDBRANCH   5   6
ENDBRANCH   3   4
ENDBRANCH   2   3
ENDBRANCH   1   2
BRANCH   1   9
ATOM      9  C   UNL     1      -6.983   4.717   9.973  1.00  0.00     0.100 C 
BRANCH   9  10
ATOM     10  C   UNL     1      -5.776   5.418  10.524  1.00  0.00     0.220 C 
ATOM     11  O   UNL     1      -5.242   6.347   9.859  1.00  0.00    -0.275 OA
ATOM     12  N   UNL     1      -5.256   5.058  11.812  1.00  0.00    -0.352 N 
ATOM     13  H   UNL     1      -5.732   4.308  12.362  1.00  0.00     0.163 HD
BRANCH  12  14
ATOM     14  C   UNL     1      -4.098   5.723  12.404  1.00  0.00     0.151 C 
BRANCH  14  15
ATOM     15  C   UNL     1      -2.857   4.899  12.192  1.00  0.00    -0.025 A 
ATOM     16  C   UNL     1      -2.464   3.964  13.162  1.00  0.00     0.056 A 
ATOM     17  C   UNL     1      -2.099   5.040  11.022  1.00  0.00     0.009 A 
ATOM     18  C   UNL     1      -1.314   3.171  12.970  1.00  0.00     0.160 A 
ATOM     19  C   UNL     1      -0.957   4.259  10.825  1.00  0.00     0.050 A 
ATOM     20  C   UNL     1      -0.562   3.328  11.791  1.00  0.00     0.157 A 
BRANCH  18  21
ATOM     21  O   UNL     1      -0.895   2.227  13.921  1.00  0.00    -0.493 OA
ATOM     22  C   UNL     1      -1.761   1.319  14.594  1.00  0.00     0.278 C 
ENDBRANCH  18  21
BRANCH  20  23
ATOM     23  O   UNL     1       0.584   2.565  11.560  1.00  0.00    -0.504 OA
ATOM     24  H   UNL     1       1.425   2.962  11.161  1.00  0.00     0.293 HD
ENDBRANCH  20  23
ENDBRANCH  14  15
ENDBRANCH  12  14
ENDBRANCH   9  10
ENDBRANCH   1   9
TORSDOF 10
ENDMDL
MODEL 4
REMARK VINA RESULT:    -5.362      3.579      5.559
REMARK INTER + INTRA:          -9.799
REMARK INTER:                  -9.005
REMARK INTRA:                  -0.793
REMARK UNBOUND:                -1.458
REMARK SMILES COc1cc(CNC(=O)CCCCC=CC(C)C)ccc1O
REMARK SMILES IDX 11 1 12 2 13 3 14 4 15 5 16 6 17 7 18 8 10 9 8 10 9 11 7 12
REMARK SMILES IDX 6 14 5 15 4 16 19 17 3 18 20 19 21 20 2 21 1 22 22 23
REMARK H PARENT 7 13 22 24
REMARK Flexibility Score: inf
ROOT
ATOM      1  C   UNL     1      -6.599   5.703   9.523  1.00  0.00     0.010 C 
ENDROOT
BRANCH   1   2
ATOM      2  C   UNL     1      -7.799   5.138   8.742  1.00  0.00     0.005 C 
BRANCH   2   3
ATOM      3  C   UNL     1      -9.149   5.512   9.374  1.00  0.00     0.027 C 
BRANCH   3   4
ATOM      4  C   UNL     1     -10.025   4.301   9.538  1.00  0.00    -0.031 C 
ATOM      5  C   UNL     1      -9.519   3.058   9.520  1.00  0.00    -0.028 C 
BRANCH   5   6
ATOM      6  C   UNL     1     -10.405   1.846   9.687  1.00  0.00     0.005 C 
ATOM      7  C   UNL     1     -10.002   0.749   8.696  1.00  0.00     0.012 C 
ATOM      8  C   UNL     1     -10.334   1.320  11.124  1.00  0.00     0.012 C 
ENDBRANCH   5   6
ENDBRANCH   3   4
ENDBRANCH   2   3
ENDBRANCH   1   2
BRANCH   1   9
ATOM      9  C   UNL     1      -6.302   4.970  10.841  1.00  0.00     0.100 C 
BRANCH   9  10
ATOM     10  C   UNL     1      -4.870   5.131  11.262  1.00  0.00     0.220 C 
ATOM     11  O   UNL     1      -4.608   5.552  12.421  1.00  0.00    -0.275 OA
ATOM     12  N   UNL     1      -3.809   4.774  10.364  1.00  0.00    -0.352 N 
ATOM     13  H   UNL     1      -4.046   4.396   9.420  1.00  0.00     0.163 HD
BRANCH  12  14
ATOM     14  C   UNL     1      -2.400   4.889  10.731  1.00  0.00     0.151 C 
BRANCH  14  15
ATOM     15  C   UNL     1      -1.911   3.604  11.345  1.00  0.00    -0.025 A 
ATOM     16  C   UNL     1      -1.678   3.534  12.726  1.00  0.00     0.056 A 
ATOM     17  C   UNL     1      -1.709   2.467  10.551  1.00  0.00     0.009 A 
ATOM     18  C   UNL     1      -1.239   2.332  13.319  1.00  0.00     0.160 A 
ATOM     19  C   UNL     1      -1.271   1.274  11.131  1.00  0.00     0.050 A 
ATOM     20  C   UNL     1      -1.036   1.201  12.508  1.00  0.00     0.157 A 
BRANCH  18  21
ATOM     21  O   UNL     1      -0.996   2.230  14.698  1.00  0.00    -0.493 OA
ATOM     22  C   UNL     1      -1.249   3.266  15.642  1.00  0.00     0.278 C 
ENDBRANCH  18  21
BRANCH  20  23
ATOM     23  O   UNL     1      -0.600  -0.008  13.052  1.00  0.00    -0.504 OA
ATOM     24  H   UNL     1      -0.263  -0.081  14.003  1.00  0.00     0.293 HD
ENDBRANCH  20  23
ENDBRANCH  14  15
ENDBRANCH  12  14
ENDBRANCH   9  10
ENDBRANCH   1   9
TORSDOF 10
ENDMDL
MODEL 5
REMARK VINA RESULT:    -5.326      3.709      6.949
REMARK INTER + INTRA:          -9.743
REMARK INTER:                  -9.019
REMARK INTRA:                  -0.724
REMARK UNBOUND:                -1.458
REMARK SMILES COc1cc(CNC(=O)CCCCC=CC(C)C)ccc1O
REMARK SMILES IDX 11 1 12 2 13 3 14 4 15 5 16 6 17 7 18 8 10 9 8 10 9 11 7 12
REMARK SMILES IDX 6 14 5 15 4 16 19 17 3 18 20 19 21 20 2 21 1 22 22 23
REMARK H PARENT 7 13 22 24
REMARK Flexibility Score: inf
ROOT
ATOM      1  C   UNL     1       3.442   6.258  14.162  1.00  0.00     0.010 C 
ENDROOT
BRANCH   1   2
ATOM      2  C   UNL     1       4.900   6.042  14.605  1.00  0.00     0.005 C 
BRANCH   2   3
ATOM      3  C   UNL     1       5.035   5.821  16.119  1.00  0.00     0.027 C 
BRANCH   3   4
ATOM      4  C   UNL     1       5.528   4.433  16.423  1.00  0.00    -0.031 C 
ATOM      5  C   UNL     1       5.925   4.081  17.655  1.00  0.00    -0.028 C 
BRANCH   5   6
ATOM      6  C   UNL     1       6.418   2.684  17.953  1.00  0.00     0.005 C 
ATOM      7  C   UNL     1       5.590   1.650  17.183  1.00  0.00     0.012 C 
ATOM      8  C   UNL     1       7.903   2.550  17.599  1.00  0.00     0.012 C 
ENDBRANCH   5   6
ENDBRANCH   3   4
ENDBRANCH   2   3
ENDBRANCH   1   2
BRANCH   1   9
ATOM      9  C   UNL     1       2.458   6.490  15.320  1.00  0.00     0.100 C 
BRANCH   9  10
ATOM     10  C   UNL     1       1.038   6.228  14.911  1.00  0.00     0.220 C 
ATOM     11  O   UNL     1       0.443   7.059  14.173  1.00  0.00    -0.275 OA
ATOM     12  N   UNL     1       0.376   5.025  15.326  1.00  0.00    -0.352 N 
ATOM     13  H   UNL     1       0.896   4.333  15.911  1.00  0.00     0.163 HD
BRANCH  12  14
ATOM     14  C   UNL     1      -0.997   4.710  14.938  1.00  0.00     0.151 C 
BRANCH  14  15
ATOM     15  C   UNL     1      -1.006   3.781  13.753  1.00  0.00    -0.025 A 
ATOM     16  C   UNL     1      -1.110   2.396  13.951  1.00  0.00     0.056 A 
ATOM     17  C   UNL     1      -0.933   4.289  12.449  1.00  0.00     0.009 A 
ATOM     18  C   UNL     1      -1.139   1.514  12.851  1.00  0.00     0.160 A 
ATOM     19  C   UNL     1      -0.959   3.421  11.355  1.00  0.00     0.050 A 
ATOM     20  C   UNL     1      -1.061   2.040  11.549  1.00  0.00     0.157 A 
BRANCH  18  21
ATOM     21  O   UNL     1      -1.243   0.124  13.017  1.00  0.00    -0.493 OA
ATOM     22  C   UNL     1      -1.900  -0.513  14.108  1.00  0.00     0.278 C 
ENDBRANCH  18  21
BRANCH  20  23
ATOM     23  O   UNL     1      -1.085   1.204  10.432  1.00  0.00    -0.504 OA
ATOM     24  H   UNL     1      -1.097   0.195  10.513  1.00  0.00     0.293 HD
ENDBRANCH  20  23
ENDBRANCH  14  15
ENDBRANCH  12  14
ENDBRANCH   9  10
ENDBRANCH   1   9
TORSDOF 10
ENDMDL
MODEL 6
REMARK VINA RESULT:    -5.315      2.086      5.306
REMARK INTER + INTRA:          -9.726
REMARK INTER:                  -7.768
REMARK INTRA:                  -1.958
REMARK UNBOUND:                -1.458
REMARK SMILES COc1cc(CNC(=O)CCCCC=CC(C)C)ccc1O
REMARK SMILES IDX 11 1 12 2 13 3 14 4 15 5 16 6 17 7 18 8 10 9 8 10 9 11 7 12
REMARK SMILES IDX 6 14 5 15 4 16 19 17 3 18 20 19 21 20 2 21 1 22 22 23
REMARK H PARENT 7 13 22 24
REMARK Flexibility Score: inf
ROOT
ATOM      1  C   UNL     1      -1.006   0.811  12.964  1.00  0.00     0.010 C 
ENDROOT
BRANCH   1   2
ATOM      2  C   UNL     1      -1.051   1.463  11.570  1.00  0.00     0.005 C 
BRANCH   2   3
ATOM      3  C   UNL     1      -0.171   2.719  11.473  1.00  0.00     0.027 C 
BRANCH   3   4
ATOM      4  C   UNL     1      -0.918   3.856  10.833  1.00  0.00    -0.031 C 
ATOM      5  C   UNL     1      -2.183   4.146  11.173  1.00  0.00    -0.028 C 
BRANCH   5   6
ATOM      6  C   UNL     1      -2.927   5.292  10.527  1.00  0.00     0.005 C 
ATOM      7  C   UNL     1      -3.816   6.000  11.555  1.00  0.00     0.012 C 
ATOM      8  C   UNL     1      -1.946   6.284   9.895  1.00  0.00     0.012 C 
ENDBRANCH   5   6
ENDBRANCH   3   4
ENDBRANCH   2   3
ENDBRANCH   1   2
BRANCH   1   9
ATOM      9  C   UNL     1      -1.920   1.479  14.004  1.00  0.00     0.100 C 
BRANCH   9  10
ATOM     10  C   UNL     1      -1.201   2.540  14.785  1.00  0.00     0.220 C 
ATOM     11  O   UNL     1      -0.165   2.234  15.436  1.00  0.00    -0.275 OA
ATOM     12  N   UNL     1      -1.667   3.896  14.762  1.00  0.00    -0.352 N 
ATOM     13  H   UNL     1      -2.508   4.136  14.191  1.00  0.00     0.163 HD
BRANCH  12  14
ATOM     14  C   UNL     1      -0.991   4.971  15.485  1.00  0.00     0.151 C 
BRANCH  14  15
ATOM     15  C   UNL     1      -0.078   5.731  14.560  1.00  0.00    -0.025 A 
ATOM     16  C   UNL     1       1.313   5.634  14.715  1.00  0.00     0.056 A 
ATOM     17  C   UNL     1      -0.605   6.518  13.528  1.00  0.00     0.009 A 
ATOM     18  C   UNL     1       2.182   6.325  13.846  1.00  0.00     0.160 A 
ATOM     19  C   UNL     1       0.249   7.207  12.664  1.00  0.00     0.050 A 
ATOM     20  C   UNL     1       1.637   7.115  12.817  1.00  0.00     0.157 A 
BRANCH  18  21
ATOM     21  O   UNL     1       3.577   6.249  13.975  1.00  0.00    -0.493 OA
ATOM     22  C   UNL     1       4.256   5.684  15.093  1.00  0.00     0.278 C 
ENDBRANCH  18  21
BRANCH  20  23
ATOM     23  O   UNL     1       2.459   7.817  11.935  1.00  0.00    -0.504 OA
ATOM     24  H   UNL     1       2.436   7.660  10.935  1.00  0.00     0.293 HD
ENDBRANCH  20  23
ENDBRANCH  14  15
ENDBRANCH  12  14
ENDBRANCH   9  10
ENDBRANCH   1   9
TORSDOF 10
ENDMDL
MODEL 7
REMARK VINA RESULT:    -5.268      2.018      5.969
REMARK INTER + INTRA:          -9.653
REMARK INTER:                  -7.672
REMARK INTRA:                  -1.980
REMARK UNBOUND:                -1.458
REMARK SMILES COc1cc(CNC(=O)CCCCC=CC(C)C)ccc1O
REMARK SMILES IDX 11 1 12 2 13 3 14 4 15 5 16 6 17 7 18 8 10 9 8 10 9 11 7 12
REMARK SMILES IDX 6 14 5 15 4 16 19 17 3 18 20 19 21 20 2 21 1 22 22 23
REMARK H PARENT 7 13 22 24
REMARK Flexibility Score: inf
ROOT
ATOM      1  C   UNL     1      -2.415   1.003  14.524  1.00  0.00     0.010 C 
ENDROOT
BRANCH   1   2
ATOM      2  C   UNL     1      -2.570   2.505  14.825  1.00  0.00     0.005 C 
BRANCH   2   3
ATOM      3  C   UNL     1      -1.362   3.089  15.574  1.00  0.00     0.027 C 
BRANCH   3   4
ATOM      4  C   UNL     1      -1.076   4.496  15.126  1.00  0.00    -0.031 C 
ATOM      5  C   UNL     1       0.145   4.868  14.712  1.00  0.00    -0.028 C 
BRANCH   5   6
ATOM      6  C   UNL     1       0.425   6.283  14.262  1.00  0.00     0.005 C 
ATOM      7  C   UNL     1       1.446   6.289  13.119  1.00  0.00     0.012 C 
ATOM      8  C   UNL     1      -0.870   6.976  13.825  1.00  0.00     0.012 C 
ENDBRANCH   5   6
ENDBRANCH   3   4
ENDBRANCH   2   3
ENDBRANCH   1   2
BRANCH   1   9
ATOM      9  C   UNL     1      -1.069   0.623  13.885  1.00  0.00     0.100 C 
BRANCH   9  10
ATOM     10  C   UNL     1      -0.931   1.177  12.497  1.00  0.00     0.220 C 
ATOM     11  O   UNL     1      -1.354   0.506  11.517  1.00  0.00    -0.275 OA
ATOM     12  N   UNL     1      -0.356   2.476  12.291  1.00  0.00    -0.352 N 
ATOM     13  H   UNL     1      -0.041   3.030  13.118  1.00  0.00     0.163 HD
BRANCH  12  14
ATOM     14  C   UNL     1      -0.219   3.071  10.965  1.00  0.00     0.151 C 
BRANCH  14  15
ATOM     15  C   UNL     1      -1.088   4.295  10.848  1.00  0.00    -0.025 A 
ATOM     16  C   UNL     1      -2.367   4.303  11.426  1.00  0.00     0.056 A 
ATOM     17  C   UNL     1      -0.623   5.439  10.185  1.00  0.00     0.009 A 
ATOM     18  C   UNL     1      -3.186   5.448  11.342  1.00  0.00     0.160 A 
ATOM     19  C   UNL     1      -1.429   6.576  10.096  1.00  0.00     0.050 A 
ATOM     20  C   UNL     1      -2.705   6.586  10.669  1.00  0.00     0.157 A 
BRANCH  18  21
ATOM     21  O   UNL     1      -4.468   5.487  11.910  1.00  0.00    -0.493 OA
ATOM     22  C   UNL     1      -5.653   5.035  11.262  1.00  0.00     0.278 C 
ENDBRANCH  18  21
BRANCH  20  23
ATOM     23  O   UNL     1      -3.482   7.740  10.561  1.00  0.00    -0.504 OA
ATOM     24  H   UNL     1      -3.365   8.399   9.802  1.00  0.00     0.293 HD
ENDBRANCH  20  23
ENDBRANCH  14  15
ENDBRANCH  12  14
ENDBRANCH   9  10
ENDBRANCH   1   9
TORSDOF 10
ENDMDL
MODEL 8
REMARK VINA RESULT:    -5.113      2.674      6.217
REMARK INTER + INTRA:          -9.411
REMARK INTER:                  -7.873
REMARK INTRA:                  -1.538
REMARK UNBOUND:                -1.458
REMARK SMILES COc1cc(CNC(=O)CCCCC=CC(C)C)ccc1O
REMARK SMILES IDX 11 1 12 2 13 3 14 4 15 5 16 6 17 7 18 8 10 9 8 10 9 11 7 12
REMARK SMILES IDX 6 14 5 15 4 16 19 17 3 18 20 19 21 20 2 21 1 22 22 23
REMARK H PARENT 7 13 22 24
REMARK Flexibility Score: inf
ROOT
ATOM      1  C   UNL     1      -1.846   0.250  13.017  1.00  0.00     0.010 C 
ENDROOT
BRANCH   1   2
ATOM      2  C   UNL     1      -1.429   1.024  14.281  1.00  0.00     0.005 C 
BRANCH   2   3
ATOM      3  C   UNL     1      -2.528   1.973  14.786  1.00  0.00     0.027 C 
BRANCH   3   4
ATOM      4  C   UNL     1      -2.043   3.396  14.816  1.00  0.00    -0.031 C 
ATOM      5  C   UNL     1      -0.750   3.696  15.009  1.00  0.00    -0.028 C 
BRANCH   5   6
ATOM      6  C   UNL     1      -0.270   5.128  15.036  1.00  0.00     0.005 C 
ATOM      7  C   UNL     1       1.165   5.221  14.508  1.00  0.00     0.012 C 
ATOM      8  C   UNL     1      -1.202   6.024  14.212  1.00  0.00     0.012 C 
ENDBRANCH   5   6
ENDBRANCH   3   4
ENDBRANCH   2   3
ENDBRANCH   1   2
BRANCH   1   9
ATOM      9  C   UNL     1      -0.983   0.549  11.780  1.00  0.00     0.100 C 
BRANCH   9  10
ATOM     10  C   UNL     1      -0.783   2.022  11.578  1.00  0.00     0.220 C 
ATOM     11  O   UNL     1       0.312   2.550  11.911  1.00  0.00    -0.275 OA
ATOM     12  N   UNL     1      -1.816   2.816  10.978  1.00  0.00    -0.352 N 
ATOM     13  H   UNL     1      -2.704   2.355  10.679  1.00  0.00     0.163 HD
BRANCH  12  14
ATOM     14  C   UNL     1      -1.665   4.249  10.738  1.00  0.00     0.151 C 
BRANCH  14  15
ATOM     15  C   UNL     1      -2.968   4.961  10.981  1.00  0.00    -0.025 A 
ATOM     16  C   UNL     1      -3.405   5.948  10.084  1.00  0.00     0.056 A 
ATOM     17  C   UNL     1      -3.765   4.632  12.086  1.00  0.00     0.009 A 
ATOM     18  C   UNL     1      -4.632   6.611  10.288  1.00  0.00     0.160 A 
ATOM     19  C   UNL     1      -4.981   5.286  12.296  1.00  0.00     0.050 A 
ATOM     20  C   UNL     1      -5.418   6.271  11.404  1.00  0.00     0.157 A 
BRANCH  18  21
ATOM     21  O   UNL     1      -5.096   7.602   9.408  1.00  0.00    -0.493 OA
ATOM     22  C   UNL     1      -5.953   7.360   8.297  1.00  0.00     0.278 C 
ENDBRANCH  18  21
BRANCH  20  23
ATOM     23  O   UNL     1      -6.639   6.903  11.645  1.00  0.00    -0.504 OA
ATOM     24  H   UNL     1      -7.239   6.639  12.416  1.00  0.00     0.293 HD
ENDBRANCH  20  23
ENDBRANCH  14  15
ENDBRANCH  12  14
ENDBRANCH   9  10
ENDBRANCH   1   9
TORSDOF 10
ENDMDL
MODEL 9
REMARK VINA RESULT:    -5.036      1.925      5.011
REMARK INTER + INTRA:          -9.292
REMARK INTER:                  -7.775
REMARK INTRA:                  -1.517
REMARK UNBOUND:                -1.458
REMARK SMILES COc1cc(CNC(=O)CCCCC=CC(C)C)ccc1O
REMARK SMILES IDX 11 1 12 2 13 3 14 4 15 5 16 6 17 7 18 8 10 9 8 10 9 11 7 12
REMARK SMILES IDX 6 14 5 15 4 16 19 17 3 18 20 19 21 20 2 21 1 22 22 23
REMARK H PARENT 7 13 22 24
REMARK Flexibility Score: inf
ROOT
ATOM      1  C   UNL     1      -1.006   0.985  12.833  1.00  0.00     0.010 C 
ENDROOT
BRANCH   1   2
ATOM      2  C   UNL     1      -0.410   2.084  11.935  1.00  0.00     0.005 C 
BRANCH   2   3
ATOM      3  C   UNL     1      -1.338   2.469  10.772  1.00  0.00     0.027 C 
BRANCH   3   4
ATOM      4  C   UNL     1      -2.125   3.710  11.096  1.00  0.00    -0.031 C 
ATOM      5  C   UNL     1      -3.212   4.057  10.389  1.00  0.00    -0.028 C 
BRANCH   5   6
ATOM      6  C   UNL     1      -3.998   5.304  10.721  1.00  0.00     0.005 C 
ATOM      7  C   UNL     1      -5.346   5.295   9.992  1.00  0.00     0.012 C 
ATOM      8  C   UNL     1      -4.210   5.422  12.234  1.00  0.00     0.012 C 
ENDBRANCH   5   6
ENDBRANCH   3   4
ENDBRANCH   2   3
ENDBRANCH   1   2
BRANCH   1   9
ATOM      9  C   UNL     1      -1.836   1.516  14.014  1.00  0.00     0.100 C 
BRANCH   9  10
ATOM     10  C   UNL     1      -1.124   2.613  14.751  1.00  0.00     0.220 C 
ATOM     11  O   UNL     1      -0.071   2.347  15.391  1.00  0.00    -0.275 OA
ATOM     12  N   UNL     1      -1.619   3.959  14.697  1.00  0.00    -0.352 N 
ATOM     13  H   UNL     1      -2.475   4.165  14.136  1.00  0.00     0.163 HD
BRANCH  12  14
ATOM     14  C   UNL     1      -0.953   5.067  15.377  1.00  0.00     0.151 C 
BRANCH  14  15
ATOM     15  C   UNL     1      -0.044   5.796  14.424  1.00  0.00    -0.025 A 
ATOM     16  C   UNL     1      -0.525   6.199  13.169  1.00  0.00     0.056 A 
ATOM     17  C   UNL     1       1.275   6.098  14.787  1.00  0.00     0.009 A 
ATOM     18  C   UNL     1       0.308   6.899  12.272  1.00  0.00     0.160 A 
ATOM     19  C   UNL     1       2.107   6.789  13.903  1.00  0.00     0.050 A 
ATOM     20  C   UNL     1       1.631   7.190  12.650  1.00  0.00     0.157 A 
BRANCH  18  21
ATOM     21  O   UNL     1      -0.144   7.315  11.010  1.00  0.00    -0.493 OA
ATOM     22  C   UNL     1      -0.181   6.488   9.851  1.00  0.00     0.278 C 
ENDBRANCH  18  21
BRANCH  20  23
ATOM     23  O   UNL     1       2.490   7.879  11.794  1.00  0.00    -0.504 OA
ATOM     24  H   UNL     1       2.148   8.497  11.069  1.00  0.00     0.293 HD
ENDBRANCH  20  23
ENDBRANCH  14  15
ENDBRANCH  12  14
ENDBRANCH   9  10
ENDBRANCH   1   9
TORSDOF 10
ENDMDL
