MODEL 1
REMARK VINA RESULT:    -3.450      0.000      0.000
REMARK INTER + INTRA:          -7.797
REMARK INTER:                  -6.274
REMARK INTRA:                  -1.523
REMARK UNBOUND:                -1.523
REMARK SMILES CCCCCCCCCCCCCCCC(=O)[O-]
REMARK SMILES IDX 9 1 10 2 11 3 12 4 13 5 14 6 15 7 16 8 17 9 18 10 8 11 7 12
REMARK SMILES IDX 6 13 5 14 4 15 3 16 2 17 1 18
REMARK H PARENT
REMARK Flexibility Score: inf
ROOT
ATOM      1  C   UNL     1      10.785  39.746 151.711  1.00  0.00     0.000 C 
ENDROOT
BRANCH   1   2
ATOM      2  C   UNL     1       9.639  40.136 152.658  1.00  0.00     0.000 C 
BRANCH   2   3
ATOM      3  C   UNL     1       8.274  40.202 151.949  1.00  0.00     0.000 C 
BRANCH   3   4
ATOM      4  C   UNL     1       8.310  39.947 150.428  1.00  0.00     0.000 C 
BRANCH   4   5
ATOM      5  C   UNL     1       7.275  38.934 149.905  1.00  0.00     0.000 C 
BRANCH   5   6
ATOM      6  C   UNL     1       7.858  37.752 149.108  1.00  0.00     0.006 C 
BRANCH   6   7
ATOM      7  C   UNL     1       9.154  37.174 149.705  1.00  0.00     0.053 C 
BRANCH   7   8
ATOM      8  C   UNL     1       9.159  35.676 149.720  1.00  0.00     0.041 C 
ATOM      9  O   UNL     1      10.189  35.048 150.079  1.00  0.00    -0.550 OA
ATOM     10  O   UNL     1       8.037  34.971 149.302  1.00  0.00    -0.550 OA
ENDBRANCH   7   8
ENDBRANCH   6   7
ENDBRANCH   5   6
ENDBRANCH   4   5
ENDBRANCH   3   4
ENDBRANCH   2   3
ENDBRANCH   1   2
BRANCH   1  11
ATOM     11  C   UNL     1      12.011  40.667 151.847  1.00  0.00     0.000 C 
BRANCH  11  12
ATOM     12  C   UNL     1      11.983  41.938 150.973  1.00  0.00    -0.000 C 
BRANCH  12  13
ATOM     13  C   UNL     1      12.136  43.267 151.735  1.00  0.00    -0.000 C 
BRANCH  13  14
ATOM     14  C   UNL     1      12.041  43.094 153.260  1.00  0.00    -0.000 C 
BRANCH  14  15
ATOM     15  C   UNL     1      11.018  44.045 153.908  1.00  0.00    -0.000 C 
BRANCH  15  16
ATOM     16  C   UNL     1       9.632  43.427 154.189  1.00  0.00    -0.000 C 
BRANCH  16  17
ATOM     17  C   UNL     1       9.555  42.548 155.449  1.00  0.00    -0.003 C 
ATOM     18  C   UNL     1       9.169  43.336 156.702  1.00  0.00     0.004 C 
ENDBRANCH  16  17
ENDBRANCH  15  16
ENDBRANCH  14  15
ENDBRANCH  13  14
ENDBRANCH  12  13
ENDBRANCH  11  12
ENDBRANCH   1  11
TORSDOF 14
ENDMDL
MODEL 2
REMARK VINA RESULT:    -3.414      4.953      8.039
REMARK INTER + INTRA:          -7.732
REMARK INTER:                  -5.629
REMARK INTRA:                  -2.103
REMARK UNBOUND:                -1.523
REMARK SMILES CCCCCCCCCCCCCCCC(=O)[O-]
REMARK SMILES IDX 9 1 10 2 11 3 12 4 13 5 14 6 15 7 16 8 17 9 18 10 8 11 7 12
REMARK SMILES IDX 6 13 5 14 4 15 3 16 2 17 1 18
REMARK H PARENT
REMARK Flexibility Score: inf
ROOT
ATOM      1  C   UNL     1       8.950  43.171 153.873  1.00  0.00     0.000 C 
ENDROOT
BRANCH   1   2
ATOM      2  C   UNL     1       9.709  42.523 155.043  1.00  0.00     0.000 C 
BRANCH   2   3
ATOM      3  C   UNL     1       9.261  43.057 156.415  1.00  0.00     0.000 C 
BRANCH   3   4
ATOM      4  C   UNL     1       8.187  44.163 156.371  1.00  0.00     0.000 C 
BRANCH   4   5
ATOM      5  C   UNL     1       8.682  45.577 156.731  1.00  0.00     0.000 C 
BRANCH   5   6
ATOM      6  C   UNL     1       8.619  46.606 155.586  1.00  0.00     0.006 C 
BRANCH   6   7
ATOM      7  C   UNL     1       9.985  47.205 155.207  1.00  0.00     0.053 C 
BRANCH   7   8
ATOM      8  C   UNL     1       9.916  48.058 153.978  1.00  0.00     0.041 C 
ATOM      9  O   UNL     1       9.563  47.559 152.878  1.00  0.00    -0.550 OA
ATOM     10  O   UNL     1      10.275  49.399 154.040  1.00  0.00    -0.550 OA
ENDBRANCH   7   8
ENDBRANCH   6   7
ENDBRANCH   5   6
ENDBRANCH   4   5
ENDBRANCH   3   4
ENDBRANCH   2   3
ENDBRANCH   1   2
BRANCH   1  11
ATOM     11  C   UNL     1       9.875  43.949 152.920  1.00  0.00     0.000 C 
BRANCH  11  12
ATOM     12  C   UNL     1      11.300  44.212 153.449  1.00  0.00    -0.000 C 
BRANCH  12  13
ATOM     13  C   UNL     1      12.421  43.429 152.742  1.00  0.00    -0.000 C 
BRANCH  13  14
ATOM     14  C   UNL     1      12.185  43.282 151.230  1.00  0.00    -0.000 C 
BRANCH  14  15
ATOM     15  C   UNL     1      11.989  41.819 150.793  1.00  0.00    -0.000 C 
BRANCH  15  16
ATOM     16  C   UNL     1      11.912  40.794 151.943  1.00  0.00    -0.000 C 
BRANCH  16  17
ATOM     17  C   UNL     1      10.517  40.195 152.190  1.00  0.00    -0.003 C 
ATOM     18  C   UNL     1      10.022  39.339 151.024  1.00  0.00     0.004 C 
ENDBRANCH  16  17
ENDBRANCH  15  16
ENDBRANCH  14  15
ENDBRANCH  13  14
ENDBRANCH  12  13
ENDBRANCH  11  12
ENDBRANCH   1  11
TORSDOF 14
ENDMDL
MODEL 3
REMARK VINA RESULT:    -3.377      1.443      3.014
REMARK INTER + INTRA:          -7.664
REMARK INTER:                  -5.763
REMARK INTRA:                  -1.901
REMARK UNBOUND:                -1.523
REMARK SMILES CCCCCCCCCCCCCCCC(=O)[O-]
REMARK SMILES IDX 9 1 10 2 11 3 12 4 13 5 14 6 15 7 16 8 17 9 18 10 8 11 7 12
REMARK SMILES IDX 6 13 5 14 4 15 3 16 2 17 1 18
REMARK H PARENT
REMARK Flexibility Score: inf
ROOT
ATOM      1  C   UNL     1      12.434  42.799 150.655  1.00  0.00     0.000 C 
ENDROOT
BRANCH   1   2
ATOM      2  C   UNL     1      11.485  41.609 150.438  1.00  0.00     0.000 C 
BRANCH   2   3
ATOM      3  C   UNL     1      11.999  40.310 151.082  1.00  0.00     0.000 C 
BRANCH   3   4
ATOM      4  C   UNL     1      10.952  39.185 151.221  1.00  0.00     0.000 C 
BRANCH   4   5
ATOM      5  C   UNL     1      10.319  38.708 149.901  1.00  0.00     0.000 C 
BRANCH   5   6
ATOM      6  C   UNL     1       9.530  37.388 149.990  1.00  0.00     0.006 C 
BRANCH   6   7
ATOM      7  C   UNL     1       8.175  37.418 149.260  1.00  0.00     0.053 C 
BRANCH   7   8
ATOM      8  C   UNL     1       7.714  36.053 148.852  1.00  0.00     0.041 C 
ATOM      9  O   UNL     1       7.799  35.087 149.655  1.00  0.00    -0.550 OA
ATOM     10  O   UNL     1       7.222  35.838 147.570  1.00  0.00    -0.550 OA
ENDBRANCH   7   8
ENDBRANCH   6   7
ENDBRANCH   5   6
ENDBRANCH   4   5
ENDBRANCH   3   4
ENDBRANCH   2   3
ENDBRANCH   1   2
BRANCH   1  11
ATOM     11  C   UNL     1      11.937  43.768 151.744  1.00  0.00     0.000 C 
BRANCH  11  12
ATOM     12  C   UNL     1      12.764  43.781 153.046  1.00  0.00    -0.000 C 
BRANCH  12  13
ATOM     13  C   UNL     1      12.338  42.753 154.109  1.00  0.00    -0.000 C 
BRANCH  13  14
ATOM     14  C   UNL     1      10.831  42.796 154.411  1.00  0.00    -0.000 C 
BRANCH  14  15
ATOM     15  C   UNL     1      10.093  41.523 153.960  1.00  0.00    -0.000 C 
BRANCH  15  16
ATOM     16  C   UNL     1       8.742  41.760 153.254  1.00  0.00    -0.000 C 
BRANCH  16  17
ATOM     17  C   UNL     1       7.895  40.496 153.026  1.00  0.00    -0.003 C 
ATOM     18  C   UNL     1       7.433  40.342 151.577  1.00  0.00     0.004 C 
ENDBRANCH  16  17
ENDBRANCH  15  16
ENDBRANCH  14  15
ENDBRANCH  13  14
ENDBRANCH  12  13
ENDBRANCH  11  12
ENDBRANCH   1  11
TORSDOF 14
ENDMDL
MODEL 4
REMARK VINA RESULT:    -3.328      3.699      4.941
REMARK INTER + INTRA:          -7.575
REMARK INTER:                  -4.930
REMARK INTRA:                  -2.645
REMARK UNBOUND:                -1.523
REMARK SMILES CCCCCCCCCCCCCCCC(=O)[O-]
REMARK SMILES IDX 9 1 10 2 11 3 12 4 13 5 14 6 15 7 16 8 17 9 18 10 8 11 7 12
REMARK SMILES IDX 6 13 5 14 4 15 3 16 2 17 1 18
REMARK H PARENT
REMARK Flexibility Score: inf
ROOT
ATOM      1  C   UNL     1      12.017  40.583 151.504  1.00  0.00     0.000 C 
ENDROOT
BRANCH   1   2
ATOM      2  C   UNL     1      11.081  39.723 150.640  1.00  0.00     0.000 C 
BRANCH   2   3
ATOM      3  C   UNL     1       9.725  39.451 151.317  1.00  0.00     0.000 C 
BRANCH   3   4
ATOM      4  C   UNL     1       9.506  40.173 152.662  1.00  0.00     0.000 C 
BRANCH   4   5
ATOM      5  C   UNL     1       8.400  41.246 152.661  1.00  0.00     0.000 C 
BRANCH   5   6
ATOM      6  C   UNL     1       8.479  42.268 151.511  1.00  0.00     0.006 C 
BRANCH   6   7
ATOM      7  C   UNL     1       8.226  43.722 151.949  1.00  0.00     0.053 C 
BRANCH   7   8
ATOM      8  C   UNL     1       9.106  44.698 151.230  1.00  0.00     0.041 C 
ATOM      9  O   UNL     1       9.284  44.597 149.988  1.00  0.00    -0.550 OA
ATOM     10  O   UNL     1       9.760  45.700 151.938  1.00  0.00    -0.550 OA
ENDBRANCH   7   8
ENDBRANCH   6   7
ENDBRANCH   5   6
ENDBRANCH   4   5
ENDBRANCH   3   4
ENDBRANCH   2   3
ENDBRANCH   1   2
BRANCH   1  11
ATOM     11  C   UNL     1      12.126  42.035 151.002  1.00  0.00     0.000 C 
BRANCH  11  12
ATOM     12  C   UNL     1      12.227  43.110 152.105  1.00  0.00    -0.000 C 
BRANCH  12  13
ATOM     13  C   UNL     1      12.163  42.582 153.549  1.00  0.00    -0.000 C 
BRANCH  13  14
ATOM     14  C   UNL     1      11.026  43.218 154.367  1.00  0.00    -0.000 C 
BRANCH  14  15
ATOM     15  C   UNL     1      10.577  42.341 155.549  1.00  0.00    -0.000 C 
BRANCH  15  16
ATOM     16  C   UNL     1       9.444  42.932 156.413  1.00  0.00    -0.000 C 
BRANCH  16  17
ATOM     17  C   UNL     1       8.456  43.840 155.660  1.00  0.00    -0.003 C 
ATOM     18  C   UNL     1       7.066  43.219 155.518  1.00  0.00     0.004 C 
ENDBRANCH  16  17
ENDBRANCH  15  16
ENDBRANCH  14  15
ENDBRANCH  13  14
ENDBRANCH  12  13
ENDBRANCH  11  12
ENDBRANCH   1  11
TORSDOF 14
ENDMDL
MODEL 5
REMARK VINA RESULT:    -3.318      4.641      7.026
REMARK INTER + INTRA:          -7.556
REMARK INTER:                  -5.451
REMARK INTRA:                  -2.105
REMARK UNBOUND:                -1.523
REMARK SMILES CCCCCCCCCCCCCCCC(=O)[O-]
REMARK SMILES IDX 9 1 10 2 11 3 12 4 13 5 14 6 15 7 16 8 17 9 18 10 8 11 7 12
REMARK SMILES IDX 6 13 5 14 4 15 3 16 2 17 1 18
REMARK H PARENT
REMARK Flexibility Score: inf
ROOT
ATOM      1  C   UNL     1      11.420  43.924 151.833  1.00  0.00     0.000 C 
ENDROOT
BRANCH   1   2
ATOM      2  C   UNL     1      12.616  43.588 152.740  1.00  0.00     0.000 C 
BRANCH   2   3
ATOM      3  C   UNL     1      12.188  43.031 154.110  1.00  0.00     0.000 C 
BRANCH   3   4
ATOM      4  C   UNL     1      10.697  43.219 154.460  1.00  0.00     0.000 C 
BRANCH   4   5
ATOM      5  C   UNL     1      10.154  42.280 155.553  1.00  0.00     0.000 C 
BRANCH   5   6
ATOM      6  C   UNL     1       9.379  42.974 156.690  1.00  0.00     0.006 C 
BRANCH   6   7
ATOM      7  C   UNL     1       7.976  43.461 156.283  1.00  0.00     0.053 C 
BRANCH   7   8
ATOM      8  C   UNL     1       7.875  44.955 156.252  1.00  0.00     0.041 C 
ATOM      9  O   UNL     1       8.833  45.665 156.658  1.00  0.00    -0.550 OA
ATOM     10  O   UNL     1       6.709  45.566 155.808  1.00  0.00    -0.550 OA
ENDBRANCH   7   8
ENDBRANCH   6   7
ENDBRANCH   5   6
ENDBRANCH   4   5
ENDBRANCH   3   4
ENDBRANCH   2   3
ENDBRANCH   1   2
BRANCH   1  11
ATOM     11  C   UNL     1      11.670  43.560 150.358  1.00  0.00     0.000 C 
BRANCH  11  12
ATOM     12  C   UNL     1      12.445  42.247 150.122  1.00  0.00    -0.000 C 
BRANCH  12  13
ATOM     13  C   UNL     1      11.751  41.227 149.202  1.00  0.00    -0.000 C 
BRANCH  13  14
ATOM     14  C   UNL     1      11.230  39.996 149.962  1.00  0.00    -0.000 C 
BRANCH  14  15
ATOM     15  C   UNL     1      11.668  39.973 151.437  1.00  0.00    -0.000 C 
BRANCH  15  16
ATOM     16  C   UNL     1      10.533  40.169 152.464  1.00  0.00    -0.000 C 
BRANCH  16  17
ATOM     17  C   UNL     1       9.216  40.710 151.883  1.00  0.00    -0.003 C 
ATOM     18  C   UNL     1       8.021  40.493 152.812  1.00  0.00     0.004 C 
ENDBRANCH  16  17
ENDBRANCH  15  16
ENDBRANCH  14  15
ENDBRANCH  13  14
ENDBRANCH  12  13
ENDBRANCH  11  12
ENDBRANCH   1  11
TORSDOF 14
ENDMDL
MODEL 6
REMARK VINA RESULT:    -3.308      1.641      3.162
REMARK INTER + INTRA:          -7.539
REMARK INTER:                  -5.333
REMARK INTRA:                  -2.205
REMARK UNBOUND:                -1.523
REMARK SMILES CCCCCCCCCCCCCCCC(=O)[O-]
REMARK SMILES IDX 9 1 10 2 11 3 12 4 13 5 14 6 15 7 16 8 17 9 18 10 8 11 7 12
REMARK SMILES IDX 6 13 5 14 4 15 3 16 2 17 1 18
REMARK H PARENT
REMARK Flexibility Score: inf
ROOT
ATOM      1  C   UNL     1       8.751  41.939 153.986  1.00  0.00     0.000 C 
ENDROOT
BRANCH   1   2
ATOM      2  C   UNL     1       8.563  40.555 153.343  1.00  0.00     0.000 C 
BRANCH   2   3
ATOM      3  C   UNL     1       9.216  40.447 151.954  1.00  0.00     0.000 C 
BRANCH   3   4
ATOM      4  C   UNL     1      10.634  39.840 151.939  1.00  0.00     0.000 C 
BRANCH   4   5
ATOM      5  C   UNL     1      11.369  39.916 150.588  1.00  0.00     0.000 C 
BRANCH   5   6
ATOM      6  C   UNL     1      10.833  38.971 149.495  1.00  0.00     0.006 C 
BRANCH   6   7
ATOM      7  C   UNL     1      10.442  37.575 150.012  1.00  0.00     0.053 C 
BRANCH   7   8
ATOM      8  C   UNL     1       9.025  37.219 149.682  1.00  0.00     0.041 C 
ATOM      9  O   UNL     1       8.661  36.013 149.665  1.00  0.00    -0.550 OA
ATOM     10  O   UNL     1       8.114  38.215 149.356  1.00  0.00    -0.550 OA
ENDBRANCH   7   8
ENDBRANCH   6   7
ENDBRANCH   5   6
ENDBRANCH   4   5
ENDBRANCH   3   4
ENDBRANCH   2   3
ENDBRANCH   1   2
BRANCH   1  11
ATOM     11  C   UNL     1      10.030  42.033 154.838  1.00  0.00     0.000 C 
BRANCH  11  12
ATOM     12  C   UNL     1      10.972  43.204 154.490  1.00  0.00    -0.000 C 
BRANCH  12  13
ATOM     13  C   UNL     1      12.317  42.805 153.857  1.00  0.00    -0.000 C 
BRANCH  13  14
ATOM     14  C   UNL     1      12.722  43.719 152.689  1.00  0.00    -0.000 C 
BRANCH  14  15
ATOM     15  C   UNL     1      12.216  43.209 151.327  1.00  0.00    -0.000 C 
BRANCH  15  16
ATOM     16  C   UNL     1      11.213  44.135 150.610  1.00  0.00    -0.000 C 
BRANCH  16  17
ATOM     17  C   UNL     1       9.735  43.896 150.965  1.00  0.00    -0.003 C 
ATOM     18  C   UNL     1       9.151  44.993 151.855  1.00  0.00     0.004 C 
ENDBRANCH  16  17
ENDBRANCH  15  16
ENDBRANCH  14  15
ENDBRANCH  13  14
ENDBRANCH  12  13
ENDBRANCH  11  12
ENDBRANCH   1  11
TORSDOF 14
ENDMDL
MODEL 7
REMARK VINA RESULT:    -3.277      4.080      6.657
REMARK INTER + INTRA:          -7.482
REMARK INTER:                  -5.322
REMARK INTRA:                  -2.160
REMARK UNBOUND:                -1.523
REMARK SMILES CCCCCCCCCCCCCCCC(=O)[O-]
REMARK SMILES IDX 9 1 10 2 11 3 12 4 13 5 14 6 15 7 16 8 17 9 18 10 8 11 7 12
REMARK SMILES IDX 6 13 5 14 4 15 3 16 2 17 1 18
REMARK H PARENT
REMARK Flexibility Score: inf
ROOT
ATOM      1  C   UNL     1      11.249  43.273 149.551  1.00  0.00     0.000 C 
ENDROOT
BRANCH   1   2
ATOM      2  C   UNL     1      11.480  44.334 150.640  1.00  0.00     0.000 C 
BRANCH   2   3
ATOM      3  C   UNL     1      11.132  43.828 152.051  1.00  0.00     0.000 C 
BRANCH   3   4
ATOM      4  C   UNL     1      12.338  43.619 152.990  1.00  0.00     0.000 C 
BRANCH   4   5
ATOM      5  C   UNL     1      12.040  42.831 154.280  1.00  0.00     0.000 C 
BRANCH   5   6
ATOM      6  C   UNL     1      10.570  42.410 154.467  1.00  0.00     0.006 C 
BRANCH   6   7
ATOM      7  C   UNL     1      10.098  42.420 155.933  1.00  0.00     0.053 C 
BRANCH   7   8
ATOM      8  C   UNL     1       9.129  43.527 156.214  1.00  0.00     0.041 C 
ATOM      9  O   UNL     1       8.248  43.388 157.103  1.00  0.00    -0.550 OA
ATOM     10  O   UNL     1       9.174  44.699 155.470  1.00  0.00    -0.550 OA
ENDBRANCH   7   8
ENDBRANCH   6   7
ENDBRANCH   5   6
ENDBRANCH   4   5
ENDBRANCH   3   4
ENDBRANCH   2   3
ENDBRANCH   1   2
BRANCH   1  11
ATOM     11  C   UNL     1      12.386  42.236 149.478  1.00  0.00     0.000 C 
BRANCH  11  12
ATOM     12  C   UNL     1      11.981  40.848 148.939  1.00  0.00    -0.000 C 
BRANCH  12  13
ATOM     13  C   UNL     1      12.144  39.682 149.929  1.00  0.00    -0.000 C 
BRANCH  13  14
ATOM     14  C   UNL     1      12.000  40.120 151.396  1.00  0.00    -0.000 C 
BRANCH  14  15
ATOM     15  C   UNL     1      10.581  39.903 151.950  1.00  0.00    -0.000 C 
BRANCH  15  16
ATOM     16  C   UNL     1       9.585  39.248 150.971  1.00  0.00    -0.000 C 
BRANCH  16  17
ATOM     17  C   UNL     1       8.310  40.063 150.697  1.00  0.00    -0.003 C 
ATOM     18  C   UNL     1       8.385  41.489 151.245  1.00  0.00     0.004 C 
ENDBRANCH  16  17
ENDBRANCH  15  16
ENDBRANCH  14  15
ENDBRANCH  13  14
ENDBRANCH  12  13
ENDBRANCH  11  12
ENDBRANCH   1  11
TORSDOF 14
ENDMDL
MODEL 8
REMARK VINA RESULT:    -3.255      1.513      4.035
REMARK INTER + INTRA:          -7.442
REMARK INTER:                  -5.415
REMARK INTRA:                  -2.027
REMARK UNBOUND:                -1.523
REMARK SMILES CCCCCCCCCCCCCCCC(=O)[O-]
REMARK SMILES IDX 9 1 10 2 11 3 12 4 13 5 14 6 15 7 16 8 17 9 18 10 8 11 7 12
REMARK SMILES IDX 6 13 5 14 4 15 3 16 2 17 1 18
REMARK H PARENT
REMARK Flexibility Score: inf
ROOT
ATOM      1  C   UNL     1       6.869  42.816 154.496  1.00  0.00     0.000 C 
ENDROOT
BRANCH   1   2
ATOM      2  C   UNL     1       7.482  43.303 153.173  1.00  0.00     0.000 C 
BRANCH   2   3
ATOM      3  C   UNL     1       8.035  42.153 152.312  1.00  0.00     0.000 C 
BRANCH   3   4
ATOM      4  C   UNL     1       8.367  40.857 153.080  1.00  0.00     0.000 C 
BRANCH   4   5
ATOM      5  C   UNL     1       9.533  40.030 152.506  1.00  0.00     0.000 C 
BRANCH   5   6
ATOM      6  C   UNL     1       9.434  39.713 151.001  1.00  0.00     0.006 C 
BRANCH   6   7
ATOM      7  C   UNL     1      10.424  38.636 150.523  1.00  0.00     0.053 C 
BRANCH   7   8
ATOM      8  C   UNL     1       9.733  37.412 150.006  1.00  0.00     0.041 C 
ATOM      9  O   UNL     1       8.543  37.478 149.601  1.00  0.00    -0.550 OA
ATOM     10  O   UNL     1      10.391  36.188 150.004  1.00  0.00    -0.550 OA
ENDBRANCH   7   8
ENDBRANCH   6   7
ENDBRANCH   5   6
ENDBRANCH   4   5
ENDBRANCH   3   4
ENDBRANCH   2   3
ENDBRANCH   1   2
BRANCH   1  11
ATOM     11  C   UNL     1       7.319  43.654 155.706  1.00  0.00     0.000 C 
BRANCH  11  12
ATOM     12  C   UNL     1       8.835  43.932 155.791  1.00  0.00    -0.000 C 
BRANCH  12  13
ATOM     13  C   UNL     1       9.700  42.742 156.244  1.00  0.00    -0.000 C 
BRANCH  13  14
ATOM     14  C   UNL     1      10.762  42.346 155.204  1.00  0.00    -0.000 C 
BRANCH  14  15
ATOM     15  C   UNL     1      11.035  43.457 154.175  1.00  0.00    -0.000 C 
BRANCH  15  16
ATOM     16  C   UNL     1      12.343  43.303 153.372  1.00  0.00    -0.000 C 
BRANCH  16  17
ATOM     17  C   UNL     1      12.202  43.492 151.852  1.00  0.00    -0.003 C 
ATOM     18  C   UNL     1      12.159  42.168 151.089  1.00  0.00     0.004 C 
ENDBRANCH  16  17
ENDBRANCH  15  16
ENDBRANCH  14  15
ENDBRANCH  13  14
ENDBRANCH  12  13
ENDBRANCH  11  12
ENDBRANCH   1  11
TORSDOF 14
ENDMDL
MODEL 9
REMARK VINA RESULT:    -3.243      3.185      4.186
REMARK INTER + INTRA:          -7.421
REMARK INTER:                  -5.104
REMARK INTRA:                  -2.317
REMARK UNBOUND:                -1.523
REMARK SMILES CCCCCCCCCCCCCCCC(=O)[O-]
REMARK SMILES IDX 9 1 10 2 11 3 12 4 13 5 14 6 15 7 16 8 17 9 18 10 8 11 7 12
REMARK SMILES IDX 6 13 5 14 4 15 3 16 2 17 1 18
REMARK H PARENT
REMARK Flexibility Score: inf
ROOT
ATOM      1  C   UNL     1      10.541  39.694 151.770  1.00  0.00     0.000 C 
ENDROOT
BRANCH   1   2
ATOM      2  C   UNL     1       9.641  40.129 152.939  1.00  0.00     0.000 C 
BRANCH   2   3
ATOM      3  C   UNL     1       8.195  40.424 152.501  1.00  0.00     0.000 C 
BRANCH   3   4
ATOM      4  C   UNL     1       7.893  41.903 152.181  1.00  0.00     0.000 C 
BRANCH   4   5
ATOM      5  C   UNL     1       6.723  42.521 152.969  1.00  0.00     0.000 C 
BRANCH   5   6
ATOM      6  C   UNL     1       6.434  41.870 154.335  1.00  0.00     0.006 C 
BRANCH   6   7
ATOM      7  C   UNL     1       4.984  41.379 154.499  1.00  0.00     0.053 C 
BRANCH   7   8
ATOM      8  C   UNL     1       4.799  39.970 154.026  1.00  0.00     0.041 C 
ATOM      9  O   UNL     1       4.936  39.009 154.828  1.00  0.00    -0.550 OA
ATOM     10  O   UNL     1       4.512  39.715 152.691  1.00  0.00    -0.550 OA
ENDBRANCH   7   8
ENDBRANCH   6   7
ENDBRANCH   5   6
ENDBRANCH   4   5
ENDBRANCH   3   4
ENDBRANCH   2   3
ENDBRANCH   1   2
BRANCH   1  11
ATOM     11  C   UNL     1      11.706  40.669 151.519  1.00  0.00     0.000 C 
BRANCH  11  12
ATOM     12  C   UNL     1      11.387  41.853 150.583  1.00  0.00    -0.000 C 
BRANCH  12  13
ATOM     13  C   UNL     1      11.297  43.229 151.266  1.00  0.00    -0.000 C 
BRANCH  13  14
ATOM     14  C   UNL     1      12.415  43.458 152.297  1.00  0.00    -0.000 C 
BRANCH  14  15
ATOM     15  C   UNL     1      11.886  43.947 153.657  1.00  0.00    -0.000 C 
BRANCH  15  16
ATOM     16  C   UNL     1      11.319  42.846 154.577  1.00  0.00    -0.000 C 
BRANCH  16  17
ATOM     17  C   UNL     1       9.896  43.104 155.102  1.00  0.00    -0.003 C 
ATOM     18  C   UNL     1       9.397  44.517 154.799  1.00  0.00     0.004 C 
ENDBRANCH  16  17
ENDBRANCH  15  16
ENDBRANCH  14  15
ENDBRANCH  13  14
ENDBRANCH  12  13
ENDBRANCH  11  12
ENDBRANCH   1  11
TORSDOF 14
ENDMDL
