MODEL 1
REMARK VINA RESULT:    -1.360      0.000      0.000
REMARK INTER + INTRA:          -2.517
REMARK INTER:                  -3.110
REMARK INTRA:                   0.593
REMARK UNBOUND:                 0.593
REMARK SMILES CCCCCCCCCCCCCCCCCCCCCCCC(=O)[O-]
REMARK SMILES IDX 13 1 14 2 15 3 16 4 17 5 18 6 19 7 20 8 21 9 22 10 23 11
REMARK SMILES IDX 24 12 25 13 26 14 12 15 11 16 10 17 9 18 8 19 7 20 6 21 5 22
REMARK SMILES IDX 4 23 3 24 2 25 1 26
REMARK H PARENT
REMARK Flexibility Score: inf
ROOT
ATOM      1  C   UNL     1      30.446  -7.745 -16.417  1.00  0.00     0.000 C 
ENDROOT
BRANCH   1   2
ATOM      2  C   UNL     1      29.977  -6.434 -15.767  1.00  0.00     0.000 C 
BRANCH   2   3
ATOM      3  C   UNL     1      31.143  -5.508 -15.378  1.00  0.00     0.000 C 
BRANCH   3   4
ATOM      4  C   UNL     1      31.895  -4.864 -16.562  1.00  0.00     0.000 C 
BRANCH   4   5
ATOM      5  C   UNL     1      33.258  -5.500 -16.897  1.00  0.00     0.000 C 
BRANCH   5   6
ATOM      6  C   UNL     1      33.824  -5.129 -18.283  1.00  0.00     0.000 C 
BRANCH   6   7
ATOM      7  C   UNL     1      35.206  -5.731 -18.606  1.00  0.00     0.000 C 
BRANCH   7   8
ATOM      8  C   UNL     1      36.340  -4.706 -18.800  1.00  0.00     0.000 C 
BRANCH   8   9
ATOM      9  C   UNL     1      36.546  -3.801 -17.574  1.00  0.00     0.000 C 
BRANCH   9  10
ATOM     10  C   UNL     1      36.556  -4.585 -16.249  1.00  0.00     0.006 C 
BRANCH  10  11
ATOM     11  C   UNL     1      37.879  -5.306 -15.947  1.00  0.00     0.053 C 
BRANCH  11  12
ATOM     12  C   UNL     1      37.852  -6.741 -16.376  1.00  0.00     0.041 C 
ATOM     13  O   UNL     1      38.915  -7.417 -16.396  1.00  0.00    -0.550 OA
ATOM     14  O   UNL     1      36.655  -7.329 -16.765  1.00  0.00    -0.550 OA
ENDBRANCH  11  12
ENDBRANCH  10  11
ENDBRANCH   9  10
ENDBRANCH   8   9
ENDBRANCH   7   8
ENDBRANCH   6   7
ENDBRANCH   5   6
ENDBRANCH   4   5
ENDBRANCH   3   4
ENDBRANCH   2   3
ENDBRANCH   1   2
BRANCH   1  15
ATOM     15  C   UNL     1      29.634  -8.969 -15.954  1.00  0.00     0.000 C 
BRANCH  15  16
ATOM     16  C   UNL     1      29.475  -9.116 -14.430  1.00  0.00     0.000 C 
BRANCH  16  17
ATOM     17  C   UNL     1      30.129  -8.002 -13.590  1.00  0.00     0.000 C 
BRANCH  17  18
ATOM     18  C   UNL     1      29.277  -7.544 -12.387  1.00  0.00    -0.000 C 
BRANCH  18  19
ATOM     19  C   UNL     1      28.708  -6.126 -12.566  1.00  0.00    -0.000 C 
BRANCH  19  20
ATOM     20  C   UNL     1      29.801  -5.067 -12.789  1.00  0.00    -0.000 C 
BRANCH  20  21
ATOM     21  C   UNL     1      30.831  -4.988 -11.642  1.00  0.00    -0.000 C 
BRANCH  21  22
ATOM     22  C   UNL     1      32.207  -5.539 -12.054  1.00  0.00    -0.000 C 
BRANCH  22  23
ATOM     23  C   UNL     1      32.672  -6.696 -11.144  1.00  0.00    -0.000 C 
BRANCH  23  24
ATOM     24  C   UNL     1      32.988  -6.256  -9.705  1.00  0.00    -0.000 C 
BRANCH  24  25
ATOM     25  C   UNL     1      33.157  -7.440  -8.745  1.00  0.00    -0.003 C 
ATOM     26  C   UNL     1      34.633  -7.758  -8.519  1.00  0.00     0.004 C 
ENDBRANCH  24  25
ENDBRANCH  23  24
ENDBRANCH  22  23
ENDBRANCH  21  22
ENDBRANCH  20  21
ENDBRANCH  19  20
ENDBRANCH  18  19
ENDBRANCH  17  18
ENDBRANCH  16  17
ENDBRANCH  15  16
ENDBRANCH   1  15
TORSDOF 22
ENDMDL
MODEL 2
REMARK VINA RESULT:    -1.117      2.422      7.086
REMARK INTER + INTRA:          -1.960
REMARK INTER:                  -1.660
REMARK INTRA:                  -0.300
REMARK UNBOUND:                 0.593
REMARK SMILES CCCCCCCCCCCCCCCCCCCCCCCC(=O)[O-]
REMARK SMILES IDX 13 1 14 2 15 3 16 4 17 5 18 6 19 7 20 8 21 9 22 10 23 11
REMARK SMILES IDX 24 12 25 13 26 14 12 15 11 16 10 17 9 18 8 19 7 20 6 21 5 22
REMARK SMILES IDX 4 23 3 24 2 25 1 26
REMARK H PARENT
REMARK Flexibility Score: inf
ROOT
ATOM      1  C   UNL     1      29.656  -7.409 -16.198  1.00  0.00     0.000 C 
ENDROOT
BRANCH   1   2
ATOM      2  C   UNL     1      29.436  -8.896 -15.877  1.00  0.00     0.000 C 
BRANCH   2   3
ATOM      3  C   UNL     1      29.608  -9.217 -14.382  1.00  0.00     0.000 C 
BRANCH   3   4
ATOM      4  C   UNL     1      30.186  -8.071 -13.525  1.00  0.00     0.000 C 
BRANCH   4   5
ATOM      5  C   UNL     1      29.168  -7.351 -12.620  1.00  0.00     0.000 C 
BRANCH   5   6
ATOM      6  C   UNL     1      28.787  -5.927 -13.074  1.00  0.00     0.000 C 
BRANCH   6   7
ATOM      7  C   UNL     1      29.830  -4.839 -12.751  1.00  0.00     0.000 C 
BRANCH   7   8
ATOM      8  C   UNL     1      30.792  -5.172 -11.595  1.00  0.00     0.000 C 
BRANCH   8   9
ATOM      9  C   UNL     1      32.161  -5.675 -12.081  1.00  0.00     0.000 C 
BRANCH   9  10
ATOM     10  C   UNL     1      32.743  -6.782 -11.184  1.00  0.00     0.006 C 
BRANCH  10  11
ATOM     11  C   UNL     1      32.971  -6.362  -9.723  1.00  0.00     0.053 C 
BRANCH  11  12
ATOM     12  C   UNL     1      33.813  -7.350  -8.975  1.00  0.00     0.041 C 
ATOM     13  O   UNL     1      33.397  -7.847  -7.895  1.00  0.00    -0.550 OA
ATOM     14  O   UNL     1      35.061  -7.712  -9.465  1.00  0.00    -0.550 OA
ENDBRANCH  11  12
ENDBRANCH  10  11
ENDBRANCH   9  10
ENDBRANCH   8   9
ENDBRANCH   7   8
ENDBRANCH   6   7
ENDBRANCH   5   6
ENDBRANCH   4   5
ENDBRANCH   3   4
ENDBRANCH   2   3
ENDBRANCH   1   2
BRANCH   1  15
ATOM     15  C   UNL     1      31.031  -6.892 -15.735  1.00  0.00     0.000 C 
BRANCH  15  16
ATOM     16  C   UNL     1      31.177  -5.360 -15.687  1.00  0.00     0.000 C 
BRANCH  16  17
ATOM     17  C   UNL     1      32.103  -4.754 -16.759  1.00  0.00     0.000 C 
BRANCH  17  18
ATOM     18  C   UNL     1      33.434  -5.515 -16.939  1.00  0.00    -0.000 C 
BRANCH  18  19
ATOM     19  C   UNL     1      33.957  -5.466 -18.385  1.00  0.00    -0.000 C 
BRANCH  19  20
ATOM     20  C   UNL     1      35.428  -5.898 -18.502  1.00  0.00    -0.000 C 
BRANCH  20  21
ATOM     21  C   UNL     1      36.408  -4.720 -18.692  1.00  0.00    -0.000 C 
BRANCH  21  22
ATOM     22  C   UNL     1      36.631  -3.931 -17.390  1.00  0.00    -0.000 C 
BRANCH  22  23
ATOM     23  C   UNL     1      36.618  -4.842 -16.144  1.00  0.00    -0.000 C 
BRANCH  23  24
ATOM     24  C   UNL     1      37.977  -5.501 -15.851  1.00  0.00    -0.000 C 
BRANCH  24  25
ATOM     25  C   UNL     1      38.305  -6.643 -16.821  1.00  0.00    -0.003 C 
ATOM     26  C   UNL     1      39.159  -7.710 -16.143  1.00  0.00     0.004 C 
ENDBRANCH  24  25
ENDBRANCH  23  24
ENDBRANCH  22  23
ENDBRANCH  21  22
ENDBRANCH  20  21
ENDBRANCH  19  20
ENDBRANCH  18  19
ENDBRANCH  17  18
ENDBRANCH  16  17
ENDBRANCH  15  16
ENDBRANCH   1  15
TORSDOF 22
ENDMDL
MODEL 3
REMARK VINA RESULT:    -1.072      2.432      6.783
REMARK INTER + INTRA:          -1.858
REMARK INTER:                  -1.110
REMARK INTRA:                  -0.747
REMARK UNBOUND:                 0.593
REMARK SMILES CCCCCCCCCCCCCCCCCCCCCCCC(=O)[O-]
REMARK SMILES IDX 13 1 14 2 15 3 16 4 17 5 18 6 19 7 20 8 21 9 22 10 23 11
REMARK SMILES IDX 24 12 25 13 26 14 12 15 11 16 10 17 9 18 8 19 7 20 6 21 5 22
REMARK SMILES IDX 4 23 3 24 2 25 1 26
REMARK H PARENT
REMARK Flexibility Score: inf
ROOT
ATOM      1  C   UNL     1      29.570  -9.193 -14.736  1.00  0.00     0.000 C 
ENDROOT
BRANCH   1   2
ATOM      2  C   UNL     1      30.108  -8.208 -13.685  1.00  0.00     0.000 C 
BRANCH   2   3
ATOM      3  C   UNL     1      29.169  -8.050 -12.477  1.00  0.00     0.000 C 
BRANCH   3   4
ATOM      4  C   UNL     1      28.475  -6.677 -12.358  1.00  0.00     0.000 C 
BRANCH   4   5
ATOM      5  C   UNL     1      28.682  -5.732 -13.557  1.00  0.00     0.000 C 
BRANCH   5   6
ATOM      6  C   UNL     1      29.878  -4.767 -13.424  1.00  0.00     0.000 C 
BRANCH   6   7
ATOM      7  C   UNL     1      30.100  -4.196 -12.009  1.00  0.00     0.000 C 
BRANCH   7   8
ATOM      8  C   UNL     1      31.167  -4.921 -11.167  1.00  0.00     0.000 C 
BRANCH   8   9
ATOM      9  C   UNL     1      32.115  -5.783 -12.017  1.00  0.00     0.000 C 
BRANCH   9  10
ATOM     10  C   UNL     1      32.810  -6.887 -11.200  1.00  0.00     0.006 C 
BRANCH  10  11
ATOM     11  C   UNL     1      32.874  -6.616  -9.689  1.00  0.00     0.053 C 
BRANCH  11  12
ATOM     12  C   UNL     1      33.948  -7.413  -9.015  1.00  0.00     0.041 C 
ATOM     13  O   UNL     1      35.015  -7.683  -9.627  1.00  0.00    -0.550 OA
ATOM     14  O   UNL     1      33.766  -7.867  -7.715  1.00  0.00    -0.550 OA
ENDBRANCH  11  12
ENDBRANCH  10  11
ENDBRANCH   9  10
ENDBRANCH   8   9
ENDBRANCH   7   8
ENDBRANCH   6   7
ENDBRANCH   5   6
ENDBRANCH   4   5
ENDBRANCH   3   4
ENDBRANCH   2   3
ENDBRANCH   1   2
BRANCH   1  15
ATOM     15  C   UNL     1      29.993  -8.829 -16.172  1.00  0.00     0.000 C 
BRANCH  15  16
ATOM     16  C   UNL     1      30.093  -7.321 -16.467  1.00  0.00     0.000 C 
BRANCH  16  17
ATOM     17  C   UNL     1      31.104  -6.547 -15.599  1.00  0.00     0.000 C 
BRANCH  17  18
ATOM     18  C   UNL     1      31.738  -5.332 -16.310  1.00  0.00    -0.000 C 
BRANCH  18  19
ATOM     19  C   UNL     1      33.256  -5.481 -16.505  1.00  0.00    -0.000 C 
BRANCH  19  20
ATOM     20  C   UNL     1      33.742  -4.931 -17.856  1.00  0.00    -0.000 C 
BRANCH  20  21
ATOM     21  C   UNL     1      34.838  -5.792 -18.519  1.00  0.00    -0.000 C 
BRANCH  21  22
ATOM     22  C   UNL     1      36.187  -5.056 -18.601  1.00  0.00    -0.000 C 
BRANCH  22  23
ATOM     23  C   UNL     1      36.461  -4.194 -17.350  1.00  0.00    -0.000 C 
BRANCH  23  24
ATOM     24  C   UNL     1      36.984  -5.001 -16.150  1.00  0.00    -0.000 C 
BRANCH  24  25
ATOM     25  C   UNL     1      37.101  -6.501 -16.448  1.00  0.00    -0.003 C 
ATOM     26  C   UNL     1      38.562  -6.931 -16.536  1.00  0.00     0.004 C 
ENDBRANCH  24  25
ENDBRANCH  23  24
ENDBRANCH  22  23
ENDBRANCH  21  22
ENDBRANCH  20  21
ENDBRANCH  19  20
ENDBRANCH  18  19
ENDBRANCH  17  18
ENDBRANCH  16  17
ENDBRANCH  15  16
ENDBRANCH   1  15
TORSDOF 22
ENDMDL
MODEL 4
REMARK VINA RESULT:    -0.818      1.587      2.121
REMARK INTER + INTRA:          -1.276
REMARK INTER:                  -1.107
REMARK INTRA:                  -0.170
REMARK UNBOUND:                 0.593
REMARK SMILES CCCCCCCCCCCCCCCCCCCCCCCC(=O)[O-]
REMARK SMILES IDX 13 1 14 2 15 3 16 4 17 5 18 6 19 7 20 8 21 9 22 10 23 11
REMARK SMILES IDX 24 12 25 13 26 14 12 15 11 16 10 17 9 18 8 19 7 20 6 21 5 22
REMARK SMILES IDX 4 23 3 24 2 25 1 26
REMARK H PARENT
REMARK Flexibility Score: inf
ROOT
ATOM      1  C   UNL     1      29.640  -9.095 -16.172  1.00  0.00     0.000 C 
ENDROOT
BRANCH   1   2
ATOM      2  C   UNL     1      29.945  -7.673 -16.670  1.00  0.00     0.000 C 
BRANCH   2   3
ATOM      3  C   UNL     1      30.822  -6.872 -15.691  1.00  0.00     0.000 C 
BRANCH   3   4
ATOM      4  C   UNL     1      31.154  -5.432 -16.132  1.00  0.00     0.000 C 
BRANCH   4   5
ATOM      5  C   UNL     1      32.649  -5.061 -16.093  1.00  0.00     0.000 C 
BRANCH   5   6
ATOM      6  C   UNL     1      33.386  -5.192 -17.441  1.00  0.00     0.000 C 
BRANCH   6   7
ATOM      7  C   UNL     1      34.557  -6.196 -17.450  1.00  0.00     0.000 C 
BRANCH   7   8
ATOM      8  C   UNL     1      35.498  -6.119 -16.233  1.00  0.00     0.000 C 
BRANCH   8   9
ATOM      9  C   UNL     1      36.901  -6.675 -16.525  1.00  0.00     0.000 C 
BRANCH   9  10
ATOM     10  C   UNL     1      37.848  -5.621 -17.127  1.00  0.00     0.006 C 
BRANCH  10  11
ATOM     11  C   UNL     1      37.385  -5.047 -18.475  1.00  0.00     0.053 C 
BRANCH  11  12
ATOM     12  C   UNL     1      37.197  -3.562 -18.425  1.00  0.00     0.041 C 
ATOM     13  O   UNL     1      37.923  -2.807 -19.125  1.00  0.00    -0.550 OA
ATOM     14  O   UNL     1      36.228  -3.011 -17.595  1.00  0.00    -0.550 OA
ENDBRANCH  11  12
ENDBRANCH  10  11
ENDBRANCH   9  10
ENDBRANCH   8   9
ENDBRANCH   7   8
ENDBRANCH   6   7
ENDBRANCH   5   6
ENDBRANCH   4   5
ENDBRANCH   3   4
ENDBRANCH   2   3
ENDBRANCH   1   2
BRANCH   1  15
ATOM     15  C   UNL     1      29.689  -9.217 -14.638  1.00  0.00     0.000 C 
BRANCH  15  16
ATOM     16  C   UNL     1      29.891  -7.894 -13.878  1.00  0.00     0.000 C 
BRANCH  16  17
ATOM     17  C   UNL     1      29.190  -7.808 -12.509  1.00  0.00     0.000 C 
BRANCH  17  18
ATOM     18  C   UNL     1      28.417  -6.490 -12.284  1.00  0.00    -0.000 C 
BRANCH  18  19
ATOM     19  C   UNL     1      28.691  -5.445 -13.377  1.00  0.00    -0.000 C 
BRANCH  19  20
ATOM     20  C   UNL     1      29.852  -4.500 -13.023  1.00  0.00    -0.000 C 
BRANCH  20  21
ATOM     21  C   UNL     1      30.707  -4.987 -11.834  1.00  0.00    -0.000 C 
BRANCH  21  22
ATOM     22  C   UNL     1      32.051  -5.583 -12.287  1.00  0.00    -0.000 C 
BRANCH  22  23
ATOM     23  C   UNL     1      32.448  -6.826 -11.461  1.00  0.00    -0.000 C 
BRANCH  23  24
ATOM     24  C   UNL     1      32.713  -6.518  -9.977  1.00  0.00    -0.000 C 
BRANCH  24  25
ATOM     25  C   UNL     1      34.063  -7.061  -9.490  1.00  0.00    -0.003 C 
ATOM     26  C   UNL     1      33.910  -7.801  -8.164  1.00  0.00     0.004 C 
ENDBRANCH  24  25
ENDBRANCH  23  24
ENDBRANCH  22  23
ENDBRANCH  21  22
ENDBRANCH  20  21
ENDBRANCH  19  20
ENDBRANCH  18  19
ENDBRANCH  17  18
ENDBRANCH  16  17
ENDBRANCH  15  16
ENDBRANCH   1  15
TORSDOF 22
ENDMDL
MODEL 5
REMARK VINA RESULT:    -0.546      0.873      1.712
REMARK INTER + INTRA:          -0.656
REMARK INTER:                  -0.128
REMARK INTRA:                  -0.528
REMARK UNBOUND:                 0.593
REMARK SMILES CCCCCCCCCCCCCCCCCCCCCCCC(=O)[O-]
REMARK SMILES IDX 13 1 14 2 15 3 16 4 17 5 18 6 19 7 20 8 21 9 22 10 23 11
REMARK SMILES IDX 24 12 25 13 26 14 12 15 11 16 10 17 9 18 8 19 7 20 6 21 5 22
REMARK SMILES IDX 4 23 3 24 2 25 1 26
REMARK H PARENT
REMARK Flexibility Score: inf
ROOT
ATOM      1  C   UNL     1      29.990  -9.437 -15.658  1.00  0.00     0.000 C 
ENDROOT
BRANCH   1   2
ATOM      2  C   UNL     1      29.181  -8.502 -16.572  1.00  0.00     0.000 C 
BRANCH   2   3
ATOM      3  C   UNL     1      29.498  -7.014 -16.336  1.00  0.00     0.000 C 
BRANCH   3   4
ATOM      4  C   UNL     1      30.902  -6.723 -15.768  1.00  0.00     0.000 C 
BRANCH   4   5
ATOM      5  C   UNL     1      31.312  -5.237 -15.762  1.00  0.00     0.000 C 
BRANCH   5   6
ATOM      6  C   UNL     1      32.445  -4.871 -16.742  1.00  0.00     0.000 C 
BRANCH   6   7
ATOM      7  C   UNL     1      33.599  -5.891 -16.815  1.00  0.00     0.000 C 
BRANCH   7   8
ATOM      8  C   UNL     1      34.487  -5.790 -18.069  1.00  0.00     0.000 C 
BRANCH   8   9
ATOM      9  C   UNL     1      34.954  -4.353 -18.359  1.00  0.00     0.000 C 
BRANCH   9  10
ATOM     10  C   UNL     1      36.376  -4.072 -17.841  1.00  0.00     0.006 C 
BRANCH  10  11
ATOM     11  C   UNL     1      37.318  -5.286 -17.879  1.00  0.00     0.053 C 
BRANCH  11  12
ATOM     12  C   UNL     1      37.551  -5.866 -16.518  1.00  0.00     0.041 C 
ATOM     13  O   UNL     1      38.232  -6.917 -16.385  1.00  0.00    -0.550 OA
ATOM     14  O   UNL     1      37.006  -5.251 -15.398  1.00  0.00    -0.550 OA
ENDBRANCH  11  12
ENDBRANCH  10  11
ENDBRANCH   9  10
ENDBRANCH   8   9
ENDBRANCH   7   8
ENDBRANCH   6   7
ENDBRANCH   5   6
ENDBRANCH   4   5
ENDBRANCH   3   4
ENDBRANCH   2   3
ENDBRANCH   1   2
BRANCH   1  15
ATOM     15  C   UNL     1      29.560  -9.350 -14.181  1.00  0.00     0.000 C 
BRANCH  15  16
ATOM     16  C   UNL     1      29.960  -8.054 -13.454  1.00  0.00     0.000 C 
BRANCH  16  17
ATOM     17  C   UNL     1      28.857  -7.422 -12.582  1.00  0.00     0.000 C 
BRANCH  17  18
ATOM     18  C   UNL     1      28.421  -6.016 -13.046  1.00  0.00    -0.000 C 
BRANCH  18  19
ATOM     19  C   UNL     1      29.595  -5.026 -13.132  1.00  0.00    -0.000 C 
BRANCH  19  20
ATOM     20  C   UNL     1      30.107  -4.585 -11.751  1.00  0.00    -0.000 C 
BRANCH  20  21
ATOM     21  C   UNL     1      31.606  -4.876 -11.523  1.00  0.00    -0.000 C 
BRANCH  21  22
ATOM     22  C   UNL     1      32.043  -6.211 -12.151  1.00  0.00    -0.000 C 
BRANCH  22  23
ATOM     23  C   UNL     1      32.876  -7.072 -11.177  1.00  0.00    -0.000 C 
BRANCH  23  24
ATOM     24  C   UNL     1      33.026  -6.447  -9.779  1.00  0.00    -0.000 C 
BRANCH  24  25
ATOM     25  C   UNL     1      33.392  -7.478  -8.704  1.00  0.00    -0.003 C 
ATOM     26  C   UNL     1      34.867  -7.857  -8.786  1.00  0.00     0.004 C 
ENDBRANCH  24  25
ENDBRANCH  23  24
ENDBRANCH  22  23
ENDBRANCH  21  22
ENDBRANCH  20  21
ENDBRANCH  19  20
ENDBRANCH  18  19
ENDBRANCH  17  18
ENDBRANCH  16  17
ENDBRANCH  15  16
ENDBRANCH   1  15
TORSDOF 22
ENDMDL
MODEL 6
REMARK VINA RESULT:    -0.535      3.607      7.552
REMARK INTER + INTRA:          -0.629
REMARK INTER:                  -0.536
REMARK INTRA:                  -0.094
REMARK UNBOUND:                 0.593
REMARK SMILES CCCCCCCCCCCCCCCCCCCCCCCC(=O)[O-]
REMARK SMILES IDX 13 1 14 2 15 3 16 4 17 5 18 6 19 7 20 8 21 9 22 10 23 11
REMARK SMILES IDX 24 12 25 13 26 14 12 15 11 16 10 17 9 18 8 19 7 20 6 21 5 22
REMARK SMILES IDX 4 23 3 24 2 25 1 26
REMARK H PARENT
REMARK Flexibility Score: inf
ROOT
ATOM      1  C   UNL     1      30.240  -8.245 -13.546  1.00  0.00     0.000 C 
ENDROOT
BRANCH   1   2
ATOM      2  C   UNL     1      29.246  -7.503 -12.637  1.00  0.00     0.000 C 
BRANCH   2   3
ATOM      3  C   UNL     1      28.659  -6.242 -13.296  1.00  0.00     0.000 C 
BRANCH   3   4
ATOM      4  C   UNL     1      28.955  -4.918 -12.562  1.00  0.00     0.000 C 
BRANCH   4   5
ATOM      5  C   UNL     1      30.409  -4.745 -12.081  1.00  0.00     0.000 C 
BRANCH   5   6
ATOM      6  C   UNL     1      31.428  -5.696 -12.741  1.00  0.00     0.000 C 
BRANCH   6   7
ATOM      7  C   UNL     1      32.731  -5.911 -11.944  1.00  0.00     0.000 C 
BRANCH   7   8
ATOM      8  C   UNL     1      32.619  -6.874 -10.748  1.00  0.00     0.000 C 
BRANCH   8   9
ATOM      9  C   UNL     1      32.961  -6.206  -9.406  1.00  0.00     0.000 C 
BRANCH   9  10
ATOM     10  C   UNL     1      31.992  -5.067  -9.042  1.00  0.00     0.006 C 
BRANCH  10  11
ATOM     11  C   UNL     1      31.279  -5.247  -7.693  1.00  0.00     0.053 C 
BRANCH  11  12
ATOM     12  C   UNL     1      30.426  -4.067  -7.341  1.00  0.00     0.041 C 
ATOM     13  O   UNL     1      29.361  -3.843  -7.975  1.00  0.00    -0.550 OA
ATOM     14  O   UNL     1      30.814  -3.207  -6.321  1.00  0.00    -0.550 OA
ENDBRANCH  11  12
ENDBRANCH  10  11
ENDBRANCH   9  10
ENDBRANCH   8   9
ENDBRANCH   7   8
ENDBRANCH   6   7
ENDBRANCH   5   6
ENDBRANCH   4   5
ENDBRANCH   3   4
ENDBRANCH   2   3
ENDBRANCH   1   2
BRANCH   1  15
ATOM     15  C   UNL     1      29.556  -8.947 -14.735  1.00  0.00     0.000 C 
BRANCH  15  16
ATOM     16  C   UNL     1      29.462  -8.114 -16.026  1.00  0.00     0.000 C 
BRANCH  16  17
ATOM     17  C   UNL     1      30.719  -7.295 -16.374  1.00  0.00     0.000 C 
BRANCH  17  18
ATOM     18  C   UNL     1      30.745  -5.887 -15.740  1.00  0.00    -0.000 C 
BRANCH  18  19
ATOM     19  C   UNL     1      31.840  -4.986 -16.334  1.00  0.00    -0.000 C 
BRANCH  19  20
ATOM     20  C   UNL     1      33.035  -5.783 -16.885  1.00  0.00    -0.000 C 
BRANCH  20  21
ATOM     21  C   UNL     1      34.050  -4.919 -17.665  1.00  0.00    -0.000 C 
BRANCH  21  22
ATOM     22  C   UNL     1      35.101  -5.772 -18.396  1.00  0.00    -0.000 C 
BRANCH  22  23
ATOM     23  C   UNL     1      36.450  -5.037 -18.546  1.00  0.00    -0.000 C 
BRANCH  23  24
ATOM     24  C   UNL     1      36.976  -4.445 -17.227  1.00  0.00    -0.000 C 
BRANCH  24  25
ATOM     25  C   UNL     1      37.076  -5.487 -16.106  1.00  0.00    -0.003 C 
ATOM     26  C   UNL     1      38.116  -6.553 -16.438  1.00  0.00     0.004 C 
ENDBRANCH  24  25
ENDBRANCH  23  24
ENDBRANCH  22  23
ENDBRANCH  21  22
ENDBRANCH  20  21
ENDBRANCH  19  20
ENDBRANCH  18  19
ENDBRANCH  17  18
ENDBRANCH  16  17
ENDBRANCH  15  16
ENDBRANCH   1  15
TORSDOF 22
ENDMDL
MODEL 7
REMARK VINA RESULT:    -0.522      1.540      5.346
REMARK INTER + INTRA:          -0.602
REMARK INTER:                  -0.268
REMARK INTRA:                  -0.333
REMARK UNBOUND:                 0.593
REMARK SMILES CCCCCCCCCCCCCCCCCCCCCCCC(=O)[O-]
REMARK SMILES IDX 13 1 14 2 15 3 16 4 17 5 18 6 19 7 20 8 21 9 22 10 23 11
REMARK SMILES IDX 24 12 25 13 26 14 12 15 11 16 10 17 9 18 8 19 7 20 6 21 5 22
REMARK SMILES IDX 4 23 3 24 2 25 1 26
REMARK H PARENT
REMARK Flexibility Score: inf
ROOT
ATOM      1  C   UNL     1      31.908  -6.296 -10.920  1.00  0.00     0.000 C 
ENDROOT
BRANCH   1   2
ATOM      2  C   UNL     1      32.948  -6.825 -11.922  1.00  0.00     0.000 C 
BRANCH   2   3
ATOM      3  C   UNL     1      32.391  -6.947 -13.352  1.00  0.00     0.000 C 
BRANCH   3   4
ATOM      4  C   UNL     1      32.308  -5.624 -14.141  1.00  0.00     0.000 C 
BRANCH   4   5
ATOM      5  C   UNL     1      31.450  -5.676 -15.420  1.00  0.00     0.000 C 
BRANCH   5   6
ATOM      6  C   UNL     1      32.113  -5.067 -16.672  1.00  0.00     0.000 C 
BRANCH   6   7
ATOM      7  C   UNL     1      33.584  -5.472 -16.893  1.00  0.00     0.000 C 
BRANCH   7   8
ATOM      8  C   UNL     1      34.093  -5.335 -18.340  1.00  0.00     0.000 C 
BRANCH   8   9
ATOM      9  C   UNL     1      35.547  -5.806 -18.511  1.00  0.00     0.000 C 
BRANCH   9  10
ATOM     10  C   UNL     1      36.543  -4.638 -18.629  1.00  0.00     0.006 C 
BRANCH  10  11
ATOM     11  C   UNL     1      37.465  -4.463 -17.413  1.00  0.00     0.053 C 
BRANCH  11  12
ATOM     12  C   UNL     1      37.309  -5.573 -16.419  1.00  0.00     0.041 C 
ATOM     13  O   UNL     1      36.351  -5.562 -15.602  1.00  0.00    -0.550 OA
ATOM     14  O   UNL     1      38.228  -6.614 -16.388  1.00  0.00    -0.550 OA
ENDBRANCH  11  12
ENDBRANCH  10  11
ENDBRANCH   9  10
ENDBRANCH   8   9
ENDBRANCH   7   8
ENDBRANCH   6   7
ENDBRANCH   5   6
ENDBRANCH   4   5
ENDBRANCH   3   4
ENDBRANCH   2   3
ENDBRANCH   1   2
BRANCH   1  15
ATOM     15  C   UNL     1      31.369  -4.903 -11.293  1.00  0.00     0.000 C 
BRANCH  15  16
ATOM     16  C   UNL     1      29.873  -4.850 -11.652  1.00  0.00     0.000 C 
BRANCH  16  17
ATOM     17  C   UNL     1      29.559  -4.822 -13.161  1.00  0.00     0.000 C 
BRANCH  17  18
ATOM     18  C   UNL     1      28.703  -6.012 -13.644  1.00  0.00    -0.000 C 
BRANCH  18  19
ATOM     19  C   UNL     1      28.965  -7.299 -12.843  1.00  0.00    -0.000 C 
BRANCH  19  20
ATOM     20  C   UNL     1      29.679  -8.382 -13.669  1.00  0.00    -0.000 C 
BRANCH  20  21
ATOM     21  C   UNL     1      29.331  -8.345 -15.173  1.00  0.00    -0.000 C 
BRANCH  21  22
ATOM     22  C   UNL     1      30.428  -8.985 -16.041  1.00  0.00    -0.000 C 
BRANCH  22  23
ATOM     23  C   UNL     1      29.949  -9.257 -17.483  1.00  0.00    -0.000 C 
BRANCH  23  24
ATOM     24  C   UNL     1      28.460  -8.941 -17.706  1.00  0.00    -0.000 C 
BRANCH  24  25
ATOM     25  C   UNL     1      27.986  -9.281 -19.125  1.00  0.00    -0.003 C 
ATOM     26  C   UNL     1      26.539  -9.762 -19.119  1.00  0.00     0.004 C 
ENDBRANCH  24  25
ENDBRANCH  23  24
ENDBRANCH  22  23
ENDBRANCH  21  22
ENDBRANCH  20  21
ENDBRANCH  19  20
ENDBRANCH  18  19
ENDBRANCH  17  18
ENDBRANCH  16  17
ENDBRANCH  15  16
ENDBRANCH   1  15
TORSDOF 22
ENDMDL
MODEL 8
REMARK VINA RESULT:    -0.468      1.664      3.244
REMARK INTER + INTRA:          -0.476
REMARK INTER:                  -1.081
REMARK INTRA:                   0.605
REMARK UNBOUND:                 0.593
REMARK SMILES CCCCCCCCCCCCCCCCCCCCCCCC(=O)[O-]
REMARK SMILES IDX 13 1 14 2 15 3 16 4 17 5 18 6 19 7 20 8 21 9 22 10 23 11
REMARK SMILES IDX 24 12 25 13 26 14 12 15 11 16 10 17 9 18 8 19 7 20 6 21 5 22
REMARK SMILES IDX 4 23 3 24 2 25 1 26
REMARK H PARENT
REMARK Flexibility Score: inf
ROOT
ATOM      1  C   UNL     1      30.134  -8.100 -13.491  1.00  0.00     0.000 C 
ENDROOT
BRANCH   1   2
ATOM      2  C   UNL     1      29.506  -9.092 -14.484  1.00  0.00     0.000 C 
BRANCH   2   3
ATOM      3  C   UNL     1      29.662  -8.651 -15.950  1.00  0.00     0.000 C 
BRANCH   3   4
ATOM      4  C   UNL     1      30.742  -7.578 -16.202  1.00  0.00     0.000 C 
BRANCH   4   5
ATOM      5  C   UNL     1      30.340  -6.140 -15.819  1.00  0.00     0.000 C 
BRANCH   5   6
ATOM      6  C   UNL     1      31.474  -5.100 -15.920  1.00  0.00     0.000 C 
BRANCH   6   7
ATOM      7  C   UNL     1      32.851  -5.672 -16.314  1.00  0.00     0.000 C 
BRANCH   7   8
ATOM      8  C   UNL     1      33.417  -5.159 -17.651  1.00  0.00     0.000 C 
BRANCH   8   9
ATOM      9  C   UNL     1      34.874  -5.590 -17.889  1.00  0.00     0.000 C 
BRANCH   9  10
ATOM     10  C   UNL     1      35.850  -4.400 -17.926  1.00  0.00     0.006 C 
BRANCH  10  11
ATOM     11  C   UNL     1      37.266  -4.723 -17.426  1.00  0.00     0.053 C 
BRANCH  11  12
ATOM     12  C   UNL     1      37.324  -6.028 -16.693  1.00  0.00     0.041 C 
ATOM     13  O   UNL     1      36.349  -6.405 -15.991  1.00  0.00    -0.550 OA
ATOM     14  O   UNL     1      38.460  -6.824 -16.777  1.00  0.00    -0.550 OA
ENDBRANCH  11  12
ENDBRANCH  10  11
ENDBRANCH   9  10
ENDBRANCH   8   9
ENDBRANCH   7   8
ENDBRANCH   6   7
ENDBRANCH   5   6
ENDBRANCH   4   5
ENDBRANCH   3   4
ENDBRANCH   2   3
ENDBRANCH   1   2
BRANCH   1  15
ATOM     15  C   UNL     1      29.086  -7.264 -12.733  1.00  0.00     0.000 C 
BRANCH  15  16
ATOM     16  C   UNL     1      28.780  -5.883 -13.340  1.00  0.00     0.000 C 
BRANCH  16  17
ATOM     17  C   UNL     1      29.636  -4.723 -12.799  1.00  0.00     0.000 C 
BRANCH  17  18
ATOM     18  C   UNL     1      30.664  -5.149 -11.730  1.00  0.00    -0.000 C 
BRANCH  18  19
ATOM     19  C   UNL     1      32.041  -5.486 -12.328  1.00  0.00    -0.000 C 
BRANCH  19  20
ATOM     20  C   UNL     1      32.659  -6.758 -11.724  1.00  0.00    -0.000 C 
BRANCH  20  21
ATOM     21  C   UNL     1      32.784  -6.716 -10.186  1.00  0.00    -0.000 C 
BRANCH  21  22
ATOM     22  C   UNL     1      32.663  -5.287  -9.629  1.00  0.00    -0.000 C 
BRANCH  22  23
ATOM     23  C   UNL     1      31.866  -5.239  -8.308  1.00  0.00    -0.000 C 
BRANCH  23  24
ATOM     24  C   UNL     1      30.567  -4.422  -8.404  1.00  0.00    -0.000 C 
BRANCH  24  25
ATOM     25  C   UNL     1      30.021  -4.008  -7.031  1.00  0.00    -0.003 C 
ATOM     26  C   UNL     1      31.098  -3.320  -6.198  1.00  0.00     0.004 C 
ENDBRANCH  24  25
ENDBRANCH  23  24
ENDBRANCH  22  23
ENDBRANCH  21  22
ENDBRANCH  20  21
ENDBRANCH  19  20
ENDBRANCH  18  19
ENDBRANCH  17  18
ENDBRANCH  16  17
ENDBRANCH  15  16
ENDBRANCH   1  15
TORSDOF 22
ENDMDL
MODEL 9
REMARK VINA RESULT:    -0.179      1.633      3.294
REMARK INTER + INTRA:           0.185
REMARK INTER:                   1.579
REMARK INTRA:                  -1.395
REMARK UNBOUND:                 0.593
REMARK SMILES CCCCCCCCCCCCCCCCCCCCCCCC(=O)[O-]
REMARK SMILES IDX 13 1 14 2 15 3 16 4 17 5 18 6 19 7 20 8 21 9 22 10 23 11
REMARK SMILES IDX 24 12 25 13 26 14 12 15 11 16 10 17 9 18 8 19 7 20 6 21 5 22
REMARK SMILES IDX 4 23 3 24 2 25 1 26
REMARK H PARENT
REMARK Flexibility Score: inf
ROOT
ATOM      1  C   UNL     1      29.236  -7.342 -12.952  1.00  0.00     0.000 C 
ENDROOT
BRANCH   1   2
ATOM      2  C   UNL     1      29.778  -8.259 -14.061  1.00  0.00     0.000 C 
BRANCH   2   3
ATOM      3  C   UNL     1      29.503  -7.714 -15.474  1.00  0.00     0.000 C 
BRANCH   3   4
ATOM      4  C   UNL     1      30.733  -7.138 -16.207  1.00  0.00     0.000 C 
BRANCH   4   5
ATOM      5  C   UNL     1      31.167  -5.730 -15.752  1.00  0.00     0.000 C 
BRANCH   5   6
ATOM      6  C   UNL     1      32.125  -5.003 -16.717  1.00  0.00     0.000 C 
BRANCH   6   7
ATOM      7  C   UNL     1      33.579  -5.518 -16.705  1.00  0.00     0.000 C 
BRANCH   7   8
ATOM      8  C   UNL     1      34.340  -5.371 -18.036  1.00  0.00     0.000 C 
BRANCH   8   9
ATOM      9  C   UNL     1      35.299  -4.170 -18.047  1.00  0.00     0.000 C 
BRANCH   9  10
ATOM     10  C   UNL     1      36.780  -4.590 -18.084  1.00  0.00     0.006 C 
BRANCH  10  11
ATOM     11  C   UNL     1      37.368  -4.970 -16.716  1.00  0.00     0.053 C 
BRANCH  11  12
ATOM     12  C   UNL     1      37.552  -6.449 -16.571  1.00  0.00     0.041 C 
ATOM     13  O   UNL     1      38.666  -6.918 -16.216  1.00  0.00    -0.550 OA
ATOM     14  O   UNL     1      36.496  -7.312 -16.838  1.00  0.00    -0.550 OA
ENDBRANCH  11  12
ENDBRANCH  10  11
ENDBRANCH   9  10
ENDBRANCH   8   9
ENDBRANCH   7   8
ENDBRANCH   6   7
ENDBRANCH   5   6
ENDBRANCH   4   5
ENDBRANCH   3   4
ENDBRANCH   2   3
ENDBRANCH   1   2
BRANCH   1  15
ATOM     15  C   UNL     1      28.775  -5.970 -13.479  1.00  0.00     0.000 C 
BRANCH  15  16
ATOM     16  C   UNL     1      29.547  -4.759 -12.925  1.00  0.00     0.000 C 
BRANCH  16  17
ATOM     17  C   UNL     1      30.717  -5.099 -11.982  1.00  0.00     0.000 C 
BRANCH  17  18
ATOM     18  C   UNL     1      32.025  -5.466 -12.715  1.00  0.00    -0.000 C 
BRANCH  18  19
ATOM     19  C   UNL     1      32.721  -6.697 -12.111  1.00  0.00    -0.000 C 
BRANCH  19  20
ATOM     20  C   UNL     1      32.188  -7.060 -10.715  1.00  0.00    -0.000 C 
BRANCH  20  21
ATOM     21  C   UNL     1      33.050  -6.508  -9.559  1.00  0.00    -0.000 C 
BRANCH  21  22
ATOM     22  C   UNL     1      32.596  -5.109  -9.109  1.00  0.00    -0.000 C 
BRANCH  22  23
ATOM     23  C   UNL     1      31.079  -5.047  -8.832  1.00  0.00    -0.000 C 
BRANCH  23  24
ATOM     24  C   UNL     1      30.730  -4.461  -7.453  1.00  0.00    -0.000 C 
BRANCH  24  25
ATOM     25  C   UNL     1      29.649  -3.375  -7.525  1.00  0.00    -0.003 C 
ATOM     26  C   UNL     1      28.595  -3.718  -8.573  1.00  0.00     0.004 C 
ENDBRANCH  24  25
ENDBRANCH  23  24
ENDBRANCH  22  23
ENDBRANCH  21  22
ENDBRANCH  20  21
ENDBRANCH  19  20
ENDBRANCH  18  19
ENDBRANCH  17  18
ENDBRANCH  16  17
ENDBRANCH  15  16
ENDBRANCH   1  15
TORSDOF 22
ENDMDL
