MODEL 1
REMARK VINA RESULT:    -4.504      0.000      0.000
REMARK INTER + INTRA:          -6.887
REMARK INTER:                  -6.610
REMARK INTRA:                  -0.277
REMARK UNBOUND:                -0.277
REMARK SMILES O=C([O-])CCCCCCCC(=O)[O-]
REMARK SMILES IDX 7 1 6 2 5 3 4 4 2 5 1 6 3 7 8 8 9 9 10 10 11 11 12 12 13 13
REMARK H PARENT
REMARK Flexibility Score: inf
ROOT
ATOM      1  C   UNL     1      -0.101   6.133  18.523  1.00  0.00     0.000 C 
ENDROOT
BRANCH   1   2
ATOM      2  C   UNL     1       0.730   7.399  18.783  1.00  0.00     0.000 C 
BRANCH   2   3
ATOM      3  C   UNL     1       0.532   7.955  20.202  1.00  0.00     0.006 C 
BRANCH   3   4
ATOM      4  C   UNL     1      -0.263   7.003  21.105  1.00  0.00     0.053 C 
BRANCH   4   5
ATOM      5  C   UNL     1       0.480   6.752  22.379  1.00  0.00     0.041 C 
ATOM      6  O   UNL     1       1.719   6.972  22.445  1.00  0.00    -0.550 OA
ATOM      7  O   UNL     1      -0.185   6.229  23.481  1.00  0.00    -0.550 OA
ENDBRANCH   4   5
ENDBRANCH   3   4
ENDBRANCH   2   3
ENDBRANCH   1   2
BRANCH   1   8
ATOM      8  C   UNL     1       0.116   5.619  17.095  1.00  0.00     0.000 C 
BRANCH   8   9
ATOM      9  C   UNL     1      -0.889   4.509  16.750  1.00  0.00     0.006 C 
BRANCH   9  10
ATOM     10  C   UNL     1      -1.936   4.971  15.728  1.00  0.00     0.053 C 
BRANCH  10  11
ATOM     11  C   UNL     1      -3.129   4.065  15.706  1.00  0.00     0.041 C 
ATOM     12  O   UNL     1      -3.230   3.131  16.545  1.00  0.00    -0.550 OA
ATOM     13  O   UNL     1      -4.144   4.272  14.781  1.00  0.00    -0.550 OA
ENDBRANCH  10  11
ENDBRANCH   9  10
ENDBRANCH   8   9
ENDBRANCH   1   8
TORSDOF 8
ENDMDL
MODEL 2
REMARK VINA RESULT:    -4.191      1.771      2.911
REMARK INTER + INTRA:          -6.428
REMARK INTER:                  -6.125
REMARK INTRA:                  -0.303
REMARK UNBOUND:                -0.277
REMARK SMILES O=C([O-])CCCCCCCC(=O)[O-]
REMARK SMILES IDX 7 1 6 2 5 3 4 4 2 5 1 6 3 7 8 8 9 9 10 10 11 11 12 12 13 13
REMARK H PARENT
REMARK Flexibility Score: inf
ROOT
ATOM      1  C   UNL     1      -0.810   4.795  16.111  1.00  0.00     0.000 C 
ENDROOT
BRANCH   1   2
ATOM      2  C   UNL     1      -0.385   4.843  17.587  1.00  0.00     0.000 C 
BRANCH   2   3
ATOM      3  C   UNL     1       0.056   6.247  18.031  1.00  0.00     0.006 C 
BRANCH   3   4
ATOM      4  C   UNL     1      -0.128   6.475  19.536  1.00  0.00     0.053 C 
BRANCH   4   5
ATOM      5  C   UNL     1       0.740   7.601  20.002  1.00  0.00     0.041 C 
ATOM      6  O   UNL     1       1.309   7.540  21.125  1.00  0.00    -0.550 OA
ATOM      7  O   UNL     1       0.884   8.739  19.219  1.00  0.00    -0.550 OA
ENDBRANCH   4   5
ENDBRANCH   3   4
ENDBRANCH   2   3
ENDBRANCH   1   2
BRANCH   1   8
ATOM      8  C   UNL     1      -1.872   3.714  15.880  1.00  0.00     0.000 C 
BRANCH   8   9
ATOM      9  C   UNL     1      -3.141   4.312  15.256  1.00  0.00     0.006 C 
BRANCH   9  10
ATOM     10  C   UNL     1      -4.004   5.050  16.288  1.00  0.00     0.053 C 
BRANCH  10  11
ATOM     11  C   UNL     1      -5.282   4.321  16.567  1.00  0.00     0.041 C 
ATOM     12  O   UNL     1      -6.377   4.777  16.142  1.00  0.00    -0.550 OA
ATOM     13  O   UNL     1      -5.262   3.123  17.268  1.00  0.00    -0.550 OA
ENDBRANCH  10  11
ENDBRANCH   9  10
ENDBRANCH   8   9
ENDBRANCH   1   8
TORSDOF 8
ENDMDL
MODEL 3
REMARK VINA RESULT:    -4.149      4.320      6.254
REMARK INTER + INTRA:          -6.366
REMARK INTER:                  -5.742
REMARK INTRA:                  -0.624
REMARK UNBOUND:                -0.277
REMARK SMILES O=C([O-])CCCCCCCC(=O)[O-]
REMARK SMILES IDX 7 1 6 2 5 3 4 4 2 5 1 6 3 7 8 8 9 9 10 10 11 11 12 12 13 13
REMARK H PARENT
REMARK Flexibility Score: inf
ROOT
ATOM      1  C   UNL     1      -5.038   4.371  14.134  1.00  0.00     0.000 C 
ENDROOT
BRANCH   1   2
ATOM      2  C   UNL     1      -4.577   3.967  15.543  1.00  0.00     0.000 C 
BRANCH   2   3
ATOM      3  C   UNL     1      -3.413   4.829  16.055  1.00  0.00     0.006 C 
BRANCH   3   4
ATOM      4  C   UNL     1      -2.050   4.346  15.542  1.00  0.00     0.053 C 
BRANCH   4   5
ATOM      5  C   UNL     1      -1.210   3.852  16.677  1.00  0.00     0.041 C 
ATOM      6  O   UNL     1      -0.455   4.646  17.299  1.00  0.00    -0.550 OA
ATOM      7  O   UNL     1      -1.225   2.507  17.019  1.00  0.00    -0.550 OA
ENDBRANCH   4   5
ENDBRANCH   3   4
ENDBRANCH   2   3
ENDBRANCH   1   2
BRANCH   1   8
ATOM      8  C   UNL     1      -6.047   5.523  14.196  1.00  0.00     0.000 C 
BRANCH   8   9
ATOM      9  C   UNL     1      -7.112   5.266  15.272  1.00  0.00     0.006 C 
BRANCH   9  10
ATOM     10  C   UNL     1      -7.478   6.541  16.043  1.00  0.00     0.053 C 
BRANCH  10  11
ATOM     11  C   UNL     1      -6.366   6.986  16.942  1.00  0.00     0.041 C 
ATOM     12  O   UNL     1      -5.740   8.051  16.696  1.00  0.00    -0.550 OA
ATOM     13  O   UNL     1      -6.040   6.241  18.068  1.00  0.00    -0.550 OA
ENDBRANCH  10  11
ENDBRANCH   9  10
ENDBRANCH   8   9
ENDBRANCH   1   8
TORSDOF 8
ENDMDL
MODEL 4
REMARK VINA RESULT:    -4.116      4.447      6.769
REMARK INTER + INTRA:          -6.318
REMARK INTER:                  -5.710
REMARK INTRA:                  -0.608
REMARK UNBOUND:                -0.277
REMARK SMILES O=C([O-])CCCCCCCC(=O)[O-]
REMARK SMILES IDX 7 1 6 2 5 3 4 4 2 5 1 6 3 7 8 8 9 9 10 10 11 11 12 12 13 13
REMARK H PARENT
REMARK Flexibility Score: inf
ROOT
ATOM      1  C   UNL     1      -5.395   4.330  14.414  1.00  0.00     0.000 C 
ENDROOT
BRANCH   1   2
ATOM      2  C   UNL     1      -6.159   5.660  14.510  1.00  0.00     0.000 C 
BRANCH   2   3
ATOM      3  C   UNL     1      -7.401   5.566  15.410  1.00  0.00     0.006 C 
BRANCH   3   4
ATOM      4  C   UNL     1      -7.678   6.867  16.172  1.00  0.00     0.053 C 
BRANCH   4   5
ATOM      5  C   UNL     1      -6.482   7.265  16.977  1.00  0.00     0.041 C 
ATOM      6  O   UNL     1      -6.120   6.567  17.963  1.00  0.00    -0.550 OA
ATOM      7  O   UNL     1      -5.793   8.431  16.670  1.00  0.00    -0.550 OA
ENDBRANCH   4   5
ENDBRANCH   3   4
ENDBRANCH   2   3
ENDBRANCH   1   2
BRANCH   1   8
ATOM      8  C   UNL     1      -4.873   3.897  15.789  1.00  0.00     0.000 C 
BRANCH   8   9
ATOM      9  C   UNL     1      -3.647   4.727  16.199  1.00  0.00     0.006 C 
BRANCH   9  10
ATOM     10  C   UNL     1      -2.363   4.246  15.511  1.00  0.00     0.053 C 
BRANCH  10  11
ATOM     11  C   UNL     1      -1.326   3.820  16.504  1.00  0.00     0.041 C 
ATOM     12  O   UNL     1      -1.255   2.617  16.869  1.00  0.00    -0.550 OA
ATOM     13  O   UNL     1      -0.417   4.745  17.002  1.00  0.00    -0.550 OA
ENDBRANCH  10  11
ENDBRANCH   9  10
ENDBRANCH   8   9
ENDBRANCH   1   8
TORSDOF 8
ENDMDL
MODEL 5
REMARK VINA RESULT:    -4.113      2.063      6.901
REMARK INTER + INTRA:          -6.313
REMARK INTER:                  -6.029
REMARK INTRA:                  -0.284
REMARK UNBOUND:                -0.277
REMARK SMILES O=C([O-])CCCCCCCC(=O)[O-]
REMARK SMILES IDX 7 1 6 2 5 3 4 4 2 5 1 6 3 7 8 8 9 9 10 10 11 11 12 12 13 13
REMARK H PARENT
REMARK Flexibility Score: inf
ROOT
ATOM      1  C   UNL     1      -1.576   4.922  15.757  1.00  0.00     0.000 C 
ENDROOT
BRANCH   1   2
ATOM      2  C   UNL     1      -3.069   5.004  16.108  1.00  0.00     0.000 C 
BRANCH   2   3
ATOM      3  C   UNL     1      -3.720   3.619  16.257  1.00  0.00     0.006 C 
BRANCH   3   4
ATOM      4  C   UNL     1      -5.163   3.697  16.769  1.00  0.00     0.053 C 
BRANCH   4   5
ATOM      5  C   UNL     1      -5.970   4.625  15.916  1.00  0.00     0.041 C 
ATOM      6  O   UNL     1      -6.198   4.340  14.710  1.00  0.00    -0.550 OA
ATOM      7  O   UNL     1      -6.429   5.827  16.437  1.00  0.00    -0.550 OA
ENDBRANCH   4   5
ENDBRANCH   3   4
ENDBRANCH   2   3
ENDBRANCH   1   2
BRANCH   1   8
ATOM      8  C   UNL     1      -0.732   4.654  17.009  1.00  0.00     0.000 C 
BRANCH   8   9
ATOM      9  C   UNL     1       0.037   5.913  17.435  1.00  0.00     0.006 C 
BRANCH   9  10
ATOM     10  C   UNL     1       0.015   6.121  18.956  1.00  0.00     0.053 C 
BRANCH  10  11
ATOM     11  C   UNL     1       0.610   7.439  19.345  1.00  0.00     0.041 C 
ATOM     12  O   UNL     1       0.816   7.706  20.559  1.00  0.00    -0.550 OA
ATOM     13  O   UNL     1       0.965   8.359  18.368  1.00  0.00    -0.550 OA
ENDBRANCH  10  11
ENDBRANCH   9  10
ENDBRANCH   8   9
ENDBRANCH   1   8
TORSDOF 8
ENDMDL
MODEL 6
REMARK VINA RESULT:    -4.082      5.154      6.914
REMARK INTER + INTRA:          -6.268
REMARK INTER:                  -5.679
REMARK INTRA:                  -0.589
REMARK UNBOUND:                -0.277
REMARK SMILES O=C([O-])CCCCCCCC(=O)[O-]
REMARK SMILES IDX 7 1 6 2 5 3 4 4 2 5 1 6 3 7 8 8 9 9 10 10 11 11 12 12 13 13
REMARK H PARENT
REMARK Flexibility Score: inf
ROOT
ATOM      1  C   UNL     1      -5.017   5.918  17.044  1.00  0.00     0.000 C 
ENDROOT
BRANCH   1   2
ATOM      2  C   UNL     1      -5.545   4.479  16.928  1.00  0.00     0.000 C 
BRANCH   2   3
ATOM      3  C   UNL     1      -4.763   3.642  15.903  1.00  0.00     0.006 C 
BRANCH   3   4
ATOM      4  C   UNL     1      -3.581   4.407  15.295  1.00  0.00     0.053 C 
BRANCH   4   5
ATOM      5  C   UNL     1      -2.286   3.838  15.783  1.00  0.00     0.041 C 
ATOM      6  O   UNL     1      -2.282   2.850  16.564  1.00  0.00    -0.550 OA
ATOM      7  O   UNL     1      -1.084   4.429  15.414  1.00  0.00    -0.550 OA
ENDBRANCH   4   5
ENDBRANCH   3   4
ENDBRANCH   2   3
ENDBRANCH   1   2
BRANCH   1   8
ATOM      8  C   UNL     1      -6.162   6.932  16.943  1.00  0.00     0.000 C 
BRANCH   8   9
ATOM      9  C   UNL     1      -6.802   6.903  15.546  1.00  0.00     0.006 C 
BRANCH   9  10
ATOM     10  C   UNL     1      -8.291   6.534  15.597  1.00  0.00     0.053 C 
BRANCH  10  11
ATOM     11  C   UNL     1      -8.672   5.606  14.485  1.00  0.00     0.041 C 
ATOM     12  O   UNL     1      -9.846   5.612  14.030  1.00  0.00    -0.550 OA
ATOM     13  O   UNL     1      -7.722   4.758  13.930  1.00  0.00    -0.550 OA
ENDBRANCH  10  11
ENDBRANCH   9  10
ENDBRANCH   8   9
ENDBRANCH   1   8
TORSDOF 8
ENDMDL
MODEL 7
REMARK VINA RESULT:    -4.077      4.848      8.088
REMARK INTER + INTRA:          -6.261
REMARK INTER:                  -5.661
REMARK INTRA:                  -0.600
REMARK UNBOUND:                -0.277
REMARK SMILES O=C([O-])CCCCCCCC(=O)[O-]
REMARK SMILES IDX 7 1 6 2 5 3 4 4 2 5 1 6 3 7 8 8 9 9 10 10 11 11 12 12 13 13
REMARK H PARENT
REMARK Flexibility Score: inf
ROOT
ATOM      1  C   UNL     1      -5.456   5.028  15.965  1.00  0.00     0.000 C 
ENDROOT
BRANCH   1   2
ATOM      2  C   UNL     1      -6.878   5.211  15.414  1.00  0.00     0.000 C 
BRANCH   2   3
ATOM      3  C   UNL     1      -7.036   4.660  13.988  1.00  0.00     0.006 C 
BRANCH   3   4
ATOM      4  C   UNL     1      -5.707   4.607  13.224  1.00  0.00     0.053 C 
BRANCH   4   5
ATOM      5  C   UNL     1      -5.574   5.797  12.327  1.00  0.00     0.041 C 
ATOM      6  O   UNL     1      -4.776   6.727  12.622  1.00  0.00    -0.550 OA
ATOM      7  O   UNL     1      -6.365   5.904  11.191  1.00  0.00    -0.550 OA
ENDBRANCH   4   5
ENDBRANCH   3   4
ENDBRANCH   2   3
ENDBRANCH   1   2
BRANCH   1   8
ATOM      8  C   UNL     1      -5.376   3.798  16.878  1.00  0.00     0.000 C 
BRANCH   8   9
ATOM      9  C   UNL     1      -4.079   3.013  16.633  1.00  0.00     0.006 C 
BRANCH   9  10
ATOM     10  C   UNL     1      -3.050   3.825  15.835  1.00  0.00     0.053 C 
BRANCH  10  11
ATOM     11  C   UNL     1      -1.653   3.572  16.311  1.00  0.00     0.041 C 
ATOM     12  O   UNL     1      -1.381   2.521  16.948  1.00  0.00    -0.550 OA
ATOM     13  O   UNL     1      -0.644   4.482  16.022  1.00  0.00    -0.550 OA
ENDBRANCH  10  11
ENDBRANCH   9  10
ENDBRANCH   8   9
ENDBRANCH   1   8
TORSDOF 8
ENDMDL
MODEL 8
REMARK VINA RESULT:    -4.020      4.978      7.831
REMARK INTER + INTRA:          -6.177
REMARK INTER:                  -5.625
REMARK INTRA:                  -0.552
REMARK UNBOUND:                -0.277
REMARK SMILES O=C([O-])CCCCCCCC(=O)[O-]
REMARK SMILES IDX 7 1 6 2 5 3 4 4 2 5 1 6 3 7 8 8 9 9 10 10 11 11 12 12 13 13
REMARK H PARENT
REMARK Flexibility Score: inf
ROOT
ATOM      1  C   UNL     1      -4.920   4.345  14.064  1.00  0.00     0.000 C 
ENDROOT
BRANCH   1   2
ATOM      2  C   UNL     1      -5.790   4.792  12.880  1.00  0.00     0.000 C 
BRANCH   2   3
ATOM      3  C   UNL     1      -6.887   5.786  13.293  1.00  0.00     0.006 C 
BRANCH   3   4
ATOM      4  C   UNL     1      -7.895   5.177  14.276  1.00  0.00     0.053 C 
BRANCH   4   5
ATOM      5  C   UNL     1      -8.131   6.107  15.424  1.00  0.00     0.041 C 
ATOM      6  O   UNL     1      -7.242   6.268  16.302  1.00  0.00    -0.550 OA
ATOM      7  O   UNL     1      -9.350   6.760  15.551  1.00  0.00    -0.550 OA
ENDBRANCH   4   5
ENDBRANCH   3   4
ENDBRANCH   2   3
ENDBRANCH   1   2
BRANCH   1   8
ATOM      8  C   UNL     1      -4.244   5.547  14.734  1.00  0.00     0.000 C 
BRANCH   8   9
ATOM      9  C   UNL     1      -3.712   5.176  16.127  1.00  0.00     0.006 C 
BRANCH   9  10
ATOM     10  C   UNL     1      -3.335   3.691  16.228  1.00  0.00     0.053 C 
BRANCH  10  11
ATOM     11  C   UNL     1      -1.851   3.493  16.213  1.00  0.00     0.041 C 
ATOM     12  O   UNL     1      -1.119   4.239  15.510  1.00  0.00    -0.550 OA
ATOM     13  O   UNL     1      -1.272   2.506  17.001  1.00  0.00    -0.550 OA
ENDBRANCH  10  11
ENDBRANCH   9  10
ENDBRANCH   8   9
ENDBRANCH   1   8
TORSDOF 8
ENDMDL
MODEL 9
REMARK VINA RESULT:    -4.007      4.361      6.067
REMARK INTER + INTRA:          -6.158
REMARK INTER:                  -5.617
REMARK INTRA:                  -0.541
REMARK UNBOUND:                -0.277
REMARK SMILES O=C([O-])CCCCCCCC(=O)[O-]
REMARK SMILES IDX 7 1 6 2 5 3 4 4 2 5 1 6 3 7 8 8 9 9 10 10 11 11 12 12 13 13
REMARK H PARENT
REMARK Flexibility Score: inf
ROOT
ATOM      1  C   UNL     1      -5.587   5.560  16.778  1.00  0.00     0.000 C 
ENDROOT
BRANCH   1   2
ATOM      2  C   UNL     1      -4.086   5.426  16.481  1.00  0.00     0.000 C 
BRANCH   2   3
ATOM      3  C   UNL     1      -3.695   4.009  16.032  1.00  0.00     0.006 C 
BRANCH   3   4
ATOM      4  C   UNL     1      -2.262   3.934  15.492  1.00  0.00     0.053 C 
BRANCH   4   5
ATOM      5  C   UNL     1      -1.291   3.754  16.615  1.00  0.00     0.041 C 
ATOM      6  O   UNL     1      -0.508   4.689  16.934  1.00  0.00    -0.550 OA
ATOM      7  O   UNL     1      -1.215   2.537  17.280  1.00  0.00    -0.550 OA
ENDBRANCH   4   5
ENDBRANCH   3   4
ENDBRANCH   2   3
ENDBRANCH   1   2
BRANCH   1   8
ATOM      8  C   UNL     1      -6.331   6.163  15.581  1.00  0.00     0.000 C 
BRANCH   8   9
ATOM      9  C   UNL     1      -7.240   5.120  14.914  1.00  0.00     0.006 C 
BRANCH   9  10
ATOM     10  C   UNL     1      -7.287   5.279  13.389  1.00  0.00     0.053 C 
BRANCH  10  11
ATOM     11  C   UNL     1      -5.926   5.159  12.775  1.00  0.00     0.041 C 
ATOM     12  O   UNL     1      -5.437   6.121  12.125  1.00  0.00    -0.550 OA
ATOM     13  O   UNL     1      -5.184   3.998  12.948  1.00  0.00    -0.550 OA
ENDBRANCH  10  11
ENDBRANCH   9  10
ENDBRANCH   8   9
ENDBRANCH   1   8
TORSDOF 8
ENDMDL
