MODEL 1
REMARK VINA RESULT:    -3.340      0.000      0.000
REMARK INTER + INTRA:          -4.759
REMARK INTER:                  -4.316
REMARK INTRA:                  -0.442
REMARK UNBOUND:                -0.442
REMARK SMILES CCCCCCC(=O)[O-]
REMARK SMILES IDX 5 1 6 2 7 3 8 4 9 5 4 6 3 7 2 8 1 9
REMARK H PARENT
REMARK Flexibility Score: inf
ROOT
ATOM      1  C   UNL     1      50.045  24.975  36.018  1.00  0.00     0.006 C 
ENDROOT
BRANCH   1   2
ATOM      2  C   UNL     1      49.134  26.020  35.358  1.00  0.00     0.053 C 
BRANCH   2   3
ATOM      3  C   UNL     1      49.712  26.466  34.053  1.00  0.00     0.041 C 
ATOM      4  O   UNL     1      50.849  27.005  34.015  1.00  0.00    -0.550 OA
ATOM      5  O   UNL     1      49.015  26.243  32.872  1.00  0.00    -0.550 OA
ENDBRANCH   2   3
ENDBRANCH   1   2
BRANCH   1   6
ATOM      6  C   UNL     1      50.212  23.711  35.160  1.00  0.00     0.000 C 
BRANCH   6   7
ATOM      7  C   UNL     1      48.940  22.850  35.122  1.00  0.00    -0.000 C 
BRANCH   7   8
ATOM      8  C   UNL     1      48.384  22.757  33.697  1.00  0.00    -0.003 C 
ATOM      9  C   UNL     1      46.960  23.299  33.623  1.00  0.00     0.004 C 
ENDBRANCH   7   8
ENDBRANCH   6   7
ENDBRANCH   1   6
TORSDOF 5
ENDMDL
MODEL 2
REMARK VINA RESULT:    -3.338      2.578      4.555
REMARK INTER + INTRA:          -4.756
REMARK INTER:                  -4.321
REMARK INTRA:                  -0.435
REMARK UNBOUND:                -0.442
REMARK SMILES CCCCCCC(=O)[O-]
REMARK SMILES IDX 5 1 6 2 7 3 8 4 9 5 4 6 3 7 2 8 1 9
REMARK H PARENT
REMARK Flexibility Score: inf
ROOT
ATOM      1  C   UNL     1      50.744  25.870  32.915  1.00  0.00     0.006 C 
ENDROOT
BRANCH   1   2
ATOM      2  C   UNL     1      49.706  26.758  33.615  1.00  0.00     0.053 C 
BRANCH   2   3
ATOM      3  C   UNL     1      49.171  26.074  34.833  1.00  0.00     0.041 C 
ATOM      4  O   UNL     1      48.485  25.024  34.720  1.00  0.00    -0.550 OA
ATOM      5  O   UNL     1      49.470  26.569  36.096  1.00  0.00    -0.550 OA
ENDBRANCH   2   3
ENDBRANCH   1   2
BRANCH   1   6
ATOM      6  C   UNL     1      51.998  25.639  33.772  1.00  0.00     0.000 C 
BRANCH   6   7
ATOM      7  C   UNL     1      52.882  26.891  33.878  1.00  0.00    -0.000 C 
BRANCH   7   8
ATOM      8  C   UNL     1      52.954  27.390  35.325  1.00  0.00    -0.003 C 
ATOM      9  C   UNL     1      52.374  28.796  35.454  1.00  0.00     0.004 C 
ENDBRANCH   7   8
ENDBRANCH   6   7
ENDBRANCH   1   6
TORSDOF 5
ENDMDL
MODEL 3
REMARK VINA RESULT:    -3.300      2.631      4.527
REMARK INTER + INTRA:          -4.707
REMARK INTER:                  -4.266
REMARK INTRA:                  -0.441
REMARK UNBOUND:                -0.442
REMARK SMILES CCCCCCC(=O)[O-]
REMARK SMILES IDX 5 1 6 2 7 3 8 4 9 5 4 6 3 7 2 8 1 9
REMARK H PARENT
REMARK Flexibility Score: inf
ROOT
ATOM      1  C   UNL     1      50.794  25.960  32.978  1.00  0.00     0.006 C 
ENDROOT
BRANCH   1   2
ATOM      2  C   UNL     1      49.743  26.768  33.753  1.00  0.00     0.053 C 
BRANCH   2   3
ATOM      3  C   UNL     1      49.397  26.079  35.034  1.00  0.00     0.041 C 
ATOM      4  O   UNL     1      49.574  26.664  36.136  1.00  0.00    -0.550 OA
ATOM      5  O   UNL     1      48.833  24.811  35.011  1.00  0.00    -0.550 OA
ENDBRANCH   2   3
ENDBRANCH   1   2
BRANCH   1   6
ATOM      6  C   UNL     1      52.080  25.733  33.788  1.00  0.00     0.000 C 
BRANCH   6   7
ATOM      7  C   UNL     1      52.930  27.005  33.919  1.00  0.00    -0.000 C 
BRANCH   7   8
ATOM      8  C   UNL     1      53.001  27.469  35.378  1.00  0.00    -0.003 C 
ATOM      9  C   UNL     1      52.494  28.901  35.528  1.00  0.00     0.004 C 
ENDBRANCH   7   8
ENDBRANCH   6   7
ENDBRANCH   1   6
TORSDOF 5
ENDMDL
MODEL 4
REMARK VINA RESULT:    -3.249      1.775      2.413
REMARK INTER + INTRA:          -4.641
REMARK INTER:                  -4.178
REMARK INTRA:                  -0.463
REMARK UNBOUND:                -0.442
REMARK SMILES CCCCCCC(=O)[O-]
REMARK SMILES IDX 5 1 6 2 7 3 8 4 9 5 4 6 3 7 2 8 1 9
REMARK H PARENT
REMARK Flexibility Score: inf
ROOT
ATOM      1  C   UNL     1      49.780  26.484  35.473  1.00  0.00     0.006 C 
ENDROOT
BRANCH   1   2
ATOM      2  C   UNL     1      50.708  26.641  34.260  1.00  0.00     0.053 C 
BRANCH   2   3
ATOM      3  C   UNL     1      50.174  25.874  33.092  1.00  0.00     0.041 C 
ATOM      4  O   UNL     1      50.909  25.050  32.486  1.00  0.00    -0.550 OA
ATOM      5  O   UNL     1      48.850  26.032  32.704  1.00  0.00    -0.550 OA
ENDBRANCH   2   3
ENDBRANCH   1   2
BRANCH   1   6
ATOM      6  C   UNL     1      49.768  25.051  36.026  1.00  0.00     0.000 C 
BRANCH   6   7
ATOM      7  C   UNL     1      51.176  24.527  36.343  1.00  0.00    -0.000 C 
BRANCH   7   8
ATOM      8  C   UNL     1      51.429  23.182  35.650  1.00  0.00    -0.003 C 
ATOM      9  C   UNL     1      50.143  22.620  35.051  1.00  0.00     0.004 C 
ENDBRANCH   7   8
ENDBRANCH   6   7
ENDBRANCH   1   6
TORSDOF 5
ENDMDL
MODEL 5
REMARK VINA RESULT:    -3.248      2.393      3.697
REMARK INTER + INTRA:          -4.640
REMARK INTER:                  -4.187
REMARK INTRA:                  -0.452
REMARK UNBOUND:                -0.442
REMARK SMILES CCCCCCC(=O)[O-]
REMARK SMILES IDX 5 1 6 2 7 3 8 4 9 5 4 6 3 7 2 8 1 9
REMARK H PARENT
REMARK Flexibility Score: inf
ROOT
ATOM      1  C   UNL     1      49.077  25.849  33.442  1.00  0.00     0.006 C 
ENDROOT
BRANCH   1   2
ATOM      2  C   UNL     1      48.933  24.931  34.664  1.00  0.00     0.053 C 
BRANCH   2   3
ATOM      3  C   UNL     1      49.738  25.458  35.810  1.00  0.00     0.041 C 
ATOM      4  O   UNL     1      50.604  24.730  36.363  1.00  0.00    -0.550 OA
ATOM      5  O   UNL     1      49.565  26.768  36.236  1.00  0.00    -0.550 OA
ENDBRANCH   2   3
ENDBRANCH   1   2
BRANCH   1   6
ATOM      6  C   UNL     1      50.529  25.957  32.952  1.00  0.00     0.000 C 
BRANCH   6   7
ATOM      7  C   UNL     1      51.114  24.601  32.530  1.00  0.00    -0.000 C 
BRANCH   7   8
ATOM      8  C   UNL     1      52.475  24.362  33.192  1.00  0.00    -0.003 C 
ATOM      9  C   UNL     1      53.007  25.638  33.838  1.00  0.00     0.004 C 
ENDBRANCH   7   8
ENDBRANCH   6   7
ENDBRANCH   1   6
TORSDOF 5
ENDMDL
MODEL 6
REMARK VINA RESULT:    -3.227      2.806      3.902
REMARK INTER + INTRA:          -4.612
REMARK INTER:                  -4.344
REMARK INTRA:                  -0.269
REMARK UNBOUND:                -0.442
REMARK SMILES CCCCCCC(=O)[O-]
REMARK SMILES IDX 5 1 6 2 7 3 8 4 9 5 4 6 3 7 2 8 1 9
REMARK H PARENT
REMARK Flexibility Score: inf
ROOT
ATOM      1  C   UNL     1      52.315  26.519  33.934  1.00  0.00     0.006 C 
ENDROOT
BRANCH   1   2
ATOM      2  C   UNL     1      52.148  27.635  34.975  1.00  0.00     0.053 C 
BRANCH   2   3
ATOM      3  C   UNL     1      53.081  28.767  34.680  1.00  0.00     0.041 C 
ATOM      4  O   UNL     1      54.068  28.592  33.919  1.00  0.00    -0.550 OA
ATOM      5  O   UNL     1      52.832  30.028  35.207  1.00  0.00    -0.550 OA
ENDBRANCH   2   3
ENDBRANCH   1   2
BRANCH   1   6
ATOM      6  C   UNL     1      50.975  26.058  33.342  1.00  0.00     0.000 C 
BRANCH   6   7
ATOM      7  C   UNL     1      49.776  26.824  33.923  1.00  0.00    -0.000 C 
BRANCH   7   8
ATOM      8  C   UNL     1      48.760  25.860  34.545  1.00  0.00    -0.003 C 
ATOM      9  C   UNL     1      49.458  24.747  35.322  1.00  0.00     0.004 C 
ENDBRANCH   7   8
ENDBRANCH   6   7
ENDBRANCH   1   6
TORSDOF 5
ENDMDL
MODEL 7
REMARK VINA RESULT:    -3.187      1.298      1.806
REMARK INTER + INTRA:          -4.561
REMARK INTER:                  -4.235
REMARK INTRA:                  -0.325
REMARK UNBOUND:                -0.442
REMARK SMILES CCCCCCC(=O)[O-]
REMARK SMILES IDX 5 1 6 2 7 3 8 4 9 5 4 6 3 7 2 8 1 9
REMARK H PARENT
REMARK Flexibility Score: inf
ROOT
ATOM      1  C   UNL     1      49.396  26.025  35.697  1.00  0.00     0.006 C 
ENDROOT
BRANCH   1   2
ATOM      2  C   UNL     1      49.859  26.620  34.360  1.00  0.00     0.053 C 
BRANCH   2   3
ATOM      3  C   UNL     1      51.305  26.999  34.432  1.00  0.00     0.041 C 
ATOM      4  O   UNL     1      52.140  26.457  33.661  1.00  0.00    -0.550 OA
ATOM      5  O   UNL     1      51.722  27.986  35.315  1.00  0.00    -0.550 OA
ENDBRANCH   2   3
ENDBRANCH   1   2
BRANCH   1   6
ATOM      6  C   UNL     1      49.912  24.595  35.918  1.00  0.00     0.000 C 
BRANCH   6   7
ATOM      7  C   UNL     1      49.770  23.714  34.668  1.00  0.00    -0.000 C 
BRANCH   7   8
ATOM      8  C   UNL     1      48.505  22.852  34.747  1.00  0.00    -0.003 C 
ATOM      9  C   UNL     1      47.422  23.372  33.806  1.00  0.00     0.004 C 
ENDBRANCH   7   8
ENDBRANCH   6   7
ENDBRANCH   1   6
TORSDOF 5
ENDMDL
MODEL 8
REMARK VINA RESULT:    -3.173      2.515      4.461
REMARK INTER + INTRA:          -4.542
REMARK INTER:                  -4.186
REMARK INTRA:                  -0.356
REMARK UNBOUND:                -0.442
REMARK SMILES CCCCCCC(=O)[O-]
REMARK SMILES IDX 5 1 6 2 7 3 8 4 9 5 4 6 3 7 2 8 1 9
REMARK H PARENT
REMARK Flexibility Score: inf
ROOT
ATOM      1  C   UNL     1      49.541  26.352  33.703  1.00  0.00     0.006 C 
ENDROOT
BRANCH   1   2
ATOM      2  C   UNL     1      48.686  25.110  33.988  1.00  0.00     0.053 C 
BRANCH   2   3
ATOM      3  C   UNL     1      49.361  24.231  34.992  1.00  0.00     0.041 C 
ATOM      4  O   UNL     1      49.661  23.044  34.695  1.00  0.00    -0.550 OA
ATOM      5  O   UNL     1      49.703  24.737  36.240  1.00  0.00    -0.550 OA
ENDBRANCH   2   3
ENDBRANCH   1   2
BRANCH   1   6
ATOM      6  C   UNL     1      50.912  26.001  33.105  1.00  0.00     0.000 C 
BRANCH   6   7
ATOM      7  C   UNL     1      52.080  26.558  33.933  1.00  0.00    -0.000 C 
BRANCH   7   8
ATOM      8  C   UNL     1      51.570  27.474  35.052  1.00  0.00    -0.003 C 
ATOM      9  C   UNL     1      52.438  28.723  35.182  1.00  0.00     0.004 C 
ENDBRANCH   7   8
ENDBRANCH   6   7
ENDBRANCH   1   6
TORSDOF 5
ENDMDL
MODEL 9
REMARK VINA RESULT:    -3.127      2.114      2.789
REMARK INTER + INTRA:          -4.483
REMARK INTER:                  -4.003
REMARK INTRA:                  -0.480
REMARK UNBOUND:                -0.442
REMARK SMILES CCCCCCC(=O)[O-]
REMARK SMILES IDX 5 1 6 2 7 3 8 4 9 5 4 6 3 7 2 8 1 9
REMARK H PARENT
REMARK Flexibility Score: inf
ROOT
ATOM      1  C   UNL     1      51.815  26.252  33.696  1.00  0.00     0.006 C 
ENDROOT
BRANCH   1   2
ATOM      2  C   UNL     1      51.285  27.104  34.858  1.00  0.00     0.053 C 
BRANCH   2   3
ATOM      3  C   UNL     1      50.528  26.252  35.826  1.00  0.00     0.041 C 
ATOM      4  O   UNL     1      49.350  26.557  36.151  1.00  0.00    -0.550 OA
ATOM      5  O   UNL     1      51.104  25.095  36.332  1.00  0.00    -0.550 OA
ENDBRANCH   2   3
ENDBRANCH   1   2
BRANCH   1   6
ATOM      6  C   UNL     1      50.688  25.649  32.844  1.00  0.00     0.000 C 
BRANCH   6   7
ATOM      7  C   UNL     1      50.783  24.120  32.731  1.00  0.00    -0.000 C 
BRANCH   7   8
ATOM      8  C   UNL     1      49.618  23.444  33.463  1.00  0.00    -0.003 C 
ATOM      9  C   UNL     1      48.390  24.349  33.501  1.00  0.00     0.004 C 
ENDBRANCH   7   8
ENDBRANCH   6   7
ENDBRANCH   1   6
TORSDOF 5
ENDMDL
