MODEL 1
REMARK VINA RESULT:    -6.665      0.000      0.000
REMARK INTER + INTRA:          -8.241
REMARK INTER:                  -8.028
REMARK INTRA:                  -0.213
REMARK UNBOUND:                -0.213
REMARK SMILES O=c1c(O)c(-c2ccc(O)c(O)c2)oc2cc(O)cc(O)c12
REMARK SMILES IDX 5 1 3 2 2 3 1 4 22 5 20 6 19 7 17 8 16 9 15 10 14 11 6 12
REMARK SMILES IDX 7 13 8 14 9 15 13 16 11 17 10 18 12 20 4 22 21 24 18 26
REMARK H PARENT 10 19 12 21 4 23 21 25 18 27
REMARK Flexibility Score: inf
ROOT
ATOM      1  C   UNL     1       1.149 -37.064  20.801  1.00  0.00     0.180 A 
ATOM      2  C   UNL     1       1.717 -37.076  19.516  1.00  0.00     0.208 A 
ATOM      3  C   UNL     1       3.114 -37.126  19.389  1.00  0.00     0.238 A 
ATOM      4  O   UNL     1       3.619 -37.081  18.237  1.00  0.00    -0.285 OA
ATOM      5  C   UNL     1       3.925 -37.181  20.549  1.00  0.00     0.111 A 
ATOM      6  C   UNL     1       5.349 -37.274  20.538  1.00  0.00     0.134 A 
ATOM      7  C   UNL     1       6.057 -37.189  21.743  1.00  0.00     0.093 A 
ATOM      8  C   UNL     1       5.390 -37.080  22.964  1.00  0.00     0.123 A 
ATOM      9  C   UNL     1       3.995 -37.048  22.991  1.00  0.00     0.094 A 
ATOM     10  C   UNL     1       3.263 -37.094  21.801  1.00  0.00     0.146 A 
ATOM     11  O   UNL     1       1.938 -37.050  21.870  1.00  0.00    -0.452 OA
ENDROOT
BRANCH   1  12
ATOM     12  C   UNL     1      -0.317 -37.038  21.016  1.00  0.00     0.025 A 
ATOM     13  C   UNL     1      -1.130 -38.124  20.650  1.00  0.00     0.016 A 
ATOM     14  C   UNL     1      -2.506 -38.086  20.883  1.00  0.00     0.051 A 
ATOM     15  C   UNL     1      -3.090 -36.973  21.495  1.00  0.00     0.157 A 
ATOM     16  C   UNL     1      -0.903 -35.929  21.649  1.00  0.00     0.062 A 
ATOM     17  C   UNL     1      -2.285 -35.889  21.884  1.00  0.00     0.158 A 
BRANCH  15  18
ATOM     18  O   UNL     1      -4.467 -36.964  21.714  1.00  0.00    -0.504 OA
ATOM     19  H   UNL     1      -4.888 -37.415  22.517  1.00  0.00     0.293 HD
ENDBRANCH  15  18
BRANCH  17  20
ATOM     20  O   UNL     1      -2.859 -34.779  22.501  1.00  0.00    -0.504 OA
ATOM     21  H   UNL     1      -2.995 -34.741  23.505  1.00  0.00     0.293 HD
ENDBRANCH  17  20
ENDBRANCH   1  12
BRANCH   2  22
ATOM     22  O   UNL     1       0.899 -36.999  18.385  1.00  0.00    -0.502 OA
ATOM     23  H   UNL     1       0.181 -37.684  18.185  1.00  0.00     0.293 HD
ENDBRANCH   2  22
BRANCH   6  24
ATOM     24  O   UNL     1       6.109 -37.477  19.383  1.00  0.00    -0.507 OA
ATOM     25  H   UNL     1       6.987 -37.021  19.184  1.00  0.00     0.293 HD
ENDBRANCH   6  24
BRANCH   8  26
ATOM     26  O   UNL     1       6.125 -37.014  24.146  1.00  0.00    -0.508 OA
ATOM     27  H   UNL     1       6.488 -37.848  24.590  1.00  0.00     0.293 HD
ENDBRANCH   8  26
TORSDOF 6
ENDMDL
MODEL 2
REMARK VINA RESULT:    -6.470      1.132      1.209
REMARK INTER + INTRA:          -8.006
REMARK INTER:                  -8.140
REMARK INTRA:                   0.134
REMARK UNBOUND:                -0.213
REMARK SMILES O=c1c(O)c(-c2ccc(O)c(O)c2)oc2cc(O)cc(O)c12
REMARK SMILES IDX 5 1 3 2 2 3 1 4 22 5 20 6 19 7 17 8 16 9 15 10 14 11 6 12
REMARK SMILES IDX 7 13 8 14 9 15 13 16 11 17 10 18 12 20 4 22 21 24 18 26
REMARK H PARENT 10 19 12 21 4 23 21 25 18 27
REMARK Flexibility Score: inf
ROOT
ATOM      1  C   UNL     1       0.556 -36.632  21.093  1.00  0.00     0.180 A 
ATOM      2  C   UNL     1       0.890 -37.322  19.916  1.00  0.00     0.208 A 
ATOM      3  C   UNL     1       2.244 -37.550  19.621  1.00  0.00     0.238 A 
ATOM      4  O   UNL     1       2.539 -38.121  18.538  1.00  0.00    -0.285 OA
ATOM      5  C   UNL     1       3.245 -37.099  20.515  1.00  0.00     0.111 A 
ATOM      6  C   UNL     1       4.645 -37.310  20.336  1.00  0.00     0.134 A 
ATOM      7  C   UNL     1       5.553 -36.706  21.215  1.00  0.00     0.093 A 
ATOM      8  C   UNL     1       5.110 -35.954  22.303  1.00  0.00     0.123 A 
ATOM      9  C   UNL     1       3.741 -35.790  22.521  1.00  0.00     0.094 A 
ATOM     10  C   UNL     1       2.813 -36.351  21.640  1.00  0.00     0.146 A 
ATOM     11  O   UNL     1       1.520 -36.163  21.878  1.00  0.00    -0.452 OA
ENDROOT
BRANCH   1  12
ATOM     12  C   UNL     1      -0.849 -36.375  21.485  1.00  0.00     0.025 A 
ATOM     13  C   UNL     1      -1.854 -37.335  21.275  1.00  0.00     0.016 A 
ATOM     14  C   UNL     1      -3.169 -37.081  21.673  1.00  0.00     0.051 A 
ATOM     15  C   UNL     1      -3.498 -35.875  22.299  1.00  0.00     0.157 A 
ATOM     16  C   UNL     1      -1.179 -35.173  22.132  1.00  0.00     0.062 A 
ATOM     17  C   UNL     1      -2.497 -34.916  22.534  1.00  0.00     0.158 A 
BRANCH  15  18
ATOM     18  O   UNL     1      -4.818 -35.649  22.685  1.00  0.00    -0.504 OA
ATOM     19  H   UNL     1      -5.563 -35.526  22.010  1.00  0.00     0.293 HD
ENDBRANCH  15  18
BRANCH  17  20
ATOM     20  O   UNL     1      -2.817 -33.714  23.163  1.00  0.00    -0.504 OA
ATOM     21  H   UNL     1      -3.665 -33.207  22.939  1.00  0.00     0.293 HD
ENDBRANCH  17  20
ENDBRANCH   1  12
BRANCH   2  22
ATOM     22  O   UNL     1      -0.113 -37.740  19.037  1.00  0.00    -0.502 OA
ATOM     23  H   UNL     1      -0.083 -38.634  18.562  1.00  0.00     0.293 HD
ENDBRANCH   2  22
BRANCH   6  24
ATOM     24  O   UNL     1       5.191 -38.119  19.336  1.00  0.00    -0.507 OA
ATOM     25  H   UNL     1       5.407 -39.099  19.443  1.00  0.00     0.293 HD
ENDBRANCH   6  24
BRANCH   8  26
ATOM     26  O   UNL     1       6.041 -35.380  23.167  1.00  0.00    -0.508 OA
ATOM     27  H   UNL     1       6.344 -34.420  23.057  1.00  0.00     0.293 HD
ENDBRANCH   8  26
TORSDOF 6
ENDMDL
MODEL 3
REMARK VINA RESULT:    -6.433     21.999     24.117
REMARK INTER + INTRA:          -7.962
REMARK INTER:                  -7.674
REMARK INTRA:                  -0.288
REMARK UNBOUND:                -0.213
REMARK SMILES O=c1c(O)c(-c2ccc(O)c(O)c2)oc2cc(O)cc(O)c12
REMARK SMILES IDX 5 1 3 2 2 3 1 4 22 5 20 6 19 7 17 8 16 9 15 10 14 11 6 12
REMARK SMILES IDX 7 13 8 14 9 15 13 16 11 17 10 18 12 20 4 22 21 24 18 26
REMARK H PARENT 10 19 12 21 4 23 21 25 18 27
REMARK Flexibility Score: inf
ROOT
ATOM      1  C   UNL     1      -7.011 -18.952  32.945  1.00  0.00     0.180 A 
ATOM      2  C   UNL     1      -8.085 -18.528  33.745  1.00  0.00     0.208 A 
ATOM      3  C   UNL     1      -9.335 -18.307  33.144  1.00  0.00     0.238 A 
ATOM      4  O   UNL     1     -10.280 -17.875  33.855  1.00  0.00    -0.285 OA
ATOM      5  C   UNL     1      -9.498 -18.528  31.755  1.00  0.00     0.111 A 
ATOM      6  C   UNL     1     -10.729 -18.374  31.049  1.00  0.00     0.134 A 
ATOM      7  C   UNL     1     -10.744 -18.492  29.654  1.00  0.00     0.093 A 
ATOM      8  C   UNL     1      -9.589 -18.823  28.946  1.00  0.00     0.123 A 
ATOM      9  C   UNL     1      -8.392 -19.034  29.632  1.00  0.00     0.094 A 
ATOM     10  C   UNL     1      -8.338 -18.887  31.021  1.00  0.00     0.146 A 
ATOM     11  O   UNL     1      -7.178 -19.087  31.635  1.00  0.00    -0.452 OA
ENDROOT
BRANCH   1  12
ATOM     12  C   UNL     1      -5.670 -19.230  33.510  1.00  0.00     0.025 A 
ATOM     13  C   UNL     1      -4.632 -18.286  33.431  1.00  0.00     0.016 A 
ATOM     14  C   UNL     1      -3.382 -18.560  33.991  1.00  0.00     0.051 A 
ATOM     15  C   UNL     1      -3.153 -19.772  34.650  1.00  0.00     0.157 A 
ATOM     16  C   UNL     1      -5.442 -20.438  34.190  1.00  0.00     0.062 A 
ATOM     17  C   UNL     1      -4.189 -20.716  34.754  1.00  0.00     0.158 A 
BRANCH  15  18
ATOM     18  O   UNL     1      -1.895 -20.019  35.198  1.00  0.00    -0.504 OA
ATOM     19  H   UNL     1      -1.318 -19.277  35.577  1.00  0.00     0.293 HD
ENDBRANCH  15  18
BRANCH  17  20
ATOM     20  O   UNL     1      -3.969 -21.923  35.415  1.00  0.00    -0.504 OA
ATOM     21  H   UNL     1      -4.110 -22.814  34.954  1.00  0.00     0.293 HD
ENDBRANCH  17  20
ENDBRANCH   1  12
BRANCH   2  22
ATOM     22  O   UNL     1      -7.898 -18.295  35.110  1.00  0.00    -0.502 OA
ATOM     23  H   UNL     1      -8.211 -18.944  35.821  1.00  0.00     0.293 HD
ENDBRANCH   2  22
BRANCH   6  24
ATOM     24  O   UNL     1     -11.959 -18.134  31.667  1.00  0.00    -0.507 OA
ATOM     25  H   UNL     1     -12.412 -17.234  31.717  1.00  0.00     0.293 HD
ENDBRANCH   6  24
BRANCH   8  26
ATOM     26  O   UNL     1      -9.644 -18.948  27.559  1.00  0.00    -0.508 OA
ATOM     27  H   UNL     1     -10.514 -18.844  27.053  1.00  0.00     0.293 HD
ENDBRANCH   8  26
TORSDOF 6
ENDMDL
MODEL 4
REMARK VINA RESULT:    -6.052     22.296     23.993
REMARK INTER + INTRA:          -7.502
REMARK INTER:                  -7.725
REMARK INTRA:                   0.223
REMARK UNBOUND:                -0.213
REMARK SMILES O=c1c(O)c(-c2ccc(O)c(O)c2)oc2cc(O)cc(O)c12
REMARK SMILES IDX 5 1 3 2 2 3 1 4 22 5 20 6 19 7 17 8 16 9 15 10 14 11 6 12
REMARK SMILES IDX 7 13 8 14 9 15 13 16 11 17 10 18 12 20 4 22 21 24 18 26
REMARK H PARENT 10 19 12 21 4 23 21 25 18 27
REMARK Flexibility Score: inf
ROOT
ATOM      1  C   UNL     1      -7.439 -19.979  33.387  1.00  0.00     0.180 A 
ATOM      2  C   UNL     1      -7.480 -19.550  32.050  1.00  0.00     0.208 A 
ATOM      3  C   UNL     1      -8.727 -19.332  31.442  1.00  0.00     0.238 A 
ATOM      4  O   UNL     1      -8.758 -19.001  30.228  1.00  0.00    -0.285 OA
ATOM      5  C   UNL     1      -9.916 -19.530  32.184  1.00  0.00     0.111 A 
ATOM      6  C   UNL     1     -11.232 -19.301  31.681  1.00  0.00     0.134 A 
ATOM      7  C   UNL     1     -12.341 -19.655  32.460  1.00  0.00     0.093 A 
ATOM      8  C   UNL     1     -12.182 -20.169  33.747  1.00  0.00     0.123 A 
ATOM      9  C   UNL     1     -10.900 -20.342  34.272  1.00  0.00     0.094 A 
ATOM     10  C   UNL     1      -9.775 -20.031  33.504  1.00  0.00     0.146 A 
ATOM     11  O   UNL     1      -8.573 -20.220  34.036  1.00  0.00    -0.452 OA
ENDROOT
BRANCH   1  12
ATOM     12  C   UNL     1      -6.163 -20.206  34.104  1.00  0.00     0.025 A 
ATOM     13  C   UNL     1      -6.008 -21.276  35.002  1.00  0.00     0.016 A 
ATOM     14  C   UNL     1      -4.788 -21.485  35.649  1.00  0.00     0.051 A 
ATOM     15  C   UNL     1      -3.702 -20.640  35.402  1.00  0.00     0.157 A 
ATOM     16  C   UNL     1      -5.064 -19.372  33.842  1.00  0.00     0.062 A 
ATOM     17  C   UNL     1      -3.838 -19.578  34.490  1.00  0.00     0.158 A 
BRANCH  15  18
ATOM     18  O   UNL     1      -2.497 -20.872  36.063  1.00  0.00    -0.504 OA
ATOM     19  H   UNL     1      -2.340 -21.704  36.620  1.00  0.00     0.293 HD
ENDBRANCH  15  18
BRANCH  17  20
ATOM     20  O   UNL     1      -2.758 -18.737  34.233  1.00  0.00    -0.504 OA
ATOM     21  H   UNL     1      -1.817 -19.098  34.131  1.00  0.00     0.293 HD
ENDBRANCH  17  20
ENDBRANCH   1  12
BRANCH   2  22
ATOM     22  O   UNL     1      -6.294 -19.382  31.329  1.00  0.00    -0.502 OA
ATOM     23  H   UNL     1      -5.752 -20.164  30.982  1.00  0.00     0.293 HD
ENDBRANCH   2  22
BRANCH   6  24
ATOM     24  O   UNL     1     -11.503 -18.708  30.445  1.00  0.00    -0.507 OA
ATOM     25  H   UNL     1     -12.190 -17.985  30.293  1.00  0.00     0.293 HD
ENDBRANCH   6  24
BRANCH   8  26
ATOM     26  O   UNL     1     -13.308 -20.496  34.501  1.00  0.00    -0.508 OA
ATOM     27  H   UNL     1     -14.064 -19.836  34.635  1.00  0.00     0.293 HD
ENDBRANCH   8  26
TORSDOF 6
ENDMDL
MODEL 5
REMARK VINA RESULT:    -5.894      1.844      6.809
REMARK INTER + INTRA:          -7.313
REMARK INTER:                  -7.050
REMARK INTRA:                  -0.263
REMARK UNBOUND:                -0.213
REMARK SMILES O=c1c(O)c(-c2ccc(O)c(O)c2)oc2cc(O)cc(O)c12
REMARK SMILES IDX 5 1 3 2 2 3 1 4 22 5 20 6 19 7 17 8 16 9 15 10 14 11 6 12
REMARK SMILES IDX 7 13 8 14 9 15 13 16 11 17 10 18 12 20 4 22 21 24 18 26
REMARK H PARENT 10 19 12 21 4 23 21 25 18 27
REMARK Flexibility Score: inf
ROOT
ATOM      1  C   UNL     1       0.818 -36.077  20.855  1.00  0.00     0.180 A 
ATOM      2  C   UNL     1      -0.251 -36.964  20.642  1.00  0.00     0.208 A 
ATOM      3  C   UNL     1      -1.496 -36.685  21.229  1.00  0.00     0.238 A 
ATOM      4  O   UNL     1      -2.434 -37.510  21.079  1.00  0.00    -0.285 OA
ATOM      5  C   UNL     1      -1.659 -35.514  22.009  1.00  0.00     0.111 A 
ATOM      6  C   UNL     1      -2.886 -35.111  22.618  1.00  0.00     0.134 A 
ATOM      7  C   UNL     1      -2.901 -34.004  23.476  1.00  0.00     0.093 A 
ATOM      8  C   UNL     1      -1.749 -33.248  23.695  1.00  0.00     0.123 A 
ATOM      9  C   UNL     1      -0.558 -33.597  23.057  1.00  0.00     0.094 A 
ATOM     10  C   UNL     1      -0.505 -34.719  22.225  1.00  0.00     0.146 A 
ATOM     11  O   UNL     1       0.651 -35.023  21.645  1.00  0.00    -0.452 OA
ENDROOT
BRANCH   1  12
ATOM     12  C   UNL     1       2.152 -36.291  20.249  1.00  0.00     0.025 A 
ATOM     13  C   UNL     1       2.374 -36.084  18.877  1.00  0.00     0.016 A 
ATOM     14  C   UNL     1       3.647 -36.269  18.331  1.00  0.00     0.051 A 
ATOM     15  C   UNL     1       4.718 -36.649  19.146  1.00  0.00     0.157 A 
ATOM     16  C   UNL     1       3.234 -36.653  21.068  1.00  0.00     0.062 A 
ATOM     17  C   UNL     1       4.513 -36.839  20.523  1.00  0.00     0.158 A 
BRANCH  15  18
ATOM     18  O   UNL     1       5.976 -36.827  18.572  1.00  0.00    -0.504 OA
ATOM     19  H   UNL     1       6.548 -37.640  18.770  1.00  0.00     0.293 HD
ENDBRANCH  15  18
BRANCH  17  20
ATOM     20  O   UNL     1       5.577 -37.211  21.342  1.00  0.00    -0.504 OA
ATOM     21  H   UNL     1       6.047 -38.102  21.229  1.00  0.00     0.293 HD
ENDBRANCH  17  20
ENDBRANCH   1  12
BRANCH   2  22
ATOM     22  O   UNL     1      -0.062 -38.125  19.887  1.00  0.00    -0.502 OA
ATOM     23  H   UNL     1      -0.777 -38.498  19.273  1.00  0.00     0.293 HD
ENDBRANCH   2  22
BRANCH   6  24
ATOM     24  O   UNL     1      -4.113 -35.742  22.394  1.00  0.00    -0.507 OA
ATOM     25  H   UNL     1      -4.710 -36.113  23.118  1.00  0.00     0.293 HD
ENDBRANCH   6  24
BRANCH   8  26
ATOM     26  O   UNL     1      -1.804 -32.143  24.542  1.00  0.00    -0.508 OA
ATOM     27  H   UNL     1      -2.646 -31.909  25.054  1.00  0.00     0.293 HD
ENDBRANCH   8  26
TORSDOF 6
ENDMDL
MODEL 6
REMARK VINA RESULT:    -5.833      1.798      7.310
REMARK INTER + INTRA:          -7.239
REMARK INTER:                  -6.906
REMARK INTRA:                  -0.333
REMARK UNBOUND:                -0.213
REMARK SMILES O=c1c(O)c(-c2ccc(O)c(O)c2)oc2cc(O)cc(O)c12
REMARK SMILES IDX 5 1 3 2 2 3 1 4 22 5 20 6 19 7 17 8 16 9 15 10 14 11 6 12
REMARK SMILES IDX 7 13 8 14 9 15 13 16 11 17 10 18 12 20 4 22 21 24 18 26
REMARK H PARENT 10 19 12 21 4 23 21 25 18 27
REMARK Flexibility Score: inf
ROOT
ATOM      1  C   UNL     1       0.629 -36.481  20.991  1.00  0.00     0.180 A 
ATOM      2  C   UNL     1       0.308 -35.488  21.931  1.00  0.00     0.208 A 
ATOM      3  C   UNL     1      -1.043 -35.230  22.216  1.00  0.00     0.238 A 
ATOM      4  O   UNL     1      -1.327 -34.302  23.018  1.00  0.00    -0.285 OA
ATOM      5  C   UNL     1      -2.054 -35.981  21.568  1.00  0.00     0.111 A 
ATOM      6  C   UNL     1      -3.453 -35.833  21.809  1.00  0.00     0.134 A 
ATOM      7  C   UNL     1      -4.369 -36.536  21.017  1.00  0.00     0.093 A 
ATOM      8  C   UNL     1      -3.937 -37.430  20.038  1.00  0.00     0.123 A 
ATOM      9  C   UNL     1      -2.570 -37.628  19.834  1.00  0.00     0.094 A 
ATOM     10  C   UNL     1      -1.633 -36.912  20.585  1.00  0.00     0.146 A 
ATOM     11  O   UNL     1      -0.342 -37.122  20.352  1.00  0.00    -0.452 OA
ENDROOT
BRANCH   1  12
ATOM     12  C   UNL     1       2.031 -36.826  20.658  1.00  0.00     0.025 A 
ATOM     13  C   UNL     1       2.738 -37.798  21.386  1.00  0.00     0.016 A 
ATOM     14  C   UNL     1       4.051 -38.125  21.038  1.00  0.00     0.051 A 
ATOM     15  C   UNL     1       4.673 -37.499  19.953  1.00  0.00     0.157 A 
ATOM     16  C   UNL     1       2.650 -36.214  19.556  1.00  0.00     0.062 A 
ATOM     17  C   UNL     1       3.968 -36.540  19.205  1.00  0.00     0.158 A 
BRANCH  15  18
ATOM     18  O   UNL     1       5.984 -37.844  19.631  1.00  0.00    -0.504 OA
ATOM     19  H   UNL     1       6.534 -37.311  18.968  1.00  0.00     0.293 HD
ENDBRANCH  15  18
BRANCH  17  20
ATOM     20  O   UNL     1       4.579 -35.917  18.118  1.00  0.00    -0.504 OA
ATOM     21  H   UNL     1       4.131 -35.875  17.210  1.00  0.00     0.293 HD
ENDBRANCH  17  20
ENDBRANCH   1  12
BRANCH   2  22
ATOM     22  O   UNL     1       1.320 -34.743  22.543  1.00  0.00    -0.502 OA
ATOM     23  H   UNL     1       2.175 -34.488  22.062  1.00  0.00     0.293 HD
ENDBRANCH   2  22
BRANCH   6  24
ATOM     24  O   UNL     1      -3.990 -35.036  22.824  1.00  0.00    -0.507 OA
ATOM     25  H   UNL     1      -4.855 -35.225  23.308  1.00  0.00     0.293 HD
ENDBRANCH   6  24
BRANCH   8  26
ATOM     26  O   UNL     1      -4.876 -38.125  19.278  1.00  0.00    -0.508 OA
ATOM     27  H   UNL     1      -5.865 -37.918  19.342  1.00  0.00     0.293 HD
ENDBRANCH   8  26
TORSDOF 6
ENDMDL
MODEL 7
REMARK VINA RESULT:    -5.735      1.995      6.954
REMARK INTER + INTRA:          -7.121
REMARK INTER:                  -6.823
REMARK INTRA:                  -0.298
REMARK UNBOUND:                -0.213
REMARK SMILES O=c1c(O)c(-c2ccc(O)c(O)c2)oc2cc(O)cc(O)c12
REMARK SMILES IDX 5 1 3 2 2 3 1 4 22 5 20 6 19 7 17 8 16 9 15 10 14 11 6 12
REMARK SMILES IDX 7 13 8 14 9 15 13 16 11 17 10 18 12 20 4 22 21 24 18 26
REMARK H PARENT 10 19 12 21 4 23 21 25 18 27
REMARK Flexibility Score: inf
ROOT
ATOM      1  C   UNL     1       0.403 -35.887  21.365  1.00  0.00     0.180 A 
ATOM      2  C   UNL     1      -0.701 -36.724  21.129  1.00  0.00     0.208 A 
ATOM      3  C   UNL     1      -1.956 -36.357  21.643  1.00  0.00     0.238 A 
ATOM      4  O   UNL     1      -2.930 -37.137  21.476  1.00  0.00    -0.285 OA
ATOM      5  C   UNL     1      -2.093 -35.150  22.372  1.00  0.00     0.111 A 
ATOM      6  C   UNL     1      -3.324 -34.661  22.903  1.00  0.00     0.134 A 
ATOM      7  C   UNL     1      -3.319 -33.523  23.720  1.00  0.00     0.093 A 
ATOM      8  C   UNL     1      -2.141 -32.820  23.970  1.00  0.00     0.123 A 
ATOM      9  C   UNL     1      -0.941 -33.256  23.406  1.00  0.00     0.094 A 
ATOM     10  C   UNL     1      -0.908 -34.410  22.617  1.00  0.00     0.146 A 
ATOM     11  O   UNL     1       0.256 -34.796  22.108  1.00  0.00    -0.452 OA
ENDROOT
BRANCH   1  12
ATOM     12  C   UNL     1       1.751 -36.194  20.834  1.00  0.00     0.025 A 
ATOM     13  C   UNL     1       2.725 -36.823  21.629  1.00  0.00     0.016 A 
ATOM     14  C   UNL     1       3.982 -37.123  21.101  1.00  0.00     0.051 A 
ATOM     15  C   UNL     1       4.283 -36.815  19.771  1.00  0.00     0.157 A 
ATOM     16  C   UNL     1       2.049 -35.904  19.493  1.00  0.00     0.062 A 
ATOM     17  C   UNL     1       3.311 -36.204  18.960  1.00  0.00     0.158 A 
BRANCH  15  18
ATOM     18  O   UNL     1       5.547 -37.126  19.271  1.00  0.00    -0.504 OA
ATOM     19  H   UNL     1       5.954 -38.048  19.372  1.00  0.00     0.293 HD
ENDBRANCH  15  18
BRANCH  17  20
ATOM     20  O   UNL     1       3.602 -35.900  17.631  1.00  0.00    -0.504 OA
ATOM     21  H   UNL     1       2.872 -35.667  16.969  1.00  0.00     0.293 HD
ENDBRANCH  17  20
ENDBRANCH   1  12
BRANCH   2  22
ATOM     22  O   UNL     1      -0.540 -37.921  20.426  1.00  0.00    -0.502 OA
ATOM     23  H   UNL     1      -0.130 -37.958  19.500  1.00  0.00     0.293 HD
ENDBRANCH   2  22
BRANCH   6  24
ATOM     24  O   UNL     1      -4.571 -35.234  22.640  1.00  0.00    -0.507 OA
ATOM     25  H   UNL     1      -4.949 -36.035  23.123  1.00  0.00     0.293 HD
ENDBRANCH   6  24
BRANCH   8  26
ATOM     26  O   UNL     1      -2.176 -31.683  24.774  1.00  0.00    -0.508 OA
ATOM     27  H   UNL     1      -1.973 -30.764  24.399  1.00  0.00     0.293 HD
ENDBRANCH   8  26
TORSDOF 6
ENDMDL
MODEL 8
REMARK VINA RESULT:    -4.883      2.203      3.855
REMARK INTER + INTRA:          -6.095
REMARK INTER:                  -6.339
REMARK INTRA:                   0.244
REMARK UNBOUND:                -0.213
REMARK SMILES O=c1c(O)c(-c2ccc(O)c(O)c2)oc2cc(O)cc(O)c12
REMARK SMILES IDX 5 1 3 2 2 3 1 4 22 5 20 6 19 7 17 8 16 9 15 10 14 11 6 12
REMARK SMILES IDX 7 13 8 14 9 15 13 16 11 17 10 18 12 20 4 22 21 24 18 26
REMARK H PARENT 10 19 12 21 4 23 21 25 18 27
REMARK Flexibility Score: inf
ROOT
ATOM      1  C   UNL     1       1.272 -35.117  22.067  1.00  0.00     0.180 A 
ATOM      2  C   UNL     1       2.405 -35.072  22.896  1.00  0.00     0.208 A 
ATOM      3  C   UNL     1       3.612 -35.620  22.430  1.00  0.00     0.238 A 
ATOM      4  O   UNL     1       4.609 -35.626  23.198  1.00  0.00    -0.285 OA
ATOM      5  C   UNL     1       3.672 -36.190  21.136  1.00  0.00     0.111 A 
ATOM      6  C   UNL     1       4.851 -36.738  20.547  1.00  0.00     0.134 A 
ATOM      7  C   UNL     1       4.766 -37.394  19.312  1.00  0.00     0.093 A 
ATOM      8  C   UNL     1       3.560 -37.465  18.616  1.00  0.00     0.123 A 
ATOM      9  C   UNL     1       2.413 -36.881  19.155  1.00  0.00     0.094 A 
ATOM     10  C   UNL     1       2.460 -36.251  20.403  1.00  0.00     0.146 A 
ATOM     11  O   UNL     1       1.343 -35.717  20.885  1.00  0.00    -0.452 OA
ENDROOT
BRANCH   1  12
ATOM     12  C   UNL     1      -0.029 -34.538  22.478  1.00  0.00     0.025 A 
ATOM     13  C   UNL     1      -1.245 -35.154  22.137  1.00  0.00     0.016 A 
ATOM     14  C   UNL     1      -2.458 -34.604  22.555  1.00  0.00     0.051 A 
ATOM     15  C   UNL     1      -2.478 -33.440  23.330  1.00  0.00     0.157 A 
ATOM     16  C   UNL     1      -0.050 -33.381  23.274  1.00  0.00     0.062 A 
ATOM     17  C   UNL     1      -1.267 -32.825  23.695  1.00  0.00     0.158 A 
BRANCH  15  18
ATOM     18  O   UNL     1      -3.704 -32.913  23.732  1.00  0.00    -0.504 OA
ATOM     19  H   UNL     1      -3.782 -31.999  24.162  1.00  0.00     0.293 HD
ENDBRANCH  15  18
BRANCH  17  20
ATOM     20  O   UNL     1      -1.279 -31.669  24.473  1.00  0.00    -0.504 OA
ATOM     21  H   UNL     1      -1.449 -31.704  25.472  1.00  0.00     0.293 HD
ENDBRANCH  17  20
ENDBRANCH   1  12
BRANCH   2  22
ATOM     22  O   UNL     1       2.318 -34.524  24.179  1.00  0.00    -0.502 OA
ATOM     23  H   UNL     1       3.136 -34.296  24.731  1.00  0.00     0.293 HD
ENDBRANCH   2  22
BRANCH   6  24
ATOM     24  O   UNL     1       6.125 -36.641  21.114  1.00  0.00    -0.507 OA
ATOM     25  H   UNL     1       6.381 -35.996  21.847  1.00  0.00     0.293 HD
ENDBRANCH   6  24
BRANCH   8  26
ATOM     26  O   UNL     1       3.515 -38.112  17.383  1.00  0.00    -0.508 OA
ATOM     27  H   UNL     1       2.663 -38.540  17.041  1.00  0.00     0.293 HD
ENDBRANCH   8  26
TORSDOF 6
ENDMDL
