MODEL 1
REMARK VINA RESULT:    -7.396      0.000      0.000
REMARK INTER + INTRA:         -12.341
REMARK INTER:                 -10.855
REMARK INTRA:                  -1.485
REMARK UNBOUND:                -1.485
REMARK SMILES O=c1c(O[C@@H]2O[C@@H](CO)[C@@H](O)[C@@H](O)[C@@H]2O)c(-c2ccc(O)c(O)c2)oc2cc(O)cc(O)c12
REMARK SMILES IDX 4 1 3 2 16 3 25 4 2 5 26 6 1 7 33 8 27 9 31 10 28 11 30 12
REMARK SMILES IDX 17 13 18 14 19 15 20 16 24 17 22 18 21 19 23 21 32 23 29 25
REMARK SMILES IDX 5 27 14 28 6 29 12 30 7 31 10 32 15 33 13 35 8 37 9 38 11 40
REMARK H PARENT 21 20 23 22 32 24 29 26 15 34 13 36 9 39 11 41
REMARK Flexibility Score: inf
ROOT
ATOM      1  O   UNL     1      11.305  31.407  19.488  1.00  0.00    -0.454 OA
ENDROOT
BRANCH   1   2
ATOM      2  C   UNL     1      11.067  31.944  20.762  1.00  0.00     0.214 A 
ATOM      3  C   UNL     1      12.020  32.744  21.427  1.00  0.00     0.180 A 
ATOM      4  O   UNL     1      11.864  33.001  22.718  1.00  0.00    -0.452 OA
ATOM      5  C   UNL     1       9.868  31.634  21.413  1.00  0.00     0.239 A 
ATOM      6  C   UNL     1      10.784  32.644  23.408  1.00  0.00     0.146 A 
ATOM      7  O   UNL     1       8.995  30.988  20.777  1.00  0.00    -0.285 OA
ATOM      8  C   UNL     1       9.690  32.008  22.766  1.00  0.00     0.111 A 
ATOM      9  C   UNL     1      10.738  32.926  24.774  1.00  0.00     0.094 A 
ATOM     10  C   UNL     1       8.516  31.739  23.528  1.00  0.00     0.134 A 
ATOM     11  C   UNL     1       9.627  32.573  25.528  1.00  0.00     0.123 A 
ATOM     12  C   UNL     1       8.518  31.993  24.905  1.00  0.00     0.093 A 
BRANCH   3  13
ATOM     13  C   UNL     1      13.173  33.354  20.728  1.00  0.00     0.025 A 
ATOM     14  C   UNL     1      14.491  32.990  21.063  1.00  0.00     0.016 A 
ATOM     15  C   UNL     1      15.565  33.462  20.301  1.00  0.00     0.051 A 
ATOM     16  C   UNL     1      15.333  34.316  19.214  1.00  0.00     0.157 A 
ATOM     17  C   UNL     1      12.954  34.252  19.671  1.00  0.00     0.062 A 
ATOM     18  C   UNL     1      14.035  34.752  18.930  1.00  0.00     0.158 A 
BRANCH  16  19
ATOM     19  O   UNL     1      16.370  34.679  18.367  1.00  0.00    -0.504 OA
ATOM     20  H   UNL     1      17.320  34.774  18.716  1.00  0.00     0.293 HD
ENDBRANCH  16  19
BRANCH  18  21
ATOM     21  O   UNL     1      13.818  35.655  17.890  1.00  0.00    -0.504 OA
ATOM     22  H   UNL     1      12.880  35.948  17.628  1.00  0.00     0.293 HD
ENDBRANCH  18  21
ENDBRANCH   3  13
BRANCH  10  23
ATOM     23  O   UNL     1       7.328  31.234  22.989  1.00  0.00    -0.507 OA
ATOM     24  H   UNL     1       6.401  31.522  23.264  1.00  0.00     0.293 HD
ENDBRANCH  10  23
BRANCH  11  25
ATOM     25  O   UNL     1       9.624  32.809  26.901  1.00  0.00    -0.508 OA
ATOM     26  H   UNL     1       8.906  32.415  27.511  1.00  0.00     0.293 HD
ENDBRANCH  11  25
ENDBRANCH   1   2
BRANCH   1  27
ATOM     27  C   UNL     1      11.865  30.108  19.276  1.00  0.00     0.339 C 
ATOM     28  C   UNL     1      13.212  30.200  18.498  1.00  0.00     0.214 C 
ATOM     29  O   UNL     1      11.985  29.461  20.542  1.00  0.00    -0.332 OA
ATOM     30  C   UNL     1      14.387  29.884  19.423  1.00  0.00     0.180 C 
ATOM     31  C   UNL     1      12.769  28.260  20.523  1.00  0.00     0.179 C 
ATOM     32  C   UNL     1      14.214  28.452  19.955  1.00  0.00     0.177 C 
BRANCH  28  33
ATOM     33  O   UNL     1      13.404  31.452  17.875  1.00  0.00    -0.384 OA
ATOM     34  H   UNL     1      13.444  32.117  18.614  1.00  0.00     0.211 HD
ENDBRANCH  28  33
BRANCH  30  35
ATOM     35  O   UNL     1      15.624  30.052  18.773  1.00  0.00    -0.387 OA
ATOM     36  H   UNL     1      15.444  30.477  17.899  1.00  0.00     0.211 HD
ENDBRANCH  30  35
BRANCH  31  37
ATOM     37  C   UNL     1      11.977  27.056  19.948  1.00  0.00     0.191 C 
BRANCH  37  38
ATOM     38  O   UNL     1      12.672  25.851  20.122  1.00  0.00    -0.394 OA
ATOM     39  H   UNL     1      12.587  25.630  21.092  1.00  0.00     0.210 HD
ENDBRANCH  37  38
ENDBRANCH  31  37
BRANCH  32  40
ATOM     40  O   UNL     1      14.499  27.502  18.955  1.00  0.00    -0.387 OA
ATOM     41  H   UNL     1      15.488  27.368  18.948  1.00  0.00     0.211 HD
ENDBRANCH  32  40
ENDBRANCH   1  27
TORSDOF 12
ENDMDL
MODEL 2
REMARK VINA RESULT:    -6.685      1.981      6.457
REMARK INTER + INTRA:         -11.296
REMARK INTER:                  -9.570
REMARK INTRA:                  -1.726
REMARK UNBOUND:                -1.485
REMARK SMILES O=c1c(O[C@@H]2O[C@@H](CO)[C@@H](O)[C@@H](O)[C@@H]2O)c(-c2ccc(O)c(O)c2)oc2cc(O)cc(O)c12
REMARK SMILES IDX 4 1 3 2 16 3 25 4 2 5 26 6 1 7 33 8 27 9 31 10 28 11 30 12
REMARK SMILES IDX 17 13 18 14 19 15 20 16 24 17 22 18 21 19 23 21 32 23 29 25
REMARK SMILES IDX 5 27 14 28 6 29 12 30 7 31 10 32 15 33 13 35 8 37 9 38 11 40
REMARK H PARENT 21 20 23 22 32 24 29 26 15 34 13 36 9 39 11 41
REMARK Flexibility Score: inf
ROOT
ATOM      1  O   UNL     1      11.722  30.430  21.510  1.00  0.00    -0.454 OA
ENDROOT
BRANCH   1   2
ATOM      2  C   UNL     1      12.465  31.554  21.119  1.00  0.00     0.214 A 
ATOM      3  C   UNL     1      12.027  32.869  21.381  1.00  0.00     0.180 A 
ATOM      4  O   UNL     1      12.617  33.884  20.765  1.00  0.00    -0.452 OA
ATOM      5  C   UNL     1      13.652  31.363  20.403  1.00  0.00     0.239 A 
ATOM      6  C   UNL     1      13.693  33.745  19.995  1.00  0.00     0.146 A 
ATOM      7  O   UNL     1      14.071  30.187  20.247  1.00  0.00    -0.285 OA
ATOM      8  C   UNL     1      14.315  32.479  19.839  1.00  0.00     0.111 A 
ATOM      9  C   UNL     1      14.213  34.873  19.358  1.00  0.00     0.094 A 
ATOM     10  C   UNL     1      15.523  32.401  19.085  1.00  0.00     0.134 A 
ATOM     11  C   UNL     1      15.336  34.769  18.549  1.00  0.00     0.123 A 
ATOM     12  C   UNL     1      15.993  33.541  18.424  1.00  0.00     0.093 A 
BRANCH   3  13
ATOM     13  C   UNL     1      10.958  33.171  22.358  1.00  0.00     0.025 A 
ATOM     14  C   UNL     1       9.737  33.731  21.936  1.00  0.00     0.016 A 
ATOM     15  C   UNL     1       8.682  33.878  22.845  1.00  0.00     0.051 A 
ATOM     16  C   UNL     1       8.846  33.489  24.180  1.00  0.00     0.157 A 
ATOM     17  C   UNL     1      11.131  32.834  23.710  1.00  0.00     0.062 A 
ATOM     18  C   UNL     1      10.085  33.015  24.625  1.00  0.00     0.158 A 
BRANCH  16  19
ATOM     19  O   UNL     1       7.770  33.498  25.056  1.00  0.00    -0.504 OA
ATOM     20  H   UNL     1       7.915  33.495  26.063  1.00  0.00     0.293 HD
ENDBRANCH  16  19
BRANCH  18  21
ATOM     21  O   UNL     1      10.261  32.694  25.971  1.00  0.00    -0.504 OA
ATOM     22  H   UNL     1      10.182  31.736  26.302  1.00  0.00     0.293 HD
ENDBRANCH  18  21
ENDBRANCH   3  13
BRANCH  10  23
ATOM     23  O   UNL     1      16.298  31.244  18.962  1.00  0.00    -0.507 OA
ATOM     24  H   UNL     1      16.658  30.704  19.735  1.00  0.00     0.293 HD
ENDBRANCH  10  23
BRANCH  11  25
ATOM     25  O   UNL     1      15.804  35.895  17.875  1.00  0.00    -0.508 OA
ATOM     26  H   UNL     1      16.631  36.404  18.192  1.00  0.00     0.293 HD
ENDBRANCH  11  25
ENDBRANCH   1   2
BRANCH   1  27
ATOM     27  C   UNL     1      10.575  29.960  20.797  1.00  0.00     0.339 C 
ATOM     28  C   UNL     1      10.770  28.488  20.329  1.00  0.00     0.214 C 
ATOM     29  O   UNL     1       9.427  30.144  21.626  1.00  0.00    -0.332 OA
ATOM     30  C   UNL     1       9.887  27.545  21.146  1.00  0.00     0.180 C 
ATOM     31  C   UNL     1       8.244  29.485  21.156  1.00  0.00     0.179 C 
ATOM     32  C   UNL     1       8.419  27.947  20.931  1.00  0.00     0.177 C 
BRANCH  28  33
ATOM     33  O   UNL     1      12.116  28.065  20.385  1.00  0.00    -0.384 OA
ATOM     34  H   UNL     1      12.087  27.113  20.673  1.00  0.00     0.211 HD
ENDBRANCH  28  33
BRANCH  30  35
ATOM     35  O   UNL     1      10.111  26.196  20.812  1.00  0.00    -0.387 OA
ATOM     36  H   UNL     1      10.002  26.112  19.833  1.00  0.00     0.211 HD
ENDBRANCH  30  35
BRANCH  31  37
ATOM     37  C   UNL     1       7.567  30.260  19.993  1.00  0.00     0.191 C 
BRANCH  37  38
ATOM     38  O   UNL     1       6.210  29.929  19.874  1.00  0.00    -0.394 OA
ATOM     39  H   UNL     1       5.730  30.529  20.512  1.00  0.00     0.210 HD
ENDBRANCH  37  38
ENDBRANCH  31  37
BRANCH  32  40
ATOM     40  O   UNL     1       7.971  27.565  19.651  1.00  0.00    -0.387 OA
ATOM     41  H   UNL     1       6.980  27.680  19.638  1.00  0.00     0.211 HD
ENDBRANCH  32  40
ENDBRANCH   1  27
TORSDOF 12
ENDMDL
MODEL 3
REMARK VINA RESULT:    -6.383      2.654      5.710
REMARK INTER + INTRA:         -10.854
REMARK INTER:                  -9.510
REMARK INTRA:                  -1.343
REMARK UNBOUND:                -1.485
REMARK SMILES O=c1c(O[C@@H]2O[C@@H](CO)[C@@H](O)[C@@H](O)[C@@H]2O)c(-c2ccc(O)c(O)c2)oc2cc(O)cc(O)c12
REMARK SMILES IDX 4 1 3 2 16 3 25 4 2 5 26 6 1 7 33 8 27 9 31 10 28 11 30 12
REMARK SMILES IDX 17 13 18 14 19 15 20 16 24 17 22 18 21 19 23 21 32 23 29 25
REMARK SMILES IDX 5 27 14 28 6 29 12 30 7 31 10 32 15 33 13 35 8 37 9 38 11 40
REMARK H PARENT 21 20 23 22 32 24 29 26 15 34 13 36 9 39 11 41
REMARK Flexibility Score: inf
ROOT
ATOM      1  O   UNL     1      13.161  29.807  19.967  1.00  0.00    -0.454 OA
ENDROOT
BRANCH   1   2
ATOM      2  C   UNL     1      12.095  28.953  20.293  1.00  0.00     0.214 A 
ATOM      3  C   UNL     1      10.854  29.446  20.748  1.00  0.00     0.180 A 
ATOM      4  O   UNL     1       9.983  28.607  21.292  1.00  0.00    -0.452 OA
ATOM      5  C   UNL     1      12.287  27.570  20.210  1.00  0.00     0.239 A 
ATOM      6  C   UNL     1      10.162  27.290  21.326  1.00  0.00     0.146 A 
ATOM      7  O   UNL     1      13.370  27.148  19.727  1.00  0.00    -0.285 OA
ATOM      8  C   UNL     1      11.295  26.695  20.711  1.00  0.00     0.111 A 
ATOM      9  C   UNL     1       9.203  26.498  21.959  1.00  0.00     0.094 A 
ATOM     10  C   UNL     1      11.388  25.273  20.686  1.00  0.00     0.134 A 
ATOM     11  C   UNL     1       9.352  25.119  22.012  1.00  0.00     0.123 A 
ATOM     12  C   UNL     1      10.434  24.510  21.368  1.00  0.00     0.093 A 
BRANCH   3  13
ATOM     13  C   UNL     1      10.459  30.864  20.602  1.00  0.00     0.025 A 
ATOM     14  C   UNL     1       9.920  31.339  19.391  1.00  0.00     0.016 A 
ATOM     15  C   UNL     1       9.417  32.643  19.310  1.00  0.00     0.051 A 
ATOM     16  C   UNL     1       9.469  33.486  20.427  1.00  0.00     0.157 A 
ATOM     17  C   UNL     1      10.555  31.733  21.700  1.00  0.00     0.062 A 
ATOM     18  C   UNL     1      10.083  33.050  21.606  1.00  0.00     0.158 A 
BRANCH  16  19
ATOM     19  O   UNL     1       8.850  34.728  20.404  1.00  0.00    -0.504 OA
ATOM     20  H   UNL     1       9.323  35.554  20.763  1.00  0.00     0.293 HD
ENDBRANCH  16  19
BRANCH  18  21
ATOM     21  O   UNL     1      10.191  33.918  22.693  1.00  0.00    -0.504 OA
ATOM     22  H   UNL     1      10.037  33.597  23.645  1.00  0.00     0.293 HD
ENDBRANCH  18  21
ENDBRANCH   3  13
BRANCH  10  23
ATOM     23  O   UNL     1      12.384  24.563  20.006  1.00  0.00    -0.507 OA
ATOM     24  H   UNL     1      13.283  24.938  19.744  1.00  0.00     0.293 HD
ENDBRANCH  10  23
BRANCH  11  25
ATOM     25  O   UNL     1       8.415  24.352  22.701  1.00  0.00    -0.508 OA
ATOM     26  H   UNL     1       8.234  23.378  22.454  1.00  0.00     0.293 HD
ENDBRANCH  11  25
ENDBRANCH   1   2
BRANCH   1  27
ATOM     27  C   UNL     1      14.270  30.045  20.838  1.00  0.00     0.339 C 
ATOM     28  C   UNL     1      15.158  31.209  20.307  1.00  0.00     0.214 C 
ATOM     29  O   UNL     1      13.765  30.270  22.153  1.00  0.00    -0.332 OA
ATOM     30  C   UNL     1      14.991  32.451  21.184  1.00  0.00     0.180 C 
ATOM     31  C   UNL     1      14.732  30.779  23.082  1.00  0.00     0.179 C 
ATOM     32  C   UNL     1      15.431  32.098  22.614  1.00  0.00     0.177 C 
BRANCH  28  33
ATOM     33  O   UNL     1      14.901  31.528  18.957  1.00  0.00    -0.384 OA
ATOM     34  H   UNL     1      13.936  31.768  18.916  1.00  0.00     0.211 HD
ENDBRANCH  28  33
BRANCH  30  35
ATOM     35  O   UNL     1      15.708  33.550  20.675  1.00  0.00    -0.387 OA
ATOM     36  H   UNL     1      16.255  33.223  19.919  1.00  0.00     0.211 HD
ENDBRANCH  30  35
BRANCH  31  37
ATOM     37  C   UNL     1      15.681  29.666  23.603  1.00  0.00     0.191 C 
BRANCH  37  38
ATOM     38  O   UNL     1      16.408  30.091  24.723  1.00  0.00    -0.394 OA
ATOM     39  H   UNL     1      17.127  29.410  24.851  1.00  0.00     0.210 HD
ENDBRANCH  37  38
ENDBRANCH  31  37
BRANCH  32  40
ATOM     40  O   UNL     1      16.833  31.991  22.701  1.00  0.00    -0.387 OA
ATOM     41  H   UNL     1      17.216  32.839  22.339  1.00  0.00     0.211 HD
ENDBRANCH  32  40
ENDBRANCH   1  27
TORSDOF 12
ENDMDL
MODEL 4
REMARK VINA RESULT:    -6.379      1.954      2.706
REMARK INTER + INTRA:         -10.847
REMARK INTER:                  -9.398
REMARK INTRA:                  -1.449
REMARK UNBOUND:                -1.485
REMARK SMILES O=c1c(O[C@@H]2O[C@@H](CO)[C@@H](O)[C@@H](O)[C@@H]2O)c(-c2ccc(O)c(O)c2)oc2cc(O)cc(O)c12
REMARK SMILES IDX 4 1 3 2 16 3 25 4 2 5 26 6 1 7 33 8 27 9 31 10 28 11 30 12
REMARK SMILES IDX 17 13 18 14 19 15 20 16 24 17 22 18 21 19 23 21 32 23 29 25
REMARK SMILES IDX 5 27 14 28 6 29 12 30 7 31 10 32 15 33 13 35 8 37 9 38 11 40
REMARK H PARENT 21 20 23 22 32 24 29 26 15 34 13 36 9 39 11 41
REMARK Flexibility Score: inf
ROOT
ATOM      1  O   UNL     1      11.833  31.986  19.661  1.00  0.00    -0.454 OA
ENDROOT
BRANCH   1   2
ATOM      2  C   UNL     1      11.187  32.277  20.873  1.00  0.00     0.214 A 
ATOM      3  C   UNL     1      11.838  32.149  22.118  1.00  0.00     0.180 A 
ATOM      4  O   UNL     1      11.119  32.173  23.231  1.00  0.00    -0.452 OA
ATOM      5  C   UNL     1       9.841  32.657  20.846  1.00  0.00     0.239 A 
ATOM      6  C   UNL     1       9.815  32.435  23.253  1.00  0.00     0.146 A 
ATOM      7  O   UNL     1       9.297  32.845  19.727  1.00  0.00    -0.285 OA
ATOM      8  C   UNL     1       9.122  32.771  22.060  1.00  0.00     0.111 A 
ATOM      9  C   UNL     1       9.142  32.395  24.475  1.00  0.00     0.094 A 
ATOM     10  C   UNL     1       7.749  33.142  22.151  1.00  0.00     0.134 A 
ATOM     11  C   UNL     1       7.782  32.667  24.539  1.00  0.00     0.123 A 
ATOM     12  C   UNL     1       7.093  33.049  23.384  1.00  0.00     0.093 A 
BRANCH   3  13
ATOM     13  C   UNL     1      13.308  32.034  22.238  1.00  0.00     0.025 A 
ATOM     14  C   UNL     1      14.149  33.075  21.802  1.00  0.00     0.016 A 
ATOM     15  C   UNL     1      15.525  33.018  22.052  1.00  0.00     0.051 A 
ATOM     16  C   UNL     1      16.072  31.914  22.719  1.00  0.00     0.157 A 
ATOM     17  C   UNL     1      13.872  30.907  22.859  1.00  0.00     0.062 A 
ATOM     18  C   UNL     1      15.255  30.836  23.077  1.00  0.00     0.158 A 
BRANCH  16  19
ATOM     19  O   UNL     1      17.407  31.908  23.097  1.00  0.00    -0.504 OA
ATOM     20  H   UNL     1      18.086  32.498  22.624  1.00  0.00     0.293 HD
ENDBRANCH  16  19
BRANCH  18  21
ATOM     21  O   UNL     1      15.818  29.711  23.679  1.00  0.00    -0.504 OA
ATOM     22  H   UNL     1      16.669  29.286  23.320  1.00  0.00     0.293 HD
ENDBRANCH  18  21
ENDBRANCH   3  13
BRANCH  10  23
ATOM     23  O   UNL     1       6.991  33.614  21.075  1.00  0.00    -0.507 OA
ATOM     24  H   UNL     1       6.085  34.051  21.155  1.00  0.00     0.293 HD
ENDBRANCH  10  23
BRANCH  11  25
ATOM     25  O   UNL     1       7.117  32.563  25.759  1.00  0.00    -0.508 OA
ATOM     26  H   UNL     1       7.390  33.125  26.567  1.00  0.00     0.293 HD
ENDBRANCH  11  25
ENDBRANCH   1   2
BRANCH   1  27
ATOM     27  C   UNL     1      12.009  30.657  19.165  1.00  0.00     0.339 C 
ATOM     28  C   UNL     1      13.423  30.477  18.536  1.00  0.00     0.214 C 
ATOM     29  O   UNL     1      11.741  29.744  20.229  1.00  0.00    -0.332 OA
ATOM     30  C   UNL     1      14.299  29.601  19.432  1.00  0.00     0.180 C 
ATOM     31  C   UNL     1      12.127  28.389  19.960  1.00  0.00     0.179 C 
ATOM     32  C   UNL     1      13.632  28.223  19.566  1.00  0.00     0.177 C 
BRANCH  28  33
ATOM     33  O   UNL     1      14.068  31.703  18.270  1.00  0.00    -0.384 OA
ATOM     34  H   UNL     1      14.506  31.590  17.384  1.00  0.00     0.211 HD
ENDBRANCH  28  33
BRANCH  30  35
ATOM     35  O   UNL     1      15.613  29.498  18.939  1.00  0.00    -0.387 OA
ATOM     36  H   UNL     1      15.572  28.992  18.090  1.00  0.00     0.211 HD
ENDBRANCH  30  35
BRANCH  31  37
ATOM     37  C   UNL     1      11.109  27.664  19.040  1.00  0.00     0.191 C 
BRANCH  37  38
ATOM     38  O   UNL     1      11.271  26.272  19.088  1.00  0.00    -0.394 OA
ATOM     39  H   UNL     1      11.097  26.014  20.037  1.00  0.00     0.210 HD
ENDBRANCH  37  38
ENDBRANCH  31  37
BRANCH  32  40
ATOM     40  O   UNL     1      13.769  27.476  18.379  1.00  0.00    -0.387 OA
ATOM     41  H   UNL     1      13.093  26.743  18.412  1.00  0.00     0.211 HD
ENDBRANCH  32  40
ENDBRANCH   1  27
TORSDOF 12
ENDMDL
MODEL 5
REMARK VINA RESULT:    -6.354      1.321      1.826
REMARK INTER + INTRA:         -10.811
REMARK INTER:                  -9.397
REMARK INTRA:                  -1.414
REMARK UNBOUND:                -1.485
REMARK SMILES O=c1c(O[C@@H]2O[C@@H](CO)[C@@H](O)[C@@H](O)[C@@H]2O)c(-c2ccc(O)c(O)c2)oc2cc(O)cc(O)c12
REMARK SMILES IDX 4 1 3 2 16 3 25 4 2 5 26 6 1 7 33 8 27 9 31 10 28 11 30 12
REMARK SMILES IDX 17 13 18 14 19 15 20 16 24 17 22 18 21 19 23 21 32 23 29 25
REMARK SMILES IDX 5 27 14 28 6 29 12 30 7 31 10 32 15 33 13 35 8 37 9 38 11 40
REMARK H PARENT 21 20 23 22 32 24 29 26 15 34 13 36 9 39 11 41
REMARK Flexibility Score: inf
ROOT
ATOM      1  O   UNL     1      10.810  30.625  19.727  1.00  0.00    -0.454 OA
ENDROOT
BRANCH   1   2
ATOM      2  C   UNL     1      10.757  31.291  20.961  1.00  0.00     0.214 A 
ATOM      3  C   UNL     1      11.922  31.729  21.626  1.00  0.00     0.180 A 
ATOM      4  O   UNL     1      11.842  32.105  22.895  1.00  0.00    -0.452 OA
ATOM      5  C   UNL     1       9.514  31.481  21.574  1.00  0.00     0.239 A 
ATOM      6  C   UNL     1      10.691  32.211  23.554  1.00  0.00     0.146 A 
ATOM      7  O   UNL     1       8.480  31.159  20.933  1.00  0.00    -0.285 OA
ATOM      8  C   UNL     1       9.454  31.979  22.896  1.00  0.00     0.111 A 
ATOM      9  C   UNL     1      10.720  32.576  24.900  1.00  0.00     0.094 A 
ATOM     10  C   UNL     1       8.247  32.205  23.619  1.00  0.00     0.134 A 
ATOM     11  C   UNL     1       9.540  32.701  25.621  1.00  0.00     0.123 A 
ATOM     12  C   UNL     1       8.310  32.527  24.979  1.00  0.00     0.093 A 
BRANCH   3  13
ATOM     13  C   UNL     1      13.233  31.831  20.949  1.00  0.00     0.025 A 
ATOM     14  C   UNL     1      14.107  30.727  20.904  1.00  0.00     0.016 A 
ATOM     15  C   UNL     1      15.277  30.790  20.139  1.00  0.00     0.051 A 
ATOM     16  C   UNL     1      15.594  31.958  19.435  1.00  0.00     0.157 A 
ATOM     17  C   UNL     1      13.585  33.015  20.283  1.00  0.00     0.062 A 
ATOM     18  C   UNL     1      14.777  33.087  19.546  1.00  0.00     0.158 A 
BRANCH  16  19
ATOM     19  O   UNL     1      16.674  31.987  18.564  1.00  0.00    -0.504 OA
ATOM     20  H   UNL     1      16.834  31.230  17.904  1.00  0.00     0.293 HD
ENDBRANCH  16  19
BRANCH  18  21
ATOM     21  O   UNL     1      15.134  34.269  18.897  1.00  0.00    -0.504 OA
ATOM     22  H   UNL     1      15.185  35.154  19.395  1.00  0.00     0.293 HD
ENDBRANCH  18  21
ENDBRANCH   3  13
BRANCH  10  23
ATOM     23  O   UNL     1       6.969  32.135  23.053  1.00  0.00    -0.507 OA
ATOM     24  H   UNL     1       6.698  31.501  22.317  1.00  0.00     0.293 HD
ENDBRANCH  10  23
BRANCH  11  25
ATOM     25  O   UNL     1       9.593  33.008  26.979  1.00  0.00    -0.508 OA
ATOM     26  H   UNL     1       9.792  33.955  27.307  1.00  0.00     0.293 HD
ENDBRANCH  11  25
ENDBRANCH   1   2
BRANCH   1  27
ATOM     27  C   UNL     1      10.736  29.202  19.600  1.00  0.00     0.339 C 
ATOM     28  C   UNL     1      11.854  28.666  18.657  1.00  0.00     0.214 C 
ATOM     29  O   UNL     1      10.776  28.633  20.908  1.00  0.00    -0.332 OA
ATOM     30  C   UNL     1      12.921  27.923  19.462  1.00  0.00     0.180 C 
ATOM     31  C   UNL     1      10.973  27.213  20.932  1.00  0.00     0.179 C 
ATOM     32  C   UNL     1      12.254  26.735  20.173  1.00  0.00     0.177 C 
BRANCH  28  33
ATOM     33  O   UNL     1      12.449  29.678  17.875  1.00  0.00    -0.384 OA
ATOM     34  H   UNL     1      13.190  30.045  18.429  1.00  0.00     0.211 HD
ENDBRANCH  28  33
BRANCH  30  35
ATOM     35  O   UNL     1      13.994  27.509  18.650  1.00  0.00    -0.387 OA
ATOM     36  H   UNL     1      13.941  28.021  17.806  1.00  0.00     0.211 HD
ENDBRANCH  30  35
BRANCH  31  37
ATOM     37  C   UNL     1       9.669  26.438  20.602  1.00  0.00     0.191 C 
BRANCH  37  38
ATOM     38  O   UNL     1       9.716  25.121  21.080  1.00  0.00    -0.394 OA
ATOM     39  H   UNL     1       9.142  24.590  20.459  1.00  0.00     0.210 HD
ENDBRANCH  37  38
ENDBRANCH  31  37
BRANCH  32  40
ATOM     40  O   UNL     1      11.952  25.704  19.262  1.00  0.00    -0.387 OA
ATOM     41  H   UNL     1      11.377  25.045  19.742  1.00  0.00     0.211 HD
ENDBRANCH  32  40
ENDBRANCH   1  27
TORSDOF 12
ENDMDL
MODEL 6
REMARK VINA RESULT:    -6.318      2.616      6.423
REMARK INTER + INTRA:         -10.759
REMARK INTER:                 -10.195
REMARK INTRA:                  -0.564
REMARK UNBOUND:                -1.485
REMARK SMILES O=c1c(O[C@@H]2O[C@@H](CO)[C@@H](O)[C@@H](O)[C@@H]2O)c(-c2ccc(O)c(O)c2)oc2cc(O)cc(O)c12
REMARK SMILES IDX 4 1 3 2 16 3 25 4 2 5 26 6 1 7 33 8 27 9 31 10 28 11 30 12
REMARK SMILES IDX 17 13 18 14 19 15 20 16 24 17 22 18 21 19 23 21 32 23 29 25
REMARK SMILES IDX 5 27 14 28 6 29 12 30 7 31 10 32 15 33 13 35 8 37 9 38 11 40
REMARK H PARENT 21 20 23 22 32 24 29 26 15 34 13 36 9 39 11 41
REMARK Flexibility Score: inf
ROOT
ATOM      1  O   UNL     1      12.269  32.038  21.124  1.00  0.00    -0.454 OA
ENDROOT
BRANCH   1   2
ATOM      2  C   UNL     1      12.168  30.650  20.945  1.00  0.00     0.214 A 
ATOM      3  C   UNL     1      13.239  29.779  21.237  1.00  0.00     0.180 A 
ATOM      4  O   UNL     1      13.192  28.526  20.804  1.00  0.00    -0.452 OA
ATOM      5  C   UNL     1      10.988  30.121  20.414  1.00  0.00     0.239 A 
ATOM      6  C   UNL     1      12.127  28.000  20.206  1.00  0.00     0.146 A 
ATOM      7  O   UNL     1      10.015  30.898  20.235  1.00  0.00    -0.285 OA
ATOM      8  C   UNL     1      10.935  28.754  20.052  1.00  0.00     0.111 A 
ATOM      9  C   UNL     1      12.196  26.682  19.750  1.00  0.00     0.094 A 
ATOM     10  C   UNL     1       9.790  28.112  19.496  1.00  0.00     0.134 A 
ATOM     11  C   UNL     1      11.104  26.097  19.125  1.00  0.00     0.123 A 
ATOM     12  C   UNL     1       9.905  26.805  19.009  1.00  0.00     0.093 A 
BRANCH   3  13
ATOM     13  C   UNL     1      14.402  30.192  22.052  1.00  0.00     0.025 A 
ATOM     14  C   UNL     1      15.029  31.434  21.832  1.00  0.00     0.016 A 
ATOM     15  C   UNL     1      16.033  31.877  22.701  1.00  0.00     0.051 A 
ATOM     16  C   UNL     1      16.431  31.077  23.780  1.00  0.00     0.157 A 
ATOM     17  C   UNL     1      14.845  29.374  23.104  1.00  0.00     0.062 A 
ATOM     18  C   UNL     1      15.875  29.805  23.952  1.00  0.00     0.158 A 
BRANCH  16  19
ATOM     19  O   UNL     1      17.322  31.561  24.727  1.00  0.00    -0.504 OA
ATOM     20  H   UNL     1      18.307  31.309  24.695  1.00  0.00     0.293 HD
ENDBRANCH  16  19
BRANCH  18  21
ATOM     21  O   UNL     1      16.325  28.986  24.988  1.00  0.00    -0.504 OA
ATOM     22  H   UNL     1      16.736  28.074  24.803  1.00  0.00     0.293 HD
ENDBRANCH  18  21
ENDBRANCH   3  13
BRANCH  10  23
ATOM     23  O   UNL     1       8.525  28.702  19.407  1.00  0.00    -0.507 OA
ATOM     24  H   UNL     1       7.954  28.967  20.196  1.00  0.00     0.293 HD
ENDBRANCH  10  23
BRANCH  11  25
ATOM     25  O   UNL     1      11.213  24.800  18.624  1.00  0.00    -0.508 OA
ATOM     26  H   UNL     1      10.824  23.999  19.123  1.00  0.00     0.293 HD
ENDBRANCH  11  25
ENDBRANCH   1   2
BRANCH   1  27
ATOM     27  C   UNL     1      11.650  32.737  22.208  1.00  0.00     0.339 C 
ATOM     28  C   UNL     1      10.563  33.725  21.689  1.00  0.00     0.214 C 
ATOM     29  O   UNL     1      11.144  31.772  23.130  1.00  0.00    -0.332 OA
ATOM     30  C   UNL     1       9.165  33.209  22.028  1.00  0.00     0.180 C 
ATOM     31  C   UNL     1      10.271  32.310  24.133  1.00  0.00     0.179 C 
ATOM     32  C   UNL     1       9.047  33.095  23.557  1.00  0.00     0.177 C 
BRANCH  28  33
ATOM     33  O   UNL     1      10.667  33.981  20.305  1.00  0.00    -0.384 OA
ATOM     34  H   UNL     1      11.354  34.694  20.214  1.00  0.00     0.211 HD
ENDBRANCH  28  33
BRANCH  30  35
ATOM     35  O   UNL     1       8.159  34.032  21.489  1.00  0.00    -0.387 OA
ATOM     36  H   UNL     1       8.598  34.845  21.137  1.00  0.00     0.211 HD
ENDBRANCH  30  35
BRANCH  31  37
ATOM     37  C   UNL     1      11.055  33.027  25.265  1.00  0.00     0.191 C 
BRANCH  37  38
ATOM     38  O   UNL     1      10.842  32.414  26.507  1.00  0.00    -0.394 OA
ATOM     39  H   UNL     1      11.751  32.184  26.852  1.00  0.00     0.210 HD
ENDBRANCH  37  38
ENDBRANCH  31  37
BRANCH  32  40
ATOM     40  O   UNL     1       8.930  34.366  24.152  1.00  0.00    -0.387 OA
ATOM     41  H   UNL     1       8.070  34.762  23.836  1.00  0.00     0.211 HD
ENDBRANCH  32  40
ENDBRANCH   1  27
TORSDOF 12
ENDMDL
MODEL 7
REMARK VINA RESULT:    -6.276      2.153      6.101
REMARK INTER + INTRA:         -10.696
REMARK INTER:                  -9.522
REMARK INTRA:                  -1.174
REMARK UNBOUND:                -1.485
REMARK SMILES O=c1c(O[C@@H]2O[C@@H](CO)[C@@H](O)[C@@H](O)[C@@H]2O)c(-c2ccc(O)c(O)c2)oc2cc(O)cc(O)c12
REMARK SMILES IDX 4 1 3 2 16 3 25 4 2 5 26 6 1 7 33 8 27 9 31 10 28 11 30 12
REMARK SMILES IDX 17 13 18 14 19 15 20 16 24 17 22 18 21 19 23 21 32 23 29 25
REMARK SMILES IDX 5 27 14 28 6 29 12 30 7 31 10 32 15 33 13 35 8 37 9 38 11 40
REMARK H PARENT 21 20 23 22 32 24 29 26 15 34 13 36 9 39 11 41
REMARK Flexibility Score: inf
ROOT
ATOM      1  O   UNL     1      10.608  31.007  20.561  1.00  0.00    -0.454 OA
ENDROOT
BRANCH   1   2
ATOM      2  C   UNL     1      11.201  29.738  20.657  1.00  0.00     0.214 A 
ATOM      3  C   UNL     1      12.573  29.532  20.399  1.00  0.00     0.180 A 
ATOM      4  O   UNL     1      13.025  28.296  20.241  1.00  0.00    -0.452 OA
ATOM      5  C   UNL     1      10.396  28.637  20.968  1.00  0.00     0.239 A 
ATOM      6  C   UNL     1      12.274  27.214  20.432  1.00  0.00     0.146 A 
ATOM      7  O   UNL     1       9.194  28.848  21.274  1.00  0.00    -0.285 OA
ATOM      8  C   UNL     1      10.934  27.332  20.886  1.00  0.00     0.111 A 
ATOM      9  C   UNL     1      12.835  25.958  20.198  1.00  0.00     0.094 A 
ATOM     10  C   UNL     1      10.206  26.141  21.172  1.00  0.00     0.134 A 
ATOM     11  C   UNL     1      12.085  24.806  20.389  1.00  0.00     0.123 A 
ATOM     12  C   UNL     1      10.781  24.898  20.885  1.00  0.00     0.093 A 
BRANCH   3  13
ATOM     13  C   UNL     1      13.548  30.644  20.344  1.00  0.00     0.025 A 
ATOM     14  C   UNL     1      13.517  31.574  19.287  1.00  0.00     0.016 A 
ATOM     15  C   UNL     1      14.347  32.701  19.320  1.00  0.00     0.051 A 
ATOM     16  C   UNL     1      15.226  32.894  20.394  1.00  0.00     0.157 A 
ATOM     17  C   UNL     1      14.469  30.818  21.389  1.00  0.00     0.062 A 
ATOM     18  C   UNL     1      15.324  31.930  21.401  1.00  0.00     0.158 A 
BRANCH  16  19
ATOM     19  O   UNL     1      15.950  34.072  20.510  1.00  0.00    -0.504 OA
ATOM     20  H   UNL     1      16.002  34.569  21.396  1.00  0.00     0.293 HD
ENDBRANCH  16  19
BRANCH  18  21
ATOM     21  O   UNL     1      16.250  32.095  22.432  1.00  0.00    -0.504 OA
ATOM     22  H   UNL     1      16.227  32.910  23.040  1.00  0.00     0.293 HD
ENDBRANCH  18  21
ENDBRANCH   3  13
BRANCH  10  23
ATOM     23  O   UNL     1       8.929  26.120  21.742  1.00  0.00    -0.507 OA
ATOM     24  H   UNL     1       8.702  25.711  22.637  1.00  0.00     0.293 HD
ENDBRANCH  10  23
BRANCH  11  25
ATOM     25  O   UNL     1      12.645  23.564  20.093  1.00  0.00    -0.508 OA
ATOM     26  H   UNL     1      13.599  23.477  19.740  1.00  0.00     0.293 HD
ENDBRANCH  11  25
ENDBRANCH   1   2
BRANCH   1  27
ATOM     27  C   UNL     1      10.624  31.962  21.624  1.00  0.00     0.339 C 
ATOM     28  C   UNL     1      10.285  33.389  21.099  1.00  0.00     0.214 C 
ATOM     29  O   UNL     1       9.736  31.509  22.646  1.00  0.00    -0.332 OA
ATOM     30  C   UNL     1       8.890  33.812  21.561  1.00  0.00     0.180 C 
ATOM     31  C   UNL     1       9.445  32.484  23.656  1.00  0.00     0.179 C 
ATOM     32  C   UNL     1       8.871  33.827  23.098  1.00  0.00     0.177 C 
BRANCH  28  33
ATOM     33  O   UNL     1      10.389  33.500  19.697  1.00  0.00    -0.384 OA
ATOM     34  H   UNL     1      11.360  33.426  19.492  1.00  0.00     0.211 HD
ENDBRANCH  28  33
BRANCH  30  35
ATOM     35  O   UNL     1       8.516  35.058  21.023  1.00  0.00    -0.387 OA
ATOM     36  H   UNL     1       9.233  35.702  21.244  1.00  0.00     0.211 HD
ENDBRANCH  30  35
BRANCH  31  37
ATOM     37  C   UNL     1      10.602  32.624  24.681  1.00  0.00     0.191 C 
BRANCH  37  38
ATOM     38  O   UNL     1      10.142  33.097  25.918  1.00  0.00    -0.394 OA
ATOM     39  H   UNL     1      10.408  34.058  25.953  1.00  0.00     0.210 HD
ENDBRANCH  37  38
ENDBRANCH  31  37
BRANCH  32  40
ATOM     40  O   UNL     1       9.581  34.934  23.602  1.00  0.00    -0.387 OA
ATOM     41  H   UNL     1       9.866  35.483  22.819  1.00  0.00     0.211 HD
ENDBRANCH  32  40
ENDBRANCH   1  27
TORSDOF 12
ENDMDL
MODEL 8
REMARK VINA RESULT:    -6.026      2.306      5.777
REMARK INTER + INTRA:         -10.329
REMARK INTER:                  -8.854
REMARK INTRA:                  -1.475
REMARK UNBOUND:                -1.485
REMARK SMILES O=c1c(O[C@@H]2O[C@@H](CO)[C@@H](O)[C@@H](O)[C@@H]2O)c(-c2ccc(O)c(O)c2)oc2cc(O)cc(O)c12
REMARK SMILES IDX 4 1 3 2 16 3 25 4 2 5 26 6 1 7 33 8 27 9 31 10 28 11 30 12
REMARK SMILES IDX 17 13 18 14 19 15 20 16 24 17 22 18 21 19 23 21 32 23 29 25
REMARK SMILES IDX 5 27 14 28 6 29 12 30 7 31 10 32 15 33 13 35 8 37 9 38 11 40
REMARK H PARENT 21 20 23 22 32 24 29 26 15 34 13 36 9 39 11 41
REMARK Flexibility Score: inf
ROOT
ATOM      1  O   UNL     1      12.365  29.917  19.430  1.00  0.00    -0.454 OA
ENDROOT
BRANCH   1   2
ATOM      2  C   UNL     1      11.518  28.965  20.018  1.00  0.00     0.214 A 
ATOM      3  C   UNL     1      10.354  29.335  20.726  1.00  0.00     0.180 A 
ATOM      4  O   UNL     1       9.741  28.434  21.481  1.00  0.00    -0.452 OA
ATOM      5  C   UNL     1      11.865  27.612  19.943  1.00  0.00     0.239 A 
ATOM      6  C   UNL     1      10.093  27.152  21.520  1.00  0.00     0.146 A 
ATOM      7  O   UNL     1      12.860  27.292  19.242  1.00  0.00    -0.285 OA
ATOM      8  C   UNL     1      11.130  26.659  20.686  1.00  0.00     0.111 A 
ATOM      9  C   UNL     1       9.408  26.294  22.382  1.00  0.00     0.094 A 
ATOM     10  C   UNL     1      11.400  25.259  20.690  1.00  0.00     0.134 A 
ATOM     11  C   UNL     1       9.744  24.949  22.448  1.00  0.00     0.123 A 
ATOM     12  C   UNL     1      10.726  24.433  21.598  1.00  0.00     0.093 A 
BRANCH   3  13
ATOM     13  C   UNL     1       9.756  30.684  20.623  1.00  0.00     0.025 A 
ATOM     14  C   UNL     1       9.609  31.494  21.765  1.00  0.00     0.016 A 
ATOM     15  C   UNL     1       9.177  32.819  21.635  1.00  0.00     0.051 A 
ATOM     16  C   UNL     1       8.869  33.336  20.370  1.00  0.00     0.157 A 
ATOM     17  C   UNL     1       9.394  31.194  19.366  1.00  0.00     0.062 A 
ATOM     18  C   UNL     1       8.928  32.511  19.242  1.00  0.00     0.158 A 
BRANCH  16  19
ATOM     19  O   UNL     1       8.575  34.682  20.210  1.00  0.00    -0.504 OA
ATOM     20  H   UNL     1       8.604  35.321  21.001  1.00  0.00     0.293 HD
ENDBRANCH  16  19
BRANCH  18  21
ATOM     21  O   UNL     1       8.555  33.013  17.996  1.00  0.00    -0.504 OA
ATOM     22  H   UNL     1       8.367  34.003  17.857  1.00  0.00     0.293 HD
ENDBRANCH  18  21
ENDBRANCH   3  13
BRANCH  10  23
ATOM     23  O   UNL     1      12.304  24.631  19.828  1.00  0.00    -0.507 OA
ATOM     24  H   UNL     1      12.444  23.634  19.764  1.00  0.00     0.293 HD
ENDBRANCH  10  23
BRANCH  11  25
ATOM     25  O   UNL     1       9.088  24.120  23.357  1.00  0.00    -0.508 OA
ATOM     26  H   UNL     1       8.098  23.893  23.257  1.00  0.00     0.293 HD
ENDBRANCH  11  25
ENDBRANCH   1   2
BRANCH   1  27
ATOM     27  C   UNL     1      13.233  30.767  20.184  1.00  0.00     0.339 C 
ATOM     28  C   UNL     1      14.722  30.537  19.789  1.00  0.00     0.214 C 
ATOM     29  O   UNL     1      12.802  32.116  20.008  1.00  0.00    -0.332 OA
ATOM     30  C   UNL     1      15.254  31.728  18.992  1.00  0.00     0.180 C 
ATOM     31  C   UNL     1      13.725  33.102  20.488  1.00  0.00     0.179 C 
ATOM     32  C   UNL     1      15.159  32.984  19.874  1.00  0.00     0.177 C 
BRANCH  28  33
ATOM     33  O   UNL     1      14.924  29.340  19.070  1.00  0.00    -0.384 OA
ATOM     34  H   UNL     1      14.077  29.178  18.573  1.00  0.00     0.211 HD
ENDBRANCH  28  33
BRANCH  30  35
ATOM     35  O   UNL     1      16.569  31.509  18.538  1.00  0.00    -0.387 OA
ATOM     36  H   UNL     1      16.507  31.117  17.632  1.00  0.00     0.211 HD
ENDBRANCH  30  35
BRANCH  31  37
ATOM     37  C   UNL     1      13.668  33.252  22.032  1.00  0.00     0.191 C 
BRANCH  37  38
ATOM     38  O   UNL     1      12.357  33.464  22.481  1.00  0.00    -0.394 OA
ATOM     39  H   UNL     1      11.867  32.615  22.289  1.00  0.00     0.210 HD
ENDBRANCH  37  38
ENDBRANCH  31  37
BRANCH  32  40
ATOM     40  O   UNL     1      16.145  32.972  20.880  1.00  0.00    -0.387 OA
ATOM     41  H   UNL     1      17.028  32.873  20.425  1.00  0.00     0.211 HD
ENDBRANCH  32  40
ENDBRANCH   1  27
TORSDOF 12
ENDMDL
MODEL 9
REMARK VINA RESULT:    -5.740      2.335      5.922
REMARK INTER + INTRA:          -9.909
REMARK INTER:                  -8.503
REMARK INTRA:                  -1.406
REMARK UNBOUND:                -1.485
REMARK SMILES O=c1c(O[C@@H]2O[C@@H](CO)[C@@H](O)[C@@H](O)[C@@H]2O)c(-c2ccc(O)c(O)c2)oc2cc(O)cc(O)c12
REMARK SMILES IDX 4 1 3 2 16 3 25 4 2 5 26 6 1 7 33 8 27 9 31 10 28 11 30 12
REMARK SMILES IDX 17 13 18 14 19 15 20 16 24 17 22 18 21 19 23 21 32 23 29 25
REMARK SMILES IDX 5 27 14 28 6 29 12 30 7 31 10 32 15 33 13 35 8 37 9 38 11 40
REMARK H PARENT 21 20 23 22 32 24 29 26 15 34 13 36 9 39 11 41
REMARK Flexibility Score: inf
ROOT
ATOM      1  O   UNL     1      10.390  30.298  19.995  1.00  0.00    -0.454 OA
ENDROOT
BRANCH   1   2
ATOM      2  C   UNL     1      10.649  29.053  20.588  1.00  0.00     0.214 A 
ATOM      3  C   UNL     1      11.897  28.407  20.457  1.00  0.00     0.180 A 
ATOM      4  O   UNL     1      12.006  27.132  20.802  1.00  0.00    -0.452 OA
ATOM      5  C   UNL     1       9.622  28.411  21.288  1.00  0.00     0.239 A 
ATOM      6  C   UNL     1      11.025  26.446  21.384  1.00  0.00     0.146 A 
ATOM      7  O   UNL     1       8.543  29.034  21.464  1.00  0.00    -0.285 OA
ATOM      8  C   UNL     1       9.803  27.080  21.730  1.00  0.00     0.111 A 
ATOM      9  C   UNL     1      11.228  25.095  21.668  1.00  0.00     0.094 A 
ATOM     10  C   UNL     1       8.825  26.328  22.443  1.00  0.00     0.134 A 
ATOM     11  C   UNL     1      10.231  24.347  22.278  1.00  0.00     0.123 A 
ATOM     12  C   UNL     1       9.040  24.964  22.674  1.00  0.00     0.093 A 
BRANCH   3  13
ATOM     13  C   UNL     1      13.112  29.111  19.993  1.00  0.00     0.025 A 
ATOM     14  C   UNL     1      13.525  29.021  18.649  1.00  0.00     0.016 A 
ATOM     15  C   UNL     1      14.590  29.805  18.189  1.00  0.00     0.051 A 
ATOM     16  C   UNL     1      15.261  30.664  19.069  1.00  0.00     0.157 A 
ATOM     17  C   UNL     1      13.825  29.935  20.879  1.00  0.00     0.062 A 
ATOM     18  C   UNL     1      14.914  30.692  20.423  1.00  0.00     0.158 A 
BRANCH  16  19
ATOM     19  O   UNL     1      16.223  31.546  18.598  1.00  0.00    -0.504 OA
ATOM     20  H   UNL     1      16.034  32.544  18.541  1.00  0.00     0.293 HD
ENDBRANCH  16  19
BRANCH  18  21
ATOM     21  O   UNL     1      15.630  31.499  21.306  1.00  0.00    -0.504 OA
ATOM     22  H   UNL     1      15.159  32.090  21.986  1.00  0.00     0.293 HD
ENDBRANCH  18  21
ENDBRANCH   3  13
BRANCH  10  23
ATOM     23  O   UNL     1       7.638  26.866  22.952  1.00  0.00    -0.507 OA
ATOM     24  H   UNL     1       6.710  26.559  22.701  1.00  0.00     0.293 HD
ENDBRANCH  10  23
BRANCH  11  25
ATOM     25  O   UNL     1      10.430  22.986  22.499  1.00  0.00    -0.508 OA
ATOM     26  H   UNL     1       9.658  22.318  22.461  1.00  0.00     0.293 HD
ENDBRANCH  11  25
ENDBRANCH   1   2
BRANCH   1  27
ATOM     27  C   UNL     1      10.455  31.536  20.708  1.00  0.00     0.339 C 
ATOM     28  C   UNL     1       9.052  32.208  20.791  1.00  0.00     0.214 C 
ATOM     29  O   UNL     1      11.040  31.286  21.986  1.00  0.00    -0.332 OA
ATOM     30  C   UNL     1       8.501  32.122  22.214  1.00  0.00     0.180 C 
ATOM     31  C   UNL     1      10.932  32.376  22.911  1.00  0.00     0.179 C 
ATOM     32  C   UNL     1       9.466  32.863  23.154  1.00  0.00     0.177 C 
BRANCH  28  33
ATOM     33  O   UNL     1       8.125  31.665  19.875  1.00  0.00    -0.384 OA
ATOM     34  H   UNL     1       8.101  30.688  20.065  1.00  0.00     0.211 HD
ENDBRANCH  28  33
BRANCH  30  35
ATOM     35  O   UNL     1       7.193  32.635  22.301  1.00  0.00    -0.387 OA
ATOM     36  H   UNL     1       6.570  31.872  22.223  1.00  0.00     0.211 HD
ENDBRANCH  30  35
BRANCH  31  37
ATOM     37  C   UNL     1      11.970  33.492  22.621  1.00  0.00     0.191 C 
BRANCH  37  38
ATOM     38  O   UNL     1      13.217  32.958  22.266  1.00  0.00    -0.394 OA
ATOM     39  H   UNL     1      13.791  33.053  23.078  1.00  0.00     0.210 HD
ENDBRANCH  37  38
ENDBRANCH  31  37
BRANCH  32  40
ATOM     40  O   UNL     1       9.359  34.258  22.993  1.00  0.00    -0.387 OA
ATOM     41  H   UNL     1       9.894  34.504  22.187  1.00  0.00     0.211 HD
ENDBRANCH  32  40
ENDBRANCH   1  27
TORSDOF 12
ENDMDL
