MODEL 1
REMARK VINA RESULT:    -5.275      0.000      0.000
REMARK INTER + INTRA:         -12.230
REMARK INTER:                  -9.901
REMARK INTRA:                  -2.329
REMARK UNBOUND:                -2.329
REMARK SMILES O=C([O-])CCCCCCCCCCCCCCC(=O)[O-]
REMARK SMILES IDX 10 1 9 2 8 3 7 4 6 5 5 6 4 7 2 8 1 9 3 10 11 11 12 12 13 13
REMARK SMILES IDX 14 14 15 15 16 16 17 17 18 18 19 19 20 20
REMARK H PARENT
REMARK Flexibility Score: inf
ROOT
ATOM      1  C   UNL     1      44.177  11.301  -8.646  1.00  0.00     0.000 C 
ENDROOT
BRANCH   1   2
ATOM      2  C   UNL     1      44.266   9.763  -8.564  1.00  0.00     0.000 C 
BRANCH   2   3
ATOM      3  C   UNL     1      45.466   9.131  -9.292  1.00  0.00     0.000 C 
BRANCH   3   4
ATOM      4  C   UNL     1      46.519   8.562  -8.326  1.00  0.00     0.000 C 
BRANCH   4   5
ATOM      5  C   UNL     1      47.917   9.174  -8.533  1.00  0.00     0.000 C 
BRANCH   5   6
ATOM      6  C   UNL     1      48.953   8.820  -7.451  1.00  0.00     0.006 C 
BRANCH   6   7
ATOM      7  C   UNL     1      49.721  10.042  -6.931  1.00  0.00     0.053 C 
BRANCH   7   8
ATOM      8  C   UNL     1      49.930   9.940  -5.454  1.00  0.00     0.041 C 
ATOM      9  O   UNL     1      49.775   8.838  -4.866  1.00  0.00    -0.550 OA
ATOM     10  O   UNL     1      50.255  11.073  -4.719  1.00  0.00    -0.550 OA
ENDBRANCH   7   8
ENDBRANCH   6   7
ENDBRANCH   5   6
ENDBRANCH   4   5
ENDBRANCH   3   4
ENDBRANCH   2   3
ENDBRANCH   1   2
BRANCH   1  11
ATOM     11  C   UNL     1      45.366  11.994  -9.337  1.00  0.00     0.000 C 
BRANCH  11  12
ATOM     12  C   UNL     1      46.407  12.529  -8.340  1.00  0.00     0.000 C 
BRANCH  12  13
ATOM     13  C   UNL     1      45.802  13.499  -7.311  1.00  0.00     0.000 C 
BRANCH  13  14
ATOM     14  C   UNL     1      45.932  13.014  -5.851  1.00  0.00     0.000 C 
BRANCH  14  15
ATOM     15  C   UNL     1      46.438  11.562  -5.766  1.00  0.00     0.000 C 
BRANCH  15  16
ATOM     16  C   UNL     1      45.619  10.702  -4.785  1.00  0.00     0.006 C 
BRANCH  16  17
ATOM     17  C   UNL     1      44.109  10.988  -4.804  1.00  0.00     0.053 C 
BRANCH  17  18
ATOM     18  C   UNL     1      43.574  11.264  -3.433  1.00  0.00     0.041 C 
ATOM     19  O   UNL     1      43.046  12.378  -3.172  1.00  0.00    -0.550 OA
ATOM     20  O   UNL     1      43.625  10.280  -2.453  1.00  0.00    -0.550 OA
ENDBRANCH  17  18
ENDBRANCH  16  17
ENDBRANCH  15  16
ENDBRANCH  14  15
ENDBRANCH  13  14
ENDBRANCH  12  13
ENDBRANCH  11  12
ENDBRANCH   1  11
TORSDOF 15
ENDMDL
MODEL 2
REMARK VINA RESULT:    -5.241      3.127      5.661
REMARK INTER + INTRA:         -12.166
REMARK INTER:                  -9.590
REMARK INTRA:                  -2.576
REMARK UNBOUND:                -2.329
REMARK SMILES O=C([O-])CCCCCCCCCCCCCCC(=O)[O-]
REMARK SMILES IDX 10 1 9 2 8 3 7 4 6 5 5 6 4 7 2 8 1 9 3 10 11 11 12 12 13 13
REMARK SMILES IDX 14 14 15 15 16 16 17 17 18 18 19 19 20 20
REMARK H PARENT
REMARK Flexibility Score: inf
ROOT
ATOM      1  C   UNL     1      49.294  11.825  -5.588  1.00  0.00     0.000 C 
ENDROOT
BRANCH   1   2
ATOM      2  C   UNL     1      47.971  12.000  -4.814  1.00  0.00     0.000 C 
BRANCH   2   3
ATOM      3  C   UNL     1      46.694  11.664  -5.604  1.00  0.00     0.000 C 
BRANCH   3   4
ATOM      4  C   UNL     1      46.187  10.236  -5.343  1.00  0.00     0.000 C 
BRANCH   4   5
ATOM      5  C   UNL     1      46.758   9.624  -4.049  1.00  0.00     0.000 C 
BRANCH   5   6
ATOM      6  C   UNL     1      46.990   8.102  -4.092  1.00  0.00     0.006 C 
BRANCH   6   7
ATOM      7  C   UNL     1      46.262   7.416  -5.255  1.00  0.00     0.053 C 
BRANCH   7   8
ATOM      8  C   UNL     1      45.622   6.146  -4.796  1.00  0.00     0.041 C 
ATOM      9  O   UNL     1      44.857   6.146  -3.796  1.00  0.00    -0.550 OA
ATOM     10  O   UNL     1      45.903   4.951  -5.446  1.00  0.00    -0.550 OA
ENDBRANCH   7   8
ENDBRANCH   6   7
ENDBRANCH   5   6
ENDBRANCH   4   5
ENDBRANCH   3   4
ENDBRANCH   2   3
ENDBRANCH   1   2
BRANCH   1  11
ATOM     11  C   UNL     1      50.231  10.728  -5.052  1.00  0.00     0.000 C 
BRANCH  11  12
ATOM     12  C   UNL     1      50.035   9.376  -5.759  1.00  0.00     0.000 C 
BRANCH  12  13
ATOM     13  C   UNL     1      49.834   9.523  -7.277  1.00  0.00     0.000 C 
BRANCH  13  14
ATOM     14  C   UNL     1      48.884   8.466  -7.881  1.00  0.00     0.000 C 
BRANCH  14  15
ATOM     15  C   UNL     1      47.679   9.111  -8.591  1.00  0.00     0.000 C 
BRANCH  15  16
ATOM     16  C   UNL     1      47.941  10.569  -9.008  1.00  0.00     0.006 C 
BRANCH  16  17
ATOM     17  C   UNL     1      47.012  11.087 -10.116  1.00  0.00     0.053 C 
BRANCH  17  18
ATOM     18  C   UNL     1      45.808  11.783  -9.560  1.00  0.00     0.041 C 
ATOM     19  O   UNL     1      44.657  11.307  -9.751  1.00  0.00    -0.550 OA
ATOM     20  O   UNL     1      45.959  12.936  -8.800  1.00  0.00    -0.550 OA
ENDBRANCH  17  18
ENDBRANCH  16  17
ENDBRANCH  15  16
ENDBRANCH  14  15
ENDBRANCH  13  14
ENDBRANCH  12  13
ENDBRANCH  11  12
ENDBRANCH   1  11
TORSDOF 15
ENDMDL
MODEL 3
REMARK VINA RESULT:    -5.239      2.773      5.621
REMARK INTER + INTRA:         -12.162
REMARK INTER:                  -9.877
REMARK INTRA:                  -2.285
REMARK UNBOUND:                -2.329
REMARK SMILES O=C([O-])CCCCCCCCCCCCCCC(=O)[O-]
REMARK SMILES IDX 10 1 9 2 8 3 7 4 6 5 5 6 4 7 2 8 1 9 3 10 11 11 12 12 13 13
REMARK SMILES IDX 14 14 15 15 16 16 17 17 18 18 19 19 20 20
REMARK H PARENT
REMARK Flexibility Score: inf
ROOT
ATOM      1  C   UNL     1      49.248  11.466  -4.567  1.00  0.00     0.000 C 
ENDROOT
BRANCH   1   2
ATOM      2  C   UNL     1      48.007  12.343  -4.839  1.00  0.00     0.000 C 
BRANCH   2   3
ATOM      3  C   UNL     1      46.695  11.574  -5.078  1.00  0.00     0.000 C 
BRANCH   3   4
ATOM      4  C   UNL     1      45.849  12.177  -6.213  1.00  0.00     0.000 C 
BRANCH   4   5
ATOM      5  C   UNL     1      46.696  12.645  -7.410  1.00  0.00     0.000 C 
BRANCH   5   6
ATOM      6  C   UNL     1      45.939  12.746  -8.748  1.00  0.00     0.006 C 
BRANCH   6   7
ATOM      7  C   UNL     1      45.845  11.405  -9.487  1.00  0.00     0.053 C 
BRANCH   7   8
ATOM      8  C   UNL     1      44.416  10.992  -9.643  1.00  0.00     0.041 C 
ATOM      9  O   UNL     1      44.101  10.100 -10.474  1.00  0.00    -0.550 OA
ATOM     10  O   UNL     1      43.425  11.625  -8.903  1.00  0.00    -0.550 OA
ENDBRANCH   7   8
ENDBRANCH   6   7
ENDBRANCH   5   6
ENDBRANCH   4   5
ENDBRANCH   3   4
ENDBRANCH   2   3
ENDBRANCH   1   2
BRANCH   1  11
ATOM     11  C   UNL     1      50.495  11.812  -5.400  1.00  0.00     0.000 C 
BRANCH  11  12
ATOM     12  C   UNL     1      50.335  11.462  -6.888  1.00  0.00     0.000 C 
BRANCH  12  13
ATOM     13  C   UNL     1      50.057   9.967  -7.122  1.00  0.00     0.000 C 
BRANCH  13  14
ATOM     14  C   UNL     1      48.810   9.697  -7.991  1.00  0.00     0.000 C 
BRANCH  14  15
ATOM     15  C   UNL     1      48.524   8.191  -8.141  1.00  0.00     0.000 C 
BRANCH  15  16
ATOM     16  C   UNL     1      47.019   7.866  -8.137  1.00  0.00     0.006 C 
BRANCH  16  17
ATOM     17  C   UNL     1      46.255   8.426  -6.927  1.00  0.00     0.053 C 
BRANCH  17  18
ATOM     18  C   UNL     1      46.467   7.597  -5.697  1.00  0.00     0.041 C 
ATOM     19  O   UNL     1      47.051   8.090  -4.696  1.00  0.00    -0.550 OA
ATOM     20  O   UNL     1      45.990   6.293  -5.644  1.00  0.00    -0.550 OA
ENDBRANCH  17  18
ENDBRANCH  16  17
ENDBRANCH  15  16
ENDBRANCH  14  15
ENDBRANCH  13  14
ENDBRANCH  12  13
ENDBRANCH  11  12
ENDBRANCH   1  11
TORSDOF 15
ENDMDL
MODEL 4
REMARK VINA RESULT:    -5.205     14.294     18.137
REMARK INTER + INTRA:         -12.099
REMARK INTER:                  -9.842
REMARK INTRA:                  -2.257
REMARK UNBOUND:                -2.329
REMARK SMILES O=C([O-])CCCCCCCCCCCCCCC(=O)[O-]
REMARK SMILES IDX 10 1 9 2 8 3 7 4 6 5 5 6 4 7 2 8 1 9 3 10 11 11 12 12 13 13
REMARK SMILES IDX 14 14 15 15 16 16 17 17 18 18 19 19 20 20
REMARK H PARENT
REMARK Flexibility Score: inf
ROOT
ATOM      1  C   UNL     1      36.317  -0.995   4.620  1.00  0.00     0.000 C 
ENDROOT
BRANCH   1   2
ATOM      2  C   UNL     1      36.304  -0.601   6.112  1.00  0.00     0.000 C 
BRANCH   2   3
ATOM      3  C   UNL     1      37.225   0.572   6.494  1.00  0.00     0.000 C 
BRANCH   3   4
ATOM      4  C   UNL     1      36.477   1.709   7.211  1.00  0.00     0.000 C 
BRANCH   4   5
ATOM      5  C   UNL     1      37.255   3.038   7.200  1.00  0.00     0.000 C 
BRANCH   5   6
ATOM      6  C   UNL     1      36.492   4.248   7.772  1.00  0.00     0.006 C 
BRANCH   6   7
ATOM      7  C   UNL     1      34.992   3.981   7.952  1.00  0.00     0.053 C 
BRANCH   7   8
ATOM      8  C   UNL     1      34.215   4.579   6.823  1.00  0.00     0.041 C 
ATOM      9  O   UNL     1      33.275   3.933   6.288  1.00  0.00    -0.550 OA
ATOM     10  O   UNL     1      34.557   5.832   6.331  1.00  0.00    -0.550 OA
ENDBRANCH   7   8
ENDBRANCH   6   7
ENDBRANCH   5   6
ENDBRANCH   4   5
ENDBRANCH   3   4
ENDBRANCH   2   3
ENDBRANCH   1   2
BRANCH   1  11
ATOM     11  C   UNL     1      34.984  -0.802   3.876  1.00  0.00     0.000 C 
BRANCH  11  12
ATOM     12  C   UNL     1      34.975   0.447   2.979  1.00  0.00     0.000 C 
BRANCH  12  13
ATOM     13  C   UNL     1      34.632   1.732   3.752  1.00  0.00     0.000 C 
BRANCH  13  14
ATOM     14  C   UNL     1      35.771   2.775   3.757  1.00  0.00     0.000 C 
BRANCH  14  15
ATOM     15  C   UNL     1      37.058   2.230   3.111  1.00  0.00     0.000 C 
BRANCH  15  16
ATOM     16  C   UNL     1      38.247   3.200   3.239  1.00  0.00     0.006 C 
BRANCH  16  17
ATOM     17  C   UNL     1      39.302   2.773   4.272  1.00  0.00     0.053 C 
BRANCH  17  18
ATOM     18  C   UNL     1      40.697   2.991   3.773  1.00  0.00     0.041 C 
ATOM     19  O   UNL     1      41.666   2.984   4.578  1.00  0.00    -0.550 OA
ATOM     20  O   UNL     1      40.931   3.168   2.415  1.00  0.00    -0.550 OA
ENDBRANCH  17  18
ENDBRANCH  16  17
ENDBRANCH  15  16
ENDBRANCH  14  15
ENDBRANCH  13  14
ENDBRANCH  12  13
ENDBRANCH  11  12
ENDBRANCH   1  11
TORSDOF 15
ENDMDL
MODEL 5
REMARK VINA RESULT:    -5.203     15.410     18.850
REMARK INTER + INTRA:         -12.093
REMARK INTER:                  -9.446
REMARK INTRA:                  -2.648
REMARK UNBOUND:                -2.329
REMARK SMILES O=C([O-])CCCCCCCCCCCCCCC(=O)[O-]
REMARK SMILES IDX 10 1 9 2 8 3 7 4 6 5 5 6 4 7 2 8 1 9 3 10 11 11 12 12 13 13
REMARK SMILES IDX 14 14 15 15 16 16 17 17 18 18 19 19 20 20
REMARK H PARENT
REMARK Flexibility Score: inf
ROOT
ATOM      1  C   UNL     1      33.605   2.526   4.500  1.00  0.00     0.000 C 
ENDROOT
BRANCH   1   2
ATOM      2  C   UNL     1      34.702   1.913   3.605  1.00  0.00     0.000 C 
BRANCH   2   3
ATOM      3  C   UNL     1      34.445   0.469   3.139  1.00  0.00     0.000 C 
BRANCH   3   4
ATOM      4  C   UNL     1      35.578  -0.496   3.529  1.00  0.00     0.000 C 
BRANCH   4   5
ATOM      5  C   UNL     1      36.371  -0.023   4.762  1.00  0.00     0.000 C 
BRANCH   5   6
ATOM      6  C   UNL     1      35.875  -0.578   6.111  1.00  0.00     0.006 C 
BRANCH   6   7
ATOM      7  C   UNL     1      35.241   0.496   7.005  1.00  0.00     0.053 C 
BRANCH   7   8
ATOM      8  C   UNL     1      33.828   0.136   7.334  1.00  0.00     0.041 C 
ATOM      9  O   UNL     1      33.284   0.588   8.376  1.00  0.00    -0.550 OA
ATOM     10  O   UNL     1      33.123  -0.735   6.512  1.00  0.00    -0.550 OA
ENDBRANCH   7   8
ENDBRANCH   6   7
ENDBRANCH   5   6
ENDBRANCH   4   5
ENDBRANCH   3   4
ENDBRANCH   2   3
ENDBRANCH   1   2
BRANCH   1  11
ATOM     11  C   UNL     1      33.984   3.845   5.197  1.00  0.00     0.000 C 
BRANCH  11  12
ATOM     12  C   UNL     1      33.536   3.894   6.667  1.00  0.00     0.000 C 
BRANCH  12  13
ATOM     13  C   UNL     1      34.703   4.146   7.637  1.00  0.00     0.000 C 
BRANCH  13  14
ATOM     14  C   UNL     1      36.037   4.470   6.930  1.00  0.00     0.000 C 
BRANCH  14  15
ATOM     15  C   UNL     1      37.203   3.625   7.478  1.00  0.00     0.000 C 
BRANCH  15  16
ATOM     16  C   UNL     1      37.980   2.893   6.370  1.00  0.00     0.006 C 
BRANCH  16  17
ATOM     17  C   UNL     1      37.848   3.531   4.978  1.00  0.00     0.053 C 
BRANCH  17  18
ATOM     18  C   UNL     1      38.675   2.818   3.953  1.00  0.00     0.041 C 
ATOM     19  O   UNL     1      38.138   2.374   2.903  1.00  0.00    -0.550 OA
ATOM     20  O   UNL     1      40.045   2.674   4.139  1.00  0.00    -0.550 OA
ENDBRANCH  17  18
ENDBRANCH  16  17
ENDBRANCH  15  16
ENDBRANCH  14  15
ENDBRANCH  13  14
ENDBRANCH  12  13
ENDBRANCH  11  12
ENDBRANCH   1  11
TORSDOF 15
ENDMDL
MODEL 6
REMARK VINA RESULT:    -5.195      3.104      5.109
REMARK INTER + INTRA:         -12.080
REMARK INTER:                  -9.590
REMARK INTRA:                  -2.489
REMARK UNBOUND:                -2.329
REMARK SMILES O=C([O-])CCCCCCCCCCCCCCC(=O)[O-]
REMARK SMILES IDX 10 1 9 2 8 3 7 4 6 5 5 6 4 7 2 8 1 9 3 10 11 11 12 12 13 13
REMARK SMILES IDX 14 14 15 15 16 16 17 17 18 18 19 19 20 20
REMARK H PARENT
REMARK Flexibility Score: inf
ROOT
ATOM      1  C   UNL     1      49.060   8.818  -7.325  1.00  0.00     0.000 C 
ENDROOT
BRANCH   1   2
ATOM      2  C   UNL     1      48.144   9.190  -8.510  1.00  0.00     0.000 C 
BRANCH   2   3
ATOM      3  C   UNL     1      46.682   8.724  -8.387  1.00  0.00     0.000 C 
BRANCH   3   4
ATOM      4  C   UNL     1      46.354   8.144  -7.000  1.00  0.00     0.000 C 
BRANCH   4   5
ATOM      5  C   UNL     1      45.374   9.022  -6.200  1.00  0.00     0.000 C 
BRANCH   5   6
ATOM      6  C   UNL     1      45.163   8.599  -4.735  1.00  0.00     0.006 C 
BRANCH   6   7
ATOM      7  C   UNL     1      46.032   7.404  -4.324  1.00  0.00     0.053 C 
BRANCH   7   8
ATOM      8  C   UNL     1      45.184   6.193  -4.096  1.00  0.00     0.041 C 
ATOM      9  O   UNL     1      44.150   6.003  -4.789  1.00  0.00    -0.550 OA
ATOM     10  O   UNL     1      45.512   5.295  -3.088  1.00  0.00    -0.550 OA
ENDBRANCH   7   8
ENDBRANCH   6   7
ENDBRANCH   5   6
ENDBRANCH   4   5
ENDBRANCH   3   4
ENDBRANCH   2   3
ENDBRANCH   1   2
BRANCH   1  11
ATOM     11  C   UNL     1      50.132   9.863  -6.968  1.00  0.00     0.000 C 
BRANCH  11  12
ATOM     12  C   UNL     1      50.068  10.306  -5.496  1.00  0.00     0.000 C 
BRANCH  12  13
ATOM     13  C   UNL     1      48.626  10.449  -4.980  1.00  0.00     0.000 C 
BRANCH  13  14
ATOM     14  C   UNL     1      48.209  11.909  -4.702  1.00  0.00     0.000 C 
BRANCH  14  15
ATOM     15  C   UNL     1      46.943  12.309  -5.483  1.00  0.00     0.000 C 
BRANCH  15  16
ATOM     16  C   UNL     1      47.180  12.389  -7.002  1.00  0.00     0.006 C 
BRANCH  16  17
ATOM     17  C   UNL     1      45.968  12.889  -7.804  1.00  0.00     0.053 C 
BRANCH  17  18
ATOM     18  C   UNL     1      45.931  12.309  -9.184  1.00  0.00     0.041 C 
ATOM     19  O   UNL     1      46.972  12.297  -9.894  1.00  0.00    -0.550 OA
ATOM     20  O   UNL     1      44.757  11.751  -9.675  1.00  0.00    -0.550 OA
ENDBRANCH  17  18
ENDBRANCH  16  17
ENDBRANCH  15  16
ENDBRANCH  14  15
ENDBRANCH  13  14
ENDBRANCH  12  13
ENDBRANCH  11  12
ENDBRANCH   1  11
TORSDOF 15
ENDMDL
MODEL 7
REMARK VINA RESULT:    -5.182     14.333     17.497
REMARK INTER + INTRA:         -12.055
REMARK INTER:                  -9.448
REMARK INTRA:                  -2.607
REMARK UNBOUND:                -2.329
REMARK SMILES O=C([O-])CCCCCCCCCCCCCCC(=O)[O-]
REMARK SMILES IDX 10 1 9 2 8 3 7 4 6 5 5 6 4 7 2 8 1 9 3 10 11 11 12 12 13 13
REMARK SMILES IDX 14 14 15 15 16 16 17 17 18 18 19 19 20 20
REMARK H PARENT
REMARK Flexibility Score: inf
ROOT
ATOM      1  C   UNL     1      34.558   0.126   4.299  1.00  0.00     0.000 C 
ENDROOT
BRANCH   1   2
ATOM      2  C   UNL     1      34.556   1.138   3.135  1.00  0.00     0.000 C 
BRANCH   2   3
ATOM      3  C   UNL     1      34.688   2.616   3.545  1.00  0.00     0.000 C 
BRANCH   3   4
ATOM      4  C   UNL     1      36.135   3.018   3.875  1.00  0.00     0.000 C 
BRANCH   4   5
ATOM      5  C   UNL     1      37.144   2.565   2.802  1.00  0.00     0.000 C 
BRANCH   5   6
ATOM      6  C   UNL     1      38.387   1.832   3.340  1.00  0.00     0.006 C 
BRANCH   6   7
ATOM      7  C   UNL     1      39.326   2.748   4.135  1.00  0.00     0.053 C 
BRANCH   7   8
ATOM      8  C   UNL     1      40.376   3.325   3.240  1.00  0.00     0.041 C 
ATOM      9  O   UNL     1      41.498   2.763   3.132  1.00  0.00    -0.550 OA
ATOM     10  O   UNL     1      40.131   4.510   2.556  1.00  0.00    -0.550 OA
ENDBRANCH   7   8
ENDBRANCH   6   7
ENDBRANCH   5   6
ENDBRANCH   4   5
ENDBRANCH   3   4
ENDBRANCH   2   3
ENDBRANCH   1   2
BRANCH   1  11
ATOM     11  C   UNL     1      35.473  -1.097   4.107  1.00  0.00     0.000 C 
BRANCH  11  12
ATOM     12  C   UNL     1      36.746  -1.032   4.968  1.00  0.00     0.000 C 
BRANCH  12  13
ATOM     13  C   UNL     1      36.513  -0.341   6.322  1.00  0.00     0.000 C 
BRANCH  13  14
ATOM     14  C   UNL     1      37.717   0.495   6.807  1.00  0.00     0.000 C 
BRANCH  14  15
ATOM     15  C   UNL     1      37.311   1.933   7.179  1.00  0.00     0.000 C 
BRANCH  15  16
ATOM     16  C   UNL     1      35.788   2.102   7.333  1.00  0.00     0.006 C 
BRANCH  16  17
ATOM     17  C   UNL     1      35.362   3.437   7.963  1.00  0.00     0.053 C 
BRANCH  17  18
ATOM     18  C   UNL     1      34.508   4.247   7.036  1.00  0.00     0.041 C 
ATOM     19  O   UNL     1      34.917   5.360   6.608  1.00  0.00    -0.550 OA
ATOM     20  O   UNL     1      33.277   3.759   6.616  1.00  0.00    -0.550 OA
ENDBRANCH  17  18
ENDBRANCH  16  17
ENDBRANCH  15  16
ENDBRANCH  14  15
ENDBRANCH  13  14
ENDBRANCH  12  13
ENDBRANCH  11  12
ENDBRANCH   1  11
TORSDOF 15
ENDMDL
MODEL 8
REMARK VINA RESULT:    -5.168      2.996      5.440
REMARK INTER + INTRA:         -12.029
REMARK INTER:                  -9.501
REMARK INTRA:                  -2.528
REMARK UNBOUND:                -2.329
REMARK SMILES O=C([O-])CCCCCCCCCCCCCCC(=O)[O-]
REMARK SMILES IDX 10 1 9 2 8 3 7 4 6 5 5 6 4 7 2 8 1 9 3 10 11 11 12 12 13 13
REMARK SMILES IDX 14 14 15 15 16 16 17 17 18 18 19 19 20 20
REMARK H PARENT
REMARK Flexibility Score: inf
ROOT
ATOM      1  C   UNL     1      49.798  10.153  -5.891  1.00  0.00     0.000 C 
ENDROOT
BRANCH   1   2
ATOM      2  C   UNL     1      49.391  11.618  -5.635  1.00  0.00     0.000 C 
BRANCH   2   3
ATOM      3  C   UNL     1      48.172  11.814  -4.716  1.00  0.00     0.000 C 
BRANCH   3   4
ATOM      4  C   UNL     1      46.951  12.386  -5.456  1.00  0.00     0.000 C 
BRANCH   4   5
ATOM      5  C   UNL     1      47.127  12.397  -6.986  1.00  0.00     0.000 C 
BRANCH   5   6
ATOM      6  C   UNL     1      45.899  12.874  -7.783  1.00  0.00     0.006 C 
BRANCH   6   7
ATOM      7  C   UNL     1      45.881  12.354  -9.226  1.00  0.00     0.053 C 
BRANCH   7   8
ATOM      8  C   UNL     1      44.762  11.382  -9.418  1.00  0.00     0.041 C 
ATOM      9  O   UNL     1      44.930  10.352 -10.124  1.00  0.00    -0.550 OA
ATOM     10  O   UNL     1      43.518  11.633  -8.854  1.00  0.00    -0.550 OA
ENDBRANCH   7   8
ENDBRANCH   6   7
ENDBRANCH   5   6
ENDBRANCH   4   5
ENDBRANCH   3   4
ENDBRANCH   2   3
ENDBRANCH   1   2
BRANCH   1  11
ATOM     11  C   UNL     1      50.007   9.775  -7.368  1.00  0.00     0.000 C 
BRANCH  11  12
ATOM     12  C   UNL     1      49.148   8.576  -7.805  1.00  0.00     0.000 C 
BRANCH  12  13
ATOM     13  C   UNL     1      47.709   8.978  -8.171  1.00  0.00     0.000 C 
BRANCH  13  14
ATOM     14  C   UNL     1      46.630   8.152  -7.438  1.00  0.00     0.000 C 
BRANCH  14  15
ATOM     15  C   UNL     1      45.602   9.048  -6.723  1.00  0.00     0.000 C 
BRANCH  15  16
ATOM     16  C   UNL     1      45.742   9.011  -5.190  1.00  0.00     0.006 C 
BRANCH  16  17
ATOM     17  C   UNL     1      46.649   7.886  -4.667  1.00  0.00     0.053 C 
BRANCH  17  18
ATOM     18  C   UNL     1      45.860   6.712  -4.176  1.00  0.00     0.041 C 
ATOM     19  O   UNL     1      45.595   6.595  -2.950  1.00  0.00    -0.550 OA
ATOM     20  O   UNL     1      45.387   5.765  -5.076  1.00  0.00    -0.550 OA
ENDBRANCH  17  18
ENDBRANCH  16  17
ENDBRANCH  15  16
ENDBRANCH  14  15
ENDBRANCH  13  14
ENDBRANCH  12  13
ENDBRANCH  11  12
ENDBRANCH   1  11
TORSDOF 15
ENDMDL
MODEL 9
REMARK VINA RESULT:    -5.137     14.429     18.211
REMARK INTER + INTRA:         -11.971
REMARK INTER:                  -9.473
REMARK INTRA:                  -2.498
REMARK UNBOUND:                -2.329
REMARK SMILES O=C([O-])CCCCCCCCCCCCCCC(=O)[O-]
REMARK SMILES IDX 10 1 9 2 8 3 7 4 6 5 5 6 4 7 2 8 1 9 3 10 11 11 12 12 13 13
REMARK SMILES IDX 14 14 15 15 16 16 17 17 18 18 19 19 20 20
REMARK H PARENT
REMARK Flexibility Score: inf
ROOT
ATOM      1  C   UNL     1      34.643   5.150   6.926  1.00  0.00     0.000 C 
ENDROOT
BRANCH   1   2
ATOM      2  C   UNL     1      35.639   4.930   8.083  1.00  0.00     0.000 C 
BRANCH   2   3
ATOM      3  C   UNL     1      36.930   4.179   7.710  1.00  0.00     0.000 C 
BRANCH   3   4
ATOM      4  C   UNL     1      36.705   2.671   7.504  1.00  0.00     0.000 C 
BRANCH   4   5
ATOM      5  C   UNL     1      37.936   1.956   6.915  1.00  0.00     0.000 C 
BRANCH   5   6
ATOM      6  C   UNL     1      37.680   0.526   6.405  1.00  0.00     0.006 C 
BRANCH   6   7
ATOM      7  C   UNL     1      36.193   0.149   6.394  1.00  0.00     0.053 C 
BRANCH   7   8
ATOM      8  C   UNL     1      35.885  -0.737   5.229  1.00  0.00     0.041 C 
ATOM      9  O   UNL     1      34.700  -1.095   5.000  1.00  0.00    -0.550 OA
ATOM     10  O   UNL     1      36.914  -1.204   4.421  1.00  0.00    -0.550 OA
ENDBRANCH   7   8
ENDBRANCH   6   7
ENDBRANCH   5   6
ENDBRANCH   4   5
ENDBRANCH   3   4
ENDBRANCH   2   3
ENDBRANCH   1   2
BRANCH   1  11
ATOM     11  C   UNL     1      33.510   4.113   6.825  1.00  0.00     0.000 C 
BRANCH  11  12
ATOM     12  C   UNL     1      33.178   3.731   5.373  1.00  0.00     0.000 C 
BRANCH  12  13
ATOM     13  C   UNL     1      33.899   2.453   4.915  1.00  0.00     0.000 C 
BRANCH  13  14
ATOM     14  C   UNL     1      34.370   2.500   3.445  1.00  0.00     0.000 C 
BRANCH  14  15
ATOM     15  C   UNL     1      35.906   2.482   3.328  1.00  0.00     0.000 C 
BRANCH  15  16
ATOM     16  C   UNL     1      36.568   3.709   3.981  1.00  0.00     0.006 C 
BRANCH  16  17
ATOM     17  C   UNL     1      36.130   5.055   3.383  1.00  0.00     0.053 C 
BRANCH  17  18
ATOM     18  C   UNL     1      36.480   5.164   1.931  1.00  0.00     0.041 C 
ATOM     19  O   UNL     1      37.686   5.212   1.572  1.00  0.00    -0.550 OA
ATOM     20  O   UNL     1      35.475   5.178   0.971  1.00  0.00    -0.550 OA
ENDBRANCH  17  18
ENDBRANCH  16  17
ENDBRANCH  15  16
ENDBRANCH  14  15
ENDBRANCH  13  14
ENDBRANCH  12  13
ENDBRANCH  11  12
ENDBRANCH   1  11
TORSDOF 15
ENDMDL
