MODEL 1
REMARK VINA RESULT:    -4.685      0.000      0.000
REMARK INTER + INTRA:          -7.843
REMARK INTER:                  -7.151
REMARK INTRA:                  -0.692
REMARK UNBOUND:                -0.692
REMARK SMILES O=C([O-])CCCCCCCCC(=O)[O-]
REMARK SMILES IDX 7 1 6 2 5 3 4 4 2 5 1 6 3 7 8 8 9 9 10 10 11 11 12 12 13 13
REMARK SMILES IDX 14 14
REMARK H PARENT
REMARK Flexibility Score: inf
ROOT
ATOM      1  C   UNL     1     -22.027  55.460  -3.243  1.00  0.00     0.000 C 
ENDROOT
BRANCH   1   2
ATOM      2  C   UNL     1     -22.474  55.102  -1.815  1.00  0.00     0.000 C 
BRANCH   2   3
ATOM      3  C   UNL     1     -22.293  53.611  -1.493  1.00  0.00     0.006 C 
BRANCH   3   4
ATOM      4  C   UNL     1     -21.320  53.418  -0.327  1.00  0.00     0.053 C 
BRANCH   4   5
ATOM      5  C   UNL     1     -19.960  53.055  -0.834  1.00  0.00     0.041 C 
ATOM      6  O   UNL     1     -19.833  52.441  -1.927  1.00  0.00    -0.550 OA
ATOM      7  O   UNL     1     -18.834  53.351  -0.077  1.00  0.00    -0.550 OA
ENDBRANCH   4   5
ENDBRANCH   3   4
ENDBRANCH   2   3
ENDBRANCH   1   2
BRANCH   1   8
ATOM      8  C   UNL     1     -21.055  56.649  -3.277  1.00  0.00     0.000 C 
BRANCH   8   9
ATOM      9  C   UNL     1     -19.654  56.226  -2.815  1.00  0.00     0.000 C 
BRANCH   9  10
ATOM     10  C   UNL     1     -18.553  56.568  -3.835  1.00  0.00     0.006 C 
BRANCH  10  11
ATOM     11  C   UNL     1     -17.134  56.598  -3.238  1.00  0.00     0.053 C 
BRANCH  11  12
ATOM     12  C   UNL     1     -16.940  55.582  -2.153  1.00  0.00     0.041 C 
ATOM     13  O   UNL     1     -16.803  54.364  -2.439  1.00  0.00    -0.550 OA
ATOM     14  O   UNL     1     -16.881  55.987  -0.825  1.00  0.00    -0.550 OA
ENDBRANCH  11  12
ENDBRANCH  10  11
ENDBRANCH   9  10
ENDBRANCH   8   9
ENDBRANCH   1   8
TORSDOF 9
ENDMDL
MODEL 2
REMARK VINA RESULT:    -4.674      0.814      4.240
REMARK INTER + INTRA:          -7.824
REMARK INTER:                  -7.208
REMARK INTRA:                  -0.617
REMARK UNBOUND:                -0.692
REMARK SMILES O=C([O-])CCCCCCCCC(=O)[O-]
REMARK SMILES IDX 7 1 6 2 5 3 4 4 2 5 1 6 3 7 8 8 9 9 10 10 11 11 12 12 13 13
REMARK SMILES IDX 14 14
REMARK H PARENT
REMARK Flexibility Score: inf
ROOT
ATOM      1  C   UNL     1     -21.392  56.201  -3.254  1.00  0.00     0.000 C 
ENDROOT
BRANCH   1   2
ATOM      2  C   UNL     1     -19.939  55.800  -2.949  1.00  0.00     0.000 C 
BRANCH   2   3
ATOM      3  C   UNL     1     -18.914  56.716  -3.635  1.00  0.00     0.006 C 
BRANCH   3   4
ATOM      4  C   UNL     1     -17.572  56.000  -3.811  1.00  0.00     0.053 C 
BRANCH   4   5
ATOM      5  C   UNL     1     -17.016  55.597  -2.483  1.00  0.00     0.041 C 
ATOM      6  O   UNL     1     -16.658  54.406  -2.279  1.00  0.00    -0.550 OA
ATOM      7  O   UNL     1     -16.936  56.524  -1.451  1.00  0.00    -0.550 OA
ENDBRANCH   4   5
ENDBRANCH   3   4
ENDBRANCH   2   3
ENDBRANCH   1   2
BRANCH   1   8
ATOM      8  C   UNL     1     -22.414  55.219  -2.662  1.00  0.00     0.000 C 
BRANCH   8   9
ATOM      9  C   UNL     1     -22.393  55.263  -1.128  1.00  0.00     0.000 C 
BRANCH   9  10
ATOM     10  C   UNL     1     -22.202  53.876  -0.487  1.00  0.00     0.006 C 
BRANCH  10  11
ATOM     11  C   UNL     1     -21.353  52.908  -1.332  1.00  0.00     0.053 C 
BRANCH  11  12
ATOM     12  C   UNL     1     -20.064  52.536  -0.665  1.00  0.00     0.041 C 
ATOM     13  O   UNL     1     -19.687  51.336  -0.633  1.00  0.00    -0.550 OA
ATOM     14  O   UNL     1     -19.260  53.523  -0.106  1.00  0.00    -0.550 OA
ENDBRANCH  11  12
ENDBRANCH  10  11
ENDBRANCH   9  10
ENDBRANCH   8   9
ENDBRANCH   1   8
TORSDOF 9
ENDMDL
MODEL 3
REMARK VINA RESULT:    -4.661      0.962      4.119
REMARK INTER + INTRA:          -7.805
REMARK INTER:                  -7.007
REMARK INTRA:                  -0.798
REMARK UNBOUND:                -0.692
REMARK SMILES O=C([O-])CCCCCCCCC(=O)[O-]
REMARK SMILES IDX 7 1 6 2 5 3 4 4 2 5 1 6 3 7 8 8 9 9 10 10 11 11 12 12 13 13
REMARK SMILES IDX 14 14
REMARK H PARENT
REMARK Flexibility Score: inf
ROOT
ATOM      1  C   UNL     1     -19.619  56.270  -2.698  1.00  0.00     0.000 C 
ENDROOT
BRANCH   1   2
ATOM      2  C   UNL     1     -18.417  56.353  -3.655  1.00  0.00     0.000 C 
BRANCH   2   3
ATOM      3  C   UNL     1     -17.087  56.010  -2.967  1.00  0.00     0.006 C 
BRANCH   3   4
ATOM      4  C   UNL     1     -17.152  54.630  -2.306  1.00  0.00     0.053 C 
BRANCH   4   5
ATOM      5  C   UNL     1     -16.739  54.716  -0.871  1.00  0.00     0.041 C 
ATOM      6  O   UNL     1     -15.831  53.965  -0.426  1.00  0.00    -0.550 OA
ATOM      7  O   UNL     1     -17.390  55.592  -0.012  1.00  0.00    -0.550 OA
ENDBRANCH   4   5
ENDBRANCH   3   4
ENDBRANCH   2   3
ENDBRANCH   1   2
BRANCH   1   8
ATOM      8  C   UNL     1     -20.963  56.437  -3.422  1.00  0.00     0.000 C 
BRANCH   8   9
ATOM      9  C   UNL     1     -22.022  55.491  -2.839  1.00  0.00     0.000 C 
BRANCH   9  10
ATOM     10  C   UNL     1     -21.726  55.077  -1.386  1.00  0.00     0.006 C 
BRANCH  10  11
ATOM     11  C   UNL     1     -21.759  53.556  -1.151  1.00  0.00     0.053 C 
BRANCH  11  12
ATOM     12  C   UNL     1     -20.398  52.931  -1.209  1.00  0.00     0.041 C 
ATOM     13  O   UNL     1     -19.936  52.513  -2.302  1.00  0.00    -0.550 OA
ATOM     14  O   UNL     1     -19.626  52.839  -0.056  1.00  0.00    -0.550 OA
ENDBRANCH  11  12
ENDBRANCH  10  11
ENDBRANCH   9  10
ENDBRANCH   8   9
ENDBRANCH   1   8
TORSDOF 9
ENDMDL
MODEL 4
REMARK VINA RESULT:    -4.580      2.143      2.857
REMARK INTER + INTRA:          -7.681
REMARK INTER:                  -6.832
REMARK INTRA:                  -0.849
REMARK UNBOUND:                -0.692
REMARK SMILES O=C([O-])CCCCCCCCC(=O)[O-]
REMARK SMILES IDX 7 1 6 2 5 3 4 4 2 5 1 6 3 7 8 8 9 9 10 10 11 11 12 12 13 13
REMARK SMILES IDX 14 14
REMARK H PARENT
REMARK Flexibility Score: inf
ROOT
ATOM      1  C   UNL     1     -19.096  53.625  -3.239  1.00  0.00     0.000 C 
ENDROOT
BRANCH   1   2
ATOM      2  C   UNL     1     -19.927  52.957  -2.131  1.00  0.00     0.000 C 
BRANCH   2   3
ATOM      3  C   UNL     1     -20.581  53.975  -1.185  1.00  0.00     0.006 C 
BRANCH   3   4
ATOM      4  C   UNL     1     -22.047  53.618  -0.925  1.00  0.00     0.053 C 
BRANCH   4   5
ATOM      5  C   UNL     1     -22.950  54.674  -1.481  1.00  0.00     0.041 C 
ATOM      6  O   UNL     1     -23.928  55.092  -0.807  1.00  0.00    -0.550 OA
ATOM      7  O   UNL     1     -22.739  55.163  -2.764  1.00  0.00    -0.550 OA
ENDBRANCH   4   5
ENDBRANCH   3   4
ENDBRANCH   2   3
ENDBRANCH   1   2
BRANCH   1   8
ATOM      8  C   UNL     1     -19.247  55.154  -3.251  1.00  0.00     0.000 C 
BRANCH   8   9
ATOM      9  C   UNL     1     -18.015  55.823  -3.875  1.00  0.00     0.000 C 
BRANCH   9  10
ATOM     10  C   UNL     1     -17.218  56.677  -2.872  1.00  0.00     0.006 C 
BRANCH  10  11
ATOM     11  C   UNL     1     -17.731  56.581  -1.424  1.00  0.00     0.053 C 
BRANCH  11  12
ATOM     12  C   UNL     1     -16.821  55.785  -0.538  1.00  0.00     0.041 C 
ATOM     13  O   UNL     1     -16.789  54.530  -0.623  1.00  0.00    -0.550 OA
ATOM     14  O   UNL     1     -15.984  56.435   0.361  1.00  0.00    -0.550 OA
ENDBRANCH  11  12
ENDBRANCH  10  11
ENDBRANCH   9  10
ENDBRANCH   8   9
ENDBRANCH   1   8
TORSDOF 9
ENDMDL
MODEL 5
REMARK VINA RESULT:    -4.568      2.128      4.992
REMARK INTER + INTRA:          -7.664
REMARK INTER:                  -6.868
REMARK INTRA:                  -0.796
REMARK UNBOUND:                -0.692
REMARK SMILES O=C([O-])CCCCCCCCC(=O)[O-]
REMARK SMILES IDX 7 1 6 2 5 3 4 4 2 5 1 6 3 7 8 8 9 9 10 10 11 11 12 12 13 13
REMARK SMILES IDX 14 14
REMARK H PARENT
REMARK Flexibility Score: inf
ROOT
ATOM      1  C   UNL     1     -19.281  55.198  -3.248  1.00  0.00     0.000 C 
ENDROOT
BRANCH   1   2
ATOM      2  C   UNL     1     -18.149  56.037  -3.864  1.00  0.00     0.000 C 
BRANCH   2   3
ATOM      3  C   UNL     1     -17.006  56.309  -2.875  1.00  0.00     0.006 C 
BRANCH   3   4
ATOM      4  C   UNL     1     -17.551  56.592  -1.472  1.00  0.00     0.053 C 
BRANCH   4   5
ATOM      5  C   UNL     1     -16.959  55.644  -0.479  1.00  0.00     0.041 C 
ATOM      6  O   UNL     1     -16.930  55.943   0.745  1.00  0.00    -0.550 OA
ATOM      7  O   UNL     1     -16.395  54.450  -0.908  1.00  0.00    -0.550 OA
ENDBRANCH   4   5
ENDBRANCH   3   4
ENDBRANCH   2   3
ENDBRANCH   1   2
BRANCH   1   8
ATOM      8  C   UNL     1     -18.972  53.693  -3.257  1.00  0.00     0.000 C 
BRANCH   8   9
ATOM      9  C   UNL     1     -19.628  52.990  -2.060  1.00  0.00     0.000 C 
BRANCH   9  10
ATOM     10  C   UNL     1     -20.425  53.952  -1.159  1.00  0.00     0.006 C 
BRANCH  10  11
ATOM     11  C   UNL     1     -21.920  53.604  -1.041  1.00  0.00     0.053 C 
BRANCH  11  12
ATOM     12  C   UNL     1     -22.580  54.272   0.127  1.00  0.00     0.041 C 
ATOM     13  O   UNL     1     -23.122  53.584   1.031  1.00  0.00    -0.550 OA
ATOM     14  O   UNL     1     -22.569  55.658   0.232  1.00  0.00    -0.550 OA
ENDBRANCH  11  12
ENDBRANCH  10  11
ENDBRANCH   9  10
ENDBRANCH   8   9
ENDBRANCH   1   8
TORSDOF 9
ENDMDL
MODEL 6
REMARK VINA RESULT:    -4.566      1.654      3.483
REMARK INTER + INTRA:          -7.660
REMARK INTER:                  -6.643
REMARK INTRA:                  -1.017
REMARK UNBOUND:                -0.692
REMARK SMILES O=C([O-])CCCCCCCCC(=O)[O-]
REMARK SMILES IDX 7 1 6 2 5 3 4 4 2 5 1 6 3 7 8 8 9 9 10 10 11 11 12 12 13 13
REMARK SMILES IDX 14 14
REMARK H PARENT
REMARK Flexibility Score: inf
ROOT
ATOM      1  C   UNL     1     -21.024  52.968  -1.375  1.00  0.00     0.000 C 
ENDROOT
BRANCH   1   2
ATOM      2  C   UNL     1     -19.946  52.726  -0.306  1.00  0.00     0.000 C 
BRANCH   2   3
ATOM      3  C   UNL     1     -18.626  53.446  -0.620  1.00  0.00     0.006 C 
BRANCH   3   4
ATOM      4  C   UNL     1     -18.525  54.765   0.151  1.00  0.00     0.053 C 
BRANCH   4   5
ATOM      5  C   UNL     1     -17.288  55.508  -0.243  1.00  0.00     0.041 C 
ATOM      6  O   UNL     1     -16.179  54.912  -0.297  1.00  0.00    -0.550 OA
ATOM      7  O   UNL     1     -17.349  56.871  -0.503  1.00  0.00    -0.550 OA
ENDBRANCH   4   5
ENDBRANCH   3   4
ENDBRANCH   2   3
ENDBRANCH   1   2
BRANCH   1   8
ATOM      8  C   UNL     1     -22.108  53.952  -0.909  1.00  0.00     0.000 C 
BRANCH   8   9
ATOM      9  C   UNL     1     -21.944  55.315  -1.596  1.00  0.00     0.000 C 
BRANCH   9  10
ATOM     10  C   UNL     1     -21.164  55.233  -2.921  1.00  0.00     0.006 C 
BRANCH  10  11
ATOM     11  C   UNL     1     -20.330  56.488  -3.234  1.00  0.00     0.053 C 
BRANCH  11  12
ATOM     12  C   UNL     1     -18.905  56.168  -3.572  1.00  0.00     0.041 C 
ATOM     13  O   UNL     1     -18.060  57.091  -3.707  1.00  0.00    -0.550 OA
ATOM     14  O   UNL     1     -18.504  54.844  -3.708  1.00  0.00    -0.550 OA
ENDBRANCH  11  12
ENDBRANCH  10  11
ENDBRANCH   9  10
ENDBRANCH   8   9
ENDBRANCH   1   8
TORSDOF 9
ENDMDL
MODEL 7
REMARK VINA RESULT:    -4.547      2.305      3.207
REMARK INTER + INTRA:          -7.631
REMARK INTER:                  -6.613
REMARK INTRA:                  -1.018
REMARK UNBOUND:                -0.692
REMARK SMILES O=C([O-])CCCCCCCCC(=O)[O-]
REMARK SMILES IDX 7 1 6 2 5 3 4 4 2 5 1 6 3 7 8 8 9 9 10 10 11 11 12 12 13 13
REMARK SMILES IDX 14 14
REMARK H PARENT
REMARK Flexibility Score: inf
ROOT
ATOM      1  C   UNL     1     -19.755  52.651  -1.307  1.00  0.00     0.000 C 
ENDROOT
BRANCH   1   2
ATOM      2  C   UNL     1     -20.991  53.051  -0.484  1.00  0.00     0.000 C 
BRANCH   2   3
ATOM      3  C   UNL     1     -22.103  53.668  -1.346  1.00  0.00     0.006 C 
BRANCH   3   4
ATOM      4  C   UNL     1     -22.337  55.134  -0.971  1.00  0.00     0.053 C 
BRANCH   4   5
ATOM      5  C   UNL     1     -22.647  55.943  -2.190  1.00  0.00     0.041 C 
ATOM      6  O   UNL     1     -22.360  55.503  -3.335  1.00  0.00    -0.550 OA
ATOM      7  O   UNL     1     -23.210  57.207  -2.061  1.00  0.00    -0.550 OA
ENDBRANCH   4   5
ENDBRANCH   3   4
ENDBRANCH   2   3
ENDBRANCH   1   2
BRANCH   1   8
ATOM      8  C   UNL     1     -19.760  53.262  -2.717  1.00  0.00     0.000 C 
BRANCH   8   9
ATOM      9  C   UNL     1     -18.383  53.840  -3.070  1.00  0.00     0.000 C 
BRANCH   9  10
ATOM     10  C   UNL     1     -18.448  55.296  -3.567  1.00  0.00     0.006 C 
BRANCH  10  11
ATOM     11  C   UNL     1     -19.038  56.281  -2.542  1.00  0.00     0.053 C 
BRANCH  11  12
ATOM     12  C   UNL     1     -18.266  56.313  -1.258  1.00  0.00     0.041 C 
ATOM     13  O   UNL     1     -17.081  56.736  -1.239  1.00  0.00    -0.550 OA
ATOM     14  O   UNL     1     -18.868  55.902  -0.074  1.00  0.00    -0.550 OA
ENDBRANCH  11  12
ENDBRANCH  10  11
ENDBRANCH   9  10
ENDBRANCH   8   9
ENDBRANCH   1   8
TORSDOF 9
ENDMDL
MODEL 8
REMARK VINA RESULT:    -4.542      2.443      5.182
REMARK INTER + INTRA:          -7.624
REMARK INTER:                  -6.750
REMARK INTRA:                  -0.874
REMARK UNBOUND:                -0.692
REMARK SMILES O=C([O-])CCCCCCCCC(=O)[O-]
REMARK SMILES IDX 7 1 6 2 5 3 4 4 2 5 1 6 3 7 8 8 9 9 10 10 11 11 12 12 13 13
REMARK SMILES IDX 14 14
REMARK H PARENT
REMARK Flexibility Score: inf
ROOT
ATOM      1  C   UNL     1     -19.942  53.342  -2.842  1.00  0.00     0.000 C 
ENDROOT
BRANCH   1   2
ATOM      2  C   UNL     1     -18.494  53.839  -2.987  1.00  0.00     0.000 C 
BRANCH   2   3
ATOM      3  C   UNL     1     -18.408  55.250  -3.588  1.00  0.00     0.006 C 
BRANCH   3   4
ATOM      4  C   UNL     1     -19.034  56.284  -2.648  1.00  0.00     0.053 C 
BRANCH   4   5
ATOM      5  C   UNL     1     -18.282  56.341  -1.356  1.00  0.00     0.041 C 
ATOM      6  O   UNL     1     -17.082  56.723  -1.337  1.00  0.00    -0.550 OA
ATOM      7  O   UNL     1     -18.891  55.927  -0.178  1.00  0.00    -0.550 OA
ENDBRANCH   4   5
ENDBRANCH   3   4
ENDBRANCH   2   3
ENDBRANCH   1   2
BRANCH   1   8
ATOM      8  C   UNL     1     -20.170  52.554  -1.543  1.00  0.00     0.000 C 
BRANCH   8   9
ATOM      9  C   UNL     1     -21.196  53.260  -0.645  1.00  0.00     0.000 C 
BRANCH   9  10
ATOM     10  C   UNL     1     -21.968  54.375  -1.372  1.00  0.00     0.006 C 
BRANCH  10  11
ATOM     11  C   UNL     1     -23.365  54.652  -0.788  1.00  0.00     0.053 C 
BRANCH  11  12
ATOM     12  C   UNL     1     -23.338  54.890   0.692  1.00  0.00     0.041 C 
ATOM     13  O   UNL     1     -23.844  54.050   1.481  1.00  0.00    -0.550 OA
ATOM     14  O   UNL     1     -22.724  56.028   1.201  1.00  0.00    -0.550 OA
ENDBRANCH  11  12
ENDBRANCH  10  11
ENDBRANCH   9  10
ENDBRANCH   8   9
ENDBRANCH   1   8
TORSDOF 9
ENDMDL
MODEL 9
REMARK VINA RESULT:    -4.483      1.498      2.665
REMARK INTER + INTRA:          -7.534
REMARK INTER:                  -6.897
REMARK INTRA:                  -0.637
REMARK UNBOUND:                -0.692
REMARK SMILES O=C([O-])CCCCCCCCC(=O)[O-]
REMARK SMILES IDX 7 1 6 2 5 3 4 4 2 5 1 6 3 7 8 8 9 9 10 10 11 11 12 12 13 13
REMARK SMILES IDX 14 14
REMARK H PARENT
REMARK Flexibility Score: inf
ROOT
ATOM      1  C   UNL     1     -19.511  55.706  -3.228  1.00  0.00     0.000 C 
ENDROOT
BRANCH   1   2
ATOM      2  C   UNL     1     -20.867  56.432  -3.248  1.00  0.00     0.000 C 
BRANCH   2   3
ATOM      3  C   UNL     1     -22.037  55.511  -2.870  1.00  0.00     0.006 C 
BRANCH   3   4
ATOM      4  C   UNL     1     -22.209  55.440  -1.350  1.00  0.00     0.053 C 
BRANCH   4   5
ATOM      5  C   UNL     1     -22.060  54.031  -0.872  1.00  0.00     0.041 C 
ATOM      6  O   UNL     1     -22.588  53.670   0.214  1.00  0.00    -0.550 OA
ATOM      7  O   UNL     1     -21.297  53.126  -1.600  1.00  0.00    -0.550 OA
ENDBRANCH   4   5
ENDBRANCH   3   4
ENDBRANCH   2   3
ENDBRANCH   1   2
BRANCH   1   8
ATOM      8  C   UNL     1     -18.345  56.620  -3.635  1.00  0.00     0.000 C 
BRANCH   8   9
ATOM      9  C   UNL     1     -17.003  56.039  -3.170  1.00  0.00     0.000 C 
BRANCH   9  10
ATOM     10  C   UNL     1     -17.139  54.649  -2.523  1.00  0.00     0.006 C 
BRANCH  10  11
ATOM     11  C   UNL     1     -16.599  54.574  -1.084  1.00  0.00     0.053 C 
BRANCH  11  12
ATOM     12  C   UNL     1     -17.080  55.704  -0.225  1.00  0.00     0.041 C 
ATOM     13  O   UNL     1     -18.283  55.757   0.142  1.00  0.00    -0.550 OA
ATOM     14  O   UNL     1     -16.189  56.684   0.197  1.00  0.00    -0.550 OA
ENDBRANCH  11  12
ENDBRANCH  10  11
ENDBRANCH   9  10
ENDBRANCH   8   9
ENDBRANCH   1   8
TORSDOF 9
ENDMDL
