MODEL 1
REMARK VINA RESULT:    -3.279      0.000      0.000
REMARK INTER + INTRA:          -3.659
REMARK INTER:                  -3.567
REMARK INTRA:                  -0.092
REMARK UNBOUND:                -0.092
REMARK SMILES CC(=O)[C@@H]1CC[C@@H]2[C@@H]3CC=C4C[C@H](O)CC[C@@]4(C)[C@@H]3CC[C@@]21C
REMARK SMILES IDX 4 1 5 2 6 3 7 4 22 5 21 6 20 7 19 8 8 9 9 10 10 11 11 12
REMARK SMILES IDX 17 13 16 14 15 15 13 16 12 17 18 18 23 19 2 20 1 21 3 22
REMARK SMILES IDX 14 23
REMARK H PARENT 14 24
REMARK Flexibility Score: inf
ROOT
ATOM      1  C   UNL     1      27.462  42.988  20.719  1.00  0.00     0.062 C 
ATOM      2  C   UNL     1      28.959  42.695  20.727  1.00  0.00     0.012 C 
ATOM      3  C   UNL     1      29.125  41.670  21.830  1.00  0.00     0.005 C 
ATOM      4  C   UNL     1      27.855  40.802  21.785  1.00  0.00    -0.001 C 
ATOM      5  C   UNL     1      26.778  41.611  20.979  1.00  0.00    -0.020 C 
ATOM      6  C   UNL     1      26.396  40.904  19.648  1.00  0.00     0.008 C 
ATOM      7  C   UNL     1      26.072  39.400  19.776  1.00  0.00     0.005 C 
ATOM      8  C   UNL     1      26.731  38.666  20.984  1.00  0.00     0.003 C 
ATOM      9  C   UNL     1      28.085  39.322  21.329  1.00  0.00     0.000 C 
ATOM     10  C   UNL     1      29.088  39.087  20.175  1.00  0.00     0.031 C 
ATOM     11  C   UNL     1      29.125  37.643  19.746  1.00  0.00    -0.027 C 
ATOM     12  C   UNL     1      28.128  36.755  19.971  1.00  0.00    -0.065 C 
ATOM     13  C   UNL     1      26.873  37.105  20.776  1.00  0.00    -0.008 C 
ATOM     14  C   UNL     1      27.001  36.387  22.160  1.00  0.00     0.014 C 
ATOM     15  C   UNL     1      27.350  34.883  22.058  1.00  0.00     0.033 C 
ATOM     16  C   UNL     1      28.576  34.626  21.154  1.00  0.00     0.118 C 
ATOM     17  C   UNL     1      28.417  35.285  19.771  1.00  0.00     0.063 C 
ATOM     18  C   UNL     1      25.604  36.553  20.062  1.00  0.00     0.016 C 
ATOM     19  C   UNL     1      25.496  41.822  21.823  1.00  0.00     0.012 C 
ENDROOT
BRANCH   1  20
ATOM     20  C   UNL     1      26.964  43.751  19.499  1.00  0.00     0.133 C 
ATOM     21  C   UNL     1      27.858  44.106  18.343  1.00  0.00     0.088 C 
ATOM     22  O   UNL     1      25.796  44.107  19.465  1.00  0.00    -0.300 OA
ENDBRANCH   1  20
BRANCH  16  23
ATOM     23  O   UNL     1      28.814  33.247  21.022  1.00  0.00    -0.393 OA
ATOM     24  H   UNL     1      29.247  32.936  21.859  1.00  0.00     0.210 HD
ENDBRANCH  16  23
TORSDOF 2
ENDMDL
