MODEL 1
REMARK VINA RESULT:    -7.925      0.000      0.000
REMARK INTER + INTRA:         -12.057
REMARK INTER:                 -10.937
REMARK INTRA:                  -1.120
REMARK UNBOUND:                -1.120
REMARK SMILES O=C([O-])[C@@H]1O[C@@H](Oc2cc3oc(-c4ccccc4)cc(=O)c3c(O)c2O)[C@@H](O)[C@@H](O)[C@@H]1O
REMARK SMILES IDX 7 1 6 2 4 3 31 4 5 5 29 6 27 7 2 8 1 9 3 10 32 11 30 13
REMARK SMILES IDX 28 15 8 17 25 18 9 19 23 20 10 21 22 22 11 23 20 24 12 25
REMARK SMILES IDX 19 26 21 27 26 28 24 30 13 32 14 33 18 34 15 35 17 36 16 37
REMARK H PARENT 32 12 30 14 28 16 26 29 24 31
REMARK Flexibility Score: inf
ROOT
ATOM      1  O   UNL     1       7.356  -0.407  -2.199  1.00  0.00    -0.458 OA
ENDROOT
BRANCH   1   2
ATOM      2  C   UNL     1       8.183  -0.452  -1.032  1.00  0.00     0.339 C 
ATOM      3  C   UNL     1       8.278  -2.687  -0.127  1.00  0.00     0.199 C 
ATOM      4  C   UNL     1       6.737  -2.575  -0.048  1.00  0.00     0.180 C 
ATOM      5  O   UNL     1       8.869  -1.702  -0.974  1.00  0.00    -0.328 OA
ATOM      6  C   UNL     1       6.309  -1.210   0.531  1.00  0.00     0.181 C 
ATOM      7  C   UNL     1       7.354  -0.113   0.224  1.00  0.00     0.214 C 
BRANCH   3   8
ATOM      8  C   UNL     1       8.954  -2.688   1.225  1.00  0.00     0.073 C 
ATOM      9  O   UNL     1       9.829  -1.825   1.497  1.00  0.00    -0.547 OA
ATOM     10  O   UNL     1       8.676  -3.685   2.152  1.00  0.00    -0.547 OA
ENDBRANCH   3   8
BRANCH   4  11
ATOM     11  O   UNL     1       6.205  -3.626   0.724  1.00  0.00    -0.387 OA
ATOM     12  H   UNL     1       6.801  -3.737   1.510  1.00  0.00     0.211 HD
ENDBRANCH   4  11
BRANCH   6  13
ATOM     13  O   UNL     1       5.057  -0.856  -0.002  1.00  0.00    -0.387 OA
ATOM     14  H   UNL     1       4.617  -1.696  -0.293  1.00  0.00     0.211 HD
ENDBRANCH   6  13
BRANCH   7  15
ATOM     15  O   UNL     1       6.734   1.140   0.060  1.00  0.00    -0.384 OA
ATOM     16  H   UNL     1       6.044   1.022  -0.644  1.00  0.00     0.211 HD
ENDBRANCH   7  15
ENDBRANCH   1   2
BRANCH   1  17
ATOM     17  C   UNL     1       7.683  -1.001  -3.431  1.00  0.00     0.172 A 
ATOM     18  C   UNL     1       8.448  -0.274  -4.358  1.00  0.00     0.201 A 
ATOM     19  C   UNL     1       7.296  -2.313  -3.744  1.00  0.00     0.098 A 
ATOM     20  C   UNL     1       8.857  -0.855  -5.573  1.00  0.00     0.176 A 
ATOM     21  C   UNL     1       7.693  -2.909  -4.942  1.00  0.00     0.146 A 
ATOM     22  C   UNL     1       8.465  -2.191  -5.890  1.00  0.00     0.111 A 
ATOM     23  O   UNL     1       7.326  -4.165  -5.169  1.00  0.00    -0.456 OA
ATOM     24  C   UNL     1       8.743  -2.851  -7.112  1.00  0.00     0.197 A 
ATOM     25  C   UNL     1       7.632  -4.834  -6.277  1.00  0.00     0.138 A 
ATOM     26  C   UNL     1       8.343  -4.177  -7.293  1.00  0.00     0.100 A 
ATOM     27  O   UNL     1       9.308  -2.265  -8.071  1.00  0.00    -0.289 OA
BRANCH  18  28
ATOM     28  O   UNL     1       8.837   1.036  -4.079  1.00  0.00    -0.502 OA
ATOM     29  H   UNL     1       8.258   1.677  -3.547  1.00  0.00     0.293 HD
ENDBRANCH  18  28
BRANCH  20  30
ATOM     30  O   UNL     1       9.671  -0.073  -6.399  1.00  0.00    -0.504 OA
ATOM     31  H   UNL     1      10.268   0.676  -6.081  1.00  0.00     0.293 HD
ENDBRANCH  20  30
BRANCH  25  32
ATOM     32  C   UNL     1       7.182  -6.250  -6.392  1.00  0.00     0.017 A 
ATOM     33  C   UNL     1       7.843  -7.194  -7.211  1.00  0.00     0.012 A 
ATOM     34  C   UNL     1       6.075  -6.685  -5.634  1.00  0.00     0.012 A 
ATOM     35  C   UNL     1       7.393  -8.518  -7.276  1.00  0.00     0.001 A 
ATOM     36  C   UNL     1       5.646  -8.013  -5.688  1.00  0.00     0.001 A 
ATOM     37  C   UNL     1       6.305  -8.931  -6.506  1.00  0.00     0.000 A 
ENDBRANCH  25  32
ENDBRANCH   1  17
TORSDOF 9
ENDMDL
MODEL 2
REMARK VINA RESULT:    -7.876      2.519      7.522
REMARK INTER + INTRA:         -11.989
REMARK INTER:                 -10.868
REMARK INTRA:                  -1.121
REMARK UNBOUND:                -1.120
REMARK SMILES O=C([O-])[C@@H]1O[C@@H](Oc2cc3oc(-c4ccccc4)cc(=O)c3c(O)c2O)[C@@H](O)[C@@H](O)[C@@H]1O
REMARK SMILES IDX 7 1 6 2 4 3 31 4 5 5 29 6 27 7 2 8 1 9 3 10 32 11 30 13
REMARK SMILES IDX 28 15 8 17 25 18 9 19 23 20 10 21 22 22 11 23 20 24 12 25
REMARK SMILES IDX 19 26 21 27 26 28 24 30 13 32 14 33 18 34 15 35 17 36 16 37
REMARK H PARENT 32 12 30 14 28 16 26 29 24 31
REMARK Flexibility Score: inf
ROOT
ATOM      1  O   UNL     1       9.169  -1.112  -4.615  1.00  0.00    -0.458 OA
ENDROOT
BRANCH   1   2
ATOM      2  C   UNL     1       8.094  -1.282  -5.543  1.00  0.00     0.339 C 
ATOM      3  C   UNL     1       6.620  -3.059  -4.837  1.00  0.00     0.199 C 
ATOM      4  C   UNL     1       7.891  -3.942  -4.868  1.00  0.00     0.180 C 
ATOM      5  O   UNL     1       6.909  -1.661  -4.843  1.00  0.00    -0.328 OA
ATOM      6  C   UNL     1       8.712  -3.687  -6.150  1.00  0.00     0.181 C 
ATOM      7  C   UNL     1       8.510  -2.246  -6.673  1.00  0.00     0.214 C 
BRANCH   3   8
ATOM      8  C   UNL     1       5.626  -3.392  -5.926  1.00  0.00     0.073 C 
ATOM      9  O   UNL     1       4.766  -2.544  -6.282  1.00  0.00    -0.547 OA
ATOM     10  O   UNL     1       5.597  -4.662  -6.490  1.00  0.00    -0.547 OA
ENDBRANCH   3   8
BRANCH   4  11
ATOM     11  O   UNL     1       7.548  -5.304  -4.767  1.00  0.00    -0.387 OA
ATOM     12  H   UNL     1       7.098  -5.552  -5.617  1.00  0.00     0.211 HD
ENDBRANCH   4  11
BRANCH   6  13
ATOM     13  O   UNL     1      10.072  -3.922  -5.880  1.00  0.00    -0.387 OA
ATOM     14  H   UNL     1      10.583  -3.612  -6.672  1.00  0.00     0.211 HD
ENDBRANCH   6  13
BRANCH   7  15
ATOM     15  O   UNL     1       9.677  -1.769  -7.298  1.00  0.00    -0.384 OA
ATOM     16  H   UNL     1      10.299  -1.508  -6.569  1.00  0.00     0.211 HD
ENDBRANCH   7  15
ENDBRANCH   1   2
BRANCH   1  17
ATOM     17  C   UNL     1       9.016  -0.672  -3.289  1.00  0.00     0.172 A 
ATOM     18  C   UNL     1       8.727   0.682  -3.047  1.00  0.00     0.201 A 
ATOM     19  C   UNL     1       9.109  -1.555  -2.203  1.00  0.00     0.098 A 
ATOM     20  C   UNL     1       8.496   1.150  -1.740  1.00  0.00     0.176 A 
ATOM     21  C   UNL     1       8.881  -1.112  -0.899  1.00  0.00     0.146 A 
ATOM     22  C   UNL     1       8.588   0.250  -0.635  1.00  0.00     0.111 A 
ATOM     23  O   UNL     1       8.948  -2.000   0.086  1.00  0.00    -0.456 OA
ATOM     24  C   UNL     1       8.460   0.619   0.726  1.00  0.00     0.197 A 
ATOM     25  C   UNL     1       8.764  -1.696   1.368  1.00  0.00     0.138 A 
ATOM     26  C   UNL     1       8.529  -0.358   1.722  1.00  0.00     0.100 A 
ATOM     27  O   UNL     1       8.328   1.819   1.082  1.00  0.00    -0.289 OA
BRANCH  18  28
ATOM     28  O   UNL     1       8.640   1.585  -4.106  1.00  0.00    -0.502 OA
ATOM     29  H   UNL     1       9.230   1.522  -4.928  1.00  0.00     0.293 HD
ENDBRANCH  18  28
BRANCH  20  30
ATOM     30  O   UNL     1       8.151   2.499  -1.609  1.00  0.00    -0.504 OA
ATOM     31  H   UNL     1       8.321   3.210  -2.306  1.00  0.00     0.293 HD
ENDBRANCH  20  30
BRANCH  25  32
ATOM     32  C   UNL     1       8.838  -2.797   2.371  1.00  0.00     0.017 A 
ATOM     33  C   UNL     1       9.800  -2.818   3.405  1.00  0.00     0.012 A 
ATOM     34  C   UNL     1       7.896  -3.845   2.313  1.00  0.00     0.012 A 
ATOM     35  C   UNL     1       9.823  -3.866   4.334  1.00  0.00     0.001 A 
ATOM     36  C   UNL     1       7.912  -4.875   3.257  1.00  0.00     0.001 A 
ATOM     37  C   UNL     1       8.873  -4.885   4.269  1.00  0.00     0.000 A 
ENDBRANCH  25  32
ENDBRANCH   1  17
TORSDOF 9
ENDMDL
MODEL 3
REMARK VINA RESULT:    -7.505      6.237      9.191
REMARK INTER + INTRA:         -11.477
REMARK INTER:                 -10.233
REMARK INTRA:                  -1.245
REMARK UNBOUND:                -1.120
REMARK SMILES O=C([O-])[C@@H]1O[C@@H](Oc2cc3oc(-c4ccccc4)cc(=O)c3c(O)c2O)[C@@H](O)[C@@H](O)[C@@H]1O
REMARK SMILES IDX 7 1 6 2 4 3 31 4 5 5 29 6 27 7 2 8 1 9 3 10 32 11 30 13
REMARK SMILES IDX 28 15 8 17 25 18 9 19 23 20 10 21 22 22 11 23 20 24 12 25
REMARK SMILES IDX 19 26 21 27 26 28 24 30 13 32 14 33 18 34 15 35 17 36 16 37
REMARK H PARENT 32 12 30 14 28 16 26 29 24 31
REMARK Flexibility Score: inf
ROOT
ATOM      1  O   UNL     1       4.199  -4.380  -4.436  1.00  0.00    -0.458 OA
ENDROOT
BRANCH   1   2
ATOM      2  C   UNL     1       4.687  -4.211  -5.770  1.00  0.00     0.339 C 
ATOM      3  C   UNL     1       7.064  -4.617  -5.876  1.00  0.00     0.199 C 
ATOM      4  C   UNL     1       7.166  -3.502  -4.808  1.00  0.00     0.180 C 
ATOM      5  O   UNL     1       5.743  -5.139  -6.018  1.00  0.00    -0.328 OA
ATOM      6  C   UNL     1       6.275  -2.297  -5.178  1.00  0.00     0.181 C 
ATOM      7  C   UNL     1       5.055  -2.734  -6.022  1.00  0.00     0.214 C 
BRANCH   3   8
ATOM      8  C   UNL     1       7.615  -4.214  -7.225  1.00  0.00     0.073 C 
ATOM      9  O   UNL     1       7.085  -4.646  -8.282  1.00  0.00    -0.547 OA
ATOM     10  O   UNL     1       8.758  -3.428  -7.313  1.00  0.00    -0.547 OA
ENDBRANCH   3   8
BRANCH   4  11
ATOM     11  O   UNL     1       8.504  -3.094  -4.647  1.00  0.00    -0.387 OA
ATOM     12  H   UNL     1       8.568  -2.662  -3.755  1.00  0.00     0.211 HD
ENDBRANCH   4  11
BRANCH   6  13
ATOM     13  O   UNL     1       5.850  -1.660  -3.998  1.00  0.00    -0.387 OA
ATOM     14  H   UNL     1       5.612  -0.728  -4.241  1.00  0.00     0.211 HD
ENDBRANCH   6  13
BRANCH   7  15
ATOM     15  O   UNL     1       3.942  -1.915  -5.757  1.00  0.00    -0.384 OA
ATOM     16  H   UNL     1       3.318  -2.034  -6.520  1.00  0.00     0.211 HD
ENDBRANCH   7  15
ENDBRANCH   1   2
BRANCH   1  17
ATOM     17  C   UNL     1       3.105  -5.190  -4.084  1.00  0.00     0.172 A 
ATOM     18  C   UNL     1       3.277  -6.583  -4.028  1.00  0.00     0.201 A 
ATOM     19  C   UNL     1       1.857  -4.643  -3.752  1.00  0.00     0.098 A 
ATOM     20  C   UNL     1       2.229  -7.426  -3.611  1.00  0.00     0.176 A 
ATOM     21  C   UNL     1       0.806  -5.460  -3.334  1.00  0.00     0.146 A 
ATOM     22  C   UNL     1       0.960  -6.868  -3.272  1.00  0.00     0.111 A 
ATOM     23  O   UNL     1      -0.342  -4.882  -2.998  1.00  0.00    -0.456 OA
ATOM     24  C   UNL     1      -0.189  -7.617  -2.921  1.00  0.00     0.197 A 
ATOM     25  C   UNL     1      -1.418  -5.555  -2.599  1.00  0.00     0.138 A 
ATOM     26  C   UNL     1      -1.368  -6.957  -2.567  1.00  0.00     0.100 A 
ATOM     27  O   UNL     1      -0.202  -8.874  -2.959  1.00  0.00    -0.289 OA
BRANCH  18  28
ATOM     28  O   UNL     1       4.503  -7.157  -4.364  1.00  0.00    -0.502 OA
ATOM     29  H   UNL     1       4.669  -8.157  -4.320  1.00  0.00     0.293 HD
ENDBRANCH  18  28
BRANCH  20  30
ATOM     30  O   UNL     1       2.520  -8.792  -3.527  1.00  0.00    -0.504 OA
ATOM     31  H   UNL     1       2.591  -9.316  -2.667  1.00  0.00     0.293 HD
ENDBRANCH  20  30
BRANCH  25  32
ATOM     32  C   UNL     1      -2.634  -4.780  -2.223  1.00  0.00     0.017 A 
ATOM     33  C   UNL     1      -3.667  -4.493  -3.144  1.00  0.00     0.012 A 
ATOM     34  C   UNL     1      -2.786  -4.338  -0.893  1.00  0.00     0.012 A 
ATOM     35  C   UNL     1      -4.800  -3.774  -2.743  1.00  0.00     0.001 A 
ATOM     36  C   UNL     1      -3.929  -3.640  -0.495  1.00  0.00     0.001 A 
ATOM     37  C   UNL     1      -4.937  -3.359  -1.418  1.00  0.00     0.000 A 
ENDBRANCH  25  32
ENDBRANCH   1  17
TORSDOF 9
ENDMDL
MODEL 4
REMARK VINA RESULT:    -7.215      2.034      3.529
REMARK INTER + INTRA:         -11.077
REMARK INTER:                  -9.828
REMARK INTRA:                  -1.249
REMARK UNBOUND:                -1.120
REMARK SMILES O=C([O-])[C@@H]1O[C@@H](Oc2cc3oc(-c4ccccc4)cc(=O)c3c(O)c2O)[C@@H](O)[C@@H](O)[C@@H]1O
REMARK SMILES IDX 7 1 6 2 4 3 31 4 5 5 29 6 27 7 2 8 1 9 3 10 32 11 30 13
REMARK SMILES IDX 28 15 8 17 25 18 9 19 23 20 10 21 22 22 11 23 20 24 12 25
REMARK SMILES IDX 19 26 21 27 26 28 24 30 13 32 14 33 18 34 15 35 17 36 16 37
REMARK H PARENT 32 12 30 14 28 16 26 29 24 31
REMARK Flexibility Score: inf
ROOT
ATOM      1  O   UNL     1       7.808  -1.213  -3.460  1.00  0.00    -0.458 OA
ENDROOT
BRANCH   1   2
ATOM      2  C   UNL     1       8.693  -1.467  -2.366  1.00  0.00     0.339 C 
ATOM      3  C   UNL     1       7.522  -1.326  -0.260  1.00  0.00     0.199 C 
ATOM      4  C   UNL     1       7.155   0.107  -0.714  1.00  0.00     0.180 C 
ATOM      5  O   UNL     1       7.992  -2.150  -1.327  1.00  0.00    -0.328 OA
ATOM      6  C   UNL     1       8.383   0.835  -1.299  1.00  0.00     0.181 C 
ATOM      7  C   UNL     1       9.386  -0.161  -1.924  1.00  0.00     0.214 C 
BRANCH   3   8
ATOM      8  C   UNL     1       8.496  -1.363   0.896  1.00  0.00     0.073 C 
ATOM      9  O   UNL     1       9.442  -2.193   0.903  1.00  0.00    -0.547 OA
ATOM     10  O   UNL     1       8.313  -0.536   1.998  1.00  0.00    -0.547 OA
ENDBRANCH   3   8
BRANCH   4  11
ATOM     11  O   UNL     1       6.613   0.840   0.358  1.00  0.00    -0.387 OA
ATOM     12  H   UNL     1       5.729   1.179   0.058  1.00  0.00     0.211 HD
ENDBRANCH   4  11
BRANCH   6  13
ATOM     13  O   UNL     1       7.952   1.763  -2.263  1.00  0.00    -0.387 OA
ATOM     14  H   UNL     1       7.937   1.290  -3.136  1.00  0.00     0.211 HD
ENDBRANCH   6  13
BRANCH   7  15
ATOM     15  O   UNL     1      10.052   0.416  -3.022  1.00  0.00    -0.384 OA
ATOM     16  H   UNL     1       9.346   0.717  -3.652  1.00  0.00     0.211 HD
ENDBRANCH   7  15
ENDBRANCH   1   2
BRANCH   1  17
ATOM     17  C   UNL     1       7.152  -2.210  -4.204  1.00  0.00     0.172 A 
ATOM     18  C   UNL     1       5.753  -2.311  -4.128  1.00  0.00     0.201 A 
ATOM     19  C   UNL     1       7.855  -3.084  -5.047  1.00  0.00     0.098 A 
ATOM     20  C   UNL     1       5.051  -3.247  -4.910  1.00  0.00     0.176 A 
ATOM     21  C   UNL     1       7.178  -4.018  -5.833  1.00  0.00     0.146 A 
ATOM     22  C   UNL     1       5.766  -4.135  -5.769  1.00  0.00     0.111 A 
ATOM     23  O   UNL     1       7.893  -4.795  -6.639  1.00  0.00    -0.456 OA
ATOM     24  C   UNL     1       5.180  -5.170  -6.537  1.00  0.00     0.197 A 
ATOM     25  C   UNL     1       7.363  -5.730  -7.423  1.00  0.00     0.138 A 
ATOM     26  C   UNL     1       5.978  -5.951  -7.377  1.00  0.00     0.100 A 
ATOM     27  O   UNL     1       3.956  -5.446  -6.458  1.00  0.00    -0.289 OA
BRANCH  18  28
ATOM     28  O   UNL     1       5.029  -1.464  -3.289  1.00  0.00    -0.502 OA
ATOM     29  H   UNL     1       5.378  -0.558  -2.994  1.00  0.00     0.293 HD
ENDBRANCH  18  28
BRANCH  20  30
ATOM     30  O   UNL     1       3.656  -3.225  -4.812  1.00  0.00    -0.504 OA
ATOM     31  H   UNL     1       3.071  -2.440  -5.059  1.00  0.00     0.293 HD
ENDBRANCH  20  30
BRANCH  25  32
ATOM     32  C   UNL     1       8.278  -6.513  -8.302  1.00  0.00     0.017 A 
ATOM     33  C   UNL     1       9.270  -5.903  -9.103  1.00  0.00     0.012 A 
ATOM     34  C   UNL     1       8.180  -7.920  -8.319  1.00  0.00     0.012 A 
ATOM     35  C   UNL     1      10.117  -6.680  -9.902  1.00  0.00     0.001 A 
ATOM     36  C   UNL     1       9.044  -8.690  -9.102  1.00  0.00     0.001 A 
ATOM     37  C   UNL     1      10.013  -8.071  -9.892  1.00  0.00     0.000 A 
ENDBRANCH  25  32
ENDBRANCH   1  17
TORSDOF 9
ENDMDL
MODEL 5
REMARK VINA RESULT:    -7.204     10.474     14.714
REMARK INTER + INTRA:         -11.062
REMARK INTER:                 -10.073
REMARK INTRA:                  -0.988
REMARK UNBOUND:                -1.120
REMARK SMILES O=C([O-])[C@@H]1O[C@@H](Oc2cc3oc(-c4ccccc4)cc(=O)c3c(O)c2O)[C@@H](O)[C@@H](O)[C@@H]1O
REMARK SMILES IDX 7 1 6 2 4 3 31 4 5 5 29 6 27 7 2 8 1 9 3 10 32 11 30 13
REMARK SMILES IDX 28 15 8 17 25 18 9 19 23 20 10 21 22 22 11 23 20 24 12 25
REMARK SMILES IDX 19 26 21 27 26 28 24 30 13 32 14 33 18 34 15 35 17 36 16 37
REMARK H PARENT 32 12 30 14 28 16 26 29 24 31
REMARK Flexibility Score: inf
ROOT
ATOM      1  O   UNL     1      -4.541  -5.809  -0.266  1.00  0.00    -0.458 OA
ENDROOT
BRANCH   1   2
ATOM      2  C   UNL     1      -3.641  -6.044  -1.353  1.00  0.00     0.339 C 
ATOM      3  C   UNL     1      -1.914  -4.359  -1.423  1.00  0.00     0.199 C 
ATOM      4  C   UNL     1      -3.087  -3.355  -1.521  1.00  0.00     0.180 C 
ATOM      5  O   UNL     1      -2.320  -5.653  -0.979  1.00  0.00    -0.328 OA
ATOM      6  C   UNL     1      -4.147  -3.836  -2.535  1.00  0.00     0.181 C 
ATOM      7  C   UNL     1      -4.169  -5.378  -2.640  1.00  0.00     0.214 C 
BRANCH   3   8
ATOM      8  C   UNL     1      -1.109  -4.473  -2.697  1.00  0.00     0.073 C 
ATOM      9  O   UNL     1      -0.331  -5.447  -2.872  1.00  0.00    -0.547 OA
ATOM     10  O   UNL     1      -1.157  -3.465  -3.654  1.00  0.00    -0.547 OA
ENDBRANCH   3   8
BRANCH   4  11
ATOM     11  O   UNL     1      -2.614  -2.076  -1.873  1.00  0.00    -0.387 OA
ATOM     12  H   UNL     1      -2.129  -1.720  -1.083  1.00  0.00     0.211 HD
ENDBRANCH   4  11
BRANCH   6  13
ATOM     13  O   UNL     1      -5.409  -3.354  -2.146  1.00  0.00    -0.387 OA
ATOM     14  H   UNL     1      -5.940  -3.228  -2.974  1.00  0.00     0.211 HD
ENDBRANCH   6  13
BRANCH   7  15
ATOM     15  O   UNL     1      -5.468  -5.844  -2.917  1.00  0.00    -0.384 OA
ATOM     16  H   UNL     1      -5.366  -6.766  -3.269  1.00  0.00     0.211 HD
ENDBRANCH   7  15
ENDBRANCH   1   2
BRANCH   1  17
ATOM     17  C   UNL     1      -4.154  -5.704   1.081  1.00  0.00     0.172 A 
ATOM     18  C   UNL     1      -3.711  -6.854   1.756  1.00  0.00     0.201 A 
ATOM     19  C   UNL     1      -4.165  -4.476   1.759  1.00  0.00     0.098 A 
ATOM     20  C   UNL     1      -3.248  -6.781   3.083  1.00  0.00     0.176 A 
ATOM     21  C   UNL     1      -3.708  -4.381   3.074  1.00  0.00     0.146 A 
ATOM     22  C   UNL     1      -3.257  -5.530   3.772  1.00  0.00     0.111 A 
ATOM     23  O   UNL     1      -3.709  -3.186   3.654  1.00  0.00    -0.456 OA
ATOM     24  C   UNL     1      -2.896  -5.348   5.129  1.00  0.00     0.197 A 
ATOM     25  C   UNL     1      -3.310  -2.972   4.905  1.00  0.00     0.138 A 
ATOM     26  C   UNL     1      -2.905  -4.066   5.685  1.00  0.00     0.100 A 
ATOM     27  O   UNL     1      -2.605  -6.316   5.877  1.00  0.00    -0.289 OA
BRANCH  18  28
ATOM     28  O   UNL     1      -3.700  -8.090   1.111  1.00  0.00    -0.502 OA
ATOM     29  H   UNL     1      -3.487  -8.957   1.594  1.00  0.00     0.293 HD
ENDBRANCH  18  28
BRANCH  20  30
ATOM     30  O   UNL     1      -2.766  -7.968   3.645  1.00  0.00    -0.504 OA
ATOM     31  H   UNL     1      -2.384  -8.742   3.122  1.00  0.00     0.293 HD
ENDBRANCH  20  30
BRANCH  25  32
ATOM     32  C   UNL     1      -3.335  -1.575   5.423  1.00  0.00     0.017 A 
ATOM     33  C   UNL     1      -4.423  -1.057   6.160  1.00  0.00     0.012 A 
ATOM     34  C   UNL     1      -2.221  -0.738   5.201  1.00  0.00     0.012 A 
ATOM     35  C   UNL     1      -4.396   0.259   6.640  1.00  0.00     0.001 A 
ATOM     36  C   UNL     1      -2.193   0.566   5.702  1.00  0.00     0.001 A 
ATOM     37  C   UNL     1      -3.278   1.064   6.423  1.00  0.00     0.000 A 
ENDBRANCH  25  32
ENDBRANCH   1  17
TORSDOF 9
ENDMDL
MODEL 6
REMARK VINA RESULT:    -7.177      3.367      4.319
REMARK INTER + INTRA:         -11.024
REMARK INTER:                 -10.138
REMARK INTRA:                  -0.886
REMARK UNBOUND:                -1.120
REMARK SMILES O=C([O-])[C@@H]1O[C@@H](Oc2cc3oc(-c4ccccc4)cc(=O)c3c(O)c2O)[C@@H](O)[C@@H](O)[C@@H]1O
REMARK SMILES IDX 7 1 6 2 4 3 31 4 5 5 29 6 27 7 2 8 1 9 3 10 32 11 30 13
REMARK SMILES IDX 28 15 8 17 25 18 9 19 23 20 10 21 22 22 11 23 20 24 12 25
REMARK SMILES IDX 19 26 21 27 26 28 24 30 13 32 14 33 18 34 15 35 17 36 16 37
REMARK H PARENT 32 12 30 14 28 16 26 29 24 31
REMARK Flexibility Score: inf
ROOT
ATOM      1  O   UNL     1       7.123  -0.768  -2.890  1.00  0.00    -0.458 OA
ENDROOT
BRANCH   1   2
ATOM      2  C   UNL     1       8.337  -1.003  -2.171  1.00  0.00     0.339 C 
ATOM      3  C   UNL     1       7.942  -2.410  -0.250  1.00  0.00     0.199 C 
ATOM      4  C   UNL     1       6.926  -1.321   0.170  1.00  0.00     0.180 C 
ATOM      5  O   UNL     1       8.325  -2.320  -1.622  1.00  0.00    -0.328 OA
ATOM      6  C   UNL     1       7.522   0.092  -0.010  1.00  0.00     0.181 C 
ATOM      7  C   UNL     1       8.575   0.121  -1.141  1.00  0.00     0.214 C 
BRANCH   3   8
ATOM      8  C   UNL     1       9.168  -2.466   0.632  1.00  0.00     0.073 C 
ATOM      9  O   UNL     1      10.125  -3.231   0.342  1.00  0.00    -0.547 OA
ATOM     10  O   UNL     1       9.221  -1.734   1.813  1.00  0.00    -0.547 OA
ENDBRANCH   3   8
BRANCH   4  11
ATOM     11  O   UNL     1       6.517  -1.517   1.503  1.00  0.00    -0.387 OA
ATOM     12  H   UNL     1       5.859  -2.261   1.496  1.00  0.00     0.211 HD
ENDBRANCH   4  11
BRANCH   6  13
ATOM     13  O   UNL     1       6.483   0.997  -0.285  1.00  0.00    -0.387 OA
ATOM     14  H   UNL     1       5.926   0.592  -0.999  1.00  0.00     0.211 HD
ENDBRANCH   6  13
BRANCH   7  15
ATOM     15  O   UNL     1       8.577   1.369  -1.793  1.00  0.00    -0.384 OA
ATOM     16  H   UNL     1       7.631   1.665  -1.838  1.00  0.00     0.211 HD
ENDBRANCH   7  15
ENDBRANCH   1   2
BRANCH   1  17
ATOM     17  C   UNL     1       6.465  -1.728  -3.679  1.00  0.00     0.172 A 
ATOM     18  C   UNL     1       7.093  -2.202  -4.843  1.00  0.00     0.201 A 
ATOM     19  C   UNL     1       5.215  -2.250  -3.317  1.00  0.00     0.098 A 
ATOM     20  C   UNL     1       6.503  -3.214  -5.623  1.00  0.00     0.176 A 
ATOM     21  C   UNL     1       4.613  -3.255  -4.075  1.00  0.00     0.146 A 
ATOM     22  C   UNL     1       5.231  -3.747  -5.253  1.00  0.00     0.111 A 
ATOM     23  O   UNL     1       3.445  -3.736  -3.665  1.00  0.00    -0.456 OA
ATOM     24  C   UNL     1       4.501  -4.702  -6.001  1.00  0.00     0.197 A 
ATOM     25  C   UNL     1       2.769  -4.684  -4.309  1.00  0.00     0.138 A 
ATOM     26  C   UNL     1       3.283  -5.182  -5.516  1.00  0.00     0.100 A 
ATOM     27  O   UNL     1       4.895  -5.110  -7.124  1.00  0.00    -0.289 OA
BRANCH  18  28
ATOM     28  O   UNL     1       8.331  -1.693  -5.235  1.00  0.00    -0.502 OA
ATOM     29  H   UNL     1       8.501  -1.321  -6.163  1.00  0.00     0.293 HD
ENDBRANCH  18  28
BRANCH  20  30
ATOM     30  O   UNL     1       7.237  -3.664  -6.725  1.00  0.00    -0.504 OA
ATOM     31  H   UNL     1       8.229  -3.529  -6.854  1.00  0.00     0.293 HD
ENDBRANCH  20  30
BRANCH  25  32
ATOM     32  C   UNL     1       1.482  -5.154  -3.722  1.00  0.00     0.017 A 
ATOM     33  C   UNL     1       0.255  -4.494  -3.954  1.00  0.00     0.012 A 
ATOM     34  C   UNL     1       1.473  -6.320  -2.928  1.00  0.00     0.012 A 
ATOM     35  C   UNL     1      -0.933  -4.981  -3.393  1.00  0.00     0.001 A 
ATOM     36  C   UNL     1       0.281  -6.812  -2.391  1.00  0.00     0.001 A 
ATOM     37  C   UNL     1      -0.922  -6.145  -2.624  1.00  0.00     0.000 A 
ENDBRANCH  25  32
ENDBRANCH   1  17
TORSDOF 9
ENDMDL
MODEL 7
REMARK VINA RESULT:    -7.161      1.703      2.449
REMARK INTER + INTRA:         -11.002
REMARK INTER:                  -9.746
REMARK INTRA:                  -1.256
REMARK UNBOUND:                -1.120
REMARK SMILES O=C([O-])[C@@H]1O[C@@H](Oc2cc3oc(-c4ccccc4)cc(=O)c3c(O)c2O)[C@@H](O)[C@@H](O)[C@@H]1O
REMARK SMILES IDX 7 1 6 2 4 3 31 4 5 5 29 6 27 7 2 8 1 9 3 10 32 11 30 13
REMARK SMILES IDX 28 15 8 17 25 18 9 19 23 20 10 21 22 22 11 23 20 24 12 25
REMARK SMILES IDX 19 26 21 27 26 28 24 30 13 32 14 33 18 34 15 35 17 36 16 37
REMARK H PARENT 32 12 30 14 28 16 26 29 24 31
REMARK Flexibility Score: inf
ROOT
ATOM      1  O   UNL     1       7.985  -1.396  -3.392  1.00  0.00    -0.458 OA
ENDROOT
BRANCH   1   2
ATOM      2  C   UNL     1       8.744  -1.698  -2.218  1.00  0.00     0.339 C 
ATOM      3  C   UNL     1       7.335  -1.698  -0.258  1.00  0.00     0.199 C 
ATOM      4  C   UNL     1       6.989  -0.248  -0.673  1.00  0.00     0.180 C 
ATOM      5  O   UNL     1       7.944  -2.451  -1.307  1.00  0.00    -0.328 OA
ATOM      6  C   UNL     1       8.259   0.534  -1.069  1.00  0.00     0.181 C 
ATOM      7  C   UNL     1       9.351  -0.408  -1.627  1.00  0.00     0.214 C 
BRANCH   3   8
ATOM      8  C   UNL     1       8.169  -1.784   1.000  1.00  0.00     0.073 C 
ATOM      9  O   UNL     1       8.773  -2.850   1.289  1.00  0.00    -0.547 OA
ATOM     10  O   UNL     1       8.216  -0.717   1.889  1.00  0.00    -0.547 OA
ENDBRANCH   3   8
BRANCH   4  11
ATOM     11  O   UNL     1       6.309   0.414   0.368  1.00  0.00    -0.387 OA
ATOM     12  H   UNL     1       6.070  -0.276   1.041  1.00  0.00     0.211 HD
ENDBRANCH   4  11
BRANCH   6  13
ATOM     13  O   UNL     1       7.921   1.508  -2.025  1.00  0.00    -0.387 OA
ATOM     14  H   UNL     1       7.615   1.026  -2.836  1.00  0.00     0.211 HD
ENDBRANCH   6  13
BRANCH   7  15
ATOM     15  O   UNL     1      10.125   0.243  -2.606  1.00  0.00    -0.384 OA
ATOM     16  H   UNL     1      10.618   0.967  -2.138  1.00  0.00     0.211 HD
ENDBRANCH   7  15
ENDBRANCH   1   2
BRANCH   1  17
ATOM     17  C   UNL     1       8.286  -1.873  -4.680  1.00  0.00     0.172 A 
ATOM     18  C   UNL     1       8.691  -0.960  -5.669  1.00  0.00     0.201 A 
ATOM     19  C   UNL     1       8.229  -3.238  -4.995  1.00  0.00     0.098 A 
ATOM     20  C   UNL     1       9.070  -1.402  -6.950  1.00  0.00     0.176 A 
ATOM     21  C   UNL     1       8.602  -3.698  -6.259  1.00  0.00     0.146 A 
ATOM     22  C   UNL     1       9.013  -2.792  -7.269  1.00  0.00     0.111 A 
ATOM     23  O   UNL     1       8.561  -5.005  -6.488  1.00  0.00    -0.456 OA
ATOM     24  C   UNL     1       9.287  -3.345  -8.544  1.00  0.00     0.197 A 
ATOM     25  C   UNL     1       8.880  -5.560  -7.654  1.00  0.00     0.138 A 
ATOM     26  C   UNL     1       9.239  -4.729  -8.727  1.00  0.00     0.100 A 
ATOM     27  O   UNL     1       9.535  -2.624  -9.544  1.00  0.00    -0.289 OA
BRANCH  18  28
ATOM     28  O   UNL     1       8.747   0.405  -5.389  1.00  0.00    -0.502 OA
ATOM     29  H   UNL     1       9.618   0.923  -5.365  1.00  0.00     0.293 HD
ENDBRANCH  18  28
BRANCH  20  30
ATOM     30  O   UNL     1       9.519  -0.423  -7.843  1.00  0.00    -0.504 OA
ATOM     31  H   UNL     1       8.951   0.322  -8.219  1.00  0.00     0.293 HD
ENDBRANCH  20  30
BRANCH  25  32
ATOM     32  C   UNL     1       8.818  -7.046  -7.768  1.00  0.00     0.017 A 
ATOM     33  C   UNL     1       7.871  -7.706  -8.583  1.00  0.00     0.012 A 
ATOM     34  C   UNL     1       9.755  -7.830  -7.064  1.00  0.00     0.012 A 
ATOM     35  C   UNL     1       7.859  -9.104  -8.670  1.00  0.00     0.001 A 
ATOM     36  C   UNL     1       9.751  -9.223  -7.174  1.00  0.00     0.001 A 
ATOM     37  C   UNL     1       8.805  -9.860  -7.978  1.00  0.00     0.000 A 
ENDBRANCH  25  32
ENDBRANCH   1  17
TORSDOF 9
ENDMDL
MODEL 8
REMARK VINA RESULT:    -7.096      2.059      3.032
REMARK INTER + INTRA:         -10.912
REMARK INTER:                  -9.732
REMARK INTRA:                  -1.180
REMARK UNBOUND:                -1.120
REMARK SMILES O=C([O-])[C@@H]1O[C@@H](Oc2cc3oc(-c4ccccc4)cc(=O)c3c(O)c2O)[C@@H](O)[C@@H](O)[C@@H]1O
REMARK SMILES IDX 7 1 6 2 4 3 31 4 5 5 29 6 27 7 2 8 1 9 3 10 32 11 30 13
REMARK SMILES IDX 28 15 8 17 25 18 9 19 23 20 10 21 22 22 11 23 20 24 12 25
REMARK SMILES IDX 19 26 21 27 26 28 24 30 13 32 14 33 18 34 15 35 17 36 16 37
REMARK H PARENT 32 12 30 14 28 16 26 29 24 31
REMARK Flexibility Score: inf
ROOT
ATOM      1  O   UNL     1       8.049  -0.991  -3.506  1.00  0.00    -0.458 OA
ENDROOT
BRANCH   1   2
ATOM      2  C   UNL     1       8.874  -1.291  -2.377  1.00  0.00     0.339 C 
ATOM      3  C   UNL     1       7.554  -1.446  -0.362  1.00  0.00     0.199 C 
ATOM      4  C   UNL     1       7.109  -0.004  -0.705  1.00  0.00     0.180 C 
ATOM      5  O   UNL     1       8.158  -2.122  -1.464  1.00  0.00    -0.328 OA
ATOM      6  C   UNL     1       8.314   0.865  -1.122  1.00  0.00     0.181 C 
ATOM      7  C   UNL     1       9.432   0.009  -1.761  1.00  0.00     0.214 C 
BRANCH   3   8
ATOM      8  C   UNL     1       8.446  -1.530   0.856  1.00  0.00     0.073 C 
ATOM      9  O   UNL     1       9.361  -2.392   0.914  1.00  0.00    -0.547 OA
ATOM     10  O   UNL     1       8.216  -0.711   1.955  1.00  0.00    -0.547 OA
ENDBRANCH   3   8
BRANCH   4  11
ATOM     11  O   UNL     1       6.439   0.578   0.389  1.00  0.00    -0.387 OA
ATOM     12  H   UNL     1       7.126   0.767   1.081  1.00  0.00     0.211 HD
ENDBRANCH   4  11
BRANCH   6  13
ATOM     13  O   UNL     1       7.880   1.853  -2.023  1.00  0.00    -0.387 OA
ATOM     14  H   UNL     1       8.425   2.663  -1.851  1.00  0.00     0.211 HD
ENDBRANCH   6  13
BRANCH   7  15
ATOM     15  O   UNL     1      10.125   0.740  -2.745  1.00  0.00    -0.384 OA
ATOM     16  H   UNL     1      10.168   0.159  -3.548  1.00  0.00     0.211 HD
ENDBRANCH   7  15
ENDBRANCH   1   2
BRANCH   1  17
ATOM     17  C   UNL     1       7.768  -1.890  -4.550  1.00  0.00     0.172 A 
ATOM     18  C   UNL     1       8.682  -2.013  -5.610  1.00  0.00     0.201 A 
ATOM     19  C   UNL     1       6.618  -2.693  -4.544  1.00  0.00     0.098 A 
ATOM     20  C   UNL     1       8.476  -2.952  -6.638  1.00  0.00     0.176 A 
ATOM     21  C   UNL     1       6.395  -3.631  -5.552  1.00  0.00     0.146 A 
ATOM     22  C   UNL     1       7.306  -3.770  -6.630  1.00  0.00     0.111 A 
ATOM     23  O   UNL     1       5.307  -4.388  -5.476  1.00  0.00    -0.456 OA
ATOM     24  C   UNL     1       6.948  -4.686  -7.649  1.00  0.00     0.197 A 
ATOM     25  C   UNL     1       4.980  -5.305  -6.381  1.00  0.00     0.138 A 
ATOM     26  C   UNL     1       5.797  -5.465  -7.512  1.00  0.00     0.100 A 
ATOM     27  O   UNL     1       7.615  -4.796  -8.710  1.00  0.00    -0.289 OA
BRANCH  18  28
ATOM     28  O   UNL     1       9.829  -1.220  -5.649  1.00  0.00    -0.502 OA
ATOM     29  H   UNL     1       9.891  -0.325  -5.176  1.00  0.00     0.293 HD
ENDBRANCH  18  28
BRANCH  20  30
ATOM     30  O   UNL     1       9.475  -3.043  -7.613  1.00  0.00    -0.504 OA
ATOM     31  H   UNL     1      10.461  -3.148  -7.422  1.00  0.00     0.293 HD
ENDBRANCH  20  30
BRANCH  25  32
ATOM     32  C   UNL     1       3.744  -6.108  -6.158  1.00  0.00     0.017 A 
ATOM     33  C   UNL     1       3.207  -6.967  -7.143  1.00  0.00     0.012 A 
ATOM     34  C   UNL     1       3.094  -6.037  -4.908  1.00  0.00     0.012 A 
ATOM     35  C   UNL     1       2.051  -7.713  -6.883  1.00  0.00     0.001 A 
ATOM     36  C   UNL     1       1.953  -6.802  -4.650  1.00  0.00     0.001 A 
ATOM     37  C   UNL     1       1.432  -7.641  -5.635  1.00  0.00     0.000 A 
ENDBRANCH  25  32
ENDBRANCH   1  17
TORSDOF 9
ENDMDL
MODEL 9
REMARK VINA RESULT:    -6.968     10.309     12.393
REMARK INTER + INTRA:         -10.735
REMARK INTER:                  -9.711
REMARK INTRA:                  -1.025
REMARK UNBOUND:                -1.120
REMARK SMILES O=C([O-])[C@@H]1O[C@@H](Oc2cc3oc(-c4ccccc4)cc(=O)c3c(O)c2O)[C@@H](O)[C@@H](O)[C@@H]1O
REMARK SMILES IDX 7 1 6 2 4 3 31 4 5 5 29 6 27 7 2 8 1 9 3 10 32 11 30 13
REMARK SMILES IDX 28 15 8 17 25 18 9 19 23 20 10 21 22 22 11 23 20 24 12 25
REMARK SMILES IDX 19 26 21 27 26 28 24 30 13 32 14 33 18 34 15 35 17 36 16 37
REMARK H PARENT 32 12 30 14 28 16 26 29 24 31
REMARK Flexibility Score: inf
ROOT
ATOM      1  O   UNL     1      -4.647  -4.322   2.817  1.00  0.00    -0.458 OA
ENDROOT
BRANCH   1   2
ATOM      2  C   UNL     1      -3.743  -3.670   3.713  1.00  0.00     0.339 C 
ATOM      3  C   UNL     1      -2.752  -5.253   5.242  1.00  0.00     0.199 C 
ATOM      4  C   UNL     1      -4.212  -5.585   5.632  1.00  0.00     0.180 C 
ATOM      5  O   UNL     1      -2.649  -4.537   4.011  1.00  0.00    -0.328 OA
ATOM      6  C   UNL     1      -5.041  -4.298   5.824  1.00  0.00     0.181 C 
ATOM      7  C   UNL     1      -4.502  -3.143   4.949  1.00  0.00     0.214 C 
BRANCH   3   8
ATOM      8  C   UNL     1      -1.984  -4.537   6.329  1.00  0.00     0.073 C 
ATOM      9  O   UNL     1      -2.033  -4.948   7.517  1.00  0.00    -0.547 OA
ATOM     10  O   UNL     1      -1.279  -3.373   6.044  1.00  0.00    -0.547 OA
ENDBRANCH   3   8
BRANCH   4  11
ATOM     11  O   UNL     1      -4.244  -6.370   6.801  1.00  0.00    -0.387 OA
ATOM     12  H   UNL     1      -5.014  -6.050   7.341  1.00  0.00     0.211 HD
ENDBRANCH   4  11
BRANCH   6  13
ATOM     13  O   UNL     1      -6.385  -4.564   5.507  1.00  0.00    -0.387 OA
ATOM     14  H   UNL     1      -6.411  -4.829   4.551  1.00  0.00     0.211 HD
ENDBRANCH   6  13
BRANCH   7  15
ATOM     15  O   UNL     1      -5.546  -2.293   4.538  1.00  0.00    -0.384 OA
ATOM     16  H   UNL     1      -5.615  -2.389   3.552  1.00  0.00     0.211 HD
ENDBRANCH   7  15
ENDBRANCH   1   2
BRANCH   1  17
ATOM     17  C   UNL     1      -4.513  -4.334   1.417  1.00  0.00     0.172 A 
ATOM     18  C   UNL     1      -5.559  -3.830   0.627  1.00  0.00     0.201 A 
ATOM     19  C   UNL     1      -3.349  -4.803   0.791  1.00  0.00     0.098 A 
ATOM     20  C   UNL     1      -5.438  -3.757  -0.774  1.00  0.00     0.176 A 
ATOM     21  C   UNL     1      -3.207  -4.738  -0.596  1.00  0.00     0.146 A 
ATOM     22  C   UNL     1      -4.252  -4.232  -1.410  1.00  0.00     0.111 A 
ATOM     23  O   UNL     1      -2.068  -5.163  -1.131  1.00  0.00    -0.456 OA
ATOM     24  C   UNL     1      -4.048  -4.289  -2.811  1.00  0.00     0.197 A 
ATOM     25  C   UNL     1      -1.821  -5.164  -2.437  1.00  0.00     0.138 A 
ATOM     26  C   UNL     1      -2.826  -4.736  -3.319  1.00  0.00     0.100 A 
ATOM     27  O   UNL     1      -4.955  -3.988  -3.628  1.00  0.00    -0.289 OA
BRANCH  18  28
ATOM     28  O   UNL     1      -6.733  -3.368   1.221  1.00  0.00    -0.502 OA
ATOM     29  H   UNL     1      -7.653  -3.575   0.847  1.00  0.00     0.293 HD
ENDBRANCH  18  28
BRANCH  20  30
ATOM     30  O   UNL     1      -6.507  -3.179  -1.466  1.00  0.00    -0.504 OA
ATOM     31  H   UNL     1      -6.701  -3.313  -2.448  1.00  0.00     0.293 HD
ENDBRANCH  20  30
BRANCH  25  32
ATOM     32  C   UNL     1      -0.488  -5.643  -2.902  1.00  0.00     0.017 A 
ATOM     33  C   UNL     1       0.378  -4.841  -3.679  1.00  0.00     0.012 A 
ATOM     34  C   UNL     1      -0.052  -6.932  -2.532  1.00  0.00     0.012 A 
ATOM     35  C   UNL     1       1.629  -5.328  -4.081  1.00  0.00     0.001 A 
ATOM     36  C   UNL     1       1.206  -7.402  -2.919  1.00  0.00     0.001 A 
ATOM     37  C   UNL     1       2.047  -6.600  -3.692  1.00  0.00     0.000 A 
ENDBRANCH  25  32
ENDBRANCH   1  17
TORSDOF 9
ENDMDL
