MODEL 1
REMARK VINA RESULT:    -4.351      0.000      0.000
REMARK INTER + INTRA:          -6.045
REMARK INTER:                  -5.877
REMARK INTRA:                  -0.169
REMARK UNBOUND:                -0.169
REMARK SMILES [NH3+]CCCC[C@H]([NH3+])C(=O)[O-]
REMARK SMILES IDX 4 1 3 2 2 3 1 4 5 8 6 9 7 10 8 14 9 15 10 16
REMARK H PARENT 1 5 1 6 1 7 7 11 7 12 7 13
REMARK Flexibility Score: inf
ROOT
ATOM      1  C   UNL     1      -0.610  53.308   4.377  1.00  0.00     0.012 C 
ENDROOT
BRANCH   1   2
ATOM      2  C   UNL     1      -1.020  51.946   4.969  1.00  0.00     0.061 C 
BRANCH   2   3
ATOM      3  C   UNL     1      -2.125  51.230   4.165  1.00  0.00     0.258 C 
BRANCH   3   4
ATOM      4  N   UNL     1      -1.730  49.877   3.773  1.00  0.00    -0.358 N 
ATOM      5  H   UNL     1      -2.333  49.168   4.249  1.00  0.00     0.344 HD
ATOM      6  H   UNL     1      -1.851  49.775   2.738  1.00  0.00     0.344 HD
ATOM      7  H   UNL     1      -0.726  49.703   4.004  1.00  0.00     0.344 HD
ENDBRANCH   3   4
ENDBRANCH   2   3
ENDBRANCH   1   2
BRANCH   1   8
ATOM      8  C   UNL     1      -1.497  54.477   4.866  1.00  0.00     0.072 C 
BRANCH   8   9
ATOM      9  C   UNL     1      -0.694  55.623   5.525  1.00  0.00     0.227 C 
BRANCH   9  10
ATOM     10  N   UNL     1       0.608  55.823   4.876  1.00  0.00    -0.350 N 
ATOM     11  H   UNL     1       0.487  56.033   3.858  1.00  0.00     0.345 HD
ATOM     12  H   UNL     1       1.120  56.611   5.335  1.00  0.00     0.345 HD
ATOM     13  H   UNL     1       1.194  54.963   4.980  1.00  0.00     0.345 HD
ENDBRANCH   9  10
BRANCH   9  14
ATOM     14  C   UNL     1      -0.504  55.331   6.991  1.00  0.00     0.099 C 
ATOM     15  O   UNL     1       0.471  55.824   7.619  1.00  0.00    -0.544 OA
ATOM     16  O   UNL     1      -1.393  54.496   7.654  1.00  0.00    -0.544 OA
ENDBRANCH   9  14
ENDBRANCH   8   9
ENDBRANCH   1   8
TORSDOF 7
ENDMDL
MODEL 2
REMARK VINA RESULT:    -4.301      3.063      5.294
REMARK INTER + INTRA:          -5.979
REMARK INTER:                  -5.846
REMARK INTRA:                  -0.133
REMARK UNBOUND:                -0.169
REMARK SMILES [NH3+]CCCC[C@H]([NH3+])C(=O)[O-]
REMARK SMILES IDX 4 1 3 2 2 3 1 4 5 8 6 9 7 10 8 14 9 15 10 16
REMARK H PARENT 1 5 1 6 1 7 7 11 7 12 7 13
REMARK Flexibility Score: inf
ROOT
ATOM      1  C   UNL     1       1.848  55.397   6.039  1.00  0.00     0.012 C 
ENDROOT
BRANCH   1   2
ATOM      2  C   UNL     1       2.361  55.487   7.489  1.00  0.00     0.061 C 
BRANCH   2   3
ATOM      3  C   UNL     1       2.819  56.902   7.896  1.00  0.00     0.258 C 
BRANCH   3   4
ATOM      4  N   UNL     1       1.710  57.857   7.906  1.00  0.00    -0.358 N 
ATOM      5  H   UNL     1       1.312  57.945   8.868  1.00  0.00     0.344 HD
ATOM      6  H   UNL     1       2.067  58.794   7.606  1.00  0.00     0.344 HD
ATOM      7  H   UNL     1       0.963  57.563   7.237  1.00  0.00     0.344 HD
ENDBRANCH   3   4
ENDBRANCH   2   3
ENDBRANCH   1   2
BRANCH   1   8
ATOM      8  C   UNL     1       0.348  55.034   5.942  1.00  0.00     0.072 C 
BRANCH   8   9
ATOM      9  C   UNL     1      -0.147  54.850   4.489  1.00  0.00     0.227 C 
BRANCH   9  10
ATOM     10  N   UNL     1      -1.528  55.317   4.318  1.00  0.00    -0.350 N 
ATOM     11  H   UNL     1      -2.209  54.589   4.635  1.00  0.00     0.345 HD
ATOM     12  H   UNL     1      -1.679  56.196   4.863  1.00  0.00     0.345 HD
ATOM     13  H   UNL     1      -1.708  55.536   3.310  1.00  0.00     0.345 HD
ENDBRANCH   9  10
BRANCH   9  14
ATOM     14  C   UNL     1      -0.037  53.400   4.095  1.00  0.00     0.099 C 
ATOM     15  O   UNL     1      -0.918  52.573   4.451  1.00  0.00    -0.544 OA
ATOM     16  O   UNL     1       1.054  52.962   3.354  1.00  0.00    -0.544 OA
ENDBRANCH   9  14
ENDBRANCH   8   9
ENDBRANCH   1   8
TORSDOF 7
ENDMDL
MODEL 3
REMARK VINA RESULT:    -4.211      1.256      1.363
REMARK INTER + INTRA:          -5.857
REMARK INTER:                  -5.673
REMARK INTRA:                  -0.184
REMARK UNBOUND:                -0.169
REMARK SMILES [NH3+]CCCC[C@H]([NH3+])C(=O)[O-]
REMARK SMILES IDX 4 1 3 2 2 3 1 4 5 8 6 9 7 10 8 14 9 15 10 16
REMARK H PARENT 1 5 1 6 1 7 7 11 7 12 7 13
REMARK Flexibility Score: inf
ROOT
ATOM      1  C   UNL     1      -0.261  54.329   4.212  1.00  0.00     0.012 C 
ENDROOT
BRANCH   1   2
ATOM      2  C   UNL     1      -0.197  52.815   3.935  1.00  0.00     0.061 C 
BRANCH   2   3
ATOM      3  C   UNL     1      -1.359  52.022   4.568  1.00  0.00     0.258 C 
BRANCH   3   4
ATOM      4  N   UNL     1      -1.371  50.624   4.133  1.00  0.00    -0.358 N 
ATOM      5  H   UNL     1      -0.395  50.272   4.010  1.00  0.00     0.344 HD
ATOM      6  H   UNL     1      -1.845  50.046   4.865  1.00  0.00     0.344 HD
ATOM      7  H   UNL     1      -1.902  50.520   3.240  1.00  0.00     0.344 HD
ENDBRANCH   3   4
ENDBRANCH   2   3
ENDBRANCH   1   2
BRANCH   1   8
ATOM      8  C   UNL     1      -1.584  54.774   4.876  1.00  0.00     0.072 C 
BRANCH   8   9
ATOM      9  C   UNL     1      -1.383  55.787   6.028  1.00  0.00     0.227 C 
BRANCH   9  10
ATOM     10  N   UNL     1       0.007  56.254   6.109  1.00  0.00    -0.350 N 
ATOM     11  H   UNL     1       0.311  56.341   7.107  1.00  0.00     0.345 HD
ATOM     12  H   UNL     1       0.638  55.587   5.609  1.00  0.00     0.345 HD
ATOM     13  H   UNL     1       0.098  57.186   5.642  1.00  0.00     0.345 HD
ENDBRANCH   9  10
BRANCH   9  14
ATOM     14  C   UNL     1      -1.798  55.160   7.333  1.00  0.00     0.099 C 
ATOM     15  O   UNL     1      -2.125  55.882   8.312  1.00  0.00    -0.544 OA
ATOM     16  O   UNL     1      -1.801  53.778   7.470  1.00  0.00    -0.544 OA
ENDBRANCH   9  14
ENDBRANCH   8   9
ENDBRANCH   1   8
TORSDOF 7
ENDMDL
MODEL 4
REMARK VINA RESULT:    -4.139      2.533      4.155
REMARK INTER + INTRA:          -5.759
REMARK INTER:                  -5.198
REMARK INTRA:                  -0.562
REMARK UNBOUND:                -0.169
REMARK SMILES [NH3+]CCCC[C@H]([NH3+])C(=O)[O-]
REMARK SMILES IDX 4 1 3 2 2 3 1 4 5 8 6 9 7 10 8 14 9 15 10 16
REMARK H PARENT 1 5 1 6 1 7 7 11 7 12 7 13
REMARK Flexibility Score: inf
ROOT
ATOM      1  C   UNL     1       1.149  55.566   5.204  1.00  0.00     0.012 C 
ENDROOT
BRANCH   1   2
ATOM      2  C   UNL     1       1.916  55.394   6.529  1.00  0.00     0.061 C 
BRANCH   2   3
ATOM      3  C   UNL     1       0.998  55.269   7.762  1.00  0.00     0.258 C 
BRANCH   3   4
ATOM      4  N   UNL     1      -0.294  55.927   7.554  1.00  0.00    -0.358 N 
ATOM      5  H   UNL     1      -0.543  56.512   8.384  1.00  0.00     0.344 HD
ATOM      6  H   UNL     1      -0.225  56.550   6.716  1.00  0.00     0.344 HD
ATOM      7  H   UNL     1      -1.043  55.222   7.378  1.00  0.00     0.344 HD
ENDBRANCH   3   4
ENDBRANCH   2   3
ENDBRANCH   1   2
BRANCH   1   8
ATOM      8  C   UNL     1       0.800  54.224   4.520  1.00  0.00     0.072 C 
BRANCH   8   9
ATOM      9  C   UNL     1      -0.716  54.028   4.288  1.00  0.00     0.227 C 
BRANCH   9  10
ATOM     10  N   UNL     1      -1.445  55.303   4.328  1.00  0.00    -0.350 N 
ATOM     11  H   UNL     1      -1.954  55.412   5.235  1.00  0.00     0.345 HD
ATOM     12  H   UNL     1      -0.779  56.100   4.204  1.00  0.00     0.345 HD
ATOM     13  H   UNL     1      -2.134  55.344   3.542  1.00  0.00     0.345 HD
ENDBRANCH   9  10
BRANCH   9  14
ATOM     14  C   UNL     1      -1.270  53.082   5.321  1.00  0.00     0.099 C 
ATOM     15  O   UNL     1      -1.775  53.524   6.387  1.00  0.00    -0.544 OA
ATOM     16  O   UNL     1      -1.205  51.710   5.113  1.00  0.00    -0.544 OA
ENDBRANCH   9  14
ENDBRANCH   8   9
ENDBRANCH   1   8
TORSDOF 7
ENDMDL
MODEL 5
REMARK VINA RESULT:    -4.054      2.748      3.515
REMARK INTER + INTRA:          -5.644
REMARK INTER:                  -5.101
REMARK INTRA:                  -0.544
REMARK UNBOUND:                -0.169
REMARK SMILES [NH3+]CCCC[C@H]([NH3+])C(=O)[O-]
REMARK SMILES IDX 4 1 3 2 2 3 1 4 5 8 6 9 7 10 8 14 9 15 10 16
REMARK H PARENT 1 5 1 6 1 7 7 11 7 12 7 13
REMARK Flexibility Score: inf
ROOT
ATOM      1  C   UNL     1      -0.857  55.246   7.118  1.00  0.00     0.012 C 
ENDROOT
BRANCH   1   2
ATOM      2  C   UNL     1      -0.989  54.001   8.017  1.00  0.00     0.061 C 
BRANCH   2   3
ATOM      3  C   UNL     1      -2.015  52.972   7.500  1.00  0.00     0.258 C 
BRANCH   3   4
ATOM      4  N   UNL     1      -1.374  51.736   7.047  1.00  0.00    -0.358 N 
ATOM      5  H   UNL     1      -0.772  51.339   7.804  1.00  0.00     0.344 HD
ATOM      6  H   UNL     1      -2.115  51.037   6.810  1.00  0.00     0.344 HD
ATOM      7  H   UNL     1      -0.801  51.910   6.191  1.00  0.00     0.344 HD
ENDBRANCH   3   4
ENDBRANCH   2   3
ENDBRANCH   1   2
BRANCH   1   8
ATOM      8  C   UNL     1       0.287  55.135   6.084  1.00  0.00     0.072 C 
BRANCH   8   9
ATOM      9  C   UNL     1      -0.213  54.995   4.627  1.00  0.00     0.227 C 
BRANCH   9  10
ATOM     10  N   UNL     1      -1.614  55.413   4.488  1.00  0.00    -0.350 N 
ATOM     11  H   UNL     1      -1.677  56.435   4.273  1.00  0.00     0.345 HD
ATOM     12  H   UNL     1      -2.076  54.868   3.725  1.00  0.00     0.345 HD
ATOM     13  H   UNL     1      -2.135  55.218   5.374  1.00  0.00     0.345 HD
ENDBRANCH   9  10
BRANCH   9  14
ATOM     14  C   UNL     1      -0.049  53.569   4.169  1.00  0.00     0.099 C 
ATOM     15  O   UNL     1      -1.024  52.773   4.198  1.00  0.00    -0.544 OA
ATOM     16  O   UNL     1       1.190  53.119   3.731  1.00  0.00    -0.544 OA
ENDBRANCH   9  14
ENDBRANCH   8   9
ENDBRANCH   1   8
TORSDOF 7
ENDMDL
MODEL 6
REMARK VINA RESULT:    -4.048      3.130      4.895
REMARK INTER + INTRA:          -5.636
REMARK INTER:                  -5.144
REMARK INTRA:                  -0.492
REMARK UNBOUND:                -0.169
REMARK SMILES [NH3+]CCCC[C@H]([NH3+])C(=O)[O-]
REMARK SMILES IDX 4 1 3 2 2 3 1 4 5 8 6 9 7 10 8 14 9 15 10 16
REMARK H PARENT 1 5 1 6 1 7 7 11 7 12 7 13
REMARK Flexibility Score: inf
ROOT
ATOM      1  C   UNL     1      -0.890  55.466   8.053  1.00  0.00     0.012 C 
ENDROOT
BRANCH   1   2
ATOM      2  C   UNL     1       0.523  55.340   8.656  1.00  0.00     0.061 C 
BRANCH   2   3
ATOM      3  C   UNL     1       1.189  56.699   8.956  1.00  0.00     0.258 C 
BRANCH   3   4
ATOM      4  N   UNL     1       1.590  57.396   7.733  1.00  0.00    -0.358 N 
ATOM      5  H   UNL     1       2.240  58.184   7.959  1.00  0.00     0.344 HD
ATOM      6  H   UNL     1       2.088  56.722   7.107  1.00  0.00     0.344 HD
ATOM      7  H   UNL     1       0.754  57.759   7.224  1.00  0.00     0.344 HD
ENDBRANCH   3   4
ENDBRANCH   2   3
ENDBRANCH   1   2
BRANCH   1   8
ATOM      8  C   UNL     1      -1.061  54.684   6.730  1.00  0.00     0.072 C 
BRANCH   8   9
ATOM      9  C   UNL     1      -0.629  55.487   5.481  1.00  0.00     0.227 C 
BRANCH   9  10
ATOM     10  N   UNL     1      -1.642  55.433   4.419  1.00  0.00    -0.350 N 
ATOM     11  H   UNL     1      -1.920  54.445   4.221  1.00  0.00     0.345 HD
ATOM     12  H   UNL     1      -2.485  55.983   4.700  1.00  0.00     0.345 HD
ATOM     13  H   UNL     1      -1.263  55.863   3.543  1.00  0.00     0.345 HD
ENDBRANCH   9  10
BRANCH   9  14
ATOM     14  C   UNL     1       0.688  54.963   4.970  1.00  0.00     0.099 C 
ATOM     15  O   UNL     1       0.718  54.040   4.113  1.00  0.00    -0.544 OA
ATOM     16  O   UNL     1       1.879  55.480   5.462  1.00  0.00    -0.544 OA
ENDBRANCH   9  14
ENDBRANCH   8   9
ENDBRANCH   1   8
TORSDOF 7
ENDMDL
MODEL 7
REMARK VINA RESULT:    -3.901      2.979      3.841
REMARK INTER + INTRA:          -5.438
REMARK INTER:                  -5.270
REMARK INTRA:                  -0.168
REMARK UNBOUND:                -0.169
REMARK SMILES [NH3+]CCCC[C@H]([NH3+])C(=O)[O-]
REMARK SMILES IDX 4 1 3 2 2 3 1 4 5 8 6 9 7 10 8 14 9 15 10 16
REMARK H PARENT 1 5 1 6 1 7 7 11 7 12 7 13
REMARK Flexibility Score: inf
ROOT
ATOM      1  C   UNL     1       1.549  55.430   5.974  1.00  0.00     0.012 C 
ENDROOT
BRANCH   1   2
ATOM      2  C   UNL     1       0.797  54.812   4.779  1.00  0.00     0.061 C 
BRANCH   2   3
ATOM      3  C   UNL     1      -0.686  54.505   5.074  1.00  0.00     0.258 C 
BRANCH   3   4
ATOM      4  N   UNL     1      -1.587  55.390   4.334  1.00  0.00    -0.358 N 
ATOM      5  H   UNL     1      -1.686  55.066   3.345  1.00  0.00     0.344 HD
ATOM      6  H   UNL     1      -2.530  55.368   4.788  1.00  0.00     0.344 HD
ATOM      7  H   UNL     1      -1.237  56.373   4.354  1.00  0.00     0.344 HD
ENDBRANCH   3   4
ENDBRANCH   2   3
ENDBRANCH   1   2
BRANCH   1   8
ATOM      8  C   UNL     1       0.706  55.475   7.269  1.00  0.00     0.072 C 
BRANCH   8   9
ATOM      9  C   UNL     1       1.282  56.425   8.345  1.00  0.00     0.227 C 
BRANCH   9  10
ATOM     10  N   UNL     1       1.677  57.720   7.776  1.00  0.00    -0.350 N 
ATOM     11  H   UNL     1       2.699  57.730   7.550  1.00  0.00     0.345 HD
ATOM     12  H   UNL     1       1.126  57.912   6.909  1.00  0.00     0.345 HD
ATOM     13  H   UNL     1       1.471  58.486   8.458  1.00  0.00     0.345 HD
ENDBRANCH   9  10
BRANCH   9  14
ATOM     14  C   UNL     1       2.461  55.772   9.019  1.00  0.00     0.099 C 
ATOM     15  O   UNL     1       3.590  56.331   9.013  1.00  0.00    -0.544 OA
ATOM     16  O   UNL     1       2.313  54.535   9.632  1.00  0.00    -0.544 OA
ENDBRANCH   9  14
ENDBRANCH   8   9
ENDBRANCH   1   8
TORSDOF 7
ENDMDL
MODEL 8
REMARK VINA RESULT:    -3.802      2.497      2.857
REMARK INTER + INTRA:          -5.304
REMARK INTER:                  -5.049
REMARK INTRA:                  -0.255
REMARK UNBOUND:                -0.169
REMARK SMILES [NH3+]CCCC[C@H]([NH3+])C(=O)[O-]
REMARK SMILES IDX 4 1 3 2 2 3 1 4 5 8 6 9 7 10 8 14 9 15 10 16
REMARK H PARENT 1 5 1 6 1 7 7 11 7 12 7 13
REMARK Flexibility Score: inf
ROOT
ATOM      1  C   UNL     1      -0.219  55.395   4.880  1.00  0.00     0.012 C 
ENDROOT
BRANCH   1   2
ATOM      2  C   UNL     1       0.879  54.376   4.522  1.00  0.00     0.061 C 
BRANCH   2   3
ATOM      3  C   UNL     1       0.383  53.221   3.628  1.00  0.00     0.258 C 
BRANCH   3   4
ATOM      4  N   UNL     1       1.491  52.494   3.004  1.00  0.00    -0.358 N 
ATOM      5  H   UNL     1       1.145  51.923   2.200  1.00  0.00     0.344 HD
ATOM      6  H   UNL     1       2.190  53.185   2.647  1.00  0.00     0.344 HD
ATOM      7  H   UNL     1       1.966  51.878   3.701  1.00  0.00     0.344 HD
ENDBRANCH   3   4
ENDBRANCH   2   3
ENDBRANCH   1   2
BRANCH   1   8
ATOM      8  C   UNL     1      -1.620  54.758   5.026  1.00  0.00     0.072 C 
BRANCH   8   9
ATOM      9  C   UNL     1      -2.125  54.713   6.487  1.00  0.00     0.227 C 
BRANCH   9  10
ATOM     10  N   UNL     1      -1.666  55.874   7.261  1.00  0.00    -0.350 N 
ATOM     11  H   UNL     1      -1.728  56.749   6.690  1.00  0.00     0.345 HD
ATOM     12  H   UNL     1      -2.245  55.980   8.125  1.00  0.00     0.345 HD
ATOM     13  H   UNL     1      -0.673  55.732   7.561  1.00  0.00     0.345 HD
ENDBRANCH   9  10
BRANCH   9  14
ATOM     14  C   UNL     1      -1.666  53.437   7.144  1.00  0.00     0.099 C 
ATOM     15  O   UNL     1      -1.523  52.386   6.465  1.00  0.00    -0.544 OA
ATOM     16  O   UNL     1      -1.419  53.409   8.510  1.00  0.00    -0.544 OA
ENDBRANCH   9  14
ENDBRANCH   8   9
ENDBRANCH   1   8
TORSDOF 7
ENDMDL
MODEL 9
REMARK VINA RESULT:    -3.291      2.394      4.498
REMARK INTER + INTRA:          -4.614
REMARK INTER:                  -4.309
REMARK INTRA:                  -0.305
REMARK UNBOUND:                -0.169
REMARK SMILES [NH3+]CCCC[C@H]([NH3+])C(=O)[O-]
REMARK SMILES IDX 4 1 3 2 2 3 1 4 5 8 6 9 7 10 8 14 9 15 10 16
REMARK H PARENT 1 5 1 6 1 7 7 11 7 12 7 13
REMARK Flexibility Score: inf
ROOT
ATOM      1  C   UNL     1      -2.125  54.627   5.356  1.00  0.00     0.012 C 
ENDROOT
BRANCH   1   2
ATOM      2  C   UNL     1      -2.125  55.492   6.631  1.00  0.00     0.061 C 
BRANCH   2   3
ATOM      3  C   UNL     1      -0.785  55.467   7.394  1.00  0.00     0.258 C 
BRANCH   3   4
ATOM      4  N   UNL     1       0.245  56.261   6.722  1.00  0.00    -0.358 N 
ATOM      5  H   UNL     1      -0.151  56.732   5.877  1.00  0.00     0.344 HD
ATOM      6  H   UNL     1       0.591  56.995   7.382  1.00  0.00     0.344 HD
ATOM      7  H   UNL     1       1.054  55.660   6.448  1.00  0.00     0.344 HD
ENDBRANCH   3   4
ENDBRANCH   2   3
ENDBRANCH   1   2
BRANCH   1   8
ATOM      8  C   UNL     1      -1.336  53.306   5.513  1.00  0.00     0.072 C 
BRANCH   8   9
ATOM      9  C   UNL     1      -0.824  52.733   4.171  1.00  0.00     0.227 C 
BRANCH   9  10
ATOM     10  N   UNL     1      -0.825  51.264   4.168  1.00  0.00    -0.350 N 
ATOM     11  H   UNL     1      -1.374  50.895   3.357  1.00  0.00     0.345 HD
ATOM     12  H   UNL     1       0.156  50.905   4.117  1.00  0.00     0.345 HD
ATOM     13  H   UNL     1      -1.247  50.906   5.057  1.00  0.00     0.345 HD
ENDBRANCH   9  10
BRANCH   9  14
ATOM     14  C   UNL     1       0.563  53.251   3.894  1.00  0.00     0.099 C 
ATOM     15  O   UNL     1       1.313  52.661   3.073  1.00  0.00    -0.544 OA
ATOM     16  O   UNL     1       1.031  54.375   4.564  1.00  0.00    -0.544 OA
ENDBRANCH   9  14
ENDBRANCH   8   9
ENDBRANCH   1   8
TORSDOF 7
ENDMDL
