MODEL 1
REMARK VINA RESULT:    -4.091      0.000      0.000
REMARK INTER + INTRA:          -4.930
REMARK INTER:                  -4.928
REMARK INTRA:                  -0.002
REMARK UNBOUND:                -0.002
REMARK SMILES OCC(O)CO
REMARK SMILES IDX 3 1 5 2 6 3 2 5 1 6 4 8
REMARK H PARENT 6 4 1 7 4 9
REMARK Flexibility Score: inf
ROOT
ATOM      1  C   UNL     1      65.972  27.838  36.687  1.00  0.00     0.165 C 
ENDROOT
BRANCH   1   2
ATOM      2  C   UNL     1      65.271  26.843  35.747  1.00  0.00     0.190 C 
BRANCH   2   3
ATOM      3  O   UNL     1      64.888  25.691  36.450  1.00  0.00    -0.394 OA
ATOM      4  H   UNL     1      64.560  25.992  37.338  1.00  0.00     0.210 HD
ENDBRANCH   2   3
ENDBRANCH   1   2
BRANCH   1   5
ATOM      5  C   UNL     1      65.147  29.122  36.845  1.00  0.00     0.190 C 
BRANCH   5   6
ATOM      6  O   UNL     1      65.762  30.010  37.742  1.00  0.00    -0.394 OA
ATOM      7  H   UNL     1      65.034  30.428  38.272  1.00  0.00     0.210 HD
ENDBRANCH   5   6
ENDBRANCH   1   5
BRANCH   1   8
ATOM      8  O   UNL     1      67.232  28.176  36.167  1.00  0.00    -0.388 OA
ATOM      9  H   UNL     1      67.524  27.418  35.596  1.00  0.00     0.211 HD
ENDBRANCH   1   8
TORSDOF 5
ENDMDL
MODEL 2
REMARK VINA RESULT:    -4.060      1.098      2.167
REMARK INTER + INTRA:          -4.893
REMARK INTER:                  -4.689
REMARK INTRA:                  -0.204
REMARK UNBOUND:                -0.002
REMARK SMILES OCC(O)CO
REMARK SMILES IDX 3 1 5 2 6 3 2 5 1 6 4 8
REMARK H PARENT 6 4 1 7 4 9
REMARK Flexibility Score: inf
ROOT
ATOM      1  C   UNL     1      64.897  28.273  36.062  1.00  0.00     0.165 C 
ENDROOT
BRANCH   1   2
ATOM      2  C   UNL     1      66.096  27.478  36.603  1.00  0.00     0.190 C 
BRANCH   2   3
ATOM      3  O   UNL     1      67.300  28.034  36.146  1.00  0.00    -0.394 OA
ATOM      4  H   UNL     1      67.709  28.507  36.917  1.00  0.00     0.210 HD
ENDBRANCH   2   3
ENDBRANCH   1   2
BRANCH   1   5
ATOM      5  C   UNL     1      64.743  29.609  36.802  1.00  0.00     0.190 C 
BRANCH   5   6
ATOM      6  O   UNL     1      65.832  29.839  37.658  1.00  0.00    -0.394 OA
ATOM      7  H   UNL     1      65.455  29.972  38.567  1.00  0.00     0.210 HD
ENDBRANCH   5   6
ENDBRANCH   1   5
BRANCH   1   8
ATOM      8  O   UNL     1      63.718  27.530  36.230  1.00  0.00    -0.388 OA
ATOM      9  H   UNL     1      63.643  27.317  37.198  1.00  0.00     0.211 HD
ENDBRANCH   1   8
TORSDOF 5
ENDMDL
MODEL 3
REMARK VINA RESULT:    -3.981      1.583      2.409
REMARK INTER + INTRA:          -4.798
REMARK INTER:                  -4.592
REMARK INTRA:                  -0.205
REMARK UNBOUND:                -0.002
REMARK SMILES OCC(O)CO
REMARK SMILES IDX 3 1 5 2 6 3 2 5 1 6 4 8
REMARK H PARENT 6 4 1 7 4 9
REMARK Flexibility Score: inf
ROOT
ATOM      1  C   UNL     1      66.512  27.125  35.864  1.00  0.00     0.165 C 
ENDROOT
BRANCH   1   2
ATOM      2  C   UNL     1      65.192  26.569  36.424  1.00  0.00     0.190 C 
BRANCH   2   3
ATOM      3  O   UNL     1      65.342  25.221  36.784  1.00  0.00    -0.394 OA
ATOM      4  H   UNL     1      66.264  24.956  36.529  1.00  0.00     0.210 HD
ENDBRANCH   2   3
ENDBRANCH   1   2
BRANCH   1   5
ATOM      5  C   UNL     1      67.708  26.289  36.340  1.00  0.00     0.190 C 
BRANCH   5   6
ATOM      6  O   UNL     1      67.982  26.528  37.695  1.00  0.00    -0.394 OA
ATOM      7  H   UNL     1      68.777  27.122  37.724  1.00  0.00     0.210 HD
ENDBRANCH   5   6
ENDBRANCH   1   5
BRANCH   1   8
ATOM      8  O   UNL     1      66.690  28.450  36.293  1.00  0.00    -0.388 OA
ATOM      9  H   UNL     1      67.149  28.935  35.558  1.00  0.00     0.211 HD
ENDBRANCH   1   8
TORSDOF 5
ENDMDL
MODEL 4
REMARK VINA RESULT:    -3.942     14.589     15.570
REMARK INTER + INTRA:          -4.751
REMARK INTER:                  -4.533
REMARK INTRA:                  -0.218
REMARK UNBOUND:                -0.002
REMARK SMILES OCC(O)CO
REMARK SMILES IDX 3 1 5 2 6 3 2 5 1 6 4 8
REMARK H PARENT 6 4 1 7 4 9
REMARK Flexibility Score: inf
ROOT
ATOM      1  C   UNL     1      60.987  13.398  31.345  1.00  0.00     0.165 C 
ENDROOT
BRANCH   1   2
ATOM      2  C   UNL     1      61.399  13.429  29.864  1.00  0.00     0.190 C 
BRANCH   2   3
ATOM      3  O   UNL     1      61.373  14.743  29.375  1.00  0.00    -0.394 OA
ATOM      4  H   UNL     1      62.296  14.959  29.082  1.00  0.00     0.210 HD
ENDBRANCH   2   3
ENDBRANCH   1   2
BRANCH   1   5
ATOM      5  C   UNL     1      60.259  14.690  31.741  1.00  0.00     0.190 C 
BRANCH   5   6
ATOM      6  O   UNL     1      61.173  15.711  32.045  1.00  0.00    -0.394 OA
ATOM      7  H   UNL     1      61.183  15.798  33.034  1.00  0.00     0.210 HD
ENDBRANCH   5   6
ENDBRANCH   1   5
BRANCH   1   8
ATOM      8  O   UNL     1      62.127  13.260  32.153  1.00  0.00    -0.388 OA
ATOM      9  H   UNL     1      61.880  12.660  32.905  1.00  0.00     0.211 HD
ENDBRANCH   1   8
TORSDOF 5
ENDMDL
MODEL 5
REMARK VINA RESULT:    -3.904      1.345      2.540
REMARK INTER + INTRA:          -4.705
REMARK INTER:                  -4.701
REMARK INTRA:                  -0.005
REMARK UNBOUND:                -0.002
REMARK SMILES OCC(O)CO
REMARK SMILES IDX 3 1 5 2 6 3 2 5 1 6 4 8
REMARK H PARENT 6 4 1 7 4 9
REMARK Flexibility Score: inf
ROOT
ATOM      1  C   UNL     1      65.228  28.765  37.127  1.00  0.00     0.165 C 
ENDROOT
BRANCH   1   2
ATOM      2  C   UNL     1      66.000  28.203  35.921  1.00  0.00     0.190 C 
BRANCH   2   3
ATOM      3  O   UNL     1      67.359  28.053  36.237  1.00  0.00    -0.394 OA
ATOM      4  H   UNL     1      67.404  27.767  37.186  1.00  0.00     0.210 HD
ENDBRANCH   2   3
ENDBRANCH   1   2
BRANCH   1   5
ATOM      5  C   UNL     1      63.748  28.977  36.782  1.00  0.00     0.190 C 
BRANCH   5   6
ATOM      6  O   UNL     1      63.180  27.807  36.255  1.00  0.00    -0.394 OA
ATOM      7  H   UNL     1      63.809  27.472  35.563  1.00  0.00     0.210 HD
ENDBRANCH   5   6
ENDBRANCH   1   5
BRANCH   1   8
ATOM      8  O   UNL     1      65.780  29.997  37.513  1.00  0.00    -0.388 OA
ATOM      9  H   UNL     1      66.343  29.826  38.313  1.00  0.00     0.211 HD
ENDBRANCH   1   8
TORSDOF 5
ENDMDL
MODEL 6
REMARK VINA RESULT:    -3.780     14.707     15.529
REMARK INTER + INTRA:          -4.556
REMARK INTER:                  -4.361
REMARK INTRA:                  -0.195
REMARK UNBOUND:                -0.002
REMARK SMILES OCC(O)CO
REMARK SMILES IDX 3 1 5 2 6 3 2 5 1 6 4 8
REMARK H PARENT 6 4 1 7 4 9
REMARK Flexibility Score: inf
ROOT
ATOM      1  C   UNL     1      60.278  13.998  31.310  1.00  0.00     0.165 C 
ENDROOT
BRANCH   1   2
ATOM      2  C   UNL     1      59.785  14.395  32.712  1.00  0.00     0.190 C 
BRANCH   2   3
ATOM      3  O   UNL     1      60.264  15.667  33.058  1.00  0.00    -0.394 OA
ATOM      4  H   UNL     1      59.514  16.148  33.496  1.00  0.00     0.210 HD
ENDBRANCH   2   3
ENDBRANCH   1   2
BRANCH   1   5
ATOM      5  C   UNL     1      61.555  13.151  31.395  1.00  0.00     0.190 C 
BRANCH   5   6
ATOM      6  O   UNL     1      62.077  13.156  32.697  1.00  0.00    -0.394 OA
ATOM      7  H   UNL     1      61.307  13.034  33.313  1.00  0.00     0.210 HD
ENDBRANCH   5   6
ENDBRANCH   1   5
BRANCH   1   8
ATOM      8  O   UNL     1      60.553  15.151  30.558  1.00  0.00    -0.388 OA
ATOM      9  H   UNL     1      59.734  15.714  30.578  1.00  0.00     0.211 HD
ENDBRANCH   1   8
TORSDOF 5
ENDMDL
MODEL 7
REMARK VINA RESULT:    -3.772      1.597      3.065
REMARK INTER + INTRA:          -4.546
REMARK INTER:                  -4.324
REMARK INTRA:                  -0.223
REMARK UNBOUND:                -0.002
REMARK SMILES OCC(O)CO
REMARK SMILES IDX 3 1 5 2 6 3 2 5 1 6 4 8
REMARK H PARENT 6 4 1 7 4 9
REMARK Flexibility Score: inf
ROOT
ATOM      1  C   UNL     1      65.896  26.628  36.594  1.00  0.00     0.165 C 
ENDROOT
BRANCH   1   2
ATOM      2  C   UNL     1      65.216  27.805  35.875  1.00  0.00     0.190 C 
BRANCH   2   3
ATOM      3  O   UNL     1      66.176  28.626  35.264  1.00  0.00    -0.394 OA
ATOM      4  H   UNL     1      66.880  28.026  34.904  1.00  0.00     0.210 HD
ENDBRANCH   2   3
ENDBRANCH   1   2
BRANCH   1   5
ATOM      5  C   UNL     1      67.228  26.267  35.922  1.00  0.00     0.190 C 
BRANCH   5   6
ATOM      6  O   UNL     1      68.282  27.027  36.452  1.00  0.00    -0.394 OA
ATOM      7  H   UNL     1      69.093  26.792  35.929  1.00  0.00     0.210 HD
ENDBRANCH   5   6
ENDBRANCH   1   5
BRANCH   1   8
ATOM      8  O   UNL     1      65.057  25.502  36.561  1.00  0.00    -0.388 OA
ATOM      9  H   UNL     1      65.644  24.701  36.585  1.00  0.00     0.211 HD
ENDBRANCH   1   8
TORSDOF 5
ENDMDL
MODEL 8
REMARK VINA RESULT:    -3.746     14.894     15.649
REMARK INTER + INTRA:          -4.515
REMARK INTER:                  -4.509
REMARK INTRA:                  -0.007
REMARK UNBOUND:                -0.002
REMARK SMILES OCC(O)CO
REMARK SMILES IDX 3 1 5 2 6 3 2 5 1 6 4 8
REMARK H PARENT 6 4 1 7 4 9
REMARK Flexibility Score: inf
ROOT
ATOM      1  C   UNL     1      60.542  14.290  31.457  1.00  0.00     0.165 C 
ENDROOT
BRANCH   1   2
ATOM      2  C   UNL     1      60.677  13.283  32.611  1.00  0.00     0.190 C 
BRANCH   2   3
ATOM      3  O   UNL     1      62.028  12.999  32.859  1.00  0.00    -0.394 OA
ATOM      4  H   UNL     1      62.345  13.666  33.522  1.00  0.00     0.210 HD
ENDBRANCH   2   3
ENDBRANCH   1   2
BRANCH   1   5
ATOM      5  C   UNL     1      61.284  13.798  30.207  1.00  0.00     0.190 C 
BRANCH   5   6
ATOM      6  O   UNL     1      61.409  14.824  29.258  1.00  0.00    -0.394 OA
ATOM      7  H   UNL     1      61.354  15.681  29.757  1.00  0.00     0.210 HD
ENDBRANCH   5   6
ENDBRANCH   1   5
BRANCH   1   8
ATOM      8  O   UNL     1      61.082  15.528  31.841  1.00  0.00    -0.388 OA
ATOM      9  H   UNL     1      62.070  15.441  31.797  1.00  0.00     0.211 HD
ENDBRANCH   1   8
TORSDOF 5
ENDMDL
