MODEL 1
REMARK VINA RESULT:    -1.867      0.000      0.000
REMARK INTER + INTRA:          -3.952
REMARK INTER:                  -2.850
REMARK INTRA:                  -1.102
REMARK UNBOUND:                -1.102
REMARK SMILES CCCCCCCCCCC(=O)[O-]
REMARK SMILES IDX 7 1 8 2 9 3 10 4 11 5 12 6 13 7 6 8 5 9 4 10 3 11 2 12 1 13
REMARK H PARENT
REMARK Flexibility Score: inf
ROOT
ATOM      1  C   UNL     1     -33.239 -35.720  12.483  1.00  0.00     0.000 C 
ENDROOT
BRANCH   1   2
ATOM      2  C   UNL     1     -33.979 -34.415  12.827  1.00  0.00     0.000 C 
BRANCH   2   3
ATOM      3  C   UNL     1     -34.767 -34.502  14.145  1.00  0.00     0.006 C 
BRANCH   3   4
ATOM      4  C   UNL     1     -34.619 -35.872  14.820  1.00  0.00     0.053 C 
BRANCH   4   5
ATOM      5  C   UNL     1     -34.209 -35.743  16.255  1.00  0.00     0.041 C 
ATOM      6  O   UNL     1     -35.074 -35.533  17.146  1.00  0.00    -0.550 OA
ATOM      7  O   UNL     1     -32.873 -35.882  16.611  1.00  0.00    -0.550 OA
ENDBRANCH   4   5
ENDBRANCH   3   4
ENDBRANCH   2   3
ENDBRANCH   1   2
BRANCH   1   8
ATOM      8  C   UNL     1     -31.705 -35.603  12.411  1.00  0.00     0.000 C 
BRANCH   8   9
ATOM      9  C   UNL     1     -31.083 -35.062  13.709  1.00  0.00    -0.000 C 
BRANCH   9  10
ATOM     10  C   UNL     1     -30.389 -33.704  13.508  1.00  0.00    -0.000 C 
BRANCH  10  11
ATOM     11  C   UNL     1     -30.406 -33.246  12.040  1.00  0.00    -0.000 C 
BRANCH  11  12
ATOM     12  C   UNL     1     -30.958 -31.820  11.875  1.00  0.00    -0.003 C 
ATOM     13  C   UNL     1     -31.842 -31.388  13.045  1.00  0.00     0.004 C 
ENDBRANCH  11  12
ENDBRANCH  10  11
ENDBRANCH   9  10
ENDBRANCH   8   9
ENDBRANCH   1   8
TORSDOF 9
ENDMDL
MODEL 2
REMARK VINA RESULT:    -1.845     24.036     25.492
REMARK INTER + INTRA:          -3.917
REMARK INTER:                  -2.638
REMARK INTRA:                  -1.279
REMARK UNBOUND:                -1.102
REMARK SMILES CCCCCCCCCCC(=O)[O-]
REMARK SMILES IDX 7 1 8 2 9 3 10 4 11 5 12 6 13 7 6 8 5 9 4 10 3 11 2 12 1 13
REMARK H PARENT
REMARK Flexibility Score: inf
ROOT
ATOM      1  C   UNL     1     -18.682 -21.851  30.604  1.00  0.00     0.000 C 
ENDROOT
BRANCH   1   2
ATOM      2  C   UNL     1     -19.520 -23.062  31.049  1.00  0.00     0.000 C 
BRANCH   2   3
ATOM      3  C   UNL     1     -18.688 -24.347  31.196  1.00  0.00     0.006 C 
BRANCH   3   4
ATOM      4  C   UNL     1     -18.236 -24.903  29.838  1.00  0.00     0.053 C 
BRANCH   4   5
ATOM      5  C   UNL     1     -17.855 -26.350  29.930  1.00  0.00     0.041 C 
ATOM      6  O   UNL     1     -18.090 -27.002  30.981  1.00  0.00    -0.550 OA
ATOM      7  O   UNL     1     -17.265 -26.983  28.844  1.00  0.00    -0.550 OA
ENDBRANCH   4   5
ENDBRANCH   3   4
ENDBRANCH   2   3
ENDBRANCH   1   2
BRANCH   1   8
ATOM      8  C   UNL     1     -17.932 -21.122  31.734  1.00  0.00     0.000 C 
BRANCH   8   9
ATOM      9  C   UNL     1     -16.407 -21.310  31.660  1.00  0.00    -0.000 C 
BRANCH   9  10
ATOM     10  C   UNL     1     -15.952 -21.913  30.320  1.00  0.00    -0.000 C 
BRANCH  10  11
ATOM     11  C   UNL     1     -15.017 -23.121  30.506  1.00  0.00    -0.000 C 
BRANCH  11  12
ATOM     12  C   UNL     1     -15.106 -23.722  31.918  1.00  0.00    -0.003 C 
ATOM     13  C   UNL     1     -14.883 -25.235  31.933  1.00  0.00     0.004 C 
ENDBRANCH  11  12
ENDBRANCH  10  11
ENDBRANCH   9  10
ENDBRANCH   8   9
ENDBRANCH   1   8
TORSDOF 9
ENDMDL
MODEL 3
REMARK VINA RESULT:    -1.805      2.092      3.694
REMARK INTER + INTRA:          -3.857
REMARK INTER:                  -2.548
REMARK INTRA:                  -1.309
REMARK UNBOUND:                -1.102
REMARK SMILES CCCCCCCCCCC(=O)[O-]
REMARK SMILES IDX 7 1 8 2 9 3 10 4 11 5 12 6 13 7 6 8 5 9 4 10 3 11 2 12 1 13
REMARK H PARENT
REMARK Flexibility Score: inf
ROOT
ATOM      1  C   UNL     1     -29.004 -34.726  15.528  1.00  0.00     0.000 C 
ENDROOT
BRANCH   1   2
ATOM      2  C   UNL     1     -29.613 -36.081  15.932  1.00  0.00     0.000 C 
BRANCH   2   3
ATOM      3  C   UNL     1     -31.137 -36.019  16.126  1.00  0.00     0.006 C 
BRANCH   3   4
ATOM      4  C   UNL     1     -31.625 -34.597  16.435  1.00  0.00     0.053 C 
BRANCH   4   5
ATOM      5  C   UNL     1     -32.975 -34.331  15.840  1.00  0.00     0.041 C 
ATOM      6  O   UNL     1     -33.951 -35.074  16.125  1.00  0.00    -0.550 OA
ATOM      7  O   UNL     1     -33.160 -33.247  14.991  1.00  0.00    -0.550 OA
ENDBRANCH   4   5
ENDBRANCH   3   4
ENDBRANCH   2   3
ENDBRANCH   1   2
BRANCH   1   8
ATOM      8  C   UNL     1     -28.289 -34.709  14.165  1.00  0.00     0.000 C 
BRANCH   8   9
ATOM      9  C   UNL     1     -29.219 -35.077  12.996  1.00  0.00    -0.000 C 
BRANCH   9  10
ATOM     10  C   UNL     1     -30.426 -34.130  12.884  1.00  0.00    -0.000 C 
BRANCH  10  11
ATOM     11  C   UNL     1     -31.574 -34.736  12.057  1.00  0.00    -0.000 C 
BRANCH  11  12
ATOM     12  C   UNL     1     -32.114 -36.039  12.668  1.00  0.00    -0.003 C 
ATOM     13  C   UNL     1     -33.641 -36.121  12.635  1.00  0.00     0.004 C 
ENDBRANCH  11  12
ENDBRANCH  10  11
ENDBRANCH   9  10
ENDBRANCH   8   9
ENDBRANCH   1   8
TORSDOF 9
ENDMDL
MODEL 4
REMARK VINA RESULT:    -1.762      1.438      2.724
REMARK INTER + INTRA:          -3.791
REMARK INTER:                  -2.814
REMARK INTRA:                  -0.977
REMARK UNBOUND:                -1.102
REMARK SMILES CCCCCCCCCCC(=O)[O-]
REMARK SMILES IDX 7 1 8 2 9 3 10 4 11 5 12 6 13 7 6 8 5 9 4 10 3 11 2 12 1 13
REMARK H PARENT
REMARK Flexibility Score: inf
ROOT
ATOM      1  C   UNL     1     -33.942 -34.350  13.976  1.00  0.00     0.000 C 
ENDROOT
BRANCH   1   2
ATOM      2  C   UNL     1     -34.747 -35.587  14.416  1.00  0.00     0.000 C 
BRANCH   2   3
ATOM      3  C   UNL     1     -34.405 -36.049  15.842  1.00  0.00     0.006 C 
BRANCH   3   4
ATOM      4  C   UNL     1     -33.797 -34.921  16.687  1.00  0.00     0.053 C 
BRANCH   4   5
ATOM      5  C   UNL     1     -33.515 -35.367  18.089  1.00  0.00     0.041 C 
ATOM      6  O   UNL     1     -34.450 -35.458  18.927  1.00  0.00    -0.550 OA
ATOM      7  O   UNL     1     -32.221 -35.708  18.463  1.00  0.00    -0.550 OA
ENDBRANCH   4   5
ENDBRANCH   3   4
ENDBRANCH   2   3
ENDBRANCH   1   2
BRANCH   1   8
ATOM      8  C   UNL     1     -33.449 -34.374  12.518  1.00  0.00     0.000 C 
BRANCH   8   9
ATOM      9  C   UNL     1     -32.200 -33.506  12.293  1.00  0.00    -0.000 C 
BRANCH   9  10
ATOM     10  C   UNL     1     -30.974 -34.335  11.875  1.00  0.00    -0.000 C 
BRANCH  10  11
ATOM     11  C   UNL     1     -30.746 -35.550  12.791  1.00  0.00    -0.000 C 
BRANCH  11  12
ATOM     12  C   UNL     1     -30.214 -35.151  14.177  1.00  0.00    -0.003 C 
ATOM     13  C   UNL     1     -30.639 -36.123  15.277  1.00  0.00     0.004 C 
ENDBRANCH  11  12
ENDBRANCH  10  11
ENDBRANCH   9  10
ENDBRANCH   8   9
ENDBRANCH   1   8
TORSDOF 9
ENDMDL
MODEL 5
REMARK VINA RESULT:    -1.759      1.722      3.418
REMARK INTER + INTRA:          -3.786
REMARK INTER:                  -2.602
REMARK INTRA:                  -1.184
REMARK UNBOUND:                -1.102
REMARK SMILES CCCCCCCCCCC(=O)[O-]
REMARK SMILES IDX 7 1 8 2 9 3 10 4 11 5 12 6 13 7 6 8 5 9 4 10 3 11 2 12 1 13
REMARK H PARENT
REMARK Flexibility Score: inf
ROOT
ATOM      1  C   UNL     1     -29.407 -33.861  14.537  1.00  0.00     0.000 C 
ENDROOT
BRANCH   1   2
ATOM      2  C   UNL     1     -30.626 -33.696  15.463  1.00  0.00     0.000 C 
BRANCH   2   3
ATOM      3  C   UNL     1     -30.672 -34.747  16.585  1.00  0.00     0.006 C 
BRANCH   3   4
ATOM      4  C   UNL     1     -31.821 -35.747  16.396  1.00  0.00     0.053 C 
BRANCH   4   5
ATOM      5  C   UNL     1     -32.864 -35.603  17.461  1.00  0.00     0.041 C 
ATOM      6  O   UNL     1     -32.546 -35.689  18.677  1.00  0.00    -0.550 OA
ATOM      7  O   UNL     1     -34.185 -35.347  17.111  1.00  0.00    -0.550 OA
ENDBRANCH   4   5
ENDBRANCH   3   4
ENDBRANCH   2   3
ENDBRANCH   1   2
BRANCH   1   8
ATOM      8  C   UNL     1     -29.518 -34.998  13.504  1.00  0.00     0.000 C 
BRANCH   8   9
ATOM      9  C   UNL     1     -30.707 -34.822  12.544  1.00  0.00    -0.000 C 
BRANCH   9  10
ATOM     10  C   UNL     1     -31.728 -35.967  12.654  1.00  0.00    -0.000 C 
BRANCH  10  11
ATOM     11  C   UNL     1     -33.158 -35.516  12.312  1.00  0.00    -0.000 C 
BRANCH  11  12
ATOM     12  C   UNL     1     -34.002 -35.235  13.565  1.00  0.00    -0.003 C 
ATOM     13  C   UNL     1     -34.050 -33.750  13.927  1.00  0.00     0.004 C 
ENDBRANCH  11  12
ENDBRANCH  10  11
ENDBRANCH   9  10
ENDBRANCH   8   9
ENDBRANCH   1   8
TORSDOF 9
ENDMDL
MODEL 6
REMARK VINA RESULT:    -1.747     23.893     25.279
REMARK INTER + INTRA:          -3.768
REMARK INTER:                  -2.359
REMARK INTRA:                  -1.409
REMARK UNBOUND:                -1.102
REMARK SMILES CCCCCCCCCCC(=O)[O-]
REMARK SMILES IDX 7 1 8 2 9 3 10 4 11 5 12 6 13 7 6 8 5 9 4 10 3 11 2 12 1 13
REMARK H PARENT
REMARK Flexibility Score: inf
ROOT
ATOM      1  C   UNL     1     -17.309 -24.997  30.389  1.00  0.00     0.000 C 
ENDROOT
BRANCH   1   2
ATOM      2  C   UNL     1     -18.515 -24.516  31.217  1.00  0.00     0.000 C 
BRANCH   2   3
ATOM      3  C   UNL     1     -19.507 -23.673  30.399  1.00  0.00     0.006 C 
BRANCH   3   4
ATOM      4  C   UNL     1     -18.905 -23.199  29.069  1.00  0.00     0.053 C 
BRANCH   4   5
ATOM      5  C   UNL     1     -19.577 -21.958  28.566  1.00  0.00     0.041 C 
ATOM      6  O   UNL     1     -19.234 -21.452  27.465  1.00  0.00    -0.550 OA
ATOM      7  O   UNL     1     -20.602 -21.376  29.301  1.00  0.00    -0.550 OA
ENDBRANCH   4   5
ENDBRANCH   3   4
ENDBRANCH   2   3
ENDBRANCH   1   2
BRANCH   1   8
ATOM      8  C   UNL     1     -15.997 -25.159  31.177  1.00  0.00     0.000 C 
BRANCH   8   9
ATOM      9  C   UNL     1     -15.276 -23.823  31.424  1.00  0.00    -0.000 C 
BRANCH   9  10
ATOM     10  C   UNL     1     -15.229 -22.938  30.166  1.00  0.00    -0.000 C 
BRANCH  10  11
ATOM     11  C   UNL     1     -15.875 -21.560  30.392  1.00  0.00    -0.000 C 
BRANCH  11  12
ATOM     12  C   UNL     1     -16.460 -21.409  31.806  1.00  0.00    -0.003 C 
ATOM     13  C   UNL     1     -17.819 -20.710  31.813  1.00  0.00     0.004 C 
ENDBRANCH  11  12
ENDBRANCH  10  11
ENDBRANCH   9  10
ENDBRANCH   8   9
ENDBRANCH   1   8
TORSDOF 9
ENDMDL
MODEL 7
REMARK VINA RESULT:    -1.741     24.044     25.364
REMARK INTER + INTRA:          -3.759
REMARK INTER:                  -2.446
REMARK INTRA:                  -1.314
REMARK UNBOUND:                -1.102
REMARK SMILES CCCCCCCCCCC(=O)[O-]
REMARK SMILES IDX 7 1 8 2 9 3 10 4 11 5 12 6 13 7 6 8 5 9 4 10 3 11 2 12 1 13
REMARK H PARENT
REMARK Flexibility Score: inf
ROOT
ATOM      1  C   UNL     1     -17.831 -25.071  30.890  1.00  0.00     0.000 C 
ENDROOT
BRANCH   1   2
ATOM      2  C   UNL     1     -18.487 -24.833  29.518  1.00  0.00     0.000 C 
BRANCH   2   3
ATOM      3  C   UNL     1     -19.526 -23.700  29.539  1.00  0.00     0.006 C 
BRANCH   3   4
ATOM      4  C   UNL     1     -19.873 -23.257  30.967  1.00  0.00     0.053 C 
BRANCH   4   5
ATOM      5  C   UNL     1     -20.031 -21.770  31.065  1.00  0.00     0.041 C 
ATOM      6  O   UNL     1     -19.712 -21.167  32.123  1.00  0.00    -0.550 OA
ATOM      7  O   UNL     1     -20.505 -21.048  29.977  1.00  0.00    -0.550 OA
ENDBRANCH   4   5
ENDBRANCH   3   4
ENDBRANCH   2   3
ENDBRANCH   1   2
BRANCH   1   8
ATOM      8  C   UNL     1     -16.302 -25.245  30.864  1.00  0.00     0.000 C 
BRANCH   8   9
ATOM      9  C   UNL     1     -15.560 -24.151  31.649  1.00  0.00    -0.000 C 
BRANCH   9  10
ATOM     10  C   UNL     1     -16.498 -23.028  32.125  1.00  0.00    -0.000 C 
BRANCH  10  11
ATOM     11  C   UNL     1     -16.171 -21.673  31.474  1.00  0.00    -0.000 C 
BRANCH  11  12
ATOM     12  C   UNL     1     -16.488 -21.651  29.970  1.00  0.00    -0.003 C 
ATOM     13  C   UNL     1     -15.238 -21.495  29.103  1.00  0.00     0.004 C 
ENDBRANCH  11  12
ENDBRANCH  10  11
ENDBRANCH   9  10
ENDBRANCH   8   9
ENDBRANCH   1   8
TORSDOF 9
ENDMDL
MODEL 8
REMARK VINA RESULT:    -1.682      2.057      3.481
REMARK INTER + INTRA:          -3.669
REMARK INTER:                  -2.796
REMARK INTRA:                  -0.873
REMARK UNBOUND:                -1.102
REMARK SMILES CCCCCCCCCCC(=O)[O-]
REMARK SMILES IDX 7 1 8 2 9 3 10 4 11 5 12 6 13 7 6 8 5 9 4 10 3 11 2 12 1 13
REMARK H PARENT
REMARK Flexibility Score: inf
ROOT
ATOM      1  C   UNL     1     -34.237 -34.615  14.955  1.00  0.00     0.000 C 
ENDROOT
BRANCH   1   2
ATOM      2  C   UNL     1     -34.223 -34.631  16.495  1.00  0.00     0.000 C 
BRANCH   2   3
ATOM      3  C   UNL     1     -33.153 -35.571  17.075  1.00  0.00     0.006 C 
BRANCH   3   4
ATOM      4  C   UNL     1     -32.275 -34.874  18.123  1.00  0.00     0.053 C 
BRANCH   4   5
ATOM      5  C   UNL     1     -32.239 -35.636  19.413  1.00  0.00     0.041 C 
ATOM      6  O   UNL     1     -31.139 -36.018  19.893  1.00  0.00    -0.550 OA
ATOM      7  O   UNL     1     -33.419 -35.901  20.097  1.00  0.00    -0.550 OA
ENDBRANCH   4   5
ENDBRANCH   3   4
ENDBRANCH   2   3
ENDBRANCH   1   2
BRANCH   1   8
ATOM      8  C   UNL     1     -34.145 -35.998  14.285  1.00  0.00     0.000 C 
BRANCH   8   9
ATOM      9  C   UNL     1     -33.688 -35.924  12.819  1.00  0.00    -0.000 C 
BRANCH   9  10
ATOM     10  C   UNL     1     -32.170 -36.123  12.664  1.00  0.00    -0.000 C 
BRANCH  10  11
ATOM     11  C   UNL     1     -31.461 -34.862  12.141  1.00  0.00    -0.000 C 
BRANCH  11  12
ATOM     12  C   UNL     1     -30.370 -34.360  13.101  1.00  0.00    -0.003 C 
ATOM     13  C   UNL     1     -30.496 -34.953  14.504  1.00  0.00     0.004 C 
ENDBRANCH  11  12
ENDBRANCH  10  11
ENDBRANCH   9  10
ENDBRANCH   8   9
ENDBRANCH   1   8
TORSDOF 9
ENDMDL
