MODEL 1
REMARK VINA RESULT:    -6.674      0.000      0.000
REMARK INTER + INTRA:         -11.668
REMARK INTER:                  -9.796
REMARK INTRA:                  -1.872
REMARK UNBOUND:                -1.872
REMARK SMILES O=c1c(O[C@@H]2O[C@@H](CO)[C@@H](O)[C@H](O)[C@@H]2O)c(-c2ccc(O)c(O)c2)oc2cc(O)cc(O)c12
REMARK SMILES IDX 4 1 3 2 16 3 25 4 2 5 26 6 1 7 33 8 27 9 31 10 28 11 30 12
REMARK SMILES IDX 17 13 18 14 19 15 20 16 24 17 22 18 21 19 23 21 32 23 29 25
REMARK SMILES IDX 5 27 14 28 6 29 12 30 7 31 10 32 15 33 13 35 8 37 9 38 11 40
REMARK H PARENT 21 20 23 22 32 24 29 26 15 34 13 36 9 39 11 41
REMARK Flexibility Score: inf
ROOT
ATOM      1  O   UNL     1       9.377  15.444  24.602  1.00  0.00    -0.454 OA
ENDROOT
BRANCH   1   2
ATOM      2  C   UNL     1       9.267  14.042  24.614  1.00  0.00     0.214 A 
ATOM      3  C   UNL     1       9.639  13.332  23.457  1.00  0.00     0.180 A 
ATOM      4  O   UNL     1       9.652  12.003  23.461  1.00  0.00    -0.452 OA
ATOM      5  C   UNL     1       8.837  13.309  25.743  1.00  0.00     0.239 A 
ATOM      6  C   UNL     1       9.292  11.276  24.512  1.00  0.00     0.146 A 
ATOM      7  O   UNL     1       8.431  13.911  26.774  1.00  0.00    -0.285 OA
ATOM      8  C   UNL     1       8.851  11.900  25.702  1.00  0.00     0.111 A 
ATOM      9  C   UNL     1       9.353   9.881  24.424  1.00  0.00     0.094 A 
ATOM     10  C   UNL     1       8.453  11.089  26.797  1.00  0.00     0.134 A 
ATOM     11  C   UNL     1       8.983   9.089  25.509  1.00  0.00     0.123 A 
ATOM     12  C   UNL     1       8.525   9.693  26.687  1.00  0.00     0.093 A 
BRANCH   3  13
ATOM     13  C   UNL     1      10.072  14.023  22.225  1.00  0.00     0.025 A 
ATOM     14  C   UNL     1      11.440  14.163  21.960  1.00  0.00     0.016 A 
ATOM     15  C   UNL     1      11.872  14.818  20.805  1.00  0.00     0.051 A 
ATOM     16  C   UNL     1      10.944  15.329  19.891  1.00  0.00     0.157 A 
ATOM     17  C   UNL     1       9.137  14.522  21.300  1.00  0.00     0.062 A 
ATOM     18  C   UNL     1       9.572  15.174  20.137  1.00  0.00     0.158 A 
BRANCH  16  19
ATOM     19  O   UNL     1      11.406  15.975  18.745  1.00  0.00    -0.504 OA
ATOM     20  H   UNL     1      10.870  16.705  18.289  1.00  0.00     0.293 HD
ENDBRANCH  16  19
BRANCH  18  21
ATOM     21  O   UNL     1       8.644  15.679  19.226  1.00  0.00    -0.504 OA
ATOM     22  H   UNL     1       8.758  16.580  18.786  1.00  0.00     0.293 HD
ENDBRANCH  18  21
ENDBRANCH   3  13
BRANCH  10  23
ATOM     23  O   UNL     1       7.988  11.657  27.990  1.00  0.00    -0.507 OA
ATOM     24  H   UNL     1       8.623  11.930  28.734  1.00  0.00     0.293 HD
ENDBRANCH  10  23
BRANCH  11  25
ATOM     25  O   UNL     1       9.068   7.703  25.413  1.00  0.00    -0.508 OA
ATOM     26  H   UNL     1       9.581   7.258  24.664  1.00  0.00     0.293 HD
ENDBRANCH  11  25
ENDBRANCH   1   2
BRANCH   1  27
ATOM     27  C   UNL     1       8.329  16.371  24.312  1.00  0.00     0.339 C 
ATOM     28  C   UNL     1       8.112  17.328  25.503  1.00  0.00     0.214 C 
ATOM     29  O   UNL     1       8.579  17.080  23.108  1.00  0.00    -0.332 OA
ATOM     30  C   UNL     1       9.278  18.321  25.647  1.00  0.00     0.180 C 
ATOM     31  C   UNL     1       9.752  17.871  23.205  1.00  0.00     0.179 C 
ATOM     32  C   UNL     1       9.600  18.969  24.287  1.00  0.00     0.177 C 
BRANCH  28  33
ATOM     33  O   UNL     1       7.965  16.596  26.694  1.00  0.00    -0.384 OA
ATOM     34  H   UNL     1       7.374  17.132  27.294  1.00  0.00     0.211 HD
ENDBRANCH  28  33
BRANCH  30  35
ATOM     35  O   UNL     1      10.410  17.655  26.144  1.00  0.00    -0.387 OA
ATOM     36  H   UNL     1      10.095  17.025  26.849  1.00  0.00     0.211 HD
ENDBRANCH  30  35
BRANCH  31  37
ATOM     37  C   UNL     1      10.081  18.463  21.824  1.00  0.00     0.191 C 
BRANCH  37  38
ATOM     38  O   UNL     1       8.904  18.725  21.106  1.00  0.00    -0.394 OA
ATOM     39  H   UNL     1       8.469  17.846  20.952  1.00  0.00     0.210 HD
ENDBRANCH  37  38
ENDBRANCH  31  37
BRANCH  32  40
ATOM     40  O   UNL     1       8.630  19.930  23.952  1.00  0.00    -0.387 OA
ATOM     41  H   UNL     1       9.099  20.764  23.661  1.00  0.00     0.211 HD
ENDBRANCH  32  40
ENDBRANCH   1  27
TORSDOF 12
ENDMDL
MODEL 2
REMARK VINA RESULT:    -6.578      1.575      4.691
REMARK INTER + INTRA:         -11.525
REMARK INTER:                  -9.625
REMARK INTRA:                  -1.900
REMARK UNBOUND:                -1.872
REMARK SMILES O=c1c(O[C@@H]2O[C@@H](CO)[C@@H](O)[C@H](O)[C@@H]2O)c(-c2ccc(O)c(O)c2)oc2cc(O)cc(O)c12
REMARK SMILES IDX 4 1 3 2 16 3 25 4 2 5 26 6 1 7 33 8 27 9 31 10 28 11 30 12
REMARK SMILES IDX 17 13 18 14 19 15 20 16 24 17 22 18 21 19 23 21 32 23 29 25
REMARK SMILES IDX 5 27 14 28 6 29 12 30 7 31 10 32 15 33 13 35 8 37 9 38 11 40
REMARK H PARENT 21 20 23 22 32 24 29 26 15 34 13 36 9 39 11 41
REMARK Flexibility Score: inf
ROOT
ATOM      1  O   UNL     1       9.591  14.155  23.071  1.00  0.00    -0.454 OA
ENDROOT
BRANCH   1   2
ATOM      2  C   UNL     1       9.353  13.340  24.193  1.00  0.00     0.214 A 
ATOM      3  C   UNL     1       9.018  13.959  25.411  1.00  0.00     0.180 A 
ATOM      4  O   UNL     1       8.682  13.225  26.466  1.00  0.00    -0.452 OA
ATOM      5  C   UNL     1       9.401  11.928  24.147  1.00  0.00     0.239 A 
ATOM      6  C   UNL     1       8.676  11.898  26.456  1.00  0.00     0.146 A 
ATOM      7  O   UNL     1       9.763  11.339  23.093  1.00  0.00    -0.285 OA
ATOM      8  C   UNL     1       9.052  11.185  25.293  1.00  0.00     0.111 A 
ATOM      9  C   UNL     1       8.295  11.212  27.613  1.00  0.00     0.094 A 
ATOM     10  C   UNL     1       9.054   9.766  25.326  1.00  0.00     0.134 A 
ATOM     11  C   UNL     1       8.277   9.818  27.635  1.00  0.00     0.123 A 
ATOM     12  C   UNL     1       8.666   9.100  26.497  1.00  0.00     0.093 A 
BRANCH   3  13
ATOM     13  C   UNL     1       8.976  15.430  25.551  1.00  0.00     0.025 A 
ATOM     14  C   UNL     1       7.934  16.148  24.950  1.00  0.00     0.016 A 
ATOM     15  C   UNL     1       7.877  17.538  25.063  1.00  0.00     0.051 A 
ATOM     16  C   UNL     1       8.851  18.230  25.793  1.00  0.00     0.157 A 
ATOM     17  C   UNL     1       9.947  16.121  26.298  1.00  0.00     0.062 A 
ATOM     18  C   UNL     1       9.885  17.518  26.417  1.00  0.00     0.158 A 
BRANCH  16  19
ATOM     19  O   UNL     1       8.766  19.617  25.891  1.00  0.00    -0.504 OA
ATOM     20  H   UNL     1       7.882  20.092  26.037  1.00  0.00     0.293 HD
ENDBRANCH  16  19
BRANCH  18  21
ATOM     21  O   UNL     1      10.856  18.203  27.147  1.00  0.00    -0.504 OA
ATOM     22  H   UNL     1      11.617  18.694  26.701  1.00  0.00     0.293 HD
ENDBRANCH  18  21
ENDBRANCH   3  13
BRANCH  10  23
ATOM     23  O   UNL     1       9.439   9.014  24.209  1.00  0.00    -0.507 OA
ATOM     24  H   UNL     1      10.203   9.307  23.606  1.00  0.00     0.293 HD
ENDBRANCH  10  23
BRANCH  11  25
ATOM     25  O   UNL     1       7.875   9.152  28.789  1.00  0.00    -0.508 OA
ATOM     26  H   UNL     1       7.654   8.166  28.778  1.00  0.00     0.293 HD
ENDBRANCH  11  25
ENDBRANCH   1   2
BRANCH   1  27
ATOM     27  C   UNL     1      10.863  14.431  22.481  1.00  0.00     0.339 C 
ATOM     28  C   UNL     1      10.805  14.219  20.954  1.00  0.00     0.214 C 
ATOM     29  O   UNL     1      11.318  15.734  22.813  1.00  0.00    -0.332 OA
ATOM     30  C   UNL     1       9.977  15.316  20.263  1.00  0.00     0.180 C 
ATOM     31  C   UNL     1      10.452  16.734  22.301  1.00  0.00     0.179 C 
ATOM     32  C   UNL     1      10.418  16.708  20.753  1.00  0.00     0.177 C 
BRANCH  28  33
ATOM     33  O   UNL     1      10.258  12.958  20.659  1.00  0.00    -0.384 OA
ATOM     34  H   UNL     1      10.896  12.501  20.041  1.00  0.00     0.211 HD
ENDBRANCH  28  33
BRANCH  30  35
ATOM     35  O   UNL     1       8.612  15.121  20.533  1.00  0.00    -0.387 OA
ATOM     36  H   UNL     1       8.232  14.607  19.767  1.00  0.00     0.211 HD
ENDBRANCH  30  35
BRANCH  31  37
ATOM     37  C   UNL     1      10.882  18.106  22.847  1.00  0.00     0.191 C 
BRANCH  37  38
ATOM     38  O   UNL     1      12.274  18.156  23.018  1.00  0.00    -0.394 OA
ATOM     39  H   UNL     1      12.503  19.110  23.172  1.00  0.00     0.210 HD
ENDBRANCH  37  38
ENDBRANCH  31  37
BRANCH  32  40
ATOM     40  O   UNL     1      11.649  17.070  20.178  1.00  0.00    -0.387 OA
ATOM     41  H   UNL     1      12.115  16.237  19.880  1.00  0.00     0.211 HD
ENDBRANCH  32  40
ENDBRANCH   1  27
TORSDOF 12
ENDMDL
MODEL 3
REMARK VINA RESULT:    -6.536      1.110      2.421
REMARK INTER + INTRA:         -11.465
REMARK INTER:                  -9.967
REMARK INTRA:                  -1.498
REMARK UNBOUND:                -1.872
REMARK SMILES O=c1c(O[C@@H]2O[C@@H](CO)[C@@H](O)[C@H](O)[C@@H]2O)c(-c2ccc(O)c(O)c2)oc2cc(O)cc(O)c12
REMARK SMILES IDX 4 1 3 2 16 3 25 4 2 5 26 6 1 7 33 8 27 9 31 10 28 11 30 12
REMARK SMILES IDX 17 13 18 14 19 15 20 16 24 17 22 18 21 19 23 21 32 23 29 25
REMARK SMILES IDX 5 27 14 28 6 29 12 30 7 31 10 32 15 33 13 35 8 37 9 38 11 40
REMARK H PARENT 21 20 23 22 32 24 29 26 15 34 13 36 9 39 11 41
REMARK Flexibility Score: inf
ROOT
ATOM      1  O   UNL     1       9.242  16.118  24.364  1.00  0.00    -0.454 OA
ENDROOT
BRANCH   1   2
ATOM      2  C   UNL     1       9.159  14.733  24.594  1.00  0.00     0.214 A 
ATOM      3  C   UNL     1       9.562  13.859  23.567  1.00  0.00     0.180 A 
ATOM      4  O   UNL     1       9.601  12.547  23.780  1.00  0.00    -0.452 OA
ATOM      5  C   UNL     1       8.726  14.176  25.819  1.00  0.00     0.239 A 
ATOM      6  C   UNL     1       9.239  11.986  24.927  1.00  0.00     0.146 A 
ATOM      7  O   UNL     1       8.294  14.923  26.738  1.00  0.00    -0.285 OA
ATOM      8  C   UNL     1       8.768  12.779  25.999  1.00  0.00     0.111 A 
ATOM      9  C   UNL     1       9.328  10.597  25.060  1.00  0.00     0.094 A 
ATOM     10  C   UNL     1       8.370  12.141  27.203  1.00  0.00     0.134 A 
ATOM     11  C   UNL     1       8.957   9.976  26.251  1.00  0.00     0.123 A 
ATOM     12  C   UNL     1       8.470  10.747  27.314  1.00  0.00     0.093 A 
BRANCH   3  13
ATOM     13  C   UNL     1      10.000  14.358  22.247  1.00  0.00     0.025 A 
ATOM     14  C   UNL     1      11.361  14.327  21.918  1.00  0.00     0.016 A 
ATOM     15  C   UNL     1      11.798  14.800  20.679  1.00  0.00     0.051 A 
ATOM     16  C   UNL     1      10.880  15.295  19.745  1.00  0.00     0.157 A 
ATOM     17  C   UNL     1       9.074  14.841  21.304  1.00  0.00     0.062 A 
ATOM     18  C   UNL     1       9.514  15.309  20.057  1.00  0.00     0.158 A 
BRANCH  16  19
ATOM     19  O   UNL     1      11.346  15.757  18.515  1.00  0.00    -0.504 OA
ATOM     20  H   UNL     1      12.075  16.458  18.447  1.00  0.00     0.293 HD
ENDBRANCH  16  19
BRANCH  18  21
ATOM     21  O   UNL     1       8.596  15.799  19.129  1.00  0.00    -0.504 OA
ATOM     22  H   UNL     1       8.854  16.007  18.175  1.00  0.00     0.293 HD
ENDBRANCH  18  21
ENDBRANCH   3  13
BRANCH  10  23
ATOM     23  O   UNL     1       7.876  12.878  28.287  1.00  0.00    -0.507 OA
ATOM     24  H   UNL     1       7.861  12.497  29.229  1.00  0.00     0.293 HD
ENDBRANCH  10  23
BRANCH  11  25
ATOM     25  O   UNL     1       9.071   8.594  26.373  1.00  0.00    -0.508 OA
ATOM     26  H   UNL     1       8.294   7.982  26.170  1.00  0.00     0.293 HD
ENDBRANCH  11  25
ENDBRANCH   1   2
BRANCH   1  27
ATOM     27  C   UNL     1      10.423  16.918  24.442  1.00  0.00     0.339 C 
ATOM     28  C   UNL     1      10.234  18.233  23.657  1.00  0.00     0.214 C 
ATOM     29  O   UNL     1      10.798  17.161  25.790  1.00  0.00    -0.332 OA
ATOM     30  C   UNL     1       9.254  19.181  24.370  1.00  0.00     0.180 C 
ATOM     31  C   UNL     1       9.806  17.902  26.480  1.00  0.00     0.179 C 
ATOM     32  C   UNL     1       9.624  19.310  25.860  1.00  0.00     0.177 C 
BRANCH  28  33
ATOM     33  O   UNL     1       9.768  17.962  22.359  1.00  0.00    -0.384 OA
ATOM     34  H   UNL     1      10.500  18.213  21.728  1.00  0.00     0.211 HD
ENDBRANCH  28  33
BRANCH  30  35
ATOM     35  O   UNL     1       7.943  18.693  24.240  1.00  0.00    -0.387 OA
ATOM     36  H   UNL     1       7.764  18.118  25.034  1.00  0.00     0.211 HD
ENDBRANCH  30  35
BRANCH  31  37
ATOM     37  C   UNL     1      10.171  17.972  27.973  1.00  0.00     0.191 C 
BRANCH  37  38
ATOM     38  O   UNL     1      11.542  18.228  28.134  1.00  0.00    -0.394 OA
ATOM     39  H   UNL     1      11.896  18.436  27.230  1.00  0.00     0.210 HD
ENDBRANCH  37  38
ENDBRANCH  31  37
BRANCH  32  40
ATOM     40  O   UNL     1      10.759  20.125  26.022  1.00  0.00    -0.387 OA
ATOM     41  H   UNL     1      10.859  20.691  25.204  1.00  0.00     0.211 HD
ENDBRANCH  32  40
ENDBRANCH   1  27
TORSDOF 12
ENDMDL
MODEL 4
REMARK VINA RESULT:    -5.489      1.654      6.500
REMARK INTER + INTRA:          -9.928
REMARK INTER:                  -8.781
REMARK INTRA:                  -1.147
REMARK UNBOUND:                -1.872
REMARK SMILES O=c1c(O[C@@H]2O[C@@H](CO)[C@@H](O)[C@H](O)[C@@H]2O)c(-c2ccc(O)c(O)c2)oc2cc(O)cc(O)c12
REMARK SMILES IDX 4 1 3 2 16 3 25 4 2 5 26 6 1 7 33 8 27 9 31 10 28 11 30 12
REMARK SMILES IDX 17 13 18 14 19 15 20 16 24 17 22 18 21 19 23 21 32 23 29 25
REMARK SMILES IDX 5 27 14 28 6 29 12 30 7 31 10 32 15 33 13 35 8 37 9 38 11 40
REMARK H PARENT 21 20 23 22 32 24 29 26 15 34 13 36 9 39 11 41
REMARK Flexibility Score: inf
ROOT
ATOM      1  O   UNL     1       9.045  13.608  25.115  1.00  0.00    -0.454 OA
ENDROOT
BRANCH   1   2
ATOM      2  C   UNL     1       9.029  14.989  25.385  1.00  0.00     0.214 A 
ATOM      3  C   UNL     1       9.373  15.877  24.349  1.00  0.00     0.180 A 
ATOM      4  O   UNL     1       9.268  17.190  24.530  1.00  0.00    -0.452 OA
ATOM      5  C   UNL     1       8.651  15.528  26.635  1.00  0.00     0.239 A 
ATOM      6  C   UNL     1       8.880  17.737  25.675  1.00  0.00     0.146 A 
ATOM      7  O   UNL     1       8.401  14.764  27.607  1.00  0.00    -0.285 OA
ATOM      8  C   UNL     1       8.567  16.926  26.791  1.00  0.00     0.111 A 
ATOM      9  C   UNL     1       8.788  19.130  25.765  1.00  0.00     0.094 A 
ATOM     10  C   UNL     1       8.177  17.549  28.006  1.00  0.00     0.134 A 
ATOM     11  C   UNL     1       8.384  19.736  26.952  1.00  0.00     0.123 A 
ATOM     12  C   UNL     1       8.089  18.947  28.071  1.00  0.00     0.093 A 
BRANCH   3  13
ATOM     13  C   UNL     1       9.808  15.395  23.022  1.00  0.00     0.025 A 
ATOM     14  C   UNL     1      10.966  14.614  22.921  1.00  0.00     0.016 A 
ATOM     15  C   UNL     1      11.400  14.152  21.677  1.00  0.00     0.051 A 
ATOM     16  C   UNL     1      10.673  14.450  20.518  1.00  0.00     0.157 A 
ATOM     17  C   UNL     1       9.067  15.682  21.861  1.00  0.00     0.062 A 
ATOM     18  C   UNL     1       9.500  15.212  20.613  1.00  0.00     0.158 A 
BRANCH  16  19
ATOM     19  O   UNL     1      11.129  13.972  19.290  1.00  0.00    -0.504 OA
ATOM     20  H   UNL     1      10.724  14.278  18.413  1.00  0.00     0.293 HD
ENDBRANCH  16  19
BRANCH  18  21
ATOM     21  O   UNL     1       8.772  15.508  19.461  1.00  0.00    -0.504 OA
ATOM     22  H   UNL     1       8.054  16.217  19.446  1.00  0.00     0.293 HD
ENDBRANCH  18  21
ENDBRANCH   3  13
BRANCH  10  23
ATOM     23  O   UNL     1       7.877  16.792  29.146  1.00  0.00    -0.507 OA
ATOM     24  H   UNL     1       7.326  17.174  29.909  1.00  0.00     0.293 HD
ENDBRANCH  10  23
BRANCH  11  25
ATOM     25  O   UNL     1       8.278  21.122  27.018  1.00  0.00    -0.508 OA
ATOM     26  H   UNL     1       8.825  21.721  26.416  1.00  0.00     0.293 HD
ENDBRANCH  11  25
ENDBRANCH   1   2
BRANCH   1  27
ATOM     27  C   UNL     1       7.933  12.716  25.212  1.00  0.00     0.339 C 
ATOM     28  C   UNL     1       7.967  11.687  24.064  1.00  0.00     0.214 C 
ATOM     29  O   UNL     1       7.885  12.083  26.482  1.00  0.00    -0.332 OA
ATOM     30  C   UNL     1       9.107  10.671  24.249  1.00  0.00     0.180 C 
ATOM     31  C   UNL     1       9.027  11.272  26.703  1.00  0.00     0.179 C 
ATOM     32  C   UNL     1       9.095  10.108  25.683  1.00  0.00     0.177 C 
BRANCH  28  33
ATOM     33  O   UNL     1       8.114  12.342  22.828  1.00  0.00    -0.384 OA
ATOM     34  H   UNL     1       7.706  13.248  22.928  1.00  0.00     0.211 HD
ENDBRANCH  28  33
BRANCH  30  35
ATOM     35  O   UNL     1      10.341  11.289  23.985  1.00  0.00    -0.387 OA
ATOM     36  H   UNL     1      10.459  12.011  24.663  1.00  0.00     0.211 HD
ENDBRANCH  30  35
BRANCH  31  37
ATOM     37  C   UNL     1       9.018  10.766  28.156  1.00  0.00     0.191 C 
BRANCH  37  38
ATOM     38  O   UNL     1       9.412   9.420  28.212  1.00  0.00    -0.394 OA
ATOM     39  H   UNL     1       9.070   8.994  27.383  1.00  0.00     0.210 HD
ENDBRANCH  37  38
ENDBRANCH  31  37
BRANCH  32  40
ATOM     40  O   UNL     1       8.048   9.184  25.845  1.00  0.00    -0.387 OA
ATOM     41  H   UNL     1       7.835   8.789  24.951  1.00  0.00     0.211 HD
ENDBRANCH  32  40
ENDBRANCH   1  27
TORSDOF 12
ENDMDL
MODEL 5
REMARK VINA RESULT:    -5.181     16.236     19.459
REMARK INTER + INTRA:          -9.475
REMARK INTER:                  -7.459
REMARK INTRA:                  -2.016
REMARK UNBOUND:                -1.872
REMARK SMILES O=c1c(O[C@@H]2O[C@@H](CO)[C@@H](O)[C@H](O)[C@@H]2O)c(-c2ccc(O)c(O)c2)oc2cc(O)cc(O)c12
REMARK SMILES IDX 4 1 3 2 16 3 25 4 2 5 26 6 1 7 33 8 27 9 31 10 28 11 30 12
REMARK SMILES IDX 17 13 18 14 19 15 20 16 24 17 22 18 21 19 23 21 32 23 29 25
REMARK SMILES IDX 5 27 14 28 6 29 12 30 7 31 10 32 15 33 13 35 8 37 9 38 11 40
REMARK H PARENT 21 20 23 22 32 24 29 26 15 34 13 36 9 39 11 41
REMARK Flexibility Score: inf
ROOT
ATOM      1  O   UNL     1      22.792   5.071  31.514  1.00  0.00    -0.454 OA
ENDROOT
BRANCH   1   2
ATOM      2  C   UNL     1      23.124   6.298  30.909  1.00  0.00     0.214 A 
ATOM      3  C   UNL     1      23.898   6.277  29.733  1.00  0.00     0.180 A 
ATOM      4  O   UNL     1      24.144   7.403  29.072  1.00  0.00    -0.452 OA
ATOM      5  C   UNL     1      22.688   7.548  31.404  1.00  0.00     0.239 A 
ATOM      6  C   UNL     1      23.721   8.593  29.481  1.00  0.00     0.146 A 
ATOM      7  O   UNL     1      22.051   7.613  32.490  1.00  0.00    -0.285 OA
ATOM      8  C   UNL     1      22.983   8.721  30.681  1.00  0.00     0.111 A 
ATOM      9  C   UNL     1      24.019   9.720  28.709  1.00  0.00     0.094 A 
ATOM     10  C   UNL     1      22.567  10.013  31.097  1.00  0.00     0.134 A 
ATOM     11  C   UNL     1      23.589  10.984  29.110  1.00  0.00     0.123 A 
ATOM     12  C   UNL     1      22.875  11.128  30.306  1.00  0.00     0.093 A 
BRANCH   3  13
ATOM     13  C   UNL     1      24.418   5.015  29.167  1.00  0.00     0.025 A 
ATOM     14  C   UNL     1      23.598   4.248  28.330  1.00  0.00     0.016 A 
ATOM     15  C   UNL     1      24.065   3.049  27.788  1.00  0.00     0.051 A 
ATOM     16  C   UNL     1      25.366   2.608  28.062  1.00  0.00     0.157 A 
ATOM     17  C   UNL     1      25.730   4.581  29.430  1.00  0.00     0.062 A 
ATOM     18  C   UNL     1      26.201   3.380  28.880  1.00  0.00     0.158 A 
BRANCH  16  19
ATOM     19  O   UNL     1      25.806   1.408  27.504  1.00  0.00    -0.504 OA
ATOM     20  H   UNL     1      25.201   0.829  26.933  1.00  0.00     0.293 HD
ENDBRANCH  16  19
BRANCH  18  21
ATOM     21  O   UNL     1      27.498   2.945  29.153  1.00  0.00    -0.504 OA
ATOM     22  H   UNL     1      27.864   2.080  28.784  1.00  0.00     0.293 HD
ENDBRANCH  18  21
ENDBRANCH   3  13
BRANCH  10  23
ATOM     23  O   UNL     1      21.853  10.197  32.288  1.00  0.00    -0.507 OA
ATOM     24  H   UNL     1      21.103   9.569  32.563  1.00  0.00     0.293 HD
ENDBRANCH  10  23
BRANCH  11  25
ATOM     25  O   UNL     1      23.877  12.093  28.320  1.00  0.00    -0.508 OA
ATOM     26  H   UNL     1      23.514  13.008  28.545  1.00  0.00     0.293 HD
ENDBRANCH  11  25
ENDBRANCH   1   2
BRANCH   1  27
ATOM     27  C   UNL     1      23.507   4.431  32.571  1.00  0.00     0.339 C 
ATOM     28  C   UNL     1      22.572   4.165  33.769  1.00  0.00     0.214 C 
ATOM     29  O   UNL     1      24.140   3.241  32.125  1.00  0.00    -0.332 OA
ATOM     30  C   UNL     1      21.558   3.051  33.456  1.00  0.00     0.180 C 
ATOM     31  C   UNL     1      23.193   2.280  31.689  1.00  0.00     0.179 C 
ATOM     32  C   UNL     1      22.274   1.829  32.852  1.00  0.00     0.177 C 
BRANCH  28  33
ATOM     33  O   UNL     1      21.888   5.341  34.123  1.00  0.00    -0.384 OA
ATOM     34  H   UNL     1      22.021   5.472  35.103  1.00  0.00     0.211 HD
ENDBRANCH  28  33
BRANCH  30  35
ATOM     35  O   UNL     1      20.587   3.532  32.561  1.00  0.00    -0.387 OA
ATOM     36  H   UNL     1      20.840   3.209  31.652  1.00  0.00     0.211 HD
ENDBRANCH  30  35
BRANCH  31  37
ATOM     37  C   UNL     1      23.931   1.095  31.043  1.00  0.00     0.191 C 
BRANCH  37  38
ATOM     38  O   UNL     1      25.242   1.003  31.535  1.00  0.00    -0.394 OA
ATOM     39  H   UNL     1      25.498   1.919  31.821  1.00  0.00     0.210 HD
ENDBRANCH  37  38
ENDBRANCH  31  37
BRANCH  32  40
ATOM     40  O   UNL     1      22.969   1.118  33.846  1.00  0.00    -0.387 OA
ATOM     41  H   UNL     1      23.523   0.415  33.402  1.00  0.00     0.211 HD
ENDBRANCH  32  40
ENDBRANCH   1  27
TORSDOF 12
ENDMDL
MODEL 6
REMARK VINA RESULT:    -5.173     15.805     18.436
REMARK INTER + INTRA:          -9.464
REMARK INTER:                  -7.546
REMARK INTRA:                  -1.918
REMARK UNBOUND:                -1.872
REMARK SMILES O=c1c(O[C@@H]2O[C@@H](CO)[C@@H](O)[C@H](O)[C@@H]2O)c(-c2ccc(O)c(O)c2)oc2cc(O)cc(O)c12
REMARK SMILES IDX 4 1 3 2 16 3 25 4 2 5 26 6 1 7 33 8 27 9 31 10 28 11 30 12
REMARK SMILES IDX 17 13 18 14 19 15 20 16 24 17 22 18 21 19 23 21 32 23 29 25
REMARK SMILES IDX 5 27 14 28 6 29 12 30 7 31 10 32 15 33 13 35 8 37 9 38 11 40
REMARK H PARENT 21 20 23 22 32 24 29 26 15 34 13 36 9 39 11 41
REMARK Flexibility Score: inf
ROOT
ATOM      1  O   UNL     1      22.104   6.484  31.440  1.00  0.00    -0.454 OA
ENDROOT
BRANCH   1   2
ATOM      2  C   UNL     1      22.678   7.688  30.993  1.00  0.00     0.214 A 
ATOM      3  C   UNL     1      23.603   7.636  29.934  1.00  0.00     0.180 A 
ATOM      4  O   UNL     1      24.088   8.757  29.410  1.00  0.00    -0.452 OA
ATOM      5  C   UNL     1      22.344   8.951  31.531  1.00  0.00     0.239 A 
ATOM      6  C   UNL     1      23.771   9.965  29.861  1.00  0.00     0.146 A 
ATOM      7  O   UNL     1      21.571   9.034  32.525  1.00  0.00    -0.285 OA
ATOM      8  C   UNL     1      22.891  10.117  30.958  1.00  0.00     0.111 A 
ATOM      9  C   UNL     1      24.322  11.088  29.236  1.00  0.00     0.094 A 
ATOM     10  C   UNL     1      22.593  11.423  31.425  1.00  0.00     0.134 A 
ATOM     11  C   UNL     1      24.010  12.370  29.683  1.00  0.00     0.123 A 
ATOM     12  C   UNL     1      23.156  12.535  30.781  1.00  0.00     0.093 A 
BRANCH   3  13
ATOM     13  C   UNL     1      24.029   6.354  29.335  1.00  0.00     0.025 A 
ATOM     14  C   UNL     1      23.213   5.738  28.378  1.00  0.00     0.016 A 
ATOM     15  C   UNL     1      23.591   4.523  27.803  1.00  0.00     0.051 A 
ATOM     16  C   UNL     1      24.799   3.915  28.164  1.00  0.00     0.157 A 
ATOM     17  C   UNL     1      25.250   5.752  29.688  1.00  0.00     0.062 A 
ATOM     18  C   UNL     1      25.633   4.535  29.105  1.00  0.00     0.158 A 
BRANCH  16  19
ATOM     19  O   UNL     1      25.152   2.704  27.570  1.00  0.00    -0.504 OA
ATOM     20  H   UNL     1      25.683   2.664  26.708  1.00  0.00     0.293 HD
ENDBRANCH  16  19
BRANCH  18  21
ATOM     21  O   UNL     1      26.838   3.933  29.465  1.00  0.00    -0.504 OA
ATOM     22  H   UNL     1      27.252   4.061  30.377  1.00  0.00     0.293 HD
ENDBRANCH  18  21
ENDBRANCH   3  13
BRANCH  10  23
ATOM     23  O   UNL     1      21.745  11.627  32.521  1.00  0.00    -0.507 OA
ATOM     24  H   UNL     1      21.062  10.930  32.804  1.00  0.00     0.293 HD
ENDBRANCH  10  23
BRANCH  11  25
ATOM     25  O   UNL     1      24.551  13.478  29.037  1.00  0.00    -0.508 OA
ATOM     26  H   UNL     1      24.397  14.415  29.380  1.00  0.00     0.293 HD
ENDBRANCH  11  25
ENDBRANCH   1   2
BRANCH   1  27
ATOM     27  C   UNL     1      22.620   5.631  32.464  1.00  0.00     0.339 C 
ATOM     28  C   UNL     1      21.577   5.445  33.585  1.00  0.00     0.214 C 
ATOM     29  O   UNL     1      23.051   4.386  31.935  1.00  0.00    -0.332 OA
ATOM     30  C   UNL     1      20.398   4.574  33.119  1.00  0.00     0.180 C 
ATOM     31  C   UNL     1      21.973   3.663  31.364  1.00  0.00     0.179 C 
ATOM     32  C   UNL     1      20.914   3.295  32.434  1.00  0.00     0.177 C 
BRANCH  28  33
ATOM     33  O   UNL     1      21.100   6.694  34.018  1.00  0.00    -0.384 OA
ATOM     34  H   UNL     1      20.590   7.092  33.256  1.00  0.00     0.211 HD
ENDBRANCH  28  33
BRANCH  30  35
ATOM     35  O   UNL     1      19.591   5.304  32.230  1.00  0.00    -0.387 OA
ATOM     36  H   UNL     1      19.526   6.233  32.588  1.00  0.00     0.211 HD
ENDBRANCH  30  35
BRANCH  31  37
ATOM     37  C   UNL     1      22.520   2.420  30.643  1.00  0.00     0.191 C 
BRANCH  37  38
ATOM     38  O   UNL     1      21.489   1.501  30.391  1.00  0.00    -0.394 OA
ATOM     39  H   UNL     1      21.931   0.643  30.153  1.00  0.00     0.210 HD
ENDBRANCH  37  38
ENDBRANCH  31  37
BRANCH  32  40
ATOM     40  O   UNL     1      21.402   2.383  33.387  1.00  0.00    -0.387 OA
ATOM     41  H   UNL     1      21.390   1.468  32.983  1.00  0.00     0.211 HD
ENDBRANCH  32  40
ENDBRANCH   1  27
TORSDOF 12
ENDMDL
MODEL 7
REMARK VINA RESULT:    -5.104     13.348     15.195
REMARK INTER + INTRA:          -9.363
REMARK INTER:                  -7.371
REMARK INTRA:                  -1.992
REMARK UNBOUND:                -1.872
REMARK SMILES O=c1c(O[C@@H]2O[C@@H](CO)[C@@H](O)[C@H](O)[C@@H]2O)c(-c2ccc(O)c(O)c2)oc2cc(O)cc(O)c12
REMARK SMILES IDX 4 1 3 2 16 3 25 4 2 5 26 6 1 7 33 8 27 9 31 10 28 11 30 12
REMARK SMILES IDX 17 13 18 14 19 15 20 16 24 17 22 18 21 19 23 21 32 23 29 25
REMARK SMILES IDX 5 27 14 28 6 29 12 30 7 31 10 32 15 33 13 35 8 37 9 38 11 40
REMARK H PARENT 21 20 23 22 32 24 29 26 15 34 13 36 9 39 11 41
REMARK Flexibility Score: inf
ROOT
ATOM      1  O   UNL     1      23.541  17.757  27.667  1.00  0.00    -0.454 OA
ENDROOT
BRANCH   1   2
ATOM      2  C   UNL     1      22.193  18.157  27.713  1.00  0.00     0.214 A 
ATOM      3  C   UNL     1      21.697  18.959  26.668  1.00  0.00     0.180 A 
ATOM      4  O   UNL     1      20.406  19.270  26.616  1.00  0.00    -0.452 OA
ATOM      5  C   UNL     1      21.303  17.764  28.738  1.00  0.00     0.239 A 
ATOM      6  C   UNL     1      19.529  18.890  27.537  1.00  0.00     0.146 A 
ATOM      7  O   UNL     1      21.725  17.104  29.726  1.00  0.00    -0.285 OA
ATOM      8  C   UNL     1      19.944  18.128  28.655  1.00  0.00     0.111 A 
ATOM      9  C   UNL     1      18.188  19.256  27.389  1.00  0.00     0.094 A 
ATOM     10  C   UNL     1      18.982  17.759  29.631  1.00  0.00     0.134 A 
ATOM     11  C   UNL     1      17.242  18.873  28.338  1.00  0.00     0.123 A 
ATOM     12  C   UNL     1      17.642  18.135  29.460  1.00  0.00     0.093 A 
BRANCH   3  13
ATOM     13  C   UNL     1      22.567  19.437  25.573  1.00  0.00     0.025 A 
ATOM     14  C   UNL     1      23.251  20.650  25.719  1.00  0.00     0.016 A 
ATOM     15  C   UNL     1      24.074  21.125  24.696  1.00  0.00     0.051 A 
ATOM     16  C   UNL     1      24.239  20.385  23.520  1.00  0.00     0.157 A 
ATOM     17  C   UNL     1      22.744  18.684  24.398  1.00  0.00     0.062 A 
ATOM     18  C   UNL     1      23.577  19.158  23.374  1.00  0.00     0.158 A 
BRANCH  16  19
ATOM     19  O   UNL     1      25.070  20.883  22.517  1.00  0.00    -0.504 OA
ATOM     20  H   UNL     1      25.539  21.777  22.604  1.00  0.00     0.293 HD
ENDBRANCH  16  19
BRANCH  18  21
ATOM     21  O   UNL     1      23.740  18.417  22.203  1.00  0.00    -0.504 OA
ATOM     22  H   UNL     1      23.698  17.409  22.195  1.00  0.00     0.293 HD
ENDBRANCH  18  21
ENDBRANCH   3  13
BRANCH  10  23
ATOM     23  O   UNL     1      19.344  17.024  30.767  1.00  0.00    -0.507 OA
ATOM     24  H   UNL     1      20.267  16.609  30.861  1.00  0.00     0.293 HD
ENDBRANCH  10  23
BRANCH  11  25
ATOM     25  O   UNL     1      15.908  19.228  28.165  1.00  0.00    -0.508 OA
ATOM     26  H   UNL     1      15.169  18.540  28.209  1.00  0.00     0.293 HD
ENDBRANCH  11  25
ENDBRANCH   1   2
BRANCH   1  27
ATOM     27  C   UNL     1      24.627  18.368  28.365  1.00  0.00     0.339 C 
ATOM     28  C   UNL     1      25.357  17.328  29.241  1.00  0.00     0.214 C 
ATOM     29  O   UNL     1      25.518  19.020  27.472  1.00  0.00    -0.332 OA
ATOM     30  C   UNL     1      26.153  16.329  28.385  1.00  0.00     0.180 C 
ATOM     31  C   UNL     1      26.126  18.099  26.581  1.00  0.00     0.179 C 
ATOM     32  C   UNL     1      27.006  17.077  27.342  1.00  0.00     0.177 C 
BRANCH  28  33
ATOM     33  O   UNL     1      24.434  16.634  30.042  1.00  0.00    -0.384 OA
ATOM     34  H   UNL     1      24.426  17.083  30.934  1.00  0.00     0.211 HD
ENDBRANCH  28  33
BRANCH  30  35
ATOM     35  O   UNL     1      25.270  15.447  27.741  1.00  0.00    -0.387 OA
ATOM     36  H   UNL     1      25.242  15.709  26.779  1.00  0.00     0.211 HD
ENDBRANCH  30  35
BRANCH  31  37
ATOM     37  C   UNL     1      26.927  18.873  25.520  1.00  0.00     0.191 C 
BRANCH  37  38
ATOM     38  O   UNL     1      27.529  20.008  26.086  1.00  0.00    -0.394 OA
ATOM     39  H   UNL     1      27.159  20.091  27.004  1.00  0.00     0.210 HD
ENDBRANCH  37  38
ENDBRANCH  31  37
BRANCH  32  40
ATOM     40  O   UNL     1      28.125  17.673  27.950  1.00  0.00    -0.387 OA
ATOM     41  H   UNL     1      28.563  16.993  28.538  1.00  0.00     0.211 HD
ENDBRANCH  32  40
ENDBRANCH   1  27
TORSDOF 12
ENDMDL
MODEL 8
REMARK VINA RESULT:    -4.918     16.142     18.068
REMARK INTER + INTRA:          -9.090
REMARK INTER:                  -7.141
REMARK INTRA:                  -1.949
REMARK UNBOUND:                -1.872
REMARK SMILES O=c1c(O[C@@H]2O[C@@H](CO)[C@@H](O)[C@H](O)[C@@H]2O)c(-c2ccc(O)c(O)c2)oc2cc(O)cc(O)c12
REMARK SMILES IDX 4 1 3 2 16 3 25 4 2 5 26 6 1 7 33 8 27 9 31 10 28 11 30 12
REMARK SMILES IDX 17 13 18 14 19 15 20 16 24 17 22 18 21 19 23 21 32 23 29 25
REMARK SMILES IDX 5 27 14 28 6 29 12 30 7 31 10 32 15 33 13 35 8 37 9 38 11 40
REMARK H PARENT 21 20 23 22 32 24 29 26 15 34 13 36 9 39 11 41
REMARK Flexibility Score: inf
ROOT
ATOM      1  O   UNL     1      22.873   5.800  31.239  1.00  0.00    -0.454 OA
ENDROOT
BRANCH   1   2
ATOM      2  C   UNL     1      23.296   5.049  30.126  1.00  0.00     0.214 A 
ATOM      3  C   UNL     1      24.118   5.674  29.170  1.00  0.00     0.180 A 
ATOM      4  O   UNL     1      24.626   4.973  28.162  1.00  0.00    -0.452 OA
ATOM      5  C   UNL     1      22.965   3.688  29.941  1.00  0.00     0.239 A 
ATOM      6  C   UNL     1      24.372   3.684  27.972  1.00  0.00     0.146 A 
ATOM      7  O   UNL     1      22.177   3.111  30.739  1.00  0.00    -0.285 OA
ATOM      8  C   UNL     1      23.513   2.983  28.850  1.00  0.00     0.111 A 
ATOM      9  C   UNL     1      24.965   3.029  26.889  1.00  0.00     0.094 A 
ATOM     10  C   UNL     1      23.248   1.611  28.602  1.00  0.00     0.134 A 
ATOM     11  C   UNL     1      24.719   1.676  26.662  1.00  0.00     0.123 A 
ATOM     12  C   UNL     1      23.855   0.974  27.511  1.00  0.00     0.093 A 
BRANCH   3  13
ATOM     13  C   UNL     1      24.486   7.102  29.274  1.00  0.00     0.025 A 
ATOM     14  C   UNL     1      25.674   7.460  29.922  1.00  0.00     0.016 A 
ATOM     15  C   UNL     1      26.039   8.802  30.038  1.00  0.00     0.051 A 
ATOM     16  C   UNL     1      25.229   9.806  29.493  1.00  0.00     0.157 A 
ATOM     17  C   UNL     1      23.678   8.107  28.712  1.00  0.00     0.062 A 
ATOM     18  C   UNL     1      24.049   9.456  28.823  1.00  0.00     0.158 A 
BRANCH  16  19
ATOM     19  O   UNL     1      25.621  11.137  29.621  1.00  0.00    -0.504 OA
ATOM     20  H   UNL     1      26.539  11.395  29.965  1.00  0.00     0.293 HD
ENDBRANCH  16  19
BRANCH  18  21
ATOM     21  O   UNL     1      23.241  10.452  28.276  1.00  0.00    -0.504 OA
ATOM     22  H   UNL     1      23.346  11.426  28.522  1.00  0.00     0.293 HD
ENDBRANCH  18  21
ENDBRANCH   3  13
BRANCH  10  23
ATOM     23  O   UNL     1      22.387   0.877  29.428  1.00  0.00    -0.507 OA
ATOM     24  H   UNL     1      22.093   1.225  30.337  1.00  0.00     0.293 HD
ENDBRANCH  10  23
BRANCH  11  25
ATOM     25  O   UNL     1      25.334   1.034  25.591  1.00  0.00    -0.508 OA
ATOM     26  H   UNL     1      26.334   1.077  25.454  1.00  0.00     0.293 HD
ENDBRANCH  11  25
ENDBRANCH   1   2
BRANCH   1  27
ATOM     27  C   UNL     1      21.573   6.358  31.436  1.00  0.00     0.339 C 
ATOM     28  C   UNL     1      20.959   5.839  32.752  1.00  0.00     0.214 C 
ATOM     29  O   UNL     1      21.604   7.777  31.395  1.00  0.00    -0.332 OA
ATOM     30  C   UNL     1      21.666   6.438  33.980  1.00  0.00     0.180 C 
ATOM     31  C   UNL     1      22.395   8.310  32.445  1.00  0.00     0.179 C 
ATOM     32  C   UNL     1      21.794   7.966  33.831  1.00  0.00     0.177 C 
BRANCH  28  33
ATOM     33  O   UNL     1      21.032   4.436  32.803  1.00  0.00    -0.384 OA
ATOM     34  H   UNL     1      20.573   4.090  31.987  1.00  0.00     0.211 HD
ENDBRANCH  28  33
BRANCH  30  35
ATOM     35  O   UNL     1      22.938   5.860  34.124  1.00  0.00    -0.387 OA
ATOM     36  H   UNL     1      23.435   6.029  33.276  1.00  0.00     0.211 HD
ENDBRANCH  30  35
BRANCH  31  37
ATOM     37  C   UNL     1      22.552   9.827  32.244  1.00  0.00     0.191 C 
BRANCH  37  38
ATOM     38  O   UNL     1      22.692  10.477  33.480  1.00  0.00    -0.394 OA
ATOM     39  H   UNL     1      22.401   9.827  34.172  1.00  0.00     0.210 HD
ENDBRANCH  37  38
ENDBRANCH  31  37
BRANCH  32  40
ATOM     40  O   UNL     1      20.556   8.593  34.055  1.00  0.00    -0.387 OA
ATOM     41  H   UNL     1      20.717   9.571  34.186  1.00  0.00     0.211 HD
ENDBRANCH  32  40
ENDBRANCH   1  27
TORSDOF 12
ENDMDL
