MODEL 1
REMARK VINA RESULT:    -5.126      0.000      0.000
REMARK INTER + INTRA:          -9.490
REMARK INTER:                  -7.673
REMARK INTRA:                  -1.818
REMARK UNBOUND:                -1.818
REMARK SMILES COC(=O)C1=CO[C@H](O[C@@H]2O[C@H](CO)[C@H](O)[C@H](O)[C@H]2O)[C@H]2C(CO)=CC[C@@H]12
REMARK SMILES IDX 9 1 8 2 5 3 6 4 27 5 7 6 21 7 26 8 22 9 25 10 3 11 4 12 2 13
REMARK SMILES IDX 1 14 23 15 24 16 10 18 19 19 11 20 17 21 12 22 15 23 20 24
REMARK SMILES IDX 18 26 13 28 14 29 16 31
REMARK H PARENT 24 17 20 25 18 27 14 30 16 32
REMARK Flexibility Score: inf
ROOT
ATOM      1  O   UNL     1      13.181  53.198  20.135  1.00  0.00    -0.310 OA
ENDROOT
BRANCH   1   2
ATOM      2  C   UNL     1      12.102  52.569  19.466  1.00  0.00     0.316 C 
ATOM      3  C   UNL     1      10.898  51.770  21.923  1.00  0.00     0.076 C 
ATOM      4  C   UNL     1      11.595  50.891  21.186  1.00  0.00     0.202 C 
ATOM      5  C   UNL     1      10.368  53.065  21.303  1.00  0.00     0.047 C 
ATOM      6  O   UNL     1      12.000  51.211  19.890  1.00  0.00    -0.471 OA
ATOM      7  C   UNL     1      10.812  53.316  19.836  1.00  0.00     0.094 C 
ATOM      8  C   UNL     1       8.829  53.023  21.222  1.00  0.00     0.037 C 
ATOM      9  C   UNL     1       9.620  52.905  19.028  1.00  0.00    -0.039 C 
ATOM     10  C   UNL     1       8.540  52.782  19.786  1.00  0.00    -0.024 C 
BRANCH   3  11
ATOM     11  C   UNL     1      10.593  51.476  23.344  1.00  0.00     0.337 C 
ATOM     12  O   UNL     1      11.175  52.112  24.268  1.00  0.00    -0.246 OA
BRANCH  11  13
ATOM     13  O   UNL     1       9.644  50.490  23.654  1.00  0.00    -0.466 OA
ATOM     14  C   UNL     1       8.393  50.791  24.266  1.00  0.00     0.282 C 
ENDBRANCH  11  13
ENDBRANCH   3  11
BRANCH   9  15
ATOM     15  C   UNL     1       9.554  52.930  17.525  1.00  0.00     0.187 C 
BRANCH  15  16
ATOM     16  O   UNL     1       8.450  53.686  17.117  1.00  0.00    -0.392 OA
ATOM     17  H   UNL     1       8.700  54.131  16.253  1.00  0.00     0.211 HD
ENDBRANCH  15  16
ENDBRANCH   9  15
ENDBRANCH   1   2
BRANCH   1  18
ATOM     18  C   UNL     1      14.402  53.053  19.428  1.00  0.00     0.286 C 
ATOM     19  C   UNL     1      15.139  54.404  19.314  1.00  0.00     0.202 C 
ATOM     20  O   UNL     1      15.212  52.070  20.048  1.00  0.00    -0.341 OA
ATOM     21  C   UNL     1      15.578  54.915  20.697  1.00  0.00     0.179 C 
ATOM     22  C   UNL     1      15.651  52.410  21.356  1.00  0.00     0.178 C 
ATOM     23  C   UNL     1      16.331  53.810  21.462  1.00  0.00     0.177 C 
BRANCH  19  24
ATOM     24  O   UNL     1      16.244  54.310  18.447  1.00  0.00    -0.385 OA
ATOM     25  H   UNL     1      16.302  55.147  17.918  1.00  0.00     0.211 HD
ENDBRANCH  19  24
BRANCH  21  26
ATOM     26  O   UNL     1      14.483  55.370  21.457  1.00  0.00    -0.387 OA
ATOM     27  H   UNL     1      13.897  54.582  21.645  1.00  0.00     0.211 HD
ENDBRANCH  21  26
BRANCH  22  28
ATOM     28  C   UNL     1      14.597  52.064  22.441  1.00  0.00     0.191 C 
BRANCH  28  29
ATOM     29  O   UNL     1      13.916  53.198  22.903  1.00  0.00    -0.394 OA
ATOM     30  H   UNL     1      13.406  53.554  22.130  1.00  0.00     0.210 HD
ENDBRANCH  28  29
ENDBRANCH  22  28
BRANCH  23  31
ATOM     31  O   UNL     1      16.502  54.161  22.808  1.00  0.00    -0.387 OA
ATOM     32  H   UNL     1      15.613  54.063  23.252  1.00  0.00     0.211 HD
ENDBRANCH  23  31
ENDBRANCH   1  18
TORSDOF 11
ENDMDL
MODEL 2
REMARK VINA RESULT:    -4.930      1.746      6.652
REMARK INTER + INTRA:          -9.197
REMARK INTER:                  -7.444
REMARK INTRA:                  -1.753
REMARK UNBOUND:                -1.818
REMARK SMILES COC(=O)C1=CO[C@H](O[C@@H]2O[C@H](CO)[C@H](O)[C@H](O)[C@H]2O)[C@H]2C(CO)=CC[C@@H]12
REMARK SMILES IDX 9 1 8 2 5 3 6 4 27 5 7 6 21 7 26 8 22 9 25 10 3 11 4 12 2 13
REMARK SMILES IDX 1 14 23 15 24 16 10 18 19 19 11 20 17 21 12 22 15 23 20 24
REMARK SMILES IDX 18 26 13 28 14 29 16 31
REMARK H PARENT 24 17 20 25 18 27 14 30 16 32
REMARK Flexibility Score: inf
ROOT
ATOM      1  O   UNL     1      12.491  52.223  21.216  1.00  0.00    -0.310 OA
ENDROOT
BRANCH   1   2
ATOM      2  C   UNL     1      13.619  51.618  21.824  1.00  0.00     0.316 C 
ATOM      3  C   UNL     1      15.417  53.432  20.558  1.00  0.00     0.076 C 
ATOM      4  C   UNL     1      15.261  52.183  20.088  1.00  0.00     0.202 C 
ATOM      5  C   UNL     1      14.991  53.789  21.984  1.00  0.00     0.047 C 
ATOM      6  O   UNL     1      14.555  51.229  20.821  1.00  0.00    -0.471 OA
ATOM      7  C   UNL     1      14.269  52.651  22.755  1.00  0.00     0.094 C 
ATOM      8  C   UNL     1      16.232  54.092  22.847  1.00  0.00     0.037 C 
ATOM      9  C   UNL     1      15.339  52.084  23.637  1.00  0.00    -0.039 C 
ATOM     10  C   UNL     1      16.387  52.891  23.707  1.00  0.00    -0.024 C 
BRANCH   3  11
ATOM     11  C   UNL     1      16.046  54.474  19.713  1.00  0.00     0.337 C 
ATOM     12  O   UNL     1      17.282  54.425  19.450  1.00  0.00    -0.246 OA
BRANCH  11  13
ATOM     13  O   UNL     1      15.256  55.513  19.199  1.00  0.00    -0.466 OA
ATOM     14  C   UNL     1      14.983  55.657  17.808  1.00  0.00     0.282 C 
ENDBRANCH  11  13
ENDBRANCH   3  11
BRANCH   9  15
ATOM     15  C   UNL     1      15.150  50.922  24.573  1.00  0.00     0.187 C 
BRANCH  15  16
ATOM     16  O   UNL     1      15.978  49.864  24.181  1.00  0.00    -0.392 OA
ATOM     17  H   UNL     1      16.001  49.209  24.941  1.00  0.00     0.211 HD
ENDBRANCH  15  16
ENDBRANCH   9  15
ENDBRANCH   1   2
BRANCH   1  18
ATOM     18  C   UNL     1      11.333  51.411  21.315  1.00  0.00     0.286 C 
ATOM     19  C   UNL     1      10.104  52.248  21.728  1.00  0.00     0.202 C 
ATOM     20  O   UNL     1      11.109  50.727  20.095  1.00  0.00    -0.341 OA
ATOM     21  C   UNL     1       9.738  53.272  20.639  1.00  0.00     0.179 C 
ATOM     22  C   UNL     1      10.800  51.572  18.995  1.00  0.00     0.178 C 
ATOM     23  C   UNL     1       9.640  52.580  19.265  1.00  0.00     0.177 C 
BRANCH  19  24
ATOM     24  O   UNL     1       9.001  51.424  22.024  1.00  0.00    -0.385 OA
ATOM     25  H   UNL     1       8.960  51.293  23.005  1.00  0.00     0.211 HD
ENDBRANCH  19  24
BRANCH  21  26
ATOM     26  O   UNL     1      10.667  54.328  20.583  1.00  0.00    -0.387 OA
ATOM     27  H   UNL     1      11.078  54.323  19.672  1.00  0.00     0.211 HD
ENDBRANCH  21  26
BRANCH  22  28
ATOM     28  C   UNL     1      12.071  52.141  18.313  1.00  0.00     0.191 C 
BRANCH  28  29
ATOM     29  O   UNL     1      12.277  53.494  18.613  1.00  0.00    -0.394 OA
ATOM     30  H   UNL     1      11.819  53.664  19.477  1.00  0.00     0.210 HD
ENDBRANCH  28  29
ENDBRANCH  22  28
BRANCH  23  31
ATOM     31  O   UNL     1       9.573  53.525  18.233  1.00  0.00    -0.387 OA
ATOM     32  H   UNL     1       8.788  54.113  18.425  1.00  0.00     0.211 HD
ENDBRANCH  23  31
ENDBRANCH   1  18
TORSDOF 11
ENDMDL
MODEL 3
REMARK VINA RESULT:    -4.780      2.311      6.614
REMARK INTER + INTRA:          -8.973
REMARK INTER:                  -7.202
REMARK INTRA:                  -1.771
REMARK UNBOUND:                -1.818
REMARK SMILES COC(=O)C1=CO[C@H](O[C@@H]2O[C@H](CO)[C@H](O)[C@H](O)[C@H]2O)[C@H]2C(CO)=CC[C@@H]12
REMARK SMILES IDX 9 1 8 2 5 3 6 4 27 5 7 6 21 7 26 8 22 9 25 10 3 11 4 12 2 13
REMARK SMILES IDX 1 14 23 15 24 16 10 18 19 19 11 20 17 21 12 22 15 23 20 24
REMARK SMILES IDX 18 26 13 28 14 29 16 31
REMARK H PARENT 24 17 20 25 18 27 14 30 16 32
REMARK Flexibility Score: inf
ROOT
ATOM      1  O   UNL     1      13.493  52.058  21.076  1.00  0.00    -0.310 OA
ENDROOT
BRANCH   1   2
ATOM      2  C   UNL     1      14.396  51.394  21.943  1.00  0.00     0.316 C 
ATOM      3  C   UNL     1      16.532  53.147  21.245  1.00  0.00     0.076 C 
ATOM      4  C   UNL     1      16.459  51.914  20.717  1.00  0.00     0.202 C 
ATOM      5  C   UNL     1      15.759  53.499  22.518  1.00  0.00     0.047 C 
ATOM      6  O   UNL     1      15.548  50.981  21.212  1.00  0.00    -0.471 OA
ATOM      7  C   UNL     1      14.817  52.382  23.040  1.00  0.00     0.094 C 
ATOM      8  C   UNL     1      16.739  53.733  23.685  1.00  0.00     0.037 C 
ATOM      9  C   UNL     1      15.592  51.754  24.157  1.00  0.00    -0.039 C 
ATOM     10  C   UNL     1      16.615  52.513  24.522  1.00  0.00    -0.024 C 
BRANCH   3  11
ATOM     11  C   UNL     1      17.402  54.174  20.624  1.00  0.00     0.337 C 
ATOM     12  O   UNL     1      18.660  54.091  20.720  1.00  0.00    -0.246 OA
BRANCH  11  13
ATOM     13  O   UNL     1      16.817  55.237  19.920  1.00  0.00    -0.466 OA
ATOM     14  C   UNL     1      16.545  56.501  20.518  1.00  0.00     0.282 C 
ENDBRANCH  11  13
ENDBRANCH   3  11
BRANCH   9  15
ATOM     15  C   UNL     1      15.119  50.586  24.978  1.00  0.00     0.187 C 
BRANCH  15  16
ATOM     16  O   UNL     1      15.961  49.490  24.765  1.00  0.00    -0.392 OA
ATOM     17  H   UNL     1      16.567  49.423  25.562  1.00  0.00     0.211 HD
ENDBRANCH  15  16
ENDBRANCH   9  15
ENDBRANCH   1   2
BRANCH   1  18
ATOM     18  C   UNL     1      13.020  51.205  20.046  1.00  0.00     0.286 C 
ATOM     19  C   UNL     1      11.484  51.074  20.098  1.00  0.00     0.202 C 
ATOM     20  O   UNL     1      13.459  51.675  18.783  1.00  0.00    -0.341 OA
ATOM     21  C   UNL     1      10.801  52.421  19.798  1.00  0.00     0.179 C 
ATOM     22  C   UNL     1      12.927  52.937  18.408  1.00  0.00     0.178 C 
ATOM     23  C   UNL     1      11.373  53.034  18.505  1.00  0.00     0.177 C 
BRANCH  19  24
ATOM     24  O   UNL     1      11.026  50.079  19.213  1.00  0.00    -0.385 OA
ATOM     25  H   UNL     1      10.036  50.109  19.190  1.00  0.00     0.211 HD
ENDBRANCH  19  24
BRANCH  21  26
ATOM     26  O   UNL     1      10.943  53.327  20.867  1.00  0.00    -0.387 OA
ATOM     27  H   UNL     1      11.078  54.237  20.476  1.00  0.00     0.211 HD
ENDBRANCH  21  26
BRANCH  22  28
ATOM     28  C   UNL     1      13.736  54.119  19.002  1.00  0.00     0.191 C 
BRANCH  28  29
ATOM     29  O   UNL     1      13.187  54.592  20.201  1.00  0.00    -0.394 OA
ATOM     30  H   UNL     1      13.105  55.576  20.105  1.00  0.00     0.210 HD
ENDBRANCH  28  29
ENDBRANCH  22  28
BRANCH  23  31
ATOM     31  O   UNL     1      10.963  54.366  18.360  1.00  0.00    -0.387 OA
ATOM     32  H   UNL     1      10.144  54.360  17.788  1.00  0.00     0.211 HD
ENDBRANCH  23  31
ENDBRANCH   1  18
TORSDOF 11
ENDMDL
MODEL 4
REMARK VINA RESULT:    -4.685      1.691      6.709
REMARK INTER + INTRA:          -8.830
REMARK INTER:                  -7.094
REMARK INTRA:                  -1.737
REMARK UNBOUND:                -1.818
REMARK SMILES COC(=O)C1=CO[C@H](O[C@@H]2O[C@H](CO)[C@H](O)[C@H](O)[C@H]2O)[C@H]2C(CO)=CC[C@@H]12
REMARK SMILES IDX 9 1 8 2 5 3 6 4 27 5 7 6 21 7 26 8 22 9 25 10 3 11 4 12 2 13
REMARK SMILES IDX 1 14 23 15 24 16 10 18 19 19 11 20 17 21 12 22 15 23 20 24
REMARK SMILES IDX 18 26 13 28 14 29 16 31
REMARK H PARENT 24 17 20 25 18 27 14 30 16 32
REMARK Flexibility Score: inf
ROOT
ATOM      1  O   UNL     1      12.700  52.597  20.837  1.00  0.00    -0.310 OA
ENDROOT
BRANCH   1   2
ATOM      2  C   UNL     1      13.993  52.323  21.347  1.00  0.00     0.316 C 
ATOM      3  C   UNL     1      15.200  54.260  19.639  1.00  0.00     0.076 C 
ATOM      4  C   UNL     1      15.267  52.952  19.343  1.00  0.00     0.202 C 
ATOM      5  C   UNL     1      14.871  54.725  21.059  1.00  0.00     0.047 C 
ATOM      6  O   UNL     1      14.872  51.990  20.274  1.00  0.00    -0.471 OA
ATOM      7  C   UNL     1      14.505  53.587  22.051  1.00  0.00     0.094 C 
ATOM      8  C   UNL     1      16.106  55.390  21.698  1.00  0.00     0.037 C 
ATOM      9  C   UNL     1      15.765  53.378  22.834  1.00  0.00    -0.039 C 
ATOM     10  C   UNL     1      16.615  54.380  22.661  1.00  0.00    -0.024 C 
BRANCH   3  11
ATOM     11  C   UNL     1      15.488  55.275  18.598  1.00  0.00     0.337 C 
ATOM     12  O   UNL     1      16.682  55.565  18.301  1.00  0.00    -0.246 OA
BRANCH  11  13
ATOM     13  O   UNL     1      14.423  55.907  17.939  1.00  0.00    -0.466 OA
ATOM     14  C   UNL     1      14.113  55.665  16.569  1.00  0.00     0.282 C 
ENDBRANCH  11  13
ENDBRANCH   3  11
BRANCH   9  15
ATOM     15  C   UNL     1      15.940  52.347  23.915  1.00  0.00     0.187 C 
BRANCH  15  16
ATOM     16  O   UNL     1      14.849  52.395  24.789  1.00  0.00    -0.392 OA
ATOM     17  H   UNL     1      14.602  53.361  24.902  1.00  0.00     0.211 HD
ENDBRANCH  15  16
ENDBRANCH   9  15
ENDBRANCH   1   2
BRANCH   1  18
ATOM     18  C   UNL     1      11.780  51.559  21.135  1.00  0.00     0.286 C 
ATOM     19  C   UNL     1      10.512  52.121  21.812  1.00  0.00     0.202 C 
ATOM     20  O   UNL     1      11.463  50.835  19.959  1.00  0.00    -0.341 OA
ATOM     21  C   UNL     1       9.731  53.037  20.855  1.00  0.00     0.179 C 
ATOM     22  C   UNL     1      10.770  51.588  18.973  1.00  0.00     0.178 C 
ATOM     23  C   UNL     1       9.505  52.330  19.504  1.00  0.00     0.177 C 
BRANCH  19  24
ATOM     24  O   UNL     1       9.688  51.084  22.291  1.00  0.00    -0.385 OA
ATOM     25  H   UNL     1      10.219  50.248  22.321  1.00  0.00     0.211 HD
ENDBRANCH  19  24
BRANCH  21  26
ATOM     26  O   UNL     1      10.389  54.265  20.654  1.00  0.00    -0.387 OA
ATOM     27  H   UNL     1      10.332  54.782  21.507  1.00  0.00     0.211 HD
ENDBRANCH  21  26
BRANCH  22  28
ATOM     28  C   UNL     1      11.732  52.408  18.074  1.00  0.00     0.191 C 
BRANCH  28  29
ATOM     29  O   UNL     1      11.748  53.767  18.412  1.00  0.00    -0.394 OA
ATOM     30  H   UNL     1      11.445  54.262  17.606  1.00  0.00     0.210 HD
ENDBRANCH  28  29
ENDBRANCH  22  28
BRANCH  23  31
ATOM     31  O   UNL     1       9.036  53.233  18.540  1.00  0.00    -0.387 OA
ATOM     32  H   UNL     1       8.053  53.333  18.686  1.00  0.00     0.211 HD
ENDBRANCH  23  31
ENDBRANCH   1  18
TORSDOF 11
ENDMDL
MODEL 5
REMARK VINA RESULT:    -4.680      1.839      5.668
REMARK INTER + INTRA:          -8.823
REMARK INTER:                  -7.848
REMARK INTRA:                  -0.975
REMARK UNBOUND:                -1.818
REMARK SMILES COC(=O)C1=CO[C@H](O[C@@H]2O[C@H](CO)[C@H](O)[C@H](O)[C@H]2O)[C@H]2C(CO)=CC[C@@H]12
REMARK SMILES IDX 9 1 8 2 5 3 6 4 27 5 7 6 21 7 26 8 22 9 25 10 3 11 4 12 2 13
REMARK SMILES IDX 1 14 23 15 24 16 10 18 19 19 11 20 17 21 12 22 15 23 20 24
REMARK SMILES IDX 18 26 13 28 14 29 16 31
REMARK H PARENT 24 17 20 25 18 27 14 30 16 32
REMARK Flexibility Score: inf
ROOT
ATOM      1  O   UNL     1      12.341  53.135  19.773  1.00  0.00    -0.310 OA
ENDROOT
BRANCH   1   2
ATOM      2  C   UNL     1      13.632  53.063  19.192  1.00  0.00     0.316 C 
ATOM      3  C   UNL     1      14.892  52.874  21.742  1.00  0.00     0.076 C 
ATOM      4  C   UNL     1      14.882  54.036  21.069  1.00  0.00     0.202 C 
ATOM      5  C   UNL     1      14.626  51.550  21.021  1.00  0.00     0.047 C 
ATOM      6  O   UNL     1      14.462  54.085  19.740  1.00  0.00    -0.471 OA
ATOM      7  C   UNL     1      14.228  51.689  19.527  1.00  0.00     0.094 C 
ATOM      8  C   UNL     1      15.912  50.700  20.985  1.00  0.00     0.037 C 
ATOM      9  C   UNL     1      15.496  51.382  18.790  1.00  0.00    -0.039 C 
ATOM     10  C   UNL     1      16.392  50.814  19.584  1.00  0.00    -0.024 C 
BRANCH   3  11
ATOM     11  C   UNL     1      15.205  52.853  23.191  1.00  0.00     0.337 C 
ATOM     12  O   UNL     1      16.059  53.652  23.672  1.00  0.00    -0.246 OA
BRANCH  11  13
ATOM     13  O   UNL     1      14.538  51.945  24.026  1.00  0.00    -0.466 OA
ATOM     14  C   UNL     1      13.171  52.100  24.397  1.00  0.00     0.282 C 
ENDBRANCH  11  13
ENDBRANCH   3  11
BRANCH   9  15
ATOM     15  C   UNL     1      15.646  51.412  17.294  1.00  0.00     0.187 C 
BRANCH  15  16
ATOM     16  O   UNL     1      14.596  50.700  16.703  1.00  0.00    -0.392 OA
ATOM     17  H   UNL     1      14.783  50.661  15.718  1.00  0.00     0.211 HD
ENDBRANCH  15  16
ENDBRANCH   9  15
ENDBRANCH   1   2
BRANCH   1  18
ATOM     18  C   UNL     1      11.840  51.854  20.116  1.00  0.00     0.286 C 
ATOM     19  C   UNL     1      11.015  51.912  21.419  1.00  0.00     0.202 C 
ATOM     20  O   UNL     1      11.080  51.323  19.044  1.00  0.00    -0.341 OA
ATOM     21  C   UNL     1       9.746  52.762  21.235  1.00  0.00     0.179 C 
ATOM     22  C   UNL     1       9.895  52.049  18.748  1.00  0.00     0.178 C 
ATOM     23  C   UNL     1       8.975  52.308  19.980  1.00  0.00     0.177 C 
BRANCH  19  24
ATOM     24  O   UNL     1      10.686  50.621  21.872  1.00  0.00    -0.385 OA
ATOM     25  H   UNL     1      11.453  50.263  22.388  1.00  0.00     0.211 HD
ENDBRANCH  19  24
BRANCH  21  26
ATOM     26  O   UNL     1      10.046  54.135  21.147  1.00  0.00    -0.387 OA
ATOM     27  H   UNL     1       9.824  54.435  20.220  1.00  0.00     0.211 HD
ENDBRANCH  21  26
BRANCH  22  28
ATOM     28  C   UNL     1      10.162  53.257  17.812  1.00  0.00     0.191 C 
BRANCH  28  29
ATOM     29  O   UNL     1      10.072  54.482  18.486  1.00  0.00    -0.394 OA
ATOM     30  H   UNL     1       9.244  54.922  18.160  1.00  0.00     0.210 HD
ENDBRANCH  28  29
ENDBRANCH  22  28
BRANCH  23  31
ATOM     31  O   UNL     1       7.973  53.229  19.648  1.00  0.00    -0.387 OA
ATOM     32  H   UNL     1       7.844  53.178  18.659  1.00  0.00     0.211 HD
ENDBRANCH  23  31
ENDBRANCH   1  18
TORSDOF 11
ENDMDL
MODEL 6
REMARK VINA RESULT:    -4.612      4.059      6.385
REMARK INTER + INTRA:          -8.721
REMARK INTER:                  -7.158
REMARK INTRA:                  -1.563
REMARK UNBOUND:                -1.818
REMARK SMILES COC(=O)C1=CO[C@H](O[C@@H]2O[C@H](CO)[C@H](O)[C@H](O)[C@H]2O)[C@H]2C(CO)=CC[C@@H]12
REMARK SMILES IDX 9 1 8 2 5 3 6 4 27 5 7 6 21 7 26 8 22 9 25 10 3 11 4 12 2 13
REMARK SMILES IDX 1 14 23 15 24 16 10 18 19 19 11 20 17 21 12 22 15 23 20 24
REMARK SMILES IDX 18 26 13 28 14 29 16 31
REMARK H PARENT 24 17 20 25 18 27 14 30 16 32
REMARK Flexibility Score: inf
ROOT
ATOM      1  O   UNL     1      11.571  51.693  17.186  1.00  0.00    -0.310 OA
ENDROOT
BRANCH   1   2
ATOM      2  C   UNL     1      12.091  51.893  15.883  1.00  0.00     0.316 C 
ATOM      3  C   UNL     1      12.305  49.089  15.417  1.00  0.00     0.076 C 
ATOM      4  C   UNL     1      13.390  49.813  15.735  1.00  0.00     0.202 C 
ATOM      5  C   UNL     1      11.040  49.767  14.884  1.00  0.00     0.047 C 
ATOM      6  O   UNL     1      13.335  51.207  15.753  1.00  0.00    -0.471 OA
ATOM      7  C   UNL     1      11.085  51.318  14.876  1.00  0.00     0.094 C 
ATOM      8  C   UNL     1      10.824  49.394  13.403  1.00  0.00     0.037 C 
ATOM      9  C   UNL     1      11.394  51.659  13.450  1.00  0.00    -0.039 C 
ATOM     10  C   UNL     1      11.215  50.615  12.654  1.00  0.00    -0.024 C 
BRANCH   3  11
ATOM     11  C   UNL     1      12.333  47.611  15.536  1.00  0.00     0.337 C 
ATOM     12  O   UNL     1      13.143  46.929  14.844  1.00  0.00    -0.246 OA
BRANCH  11  13
ATOM     13  O   UNL     1      11.459  46.976  16.430  1.00  0.00    -0.466 OA
ATOM     14  C   UNL     1      11.088  45.606  16.302  1.00  0.00     0.282 C 
ENDBRANCH  11  13
ENDBRANCH   3  11
BRANCH   9  15
ATOM     15  C   UNL     1      11.574  53.056  12.923  1.00  0.00     0.187 C 
BRANCH  15  16
ATOM     16  O   UNL     1      10.334  53.574  12.532  1.00  0.00    -0.392 OA
ATOM     17  H   UNL     1      10.503  54.194  11.761  1.00  0.00     0.211 HD
ENDBRANCH  15  16
ENDBRANCH   9  15
ENDBRANCH   1   2
BRANCH   1  18
ATOM     18  C   UNL     1      10.749  52.771  17.602  1.00  0.00     0.286 C 
ATOM     19  C   UNL     1       9.735  52.314  18.671  1.00  0.00     0.202 C 
ATOM     20  O   UNL     1      11.550  53.842  18.071  1.00  0.00    -0.341 OA
ATOM     21  C   UNL     1      10.447  51.879  19.963  1.00  0.00     0.179 C 
ATOM     22  C   UNL     1      12.294  53.550  19.246  1.00  0.00     0.178 C 
ATOM     23  C   UNL     1      11.445  52.964  20.415  1.00  0.00     0.177 C 
BRANCH  19  24
ATOM     24  O   UNL     1       8.789  53.322  18.941  1.00  0.00    -0.385 OA
ATOM     25  H   UNL     1       9.261  54.193  18.985  1.00  0.00     0.211 HD
ENDBRANCH  19  24
BRANCH  21  26
ATOM     26  O   UNL     1      11.111  50.648  19.804  1.00  0.00    -0.387 OA
ATOM     27  H   UNL     1      11.936  50.816  19.265  1.00  0.00     0.211 HD
ENDBRANCH  21  26
BRANCH  22  28
ATOM     28  C   UNL     1      13.634  52.835  18.932  1.00  0.00     0.191 C 
BRANCH  28  29
ATOM     29  O   UNL     1      13.531  51.441  19.037  1.00  0.00    -0.394 OA
ATOM     30  H   UNL     1      12.995  51.139  18.259  1.00  0.00     0.210 HD
ENDBRANCH  28  29
ENDBRANCH  22  28
BRANCH  23  31
ATOM     31  O   UNL     1      12.285  52.480  21.426  1.00  0.00    -0.387 OA
ATOM     32  H   UNL     1      12.032  51.527  21.586  1.00  0.00     0.211 HD
ENDBRANCH  23  31
ENDBRANCH   1  18
TORSDOF 11
ENDMDL
MODEL 7
REMARK VINA RESULT:    -4.572      1.935      6.826
REMARK INTER + INTRA:          -8.661
REMARK INTER:                  -7.375
REMARK INTRA:                  -1.286
REMARK UNBOUND:                -1.818
REMARK SMILES COC(=O)C1=CO[C@H](O[C@@H]2O[C@H](CO)[C@H](O)[C@H](O)[C@H]2O)[C@H]2C(CO)=CC[C@@H]12
REMARK SMILES IDX 9 1 8 2 5 3 6 4 27 5 7 6 21 7 26 8 22 9 25 10 3 11 4 12 2 13
REMARK SMILES IDX 1 14 23 15 24 16 10 18 19 19 11 20 17 21 12 22 15 23 20 24
REMARK SMILES IDX 18 26 13 28 14 29 16 31
REMARK H PARENT 24 17 20 25 18 27 14 30 16 32
REMARK Flexibility Score: inf
ROOT
ATOM      1  O   UNL     1      13.345  52.258  22.341  1.00  0.00    -0.310 OA
ENDROOT
BRANCH   1   2
ATOM      2  C   UNL     1      14.732  52.170  22.615  1.00  0.00     0.316 C 
ATOM      3  C   UNL     1      15.399  53.737  20.329  1.00  0.00     0.076 C 
ATOM      4  C   UNL     1      15.531  52.401  20.304  1.00  0.00     0.202 C 
ATOM      5  C   UNL     1      15.307  54.489  21.659  1.00  0.00     0.047 C 
ATOM      6  O   UNL     1      15.416  51.652  21.476  1.00  0.00    -0.471 OA
ATOM      7  C   UNL     1      15.248  53.584  22.919  1.00  0.00     0.094 C 
ATOM      8  C   UNL     1      16.574  55.342  21.874  1.00  0.00     0.037 C 
ATOM      9  C   UNL     1      16.649  53.618  23.448  1.00  0.00    -0.039 C 
ATOM     10  C   UNL     1      17.351  54.599  22.898  1.00  0.00    -0.024 C 
BRANCH   3  11
ATOM     11  C   UNL     1      15.384  54.509  19.064  1.00  0.00     0.337 C 
ATOM     12  O   UNL     1      16.445  54.655  18.391  1.00  0.00    -0.246 OA
BRANCH  11  13
ATOM     13  O   UNL     1      14.180  55.069  18.614  1.00  0.00    -0.466 OA
ATOM     14  C   UNL     1      13.170  54.304  17.963  1.00  0.00     0.282 C 
ENDBRANCH  11  13
ENDBRANCH   3  11
BRANCH   9  15
ATOM     15  C   UNL     1      17.125  52.864  24.659  1.00  0.00     0.187 C 
BRANCH  15  16
ATOM     16  O   UNL     1      17.860  51.744  24.256  1.00  0.00    -0.392 OA
ATOM     17  H   UNL     1      17.405  50.937  24.642  1.00  0.00     0.211 HD
ENDBRANCH  15  16
ENDBRANCH   9  15
ENDBRANCH   1   2
BRANCH   1  18
ATOM     18  C   UNL     1      12.741  50.979  22.238  1.00  0.00     0.286 C 
ATOM     19  C   UNL     1      12.066  50.577  23.565  1.00  0.00     0.202 C 
ATOM     20  O   UNL     1      11.821  50.958  21.160  1.00  0.00    -0.341 OA
ATOM     21  C   UNL     1      10.888  51.511  23.894  1.00  0.00     0.179 C 
ATOM     22  C   UNL     1      10.701  51.817  21.327  1.00  0.00     0.178 C 
ATOM     23  C   UNL     1       9.947  51.632  22.679  1.00  0.00     0.177 C 
BRANCH  19  24
ATOM     24  O   UNL     1      11.641  49.235  23.536  1.00  0.00    -0.385 OA
ATOM     25  H   UNL     1      10.994  49.126  22.794  1.00  0.00     0.211 HD
ENDBRANCH  19  24
BRANCH  21  26
ATOM     26  O   UNL     1      11.329  52.787  24.293  1.00  0.00    -0.387 OA
ATOM     27  H   UNL     1      12.158  52.996  23.777  1.00  0.00     0.211 HD
ENDBRANCH  21  26
BRANCH  22  28
ATOM     28  C   UNL     1      11.004  53.274  20.892  1.00  0.00     0.191 C 
BRANCH  28  29
ATOM     29  O   UNL     1       9.838  54.016  20.665  1.00  0.00    -0.394 OA
ATOM     30  H   UNL     1       9.123  53.360  20.456  1.00  0.00     0.210 HD
ENDBRANCH  28  29
ENDBRANCH  22  28
BRANCH  23  31
ATOM     31  O   UNL     1       9.025  52.672  22.863  1.00  0.00    -0.387 OA
ATOM     32  H   UNL     1       9.482  53.376  23.405  1.00  0.00     0.211 HD
ENDBRANCH  23  31
ENDBRANCH   1  18
TORSDOF 11
ENDMDL
MODEL 8
REMARK VINA RESULT:    -4.567      1.949      5.400
REMARK INTER + INTRA:          -8.653
REMARK INTER:                  -7.085
REMARK INTRA:                  -1.569
REMARK UNBOUND:                -1.818
REMARK SMILES COC(=O)C1=CO[C@H](O[C@@H]2O[C@H](CO)[C@H](O)[C@H](O)[C@H]2O)[C@H]2C(CO)=CC[C@@H]12
REMARK SMILES IDX 9 1 8 2 5 3 6 4 27 5 7 6 21 7 26 8 22 9 25 10 3 11 4 12 2 13
REMARK SMILES IDX 1 14 23 15 24 16 10 18 19 19 11 20 17 21 12 22 15 23 20 24
REMARK SMILES IDX 18 26 13 28 14 29 16 31
REMARK H PARENT 24 17 20 25 18 27 14 30 16 32
REMARK Flexibility Score: inf
ROOT
ATOM      1  O   UNL     1      12.606  52.262  20.605  1.00  0.00    -0.310 OA
ENDROOT
BRANCH   1   2
ATOM      2  C   UNL     1      12.719  51.167  21.496  1.00  0.00     0.316 C 
ATOM      3  C   UNL     1      15.031  52.275  22.743  1.00  0.00     0.076 C 
ATOM      4  C   UNL     1      15.148  51.285  21.842  1.00  0.00     0.202 C 
ATOM      5  C   UNL     1      13.694  52.546  23.438  1.00  0.00     0.047 C 
ATOM      6  O   UNL     1      14.022  50.595  21.392  1.00  0.00    -0.471 OA
ATOM      7  C   UNL     1      12.505  51.690  22.924  1.00  0.00     0.094 C 
ATOM      8  C   UNL     1      13.792  52.183  24.933  1.00  0.00     0.037 C 
ATOM      9  C   UNL     1      12.372  50.609  23.952  1.00  0.00    -0.039 C 
ATOM     10  C   UNL     1      13.048  50.903  25.053  1.00  0.00    -0.024 C 
BRANCH   3  11
ATOM     11  C   UNL     1      16.211  53.093  23.110  1.00  0.00     0.337 C 
ATOM     12  O   UNL     1      17.254  52.543  23.567  1.00  0.00    -0.246 OA
BRANCH  11  13
ATOM     13  O   UNL     1      16.165  54.484  22.937  1.00  0.00    -0.466 OA
ATOM     14  C   UNL     1      15.655  55.097  21.756  1.00  0.00     0.282 C 
ENDBRANCH  11  13
ENDBRANCH   3  11
BRANCH   9  15
ATOM     15  C   UNL     1      11.368  49.492  23.895  1.00  0.00     0.187 C 
BRANCH  15  16
ATOM     16  O   UNL     1      10.228  49.920  23.205  1.00  0.00    -0.392 OA
ATOM     17  H   UNL     1      10.502  50.698  22.635  1.00  0.00     0.211 HD
ENDBRANCH  15  16
ENDBRANCH   9  15
ENDBRANCH   1   2
BRANCH   1  18
ATOM     18  C   UNL     1      11.372  52.255  19.907  1.00  0.00     0.286 C 
ATOM     19  C   UNL     1      10.959  53.684  19.497  1.00  0.00     0.202 C 
ATOM     20  O   UNL     1      11.451  51.395  18.783  1.00  0.00    -0.341 OA
ATOM     21  C   UNL     1      11.949  54.278  18.480  1.00  0.00     0.179 C 
ATOM     22  C   UNL     1      12.369  51.816  17.784  1.00  0.00     0.178 C 
ATOM     23  C   UNL     1      12.177  53.292  17.317  1.00  0.00     0.177 C 
BRANCH  19  24
ATOM     24  O   UNL     1       9.648  53.709  18.985  1.00  0.00    -0.385 OA
ATOM     25  H   UNL     1       9.607  53.114  18.193  1.00  0.00     0.211 HD
ENDBRANCH  19  24
BRANCH  21  26
ATOM     26  O   UNL     1      13.179  54.609  19.080  1.00  0.00    -0.387 OA
ATOM     27  H   UNL     1      13.272  55.603  19.052  1.00  0.00     0.211 HD
ENDBRANCH  21  26
BRANCH  22  28
ATOM     28  C   UNL     1      13.821  51.366  18.088  1.00  0.00     0.191 C 
BRANCH  28  29
ATOM     29  O   UNL     1      14.636  52.433  18.489  1.00  0.00    -0.394 OA
ATOM     30  H   UNL     1      14.309  52.718  19.381  1.00  0.00     0.210 HD
ENDBRANCH  28  29
ENDBRANCH  22  28
BRANCH  23  31
ATOM     31  O   UNL     1      13.262  53.693  16.527  1.00  0.00    -0.387 OA
ATOM     32  H   UNL     1      13.757  54.391  17.042  1.00  0.00     0.211 HD
ENDBRANCH  23  31
ENDBRANCH   1  18
TORSDOF 11
ENDMDL
MODEL 9
REMARK VINA RESULT:    -4.458      1.997      2.898
REMARK INTER + INTRA:          -8.491
REMARK INTER:                  -6.943
REMARK INTRA:                  -1.548
REMARK UNBOUND:                -1.818
REMARK SMILES COC(=O)C1=CO[C@H](O[C@@H]2O[C@H](CO)[C@H](O)[C@H](O)[C@H]2O)[C@H]2C(CO)=CC[C@@H]12
REMARK SMILES IDX 9 1 8 2 5 3 6 4 27 5 7 6 21 7 26 8 22 9 25 10 3 11 4 12 2 13
REMARK SMILES IDX 1 14 23 15 24 16 10 18 19 19 11 20 17 21 12 22 15 23 20 24
REMARK SMILES IDX 18 26 13 28 14 29 16 31
REMARK H PARENT 24 17 20 25 18 27 14 30 16 32
REMARK Flexibility Score: inf
ROOT
ATOM      1  O   UNL     1      13.197  52.521  18.993  1.00  0.00    -0.310 OA
ENDROOT
BRANCH   1   2
ATOM      2  C   UNL     1      12.516  51.759  18.011  1.00  0.00     0.316 C 
ATOM      3  C   UNL     1       9.971  52.375  19.137  1.00  0.00     0.076 C 
ATOM      4  C   UNL     1      10.548  51.184  19.363  1.00  0.00     0.202 C 
ATOM      5  C   UNL     1      10.422  53.253  17.967  1.00  0.00     0.047 C 
ATOM      6  O   UNL     1      11.681  50.794  18.648  1.00  0.00    -0.471 OA
ATOM      7  C   UNL     1      11.649  52.716  17.182  1.00  0.00     0.094 C 
ATOM      8  C   UNL     1       9.308  53.332  16.904  1.00  0.00     0.037 C 
ATOM      9  C   UNL     1      11.046  52.086  15.964  1.00  0.00    -0.039 C 
ATOM     10  C   UNL     1       9.783  52.455  15.804  1.00  0.00    -0.024 C 
BRANCH   3  11
ATOM     11  C   UNL     1       8.855  52.839  19.995  1.00  0.00     0.337 C 
ATOM     12  O   UNL     1       9.086  53.315  21.143  1.00  0.00    -0.246 OA
BRANCH  11  13
ATOM     13  O   UNL     1       7.539  52.753  19.518  1.00  0.00    -0.466 OA
ATOM     14  C   UNL     1       6.621  51.758  19.964  1.00  0.00     0.282 C 
ENDBRANCH  11  13
ENDBRANCH   3  11
BRANCH   9  15
ATOM     15  C   UNL     1      11.827  51.387  14.885  1.00  0.00     0.187 C 
BRANCH  15  16
ATOM     16  O   UNL     1      11.467  50.035  14.848  1.00  0.00    -0.392 OA
ATOM     17  H   UNL     1      12.317  49.502  14.889  1.00  0.00     0.211 HD
ENDBRANCH  15  16
ENDBRANCH   9  15
ENDBRANCH   1   2
BRANCH   1  18
ATOM     18  C   UNL     1      14.604  52.361  18.909  1.00  0.00     0.286 C 
ATOM     19  C   UNL     1      15.328  53.705  19.137  1.00  0.00     0.202 C 
ATOM     20  O   UNL     1      15.039  51.375  19.828  1.00  0.00    -0.341 OA
ATOM     21  C   UNL     1      15.105  54.220  20.570  1.00  0.00     0.179 C 
ATOM     22  C   UNL     1      14.847  51.717  21.194  1.00  0.00     0.178 C 
ATOM     23  C   UNL     1      15.422  53.111  21.592  1.00  0.00     0.177 C 
BRANCH  19  24
ATOM     24  O   UNL     1      16.704  53.596  18.859  1.00  0.00    -0.385 OA
ATOM     25  H   UNL     1      16.971  54.360  18.287  1.00  0.00     0.211 HD
ENDBRANCH  19  24
BRANCH  21  26
ATOM     26  O   UNL     1      13.790  54.688  20.757  1.00  0.00    -0.387 OA
ATOM     27  H   UNL     1      13.570  54.592  21.727  1.00  0.00     0.211 HD
ENDBRANCH  21  26
BRANCH  22  28
ATOM     28  C   UNL     1      13.416  51.387  21.690  1.00  0.00     0.191 C 
BRANCH  28  29
ATOM     29  O   UNL     1      12.636  52.537  21.871  1.00  0.00    -0.394 OA
ATOM     30  H   UNL     1      11.695  52.268  21.709  1.00  0.00     0.210 HD
ENDBRANCH  28  29
ENDBRANCH  22  28
BRANCH  23  31
ATOM     31  O   UNL     1      14.975  53.469  22.871  1.00  0.00    -0.387 OA
ATOM     32  H   UNL     1      14.071  53.062  22.990  1.00  0.00     0.211 HD
ENDBRANCH  23  31
ENDBRANCH   1  18
TORSDOF 11
ENDMDL
