MODEL 1
REMARK VINA RESULT:    -3.113      0.000      0.000
REMARK INTER + INTRA:          -3.483
REMARK INTER:                  -3.477
REMARK INTRA:                  -0.005
REMARK UNBOUND:                -0.005
REMARK SMILES CCCC(=O)[O-]
REMARK SMILES IDX 3 1 4 2 5 3 6 4 2 5 1 6
REMARK H PARENT
REMARK Flexibility Score: inf
ROOT
ATOM      1  C   UNL     1       9.420   3.877  -8.222  1.00  0.00     0.052 C 
ENDROOT
BRANCH   1   2
ATOM      2  C   UNL     1       9.023   5.315  -8.332  1.00  0.00     0.041 C 
ATOM      3  O   UNL     1       7.995   5.641  -8.981  1.00  0.00    -0.550 OA
ATOM      4  O   UNL     1       9.816   6.301  -7.757  1.00  0.00    -0.550 OA
ENDBRANCH   1   2
BRANCH   1   5
ATOM      5  C   UNL     1       8.828   3.252  -6.956  1.00  0.00     0.003 C 
ATOM      6  C   UNL     1       9.496   1.917  -6.636  1.00  0.00     0.004 C 
ENDBRANCH   1   5
TORSDOF 2
ENDMDL
MODEL 2
REMARK VINA RESULT:    -3.108     17.186     18.298
REMARK INTER + INTRA:          -3.477
REMARK INTER:                  -3.472
REMARK INTRA:                  -0.005
REMARK UNBOUND:                -0.005
REMARK SMILES CCCC(=O)[O-]
REMARK SMILES IDX 3 1 4 2 5 3 6 4 2 5 1 6
REMARK H PARENT
REMARK Flexibility Score: inf
ROOT
ATOM      1  C   UNL     1       9.419  -3.911   8.255  1.00  0.00     0.052 C 
ENDROOT
BRANCH   1   2
ATOM      2  C   UNL     1       9.012  -5.346   8.365  1.00  0.00     0.041 C 
ATOM      3  O   UNL     1       7.959  -5.661   8.978  1.00  0.00    -0.550 OA
ATOM      4  O   UNL     1       9.823  -6.342   7.834  1.00  0.00    -0.550 OA
ENDBRANCH   1   2
BRANCH   1   5
ATOM      5  C   UNL     1       8.723  -3.247   7.064  1.00  0.00     0.003 C 
ATOM      6  C   UNL     1       9.413  -1.940   6.681  1.00  0.00     0.004 C 
ENDBRANCH   1   5
TORSDOF 2
ENDMDL
MODEL 3
REMARK VINA RESULT:    -3.100     23.544     24.072
REMARK INTER + INTRA:          -3.468
REMARK INTER:                  -3.463
REMARK INTRA:                  -0.005
REMARK UNBOUND:                -0.005
REMARK SMILES CCCC(=O)[O-]
REMARK SMILES IDX 3 1 4 2 5 3 6 4 2 5 1 6
REMARK H PARENT
REMARK Flexibility Score: inf
ROOT
ATOM      1  C   UNL     1      -9.439   3.887   8.231  1.00  0.00     0.052 C 
ENDROOT
BRANCH   1   2
ATOM      2  C   UNL     1      -9.011   5.314   8.365  1.00  0.00     0.041 C 
ATOM      3  O   UNL     1      -7.952   5.603   8.981  1.00  0.00    -0.550 OA
ATOM      4  O   UNL     1      -9.808   6.330   7.851  1.00  0.00    -0.550 OA
ENDBRANCH   1   2
BRANCH   1   5
ATOM      5  C   UNL     1      -8.783   3.243   7.007  1.00  0.00     0.003 C 
ATOM      6  C   UNL     1      -9.453   1.917   6.656  1.00  0.00     0.004 C 
ENDBRANCH   1   5
TORSDOF 2
ENDMDL
MODEL 4
REMARK VINA RESULT:    -3.043     19.785     20.471
REMARK INTER + INTRA:          -3.404
REMARK INTER:                  -3.399
REMARK INTRA:                  -0.005
REMARK UNBOUND:                -0.005
REMARK SMILES CCCC(=O)[O-]
REMARK SMILES IDX 3 1 4 2 5 3 6 4 2 5 1 6
REMARK H PARENT
REMARK Flexibility Score: inf
ROOT
ATOM      1  C   UNL     1      -9.596  -3.933  -8.166  1.00  0.00     0.052 C 
ENDROOT
BRANCH   1   2
ATOM      2  C   UNL     1      -9.129  -5.345  -8.323  1.00  0.00     0.041 C 
ATOM      3  O   UNL     1      -9.798  -6.293  -7.835  1.00  0.00    -0.550 OA
ATOM      4  O   UNL     1      -7.926  -5.612  -8.967  1.00  0.00    -0.550 OA
ENDBRANCH   1   2
BRANCH   1   5
ATOM      5  C   UNL     1      -8.832  -3.239  -7.035  1.00  0.00     0.003 C 
ATOM      6  C   UNL     1      -9.516  -1.936  -6.627  1.00  0.00     0.004 C 
ENDBRANCH   1   5
TORSDOF 2
ENDMDL
MODEL 5
REMARK VINA RESULT:    -2.709      3.059      3.845
REMARK INTER + INTRA:          -3.031
REMARK INTER:                  -3.003
REMARK INTRA:                  -0.028
REMARK UNBOUND:                -0.005
REMARK SMILES CCCC(=O)[O-]
REMARK SMILES IDX 3 1 4 2 5 3 6 4 2 5 1 6
REMARK H PARENT
REMARK Flexibility Score: inf
ROOT
ATOM      1  C   UNL     1       8.970   3.249  -6.768  1.00  0.00     0.052 C 
ENDROOT
BRANCH   1   2
ATOM      2  C   UNL     1       9.544   1.870  -6.835  1.00  0.00     0.041 C 
ATOM      3  O   UNL     1      10.125   1.475  -7.880  1.00  0.00    -0.550 OA
ATOM      4  O   UNL     1       9.394   1.001  -5.760  1.00  0.00    -0.550 OA
ENDBRANCH   1   2
BRANCH   1   5
ATOM      5  C   UNL     1       9.799   4.217  -7.617  1.00  0.00     0.003 C 
ATOM      6  C   UNL     1       8.901   5.137  -8.439  1.00  0.00     0.004 C 
ENDBRANCH   1   5
TORSDOF 2
ENDMDL
MODEL 6
REMARK VINA RESULT:    -2.696     15.641     16.767
REMARK INTER + INTRA:          -3.016
REMARK INTER:                  -2.984
REMARK INTRA:                  -0.032
REMARK UNBOUND:                -0.005
REMARK SMILES CCCC(=O)[O-]
REMARK SMILES IDX 3 1 4 2 5 3 6 4 2 5 1 6
REMARK H PARENT
REMARK Flexibility Score: inf
ROOT
ATOM      1  C   UNL     1       8.892  -3.324   6.770  1.00  0.00     0.052 C 
ENDROOT
BRANCH   1   2
ATOM      2  C   UNL     1       9.524  -1.971   6.855  1.00  0.00     0.041 C 
ATOM      3  O   UNL     1      10.125  -1.617   7.902  1.00  0.00    -0.550 OA
ATOM      4  O   UNL     1       9.407  -1.082   5.793  1.00  0.00    -0.550 OA
ENDBRANCH   1   2
BRANCH   1   5
ATOM      5  C   UNL     1       9.763  -4.368   7.473  1.00  0.00     0.003 C 
ATOM      6  C   UNL     1       8.936  -5.224   8.428  1.00  0.00     0.004 C 
ENDBRANCH   1   5
TORSDOF 2
ENDMDL
MODEL 7
REMARK VINA RESULT:    -2.693     19.434     19.894
REMARK INTER + INTRA:          -3.014
REMARK INTER:                  -2.986
REMARK INTRA:                  -0.028
REMARK UNBOUND:                -0.005
REMARK SMILES CCCC(=O)[O-]
REMARK SMILES IDX 3 1 4 2 5 3 6 4 2 5 1 6
REMARK H PARENT
REMARK Flexibility Score: inf
ROOT
ATOM      1  C   UNL     1      -8.713  -3.233  -6.855  1.00  0.00     0.052 C 
ENDROOT
BRANCH   1   2
ATOM      2  C   UNL     1      -9.402  -1.906  -6.809  1.00  0.00     0.041 C 
ATOM      3  O   UNL     1      -9.369  -1.210  -5.761  1.00  0.00    -0.550 OA
ATOM      4  O   UNL     1     -10.125  -1.460  -7.910  1.00  0.00    -0.550 OA
ENDBRANCH   1   2
BRANCH   1   5
ATOM      5  C   UNL     1      -9.590  -4.268  -7.566  1.00  0.00     0.003 C 
ATOM      6  C   UNL     1      -8.782  -5.066  -8.586  1.00  0.00     0.004 C 
ENDBRANCH   1   5
TORSDOF 2
ENDMDL
MODEL 8
REMARK VINA RESULT:    -2.654     24.183     24.962
REMARK INTER + INTRA:          -2.970
REMARK INTER:                  -2.948
REMARK INTRA:                  -0.022
REMARK UNBOUND:                -0.005
REMARK SMILES CCCC(=O)[O-]
REMARK SMILES IDX 3 1 4 2 5 3 6 4 2 5 1 6
REMARK H PARENT
REMARK Flexibility Score: inf
ROOT
ATOM      1  C   UNL     1      -6.512  -5.822   8.823  1.00  0.00     0.052 C 
ENDROOT
BRANCH   1   2
ATOM      2  C   UNL     1      -5.132  -6.392   8.910  1.00  0.00     0.041 C 
ATOM      3  O   UNL     1      -4.132  -5.677   8.638  1.00  0.00    -0.550 OA
ATOM      4  O   UNL     1      -4.951  -7.729   9.245  1.00  0.00    -0.550 OA
ENDBRANCH   1   2
BRANCH   1   5
ATOM      5  C   UNL     1      -7.238  -6.364   7.589  1.00  0.00     0.003 C 
ATOM      6  C   UNL     1      -8.162  -7.522   7.958  1.00  0.00     0.004 C 
ENDBRANCH   1   5
TORSDOF 2
ENDMDL
