MODEL 1
REMARK VINA RESULT:    -3.304      0.000      0.000
REMARK INTER + INTRA:          -3.681
REMARK INTER:                  -5.042
REMARK INTRA:                   1.361
REMARK UNBOUND:                 1.361
REMARK SMILES CC1=CCC[C@@H](C)C(=O)C[C@@H](C(C)C)C(=O)C1
REMARK SMILES IDX 8 1 9 2 6 3 7 4 5 5 4 6 3 7 2 8 1 9 10 11 11 12 15 13 16 14
REMARK SMILES IDX 17 15 12 17 13 18 14 19
REMARK H PARENT
REMARK Flexibility Score: 70.00
ROOT
ATOM      1  C   UNL     1      -2.369 -13.060  -7.716  1.00  0.00     0.136 C 
ATOM      2  O   UNL     1      -2.148 -12.358  -6.739  1.00  0.00    -0.299 OA
ENDROOT
BRANCH   1   3
ATOM      3  C   UNL     1      -3.028 -12.405  -8.917  1.00  0.00     0.053 C 
ATOM      4  C   UNL     1      -2.798 -10.891  -9.061  1.00  0.00     0.016 C 
BRANCH   3   5
ATOM      5  C   UNL     1      -4.498 -12.862  -9.087  1.00  0.00     0.015 C 
BRANCH   5   6
ATOM      6  C   UNL     1      -5.656 -11.944  -8.622  1.00  0.00     0.028 C 
BRANCH   6   7
ATOM      7  C   UNL     1      -5.939 -11.806  -7.144  1.00  0.00    -0.028 C 
ATOM      8  C   UNL     1      -6.038 -12.813  -6.249  1.00  0.00    -0.070 CG0
ATOM      9  C   UNL     1      -6.668 -12.500  -4.915  1.00  0.00     0.039 C 
ATOM     10  G   UNL     1      -5.640 -14.240  -6.560  1.00  0.00     0.000 G0
ENDBRANCH   6   7
ENDBRANCH   5   6
ENDBRANCH   3   5
ENDBRANCH   1   3
BRANCH   1  11
ATOM     11  C   UNL     1      -2.057 -14.538  -7.630  1.00  0.00     0.087 C 
BRANCH  11  12
ATOM     12  C   UNL     1      -3.198 -15.371  -6.966  1.00  0.00     0.066 C 
BRANCH  12  13
ATOM     13  C   UNL     1      -4.189 -14.549  -6.128  1.00  0.00     0.140 C 
ATOM     14  O   UNL     1      -3.829 -14.157  -5.027  1.00  0.00    -0.299 OA
BRANCH  13  15
ATOM     15  C   UNL     1      -5.626 -14.266  -6.526  1.00  0.00     0.106 CG0
ATOM     16  G   UNL     1      -6.029 -12.832  -6.260  1.00  0.00     0.000 G0
ENDBRANCH  13  15
ENDBRANCH  12  13
BRANCH  12  17
ATOM     17  C   UNL     1      -2.648 -16.597  -6.160  1.00  0.00    -0.006 C 
ATOM     18  C   UNL     1      -3.750 -17.441  -5.504  1.00  0.00     0.008 C 
ATOM     19  C   UNL     1      -1.593 -16.196  -5.114  1.00  0.00     0.008 C 
ENDBRANCH  12  17
ENDBRANCH  11  12
ENDBRANCH   1  11
TORSDOF 1
ENDMDL
MODEL 2
REMARK VINA RESULT:    -3.302      1.617      2.057
REMARK INTER + INTRA:          -3.678
REMARK INTER:                  -4.266
REMARK INTRA:                   0.588
REMARK UNBOUND:                 1.361
REMARK SMILES CC1=CCC[C@@H](C)C(=O)C[C@@H](C(C)C)C(=O)C1
REMARK SMILES IDX 8 1 9 2 6 3 7 4 5 5 4 6 3 7 2 8 1 9 10 11 11 12 15 13 16 14
REMARK SMILES IDX 17 15 12 17 13 18 14 19
REMARK H PARENT
REMARK Flexibility Score: 70.00
ROOT
ATOM      1  C   UNL     1      -2.622 -12.929  -8.179  1.00  0.00     0.136 C 
ATOM      2  O   UNL     1      -2.108 -13.551  -9.098  1.00  0.00    -0.299 OA
ENDROOT
BRANCH   1   3
ATOM      3  C   UNL     1      -3.302 -11.613  -8.513  1.00  0.00     0.053 C 
ATOM      4  C   UNL     1      -2.364 -10.412  -8.725  1.00  0.00     0.016 C 
BRANCH   3   5
ATOM      5  C   UNL     1      -4.513 -11.341  -7.586  1.00  0.00     0.015 C 
BRANCH   5   6
ATOM      6  C   UNL     1      -5.933 -11.798  -8.007  1.00  0.00     0.028 C 
BRANCH   6   7
ATOM      7  C   UNL     1      -6.105 -13.141  -8.676  1.00  0.00    -0.028 C 
ATOM      8  C   UNL     1      -5.750 -14.342  -8.170  1.00  0.00    -0.070 CG0
ATOM      9  C   UNL     1      -5.678 -15.507  -9.125  1.00  0.00     0.039 C 
ATOM     10  G   UNL     1      -5.331 -14.542  -6.730  1.00  0.00     0.000 G0
ENDBRANCH   6   7
ENDBRANCH   5   6
ENDBRANCH   3   5
ENDBRANCH   1   3
BRANCH   1  11
ATOM     11  C   UNL     1      -2.471 -13.464  -6.771  1.00  0.00     0.087 C 
BRANCH  11  12
ATOM     12  C   UNL     1      -2.642 -15.012  -6.679  1.00  0.00     0.066 C 
BRANCH  12  13
ATOM     13  C   UNL     1      -4.099 -15.494  -6.600  1.00  0.00     0.140 C 
ATOM     14  O   UNL     1      -4.306 -16.696  -6.516  1.00  0.00    -0.299 OA
BRANCH  13  15
ATOM     15  C   UNL     1      -5.313 -14.589  -6.715  1.00  0.00     0.106 CG0
ATOM     16  G   UNL     1      -5.716 -14.343  -8.153  1.00  0.00     0.000 G0
ENDBRANCH  13  15
ENDBRANCH  12  13
BRANCH  12  17
ATOM     17  C   UNL     1      -1.771 -15.641  -5.538  1.00  0.00    -0.006 C 
ATOM     18  C   UNL     1      -1.455 -17.127  -5.759  1.00  0.00     0.008 C 
ATOM     19  C   UNL     1      -2.378 -15.428  -4.140  1.00  0.00     0.008 C 
ENDBRANCH  12  17
ENDBRANCH  11  12
ENDBRANCH   1  11
TORSDOF 1
ENDMDL
MODEL 3
REMARK VINA RESULT:    -2.705      1.978      4.854
REMARK INTER + INTRA:          -2.768
REMARK INTER:                  -3.954
REMARK INTRA:                   1.187
REMARK UNBOUND:                 1.361
REMARK SMILES CC1=CCC[C@@H](C)C(=O)C[C@@H](C(C)C)C(=O)C1
REMARK SMILES IDX 8 1 9 2 6 3 7 4 5 5 4 6 3 7 2 8 1 9 10 11 11 12 15 13 16 14
REMARK SMILES IDX 17 15 12 17 13 18 14 19
REMARK H PARENT
REMARK Flexibility Score: 70.00
ROOT
ATOM      1  C   UNL     1      -4.376 -15.944  -5.577  1.00  0.00     0.136 C 
ATOM      2  O   UNL     1      -5.090 -16.569  -4.805  1.00  0.00    -0.299 OA
ENDROOT
BRANCH   1   3
ATOM      3  C   UNL     1      -3.155 -16.653  -6.136  1.00  0.00     0.053 C 
ATOM      4  C   UNL     1      -3.070 -18.162  -5.849  1.00  0.00     0.016 C 
BRANCH   3   5
ATOM      5  C   UNL     1      -1.853 -15.861  -5.859  1.00  0.00     0.015 C 
BRANCH   5   6
ATOM      6  C   UNL     1      -1.264 -14.927  -6.946  1.00  0.00     0.028 C 
BRANCH   6   7
ATOM      7  C   UNL     1      -1.799 -13.520  -7.076  1.00  0.00    -0.028 C 
ATOM      8  C   UNL     1      -2.606 -13.055  -8.055  1.00  0.00    -0.070 CG0
ATOM      9  C   UNL     1      -2.735 -11.560  -8.200  1.00  0.00     0.039 C 
ATOM     10  G   UNL     1      -3.295 -13.956  -9.057  1.00  0.00     0.000 G0
ENDBRANCH   6   7
ENDBRANCH   5   6
ENDBRANCH   3   5
ENDBRANCH   1   3
BRANCH   1  11
ATOM     11  C   UNL     1      -4.704 -14.492  -5.850  1.00  0.00     0.087 C 
BRANCH  11  12
ATOM     12  C   UNL     1      -5.321 -14.256  -7.263  1.00  0.00     0.066 C 
BRANCH  12  13
ATOM     13  C   UNL     1      -4.455 -14.749  -8.433  1.00  0.00     0.140 C 
ATOM     14  O   UNL     1      -4.643 -15.882  -8.853  1.00  0.00    -0.299 OA
BRANCH  13  15
ATOM     15  C   UNL     1      -3.311 -13.964  -9.048  1.00  0.00     0.106 CG0
ATOM     16  G   UNL     1      -2.616 -13.071  -8.044  1.00  0.00     0.000 G0
ENDBRANCH  13  15
ENDBRANCH  12  13
BRANCH  12  17
ATOM     17  C   UNL     1      -5.774 -12.771  -7.475  1.00  0.00    -0.006 C 
ATOM     18  C   UNL     1      -6.421 -12.145  -6.232  1.00  0.00     0.008 C 
ATOM     19  C   UNL     1      -6.694 -12.599  -8.697  1.00  0.00     0.008 C 
ENDBRANCH  12  17
ENDBRANCH  11  12
ENDBRANCH   1  11
TORSDOF 1
ENDMDL
MODEL 4
REMARK VINA RESULT:    -2.662      2.238      3.475
REMARK INTER + INTRA:          -2.702
REMARK INTER:                  -3.286
REMARK INTRA:                   0.585
REMARK UNBOUND:                 1.361
REMARK SMILES CC1=CCC[C@@H](C)C(=O)C[C@@H](C(C)C)C(=O)C1
REMARK SMILES IDX 8 1 9 2 6 3 7 4 5 5 4 6 3 7 2 8 1 9 10 11 11 12 15 13 16 14
REMARK SMILES IDX 17 15 12 17 13 18 14 19
REMARK H PARENT
REMARK Flexibility Score: 70.00
ROOT
ATOM      1  C   UNL     1      -5.737 -13.665  -7.567  1.00  0.00     0.136 C 
ATOM      2  O   UNL     1      -6.397 -14.000  -8.541  1.00  0.00    -0.299 OA
ENDROOT
BRANCH   1   3
ATOM      3  C   UNL     1      -5.306 -12.212  -7.477  1.00  0.00     0.053 C 
ATOM      4  C   UNL     1      -6.266 -11.276  -6.722  1.00  0.00     0.016 C 
BRANCH   3   5
ATOM      5  C   UNL     1      -4.809 -11.674  -8.842  1.00  0.00     0.015 C 
BRANCH   5   6
ATOM      6  C   UNL     1      -3.292 -11.490  -9.101  1.00  0.00     0.028 C 
BRANCH   6   7
ATOM      7  C   UNL     1      -2.305 -11.978  -8.066  1.00  0.00    -0.028 C 
ATOM      8  C   UNL     1      -1.929 -13.258  -7.855  1.00  0.00    -0.070 CG0
ATOM      9  C   UNL     1      -1.218 -13.572  -6.563  1.00  0.00     0.039 C 
ATOM     10  G   UNL     1      -2.275 -14.388  -8.801  1.00  0.00     0.000 G0
ENDBRANCH   6   7
ENDBRANCH   5   6
ENDBRANCH   3   5
ENDBRANCH   1   3
BRANCH   1  11
ATOM     11  C   UNL     1      -5.324 -14.728  -6.573  1.00  0.00     0.087 C 
BRANCH  11  12
ATOM     12  C   UNL     1      -3.881 -15.269  -6.814  1.00  0.00     0.066 C 
BRANCH  12  13
ATOM     13  C   UNL     1      -3.414 -15.224  -8.278  1.00  0.00     0.140 C 
ATOM     14  O   UNL     1      -3.957 -15.969  -9.081  1.00  0.00    -0.299 OA
BRANCH  13  15
ATOM     15  C   UNL     1      -2.255 -14.386  -8.786  1.00  0.00     0.106 CG0
ATOM     16  G   UNL     1      -1.913 -13.245  -7.852  1.00  0.00     0.000 G0
ENDBRANCH  13  15
ENDBRANCH  12  13
BRANCH  12  17
ATOM     17  C   UNL     1      -3.666 -16.691  -6.191  1.00  0.00    -0.006 C 
ATOM     18  C   UNL     1      -4.576 -16.976  -4.988  1.00  0.00     0.008 C 
ATOM     19  C   UNL     1      -2.196 -16.962  -5.822  1.00  0.00     0.008 C 
ENDBRANCH  12  17
ENDBRANCH  11  12
ENDBRANCH   1  11
TORSDOF 1
ENDMDL
MODEL 5
REMARK VINA RESULT:    -2.520      1.913      2.739
REMARK INTER + INTRA:          -2.484
REMARK INTER:                  -4.241
REMARK INTRA:                   1.757
REMARK UNBOUND:                 1.361
REMARK SMILES CC1=CCC[C@@H](C)C(=O)C[C@@H](C(C)C)C(=O)C1
REMARK SMILES IDX 8 1 9 2 6 3 7 4 5 5 4 6 3 7 2 8 1 9 10 11 11 12 15 13 16 14
REMARK SMILES IDX 17 15 12 17 13 18 14 19
REMARK H PARENT
REMARK Flexibility Score: 70.00
ROOT
ATOM      1  C   UNL     1      -2.458 -14.635  -5.761  1.00  0.00     0.136 C 
ATOM      2  O   UNL     1      -3.113 -14.310  -4.780  1.00  0.00    -0.299 OA
ENDROOT
BRANCH   1   3
ATOM      3  C   UNL     1      -1.788 -13.528  -6.557  1.00  0.00     0.053 C 
ATOM      4  C   UNL     1      -2.470 -12.151  -6.489  1.00  0.00     0.016 C 
BRANCH   3   5
ATOM      5  C   UNL     1      -1.405 -13.997  -7.982  1.00  0.00     0.015 C 
BRANCH   5   6
ATOM      6  C   UNL     1      -2.452 -13.954  -9.124  1.00  0.00     0.028 C 
BRANCH   6   7
ATOM      7  C   UNL     1      -3.724 -13.164  -8.926  1.00  0.00    -0.028 C 
ATOM      8  C   UNL     1      -4.961 -13.670  -8.729  1.00  0.00    -0.070 CG0
ATOM      9  C   UNL     1      -6.133 -12.737  -8.908  1.00  0.00     0.039 C 
ATOM     10  G   UNL     1      -5.220 -15.132  -8.438  1.00  0.00     0.000 G0
ENDBRANCH   6   7
ENDBRANCH   5   6
ENDBRANCH   3   5
ENDBRANCH   1   3
BRANCH   1  11
ATOM     11  C   UNL     1      -2.430 -16.093  -6.161  1.00  0.00     0.087 C 
BRANCH  11  12
ATOM     12  C   UNL     1      -3.810 -16.619  -6.666  1.00  0.00     0.066 C 
BRANCH  12  13
ATOM     13  C   UNL     1      -4.822 -15.521  -7.030  1.00  0.00     0.140 C 
ATOM     14  O   UNL     1      -5.432 -14.975  -6.122  1.00  0.00    -0.299 OA
BRANCH  13  15
ATOM     15  C   UNL     1      -5.193 -15.129  -8.449  1.00  0.00     0.106 CG0
ATOM     16  G   UNL     1      -4.951 -13.661  -8.725  1.00  0.00     0.000 G0
ENDBRANCH  13  15
ENDBRANCH  12  13
BRANCH  12  17
ATOM     17  C   UNL     1      -4.438 -17.674  -5.692  1.00  0.00    -0.006 C 
ATOM     18  C   UNL     1      -4.562 -17.173  -4.246  1.00  0.00     0.008 C 
ATOM     19  C   UNL     1      -3.703 -19.026  -5.725  1.00  0.00     0.008 C 
ENDBRANCH  12  17
ENDBRANCH  11  12
ENDBRANCH   1  11
TORSDOF 1
ENDMDL
MODEL 6
REMARK VINA RESULT:    -2.393      1.568      4.084
REMARK INTER + INTRA:          -2.291
REMARK INTER:                  -3.966
REMARK INTRA:                   1.675
REMARK UNBOUND:                 1.361
REMARK SMILES CC1=CCC[C@@H](C)C(=O)C[C@@H](C(C)C)C(=O)C1
REMARK SMILES IDX 8 1 9 2 6 3 7 4 5 5 4 6 3 7 2 8 1 9 10 11 11 12 15 13 16 14
REMARK SMILES IDX 17 15 12 17 13 18 14 19
REMARK H PARENT
REMARK Flexibility Score: 70.00
ROOT
ATOM      1  C   UNL     1      -2.969 -14.789  -5.557  1.00  0.00     0.136 C 
ATOM      2  O   UNL     1      -3.300 -14.320  -4.476  1.00  0.00    -0.299 OA
ENDROOT
BRANCH   1   3
ATOM      3  C   UNL     1      -2.994 -16.300  -5.705  1.00  0.00     0.053 C 
ATOM      4  C   UNL     1      -1.620 -16.992  -5.722  1.00  0.00     0.016 C 
BRANCH   3   5
ATOM      5  C   UNL     1      -3.967 -16.752  -6.822  1.00  0.00     0.015 C 
BRANCH   5   6
ATOM      6  C   UNL     1      -3.741 -16.290  -8.284  1.00  0.00     0.028 C 
BRANCH   6   7
ATOM      7  C   UNL     1      -4.778 -15.416  -8.948  1.00  0.00    -0.028 C 
ATOM      8  C   UNL     1      -5.638 -14.579  -8.328  1.00  0.00    -0.070 CG0
ATOM      9  C   UNL     1      -6.815 -14.073  -9.125  1.00  0.00     0.039 C 
ATOM     10  G   UNL     1      -5.528 -14.214  -6.864  1.00  0.00     0.000 G0
ENDBRANCH   6   7
ENDBRANCH   5   6
ENDBRANCH   3   5
ENDBRANCH   1   3
BRANCH   1  11
ATOM     11  C   UNL     1      -2.477 -13.847  -6.633  1.00  0.00     0.087 C 
BRANCH  11  12
ATOM     12  C   UNL     1      -3.390 -12.596  -6.821  1.00  0.00     0.066 C 
BRANCH  12  13
ATOM     13  C   UNL     1      -4.894 -12.866  -6.647  1.00  0.00     0.140 C 
ATOM     14  O   UNL     1      -5.598 -11.961  -6.223  1.00  0.00    -0.299 OA
BRANCH  13  15
ATOM     15  C   UNL     1      -5.558 -14.212  -6.874  1.00  0.00     0.106 CG0
ATOM     16  G   UNL     1      -5.624 -14.585  -8.339  1.00  0.00     0.000 G0
ENDBRANCH  13  15
ENDBRANCH  12  13
BRANCH  12  17
ATOM     17  C   UNL     1      -3.098 -11.840  -8.162  1.00  0.00    -0.006 C 
ATOM     18  C   UNL     1      -4.367 -11.377  -8.892  1.00  0.00     0.008 C 
ATOM     19  C   UNL     1      -2.201 -12.648  -9.116  1.00  0.00     0.008 C 
ENDBRANCH  12  17
ENDBRANCH  11  12
ENDBRANCH   1  11
TORSDOF 1
ENDMDL
MODEL 7
REMARK VINA RESULT:    -2.371      1.711      3.418
REMARK INTER + INTRA:          -2.258
REMARK INTER:                  -2.167
REMARK INTRA:                  -0.090
REMARK UNBOUND:                 1.361
REMARK SMILES CC1=CCC[C@@H](C)C(=O)C[C@@H](C(C)C)C(=O)C1
REMARK SMILES IDX 8 1 9 2 6 3 7 4 5 5 4 6 3 7 2 8 1 9 10 11 11 12 15 13 16 14
REMARK SMILES IDX 17 15 12 17 13 18 14 19
REMARK H PARENT
REMARK Flexibility Score: 70.00
ROOT
ATOM      1  C   UNL     1      -5.516 -14.318  -6.372  1.00  0.00     0.136 C 
ATOM      2  O   UNL     1      -6.075 -14.958  -5.492  1.00  0.00    -0.299 OA
ENDROOT
BRANCH   1   3
ATOM      3  C   UNL     1      -5.913 -12.862  -6.542  1.00  0.00     0.053 C 
ATOM      4  C   UNL     1      -6.725 -12.252  -5.386  1.00  0.00     0.016 C 
BRANCH   3   5
ATOM      5  C   UNL     1      -6.478 -12.581  -7.957  1.00  0.00     0.015 C 
BRANCH   5   6
ATOM      6  C   UNL     1      -5.539 -12.087  -9.086  1.00  0.00     0.028 C 
BRANCH   6   7
ATOM      7  C   UNL     1      -4.268 -11.357  -8.720  1.00  0.00    -0.028 C 
ATOM      8  C   UNL     1      -3.030 -11.891  -8.638  1.00  0.00    -0.070 CG0
ATOM      9  C   UNL     1      -1.971 -11.091  -7.921  1.00  0.00     0.039 C 
ATOM     10  G   UNL     1      -2.693 -13.279  -9.138  1.00  0.00     0.000 G0
ENDBRANCH   6   7
ENDBRANCH   5   6
ENDBRANCH   3   5
ENDBRANCH   1   3
BRANCH   1  11
ATOM     11  C   UNL     1      -4.541 -15.035  -7.280  1.00  0.00     0.087 C 
BRANCH  11  12
ATOM     12  C   UNL     1      -3.049 -14.797  -6.891  1.00  0.00     0.066 C 
BRANCH  12  13
ATOM     13  C   UNL     1      -2.184 -14.189  -8.007  1.00  0.00     0.140 C 
ATOM     14  O   UNL     1      -0.975 -14.365  -7.961  1.00  0.00    -0.299 OA
BRANCH  13  15
ATOM     15  C   UNL     1      -2.712 -13.298  -9.117  1.00  0.00     0.106 CG0
ATOM     16  G   UNL     1      -3.028 -11.899  -8.636  1.00  0.00     0.000 G0
ENDBRANCH  13  15
ENDBRANCH  12  13
BRANCH  12  17
ATOM     17  C   UNL     1      -2.379 -16.077  -6.284  1.00  0.00    -0.006 C 
ATOM     18  C   UNL     1      -3.380 -17.196  -5.960  1.00  0.00     0.008 C 
ATOM     19  C   UNL     1      -1.512 -15.766  -5.051  1.00  0.00     0.008 C 
ENDBRANCH  12  17
ENDBRANCH  11  12
ENDBRANCH   1  11
TORSDOF 1
ENDMDL
MODEL 8
REMARK VINA RESULT:    -2.130      1.835      4.346
REMARK INTER + INTRA:          -1.889
REMARK INTER:                  -3.811
REMARK INTRA:                   1.922
REMARK UNBOUND:                 1.361
REMARK SMILES CC1=CCC[C@@H](C)C(=O)C[C@@H](C(C)C)C(=O)C1
REMARK SMILES IDX 8 1 9 2 6 3 7 4 5 5 4 6 3 7 2 8 1 9 10 11 11 12 15 13 16 14
REMARK SMILES IDX 17 15 12 17 13 18 14 19
REMARK H PARENT
REMARK Flexibility Score: 70.00
ROOT
ATOM      1  C   UNL     1      -2.864 -12.444  -7.907  1.00  0.00     0.136 C 
ATOM      2  O   UNL     1      -2.909 -11.504  -8.689  1.00  0.00    -0.299 OA
ENDROOT
BRANCH   1   3
ATOM      3  C   UNL     1      -1.800 -13.502  -8.142  1.00  0.00     0.053 C 
ATOM      4  C   UNL     1      -2.180 -14.625  -9.121  1.00  0.00     0.016 C 
BRANCH   3   5
ATOM      5  C   UNL     1      -1.163 -13.981  -6.813  1.00  0.00     0.015 C 
BRANCH   5   6
ATOM      6  C   UNL     1      -2.018 -14.751  -5.775  1.00  0.00     0.028 C 
BRANCH   6   7
ATOM      7  C   UNL     1      -2.372 -16.196  -6.038  1.00  0.00    -0.028 C 
ATOM      8  C   UNL     1      -3.617 -16.715  -6.114  1.00  0.00    -0.070 CG0
ATOM      9  C   UNL     1      -3.752 -18.215  -6.030  1.00  0.00     0.039 C 
ATOM     10  G   UNL     1      -4.867 -15.865  -6.179  1.00  0.00     0.000 G0
ENDBRANCH   6   7
ENDBRANCH   5   6
ENDBRANCH   3   5
ENDBRANCH   1   3
BRANCH   1  11
ATOM     11  C   UNL     1      -3.914 -12.534  -6.823  1.00  0.00     0.087 C 
BRANCH  11  12
ATOM     12  C   UNL     1      -5.155 -13.384  -7.237  1.00  0.00     0.066 C 
BRANCH  12  13
ATOM     13  C   UNL     1      -4.890 -14.894  -7.353  1.00  0.00     0.140 C 
ATOM     14  O   UNL     1      -4.760 -15.373  -8.470  1.00  0.00    -0.299 OA
BRANCH  13  15
ATOM     15  C   UNL     1      -4.874 -15.857  -6.180  1.00  0.00     0.106 CG0
ATOM     16  G   UNL     1      -3.622 -16.708  -6.148  1.00  0.00     0.000 G0
ENDBRANCH  13  15
ENDBRANCH  12  13
BRANCH  12  17
ATOM     17  C   UNL     1      -5.857 -12.828  -8.523  1.00  0.00    -0.006 C 
ATOM     18  C   UNL     1      -6.357 -11.384  -8.372  1.00  0.00     0.008 C 
ATOM     19  C   UNL     1      -6.996 -13.737  -9.018  1.00  0.00     0.008 C 
ENDBRANCH  12  17
ENDBRANCH  11  12
ENDBRANCH   1  11
TORSDOF 1
ENDMDL
MODEL 9
REMARK VINA RESULT:    -2.067      1.831      2.999
REMARK INTER + INTRA:          -1.794
REMARK INTER:                  -3.563
REMARK INTRA:                   1.769
REMARK UNBOUND:                 1.361
REMARK SMILES CC1=CCC[C@@H](C)C(=O)C[C@@H](C(C)C)C(=O)C1
REMARK SMILES IDX 8 1 9 2 6 3 7 4 5 5 4 6 3 7 2 8 1 9 10 11 11 12 15 13 16 14
REMARK SMILES IDX 17 15 12 17 13 18 14 19
REMARK H PARENT
REMARK Flexibility Score: 70.00
ROOT
ATOM      1  C   UNL     1      -3.816 -12.263  -6.883  1.00  0.00     0.136 C 
ATOM      2  O   UNL     1      -2.823 -11.587  -7.113  1.00  0.00    -0.299 OA
ENDROOT
BRANCH   1   3
ATOM      3  C   UNL     1      -5.155 -11.731  -7.362  1.00  0.00     0.053 C 
ATOM      4  C   UNL     1      -6.328 -11.893  -6.379  1.00  0.00     0.016 C 
BRANCH   3   5
ATOM      5  C   UNL     1      -5.459 -12.165  -8.818  1.00  0.00     0.015 C 
BRANCH   5   6
ATOM      6  C   UNL     1      -6.338 -13.411  -9.091  1.00  0.00     0.028 C 
BRANCH   6   7
ATOM      7  C   UNL     1      -5.880 -14.761  -8.588  1.00  0.00    -0.028 C 
ATOM      8  C   UNL     1      -4.634 -15.271  -8.684  1.00  0.00    -0.070 CG0
ATOM      9  C   UNL     1      -4.466 -16.751  -8.446  1.00  0.00     0.039 C 
ATOM     10  G   UNL     1      -3.434 -14.453  -9.110  1.00  0.00     0.000 G0
ENDBRANCH   6   7
ENDBRANCH   5   6
ENDBRANCH   3   5
ENDBRANCH   1   3
BRANCH   1  11
ATOM     11  C   UNL     1      -3.656 -13.529  -6.070  1.00  0.00     0.087 C 
BRANCH  11  12
ATOM     12  C   UNL     1      -2.501 -14.446  -6.578  1.00  0.00     0.066 C 
BRANCH  12  13
ATOM     13  C   UNL     1      -2.300 -14.442  -8.101  1.00  0.00     0.140 C 
ATOM     14  O   UNL     1      -1.160 -14.346  -8.534  1.00  0.00    -0.299 OA
BRANCH  13  15
ATOM     15  C   UNL     1      -3.427 -14.451  -9.119  1.00  0.00     0.106 CG0
ATOM     16  G   UNL     1      -4.610 -15.280  -8.665  1.00  0.00     0.000 G0
ENDBRANCH  13  15
ENDBRANCH  12  13
BRANCH  12  17
ATOM     17  C   UNL     1      -2.612 -15.907  -6.022  1.00  0.00    -0.006 C 
ATOM     18  C   UNL     1      -3.826 -16.124  -5.107  1.00  0.00     0.008 C 
ATOM     19  C   UNL     1      -1.325 -16.373  -5.317  1.00  0.00     0.008 C 
ENDBRANCH  12  17
ENDBRANCH  11  12
ENDBRANCH   1  11
TORSDOF 1
ENDMDL
