MODEL 1
REMARK VINA RESULT:    -3.869      0.000      0.000
REMARK INTER + INTRA:          -5.255
REMARK INTER:                  -5.225
REMARK INTRA:                  -0.030
REMARK UNBOUND:                -0.030
REMARK SMILES C=C1C(=O)O[C@@H]2[C@@H]1CCC(C)=CCC[C@]1(C)O[C@H]21
REMARK SMILES IDX 6 1 7 2 2 3 1 4 3 5 4 6 5 7 8 8 9 9 10 10 11 11 12 12 18 14
REMARK SMILES IDX 15 15 17 16 16 17 14 18 13 19
REMARK H PARENT
REMARK Flexibility Score: 70.00
ROOT
ATOM      1  C   UNL     1     -14.862 -21.967 -39.900  1.00  0.00     0.216 C 
ATOM      2  C   UNL     1     -16.160 -22.769 -39.509  1.00  0.00     0.070 C 
ATOM      3  C   UNL     1     -16.059 -24.006 -40.357  1.00  0.00     0.037 C 
ATOM      4  C   UNL     1     -16.927 -25.017 -40.385  1.00  0.00     0.021 C 
ATOM      5  C   UNL     1     -14.982 -23.808 -41.295  1.00  0.00     0.334 C 
ATOM      6  O   UNL     1     -14.659 -24.598 -42.220  1.00  0.00    -0.247 OA
ATOM      7  O   UNL     1     -14.361 -22.599 -41.074  1.00  0.00    -0.455 OA
ENDROOT
BRANCH   2   8
ATOM      8  C   UNL     1     -16.255 -23.080 -37.987  1.00  0.00     0.017 C 
BRANCH   8   9
ATOM      9  C   UNL     1     -16.958 -21.953 -37.198  1.00  0.00     0.031 C 
BRANCH   9  10
ATOM     10  C   UNL     1     -16.281 -21.666 -35.870  1.00  0.00    -0.077 C 
ATOM     11  C   UNL     1     -16.347 -22.715 -34.791  1.00  0.00     0.039 C 
ATOM     12  C   UNL     1     -15.604 -20.519 -35.614  1.00  0.00    -0.028 CG0
ATOM     13  G   UNL     1     -15.397 -19.397 -36.607  1.00  0.00     0.000 G0
ENDBRANCH   9  10
ENDBRANCH   8   9
ENDBRANCH   2   8
BRANCH   1  14
ATOM     14  C   UNL     1     -15.076 -20.461 -40.185  1.00  0.00     0.192 C 
ATOM     15  C   UNL     1     -14.815 -19.430 -39.121  1.00  0.00     0.096 C 
ATOM     16  O   UNL     1     -16.112 -19.901 -39.406  1.00  0.00    -0.362 OA
ATOM     17  C   UNL     1     -14.648 -17.978 -39.571  1.00  0.00     0.045 C 
BRANCH  15  18
ATOM     18  C   UNL     1     -14.368 -19.789 -37.684  1.00  0.00     0.042 C 
BRANCH  18  19
ATOM     19  C   UNL     1     -15.402 -19.396 -36.607  1.00  0.00     0.030 CG0
ATOM     20  G   UNL     1     -15.618 -20.515 -35.613  1.00  0.00     0.000 G0
ENDBRANCH  18  19
ENDBRANCH  15  18
ENDBRANCH   1  14
TORSDOF 0
ENDMDL
MODEL 2
REMARK VINA RESULT:    -3.531      6.980      8.026
REMARK INTER + INTRA:          -4.799
REMARK INTER:                  -4.658
REMARK INTRA:                  -0.141
REMARK UNBOUND:                -0.030
REMARK SMILES C=C1C(=O)O[C@@H]2[C@@H]1CCC(C)=CCC[C@]1(C)O[C@H]21
REMARK SMILES IDX 6 1 7 2 2 3 1 4 3 5 4 6 5 7 8 8 9 9 10 10 11 11 12 12 18 14
REMARK SMILES IDX 15 15 17 16 16 17 14 18 13 19
REMARK H PARENT
REMARK Flexibility Score: 70.00
ROOT
ATOM      1  C   UNL     1     -11.259 -26.691 -36.623  1.00  0.00     0.216 C 
ATOM      2  C   UNL     1      -9.886 -26.251 -35.990  1.00  0.00     0.070 C 
ATOM      3  C   UNL     1      -9.007 -26.059 -37.193  1.00  0.00     0.037 C 
ATOM      4  C   UNL     1      -7.730 -25.675 -37.184  1.00  0.00     0.021 C 
ATOM      5  C   UNL     1      -9.712 -26.575 -38.339  1.00  0.00     0.334 C 
ATOM      6  O   UNL     1      -9.251 -26.662 -39.507  1.00  0.00    -0.247 OA
ATOM      7  O   UNL     1     -10.968 -27.010 -37.981  1.00  0.00    -0.455 OA
ENDROOT
BRANCH   2   8
ATOM      8  C   UNL     1      -9.999 -24.973 -35.107  1.00  0.00     0.017 C 
BRANCH   8   9
ATOM      9  C   UNL     1     -10.130 -25.304 -33.604  1.00  0.00     0.031 C 
BRANCH   9  10
ATOM     10  C   UNL     1     -11.111 -24.390 -32.892  1.00  0.00    -0.077 C 
ATOM     11  C   UNL     1     -10.680 -22.979 -32.585  1.00  0.00     0.039 C 
ATOM     12  C   UNL     1     -12.360 -24.775 -32.536  1.00  0.00    -0.028 CG0
ATOM     13  G   UNL     1     -12.962 -26.133 -32.823  1.00  0.00     0.000 G0
ENDBRANCH   9  10
ENDBRANCH   8   9
ENDBRANCH   2   8
BRANCH   1  14
ATOM     14  C   UNL     1     -11.939 -27.907 -35.949  1.00  0.00     0.192 C 
ATOM     15  C   UNL     1     -12.949 -27.715 -34.850  1.00  0.00     0.096 C 
ATOM     16  O   UNL     1     -11.602 -28.032 -34.584  1.00  0.00    -0.362 OA
ATOM     17  C   UNL     1     -13.865 -28.893 -34.519  1.00  0.00     0.045 C 
BRANCH  15  18
ATOM     18  C   UNL     1     -13.341 -26.325 -34.293  1.00  0.00     0.042 C 
BRANCH  18  19
ATOM     19  C   UNL     1     -12.979 -26.142 -32.803  1.00  0.00     0.030 CG0
ATOM     20  G   UNL     1     -12.353 -24.788 -32.549  1.00  0.00     0.000 G0
ENDBRANCH  18  19
ENDBRANCH  15  18
ENDBRANCH   1  14
TORSDOF 0
ENDMDL
MODEL 3
REMARK VINA RESULT:    -3.478      3.856      6.306
REMARK INTER + INTRA:          -4.728
REMARK INTER:                  -4.591
REMARK INTRA:                  -0.137
REMARK UNBOUND:                -0.030
REMARK SMILES C=C1C(=O)O[C@@H]2[C@@H]1CCC(C)=CCC[C@]1(C)O[C@H]21
REMARK SMILES IDX 6 1 7 2 2 3 1 4 3 5 4 6 5 7 8 8 9 9 10 10 11 11 12 12 18 14
REMARK SMILES IDX 15 15 17 16 16 17 14 18 13 19
REMARK H PARENT
REMARK Flexibility Score: 70.00
ROOT
ATOM      1  C   UNL     1     -12.478 -24.950 -43.561  1.00  0.00     0.216 C 
ATOM      2  C   UNL     1     -12.358 -25.074 -41.995  1.00  0.00     0.070 C 
ATOM      3  C   UNL     1     -10.929 -25.494 -41.800  1.00  0.00     0.037 C 
ATOM      4  C   UNL     1     -10.326 -25.726 -40.633  1.00  0.00     0.021 C 
ATOM      5  C   UNL     1     -10.385 -25.818 -43.096  1.00  0.00     0.334 C 
ATOM      6  O   UNL     1      -9.239 -26.290 -43.314  1.00  0.00    -0.247 OA
ATOM      7  O   UNL     1     -11.313 -25.581 -44.084  1.00  0.00    -0.455 OA
ENDROOT
BRANCH   2   8
ATOM      8  C   UNL     1     -12.714 -23.757 -41.246  1.00  0.00     0.017 C 
BRANCH   8   9
ATOM      9  C   UNL     1     -14.107 -23.816 -40.580  1.00  0.00     0.031 C 
BRANCH   9  10
ATOM     10  C   UNL     1     -14.857 -22.500 -40.688  1.00  0.00    -0.077 C 
ATOM     11  C   UNL     1     -14.498 -21.392 -39.733  1.00  0.00     0.039 C 
ATOM     12  C   UNL     1     -15.820 -22.268 -41.614  1.00  0.00    -0.028 CG0
ATOM     13  G   UNL     1     -16.254 -23.253 -42.677  1.00  0.00     0.000 G0
ENDBRANCH   9  10
ENDBRANCH   8   9
ENDBRANCH   2   8
BRANCH   1  14
ATOM     14  C   UNL     1     -13.735 -25.605 -44.182  1.00  0.00     0.192 C 
ATOM     15  C   UNL     1     -15.021 -24.836 -44.313  1.00  0.00     0.096 C 
ATOM     16  O   UNL     1     -14.792 -25.741 -43.257  1.00  0.00    -0.362 OA
ATOM     17  C   UNL     1     -16.073 -25.379 -45.281  1.00  0.00     0.045 C 
BRANCH  15  18
ATOM     18  C   UNL     1     -15.196 -23.384 -43.808  1.00  0.00     0.042 C 
BRANCH  18  19
ATOM     19  C   UNL     1     -16.262 -23.248 -42.700  1.00  0.00     0.030 CG0
ATOM     20  G   UNL     1     -15.819 -22.284 -41.622  1.00  0.00     0.000 G0
ENDBRANCH  18  19
ENDBRANCH  15  18
ENDBRANCH   1  14
TORSDOF 0
ENDMDL
MODEL 4
REMARK VINA RESULT:    -3.413      6.640      8.898
REMARK INTER + INTRA:          -4.641
REMARK INTER:                  -4.735
REMARK INTRA:                   0.094
REMARK UNBOUND:                -0.030
REMARK SMILES C=C1C(=O)O[C@@H]2[C@@H]1CCC(C)=CCC[C@]1(C)O[C@H]21
REMARK SMILES IDX 6 1 7 2 2 3 1 4 3 5 4 6 5 7 8 8 9 9 10 10 11 11 12 12 18 14
REMARK SMILES IDX 15 15 17 16 16 17 14 18 13 19
REMARK H PARENT
REMARK Flexibility Score: 70.00
ROOT
ATOM      1  C   UNL     1      -8.833 -26.014 -40.645  1.00  0.00     0.216 C 
ATOM      2  C   UNL     1      -9.975 -26.590 -39.726  1.00  0.00     0.070 C 
ATOM      3  C   UNL     1      -9.520 -26.208 -38.346  1.00  0.00     0.037 C 
ATOM      4  C   UNL     1     -10.159 -26.468 -37.204  1.00  0.00     0.021 C 
ATOM      5  C   UNL     1      -8.171 -25.711 -38.450  1.00  0.00     0.334 C 
ATOM      6  O   UNL     1      -7.435 -25.377 -37.484  1.00  0.00    -0.247 OA
ATOM      7  O   UNL     1      -7.763 -25.685 -39.764  1.00  0.00    -0.455 OA
ENDROOT
BRANCH   2   8
ATOM      8  C   UNL     1     -11.386 -26.034 -40.079  1.00  0.00     0.017 C 
BRANCH   8   9
ATOM      9  C   UNL     1     -11.316 -24.717 -40.884  1.00  0.00     0.031 C 
BRANCH   9  10
ATOM     10  C   UNL     1     -12.388 -24.636 -41.956  1.00  0.00    -0.077 C 
ATOM     11  C   UNL     1     -13.451 -23.577 -41.827  1.00  0.00     0.039 C 
ATOM     12  C   UNL     1     -12.423 -25.458 -43.033  1.00  0.00    -0.028 CG0
ATOM     13  G   UNL     1     -11.400 -26.531 -43.338  1.00  0.00     0.000 G0
ENDBRANCH   9  10
ENDBRANCH   8   9
ENDBRANCH   2   8
BRANCH   1  14
ATOM     14  C   UNL     1      -8.314 -26.977 -41.739  1.00  0.00     0.192 C 
ATOM     15  C   UNL     1      -8.867 -26.927 -43.137  1.00  0.00     0.096 C 
ATOM     16  O   UNL     1      -9.307 -27.873 -42.191  1.00  0.00    -0.362 OA
ATOM     17  C   UNL     1      -8.051 -27.597 -44.243  1.00  0.00     0.045 C 
BRANCH  15  18
ATOM     18  C   UNL     1     -10.000 -25.964 -43.567  1.00  0.00     0.042 C 
BRANCH  18  19
ATOM     19  C   UNL     1     -11.412 -26.551 -43.357  1.00  0.00     0.030 CG0
ATOM     20  G   UNL     1     -12.421 -25.467 -43.046  1.00  0.00     0.000 G0
ENDBRANCH  18  19
ENDBRANCH  15  18
ENDBRANCH   1  14
TORSDOF 0
ENDMDL
MODEL 5
REMARK VINA RESULT:    -3.410      5.846      8.365
REMARK INTER + INTRA:          -4.636
REMARK INTER:                  -4.546
REMARK INTRA:                  -0.089
REMARK UNBOUND:                -0.030
REMARK SMILES C=C1C(=O)O[C@@H]2[C@@H]1CCC(C)=CCC[C@]1(C)O[C@H]21
REMARK SMILES IDX 6 1 7 2 2 3 1 4 3 5 4 6 5 7 8 8 9 9 10 10 11 11 12 12 18 14
REMARK SMILES IDX 15 15 17 16 16 17 14 18 13 19
REMARK H PARENT
REMARK Flexibility Score: 70.00
ROOT
ATOM      1  C   UNL     1     -12.943 -25.670 -42.895  1.00  0.00     0.216 C 
ATOM      2  C   UNL     1     -12.425 -24.416 -42.095  1.00  0.00     0.070 C 
ATOM      3  C   UNL     1     -13.689 -23.827 -41.537  1.00  0.00     0.037 C 
ATOM      4  C   UNL     1     -13.782 -22.740 -40.770  1.00  0.00     0.021 C 
ATOM      5  C   UNL     1     -14.800 -24.507 -42.154  1.00  0.00     0.334 C 
ATOM      6  O   UNL     1     -16.016 -24.223 -41.994  1.00  0.00    -0.247 OA
ATOM      7  O   UNL     1     -14.355 -25.504 -42.993  1.00  0.00    -0.455 OA
ENDROOT
BRANCH   2   8
ATOM      8  C   UNL     1     -11.383 -24.777 -40.996  1.00  0.00     0.017 C 
BRANCH   8   9
ATOM      9  C   UNL     1      -9.927 -24.655 -41.501  1.00  0.00     0.031 C 
BRANCH   9  10
ATOM     10  C   UNL     1      -9.039 -25.771 -40.982  1.00  0.00    -0.077 C 
ATOM     11  C   UNL     1      -8.638 -25.750 -39.530  1.00  0.00     0.039 C 
ATOM     12  C   UNL     1      -8.604 -26.795 -41.757  1.00  0.00    -0.028 CG0
ATOM     13  G   UNL     1      -8.964 -26.991 -43.213  1.00  0.00     0.000 G0
ENDBRANCH   9  10
ENDBRANCH   8   9
ENDBRANCH   2   8
BRANCH   1  14
ATOM     14  C   UNL     1     -12.351 -25.842 -44.314  1.00  0.00     0.192 C 
ATOM     15  C   UNL     1     -11.151 -26.718 -44.549  1.00  0.00     0.096 C 
ATOM     16  O   UNL     1     -11.045 -25.319 -44.426  1.00  0.00    -0.362 OA
ATOM     17  C   UNL     1     -10.873 -27.165 -45.984  1.00  0.00     0.045 C 
BRANCH  15  18
ATOM     18  C   UNL     1     -10.408 -27.461 -43.413  1.00  0.00     0.042 C 
BRANCH  18  19
ATOM     19  C   UNL     1      -8.954 -26.982 -43.220  1.00  0.00     0.030 CG0
ATOM     20  G   UNL     1      -8.620 -26.802 -41.755  1.00  0.00     0.000 G0
ENDBRANCH  18  19
ENDBRANCH  15  18
ENDBRANCH   1  14
TORSDOF 0
ENDMDL
MODEL 6
REMARK VINA RESULT:    -3.354      5.603      8.310
REMARK INTER + INTRA:          -4.560
REMARK INTER:                  -4.679
REMARK INTRA:                   0.119
REMARK UNBOUND:                -0.030
REMARK SMILES C=C1C(=O)O[C@@H]2[C@@H]1CCC(C)=CCC[C@]1(C)O[C@H]21
REMARK SMILES IDX 6 1 7 2 2 3 1 4 3 5 4 6 5 7 8 8 9 9 10 10 11 11 12 12 18 14
REMARK SMILES IDX 15 15 17 16 16 17 14 18 13 19
REMARK H PARENT
REMARK Flexibility Score: 70.00
ROOT
ATOM      1  C   UNL     1     -11.566 -25.479 -41.060  1.00  0.00     0.216 C 
ATOM      2  C   UNL     1     -10.214 -25.152 -41.799  1.00  0.00     0.070 C 
ATOM      3  C   UNL     1      -9.176 -25.687 -40.855  1.00  0.00     0.037 C 
ATOM      4  C   UNL     1      -7.855 -25.658 -41.035  1.00  0.00     0.021 C 
ATOM      5  C   UNL     1      -9.840 -26.037 -39.624  1.00  0.00     0.334 C 
ATOM      6  O   UNL     1      -9.275 -26.438 -38.573  1.00  0.00    -0.247 OA
ATOM      7  O   UNL     1     -11.197 -25.832 -39.729  1.00  0.00    -0.455 OA
ENDROOT
BRANCH   2   8
ATOM      8  C   UNL     1     -10.126 -25.779 -43.222  1.00  0.00     0.017 C 
BRANCH   8   9
ATOM      9  C   UNL     1     -11.101 -25.115 -44.220  1.00  0.00     0.031 C 
BRANCH   9  10
ATOM     10  C   UNL     1     -11.912 -26.132 -45.002  1.00  0.00    -0.077 C 
ATOM     11  C   UNL     1     -11.174 -27.189 -45.781  1.00  0.00     0.039 C 
ATOM     12  C   UNL     1     -13.268 -26.147 -45.017  1.00  0.00    -0.028 CG0
ATOM     13  G   UNL     1     -14.153 -25.195 -44.243  1.00  0.00     0.000 G0
ENDBRANCH   9  10
ENDBRANCH   8   9
ENDBRANCH   2   8
BRANCH   1  14
ATOM     14  C   UNL     1     -12.592 -24.322 -41.014  1.00  0.00     0.192 C 
ATOM     15  C   UNL     1     -13.866 -24.388 -41.810  1.00  0.00     0.096 C 
ATOM     16  O   UNL     1     -12.738 -23.674 -42.259  1.00  0.00    -0.362 OA
ATOM     17  C   UNL     1     -14.996 -23.437 -41.415  1.00  0.00     0.045 C 
BRANCH  15  18
ATOM     18  C   UNL     1     -14.219 -25.567 -42.748  1.00  0.00     0.042 C 
BRANCH  18  19
ATOM     19  C   UNL     1     -14.160 -25.196 -44.245  1.00  0.00     0.030 CG0
ATOM     20  G   UNL     1     -13.273 -26.148 -45.016  1.00  0.00     0.000 G0
ENDBRANCH  18  19
ENDBRANCH  15  18
ENDBRANCH   1  14
TORSDOF 0
ENDMDL
MODEL 7
REMARK VINA RESULT:    -3.317      6.992      9.248
REMARK INTER + INTRA:          -4.511
REMARK INTER:                  -5.022
REMARK INTRA:                   0.512
REMARK UNBOUND:                -0.030
REMARK SMILES C=C1C(=O)O[C@@H]2[C@@H]1CCC(C)=CCC[C@]1(C)O[C@H]21
REMARK SMILES IDX 6 1 7 2 2 3 1 4 3 5 4 6 5 7 8 8 9 9 10 10 11 11 12 12 18 14
REMARK SMILES IDX 15 15 17 16 16 17 14 18 13 19
REMARK H PARENT
REMARK Flexibility Score: 70.00
ROOT
ATOM      1  C   UNL     1     -10.742 -26.169 -40.251  1.00  0.00     0.216 C 
ATOM      2  C   UNL     1      -9.394 -25.410 -39.954  1.00  0.00     0.070 C 
ATOM      3  C   UNL     1      -9.055 -25.858 -38.560  1.00  0.00     0.037 C 
ATOM      4  C   UNL     1      -7.986 -25.494 -37.852  1.00  0.00     0.021 C 
ATOM      5  C   UNL     1     -10.195 -26.570 -38.039  1.00  0.00     0.334 C 
ATOM      6  O   UNL     1     -10.309 -27.018 -36.868  1.00  0.00    -0.247 OA
ATOM      7  O   UNL     1     -11.185 -26.666 -38.991  1.00  0.00    -0.455 OA
ENDROOT
BRANCH   2   8
ATOM      8  C   UNL     1      -8.271 -25.727 -40.986  1.00  0.00     0.017 C 
BRANCH   8   9
ATOM      9  C   UNL     1      -8.362 -27.170 -41.531  1.00  0.00     0.031 C 
BRANCH   9  10
ATOM     10  C   UNL     1      -8.084 -27.245 -43.021  1.00  0.00    -0.077 C 
ATOM     11  C   UNL     1      -6.718 -27.694 -43.472  1.00  0.00     0.039 C 
ATOM     12  C   UNL     1      -9.009 -26.946 -43.965  1.00  0.00    -0.028 CG0
ATOM     13  G   UNL     1     -10.437 -26.538 -43.679  1.00  0.00     0.000 G0
ENDBRANCH   9  10
ENDBRANCH   8   9
ENDBRANCH   2   8
BRANCH   1  14
ATOM     14  C   UNL     1     -11.862 -25.306 -40.880  1.00  0.00     0.192 C 
ATOM     15  C   UNL     1     -11.750 -24.808 -42.295  1.00  0.00     0.096 C 
ATOM     16  O   UNL     1     -11.434 -23.997 -41.187  1.00  0.00    -0.362 OA
ATOM     17  C   UNL     1     -13.031 -24.329 -42.978  1.00  0.00     0.045 C 
BRANCH  15  18
ATOM     18  C   UNL     1     -10.517 -25.075 -43.192  1.00  0.00     0.042 C 
BRANCH  18  19
ATOM     19  C   UNL     1     -10.440 -26.528 -43.706  1.00  0.00     0.030 CG0
ATOM     20  G   UNL     1      -9.010 -26.948 -43.966  1.00  0.00     0.000 G0
ENDBRANCH  18  19
ENDBRANCH  15  18
ENDBRANCH   1  14
TORSDOF 0
ENDMDL
MODEL 8
REMARK VINA RESULT:    -3.018      3.588      6.118
REMARK INTER + INTRA:          -4.107
REMARK INTER:                  -4.102
REMARK INTRA:                  -0.005
REMARK UNBOUND:                -0.030
REMARK SMILES C=C1C(=O)O[C@@H]2[C@@H]1CCC(C)=CCC[C@]1(C)O[C@H]21
REMARK SMILES IDX 6 1 7 2 2 3 1 4 3 5 4 6 5 7 8 8 9 9 10 10 11 11 12 12 18 14
REMARK SMILES IDX 15 15 17 16 16 17 14 18 13 19
REMARK H PARENT
REMARK Flexibility Score: 70.00
ROOT
ATOM      1  C   UNL     1     -16.236 -22.593 -41.369  1.00  0.00     0.216 C 
ATOM      2  C   UNL     1     -14.892 -22.320 -40.594  1.00  0.00     0.070 C 
ATOM      3  C   UNL     1     -15.207 -21.084 -39.800  1.00  0.00     0.037 C 
ATOM      4  C   UNL     1     -14.382 -20.451 -38.965  1.00  0.00     0.021 C 
ATOM      5  C   UNL     1     -16.474 -20.576 -40.263  1.00  0.00     0.334 C 
ATOM      6  O   UNL     1     -17.016 -19.504 -39.887  1.00  0.00    -0.247 OA
ATOM      7  O   UNL     1     -17.009 -21.406 -41.221  1.00  0.00    -0.455 OA
ENDROOT
BRANCH   2   8
ATOM      8  C   UNL     1     -14.441 -23.518 -39.706  1.00  0.00     0.017 C 
BRANCH   8   9
ATOM      9  C   UNL     1     -13.642 -24.574 -40.502  1.00  0.00     0.031 C 
BRANCH   9  10
ATOM     10  C   UNL     1     -14.038 -25.994 -40.140  1.00  0.00    -0.077 C 
ATOM     11  C   UNL     1     -13.747 -26.484 -38.745  1.00  0.00     0.039 C 
ATOM     12  C   UNL     1     -14.657 -26.835 -41.004  1.00  0.00    -0.028 CG0
ATOM     13  G   UNL     1     -15.069 -26.478 -42.415  1.00  0.00     0.000 G0
ENDBRANCH   9  10
ENDBRANCH   8   9
ENDBRANCH   2   8
BRANCH   1  14
ATOM     14  C   UNL     1     -16.078 -22.915 -42.874  1.00  0.00     0.192 C 
ATOM     15  C   UNL     1     -16.127 -24.334 -43.370  1.00  0.00     0.096 C 
ATOM     16  O   UNL     1     -14.910 -23.657 -43.153  1.00  0.00    -0.362 OA
ATOM     17  C   UNL     1     -16.374 -24.553 -44.863  1.00  0.00     0.045 C 
BRANCH  15  18
ATOM     18  C   UNL     1     -16.289 -25.554 -42.432  1.00  0.00     0.042 C 
BRANCH  18  19
ATOM     19  C   UNL     1     -15.056 -26.483 -42.420  1.00  0.00     0.030 CG0
ATOM     20  G   UNL     1     -14.645 -26.840 -41.009  1.00  0.00     0.000 G0
ENDBRANCH  18  19
ENDBRANCH  15  18
ENDBRANCH   1  14
TORSDOF 0
ENDMDL
MODEL 9
REMARK VINA RESULT:    -2.959      5.570      7.680
REMARK INTER + INTRA:          -4.027
REMARK INTER:                  -3.903
REMARK INTRA:                  -0.124
REMARK UNBOUND:                -0.030
REMARK SMILES C=C1C(=O)O[C@@H]2[C@@H]1CCC(C)=CCC[C@]1(C)O[C@H]21
REMARK SMILES IDX 6 1 7 2 2 3 1 4 3 5 4 6 5 7 8 8 9 9 10 10 11 11 12 12 18 14
REMARK SMILES IDX 15 15 17 16 16 17 14 18 13 19
REMARK H PARENT
REMARK Flexibility Score: 70.00
ROOT
ATOM      1  C   UNL     1     -11.046 -26.564 -44.232  1.00  0.00     0.216 C 
ATOM      2  C   UNL     1     -12.104 -25.840 -45.147  1.00  0.00     0.070 C 
ATOM      3  C   UNL     1     -11.955 -26.553 -46.462  1.00  0.00     0.037 C 
ATOM      4  C   UNL     1     -12.646 -26.308 -47.575  1.00  0.00     0.021 C 
ATOM      5  C   UNL     1     -10.786 -27.392 -46.376  1.00  0.00     0.334 C 
ATOM      6  O   UNL     1     -10.300 -28.073 -47.316  1.00  0.00    -0.247 OA
ATOM      7  O   UNL     1     -10.229 -27.322 -45.119  1.00  0.00    -0.455 OA
ENDROOT
BRANCH   2   8
ATOM      8  C   UNL     1     -13.553 -25.904 -44.580  1.00  0.00     0.017 C 
BRANCH   8   9
ATOM      9  C   UNL     1     -13.986 -24.576 -43.919  1.00  0.00     0.031 C 
BRANCH   9  10
ATOM     10  C   UNL     1     -14.812 -24.796 -42.664  1.00  0.00    -0.077 C 
ATOM     11  C   UNL     1     -16.263 -25.167 -42.818  1.00  0.00     0.039 C 
ATOM     12  C   UNL     1     -14.301 -24.693 -41.412  1.00  0.00    -0.028 CG0
ATOM     13  G   UNL     1     -12.855 -24.387 -41.090  1.00  0.00     0.000 G0
ENDBRANCH   9  10
ENDBRANCH   8   9
ENDBRANCH   2   8
BRANCH   1  14
ATOM     14  C   UNL     1     -10.149 -25.626 -43.389  1.00  0.00     0.192 C 
ATOM     15  C   UNL     1     -10.572 -25.183 -42.015  1.00  0.00     0.096 C 
ATOM     16  O   UNL     1     -10.746 -24.369 -43.151  1.00  0.00    -0.362 OA
ATOM     17  C   UNL     1      -9.493 -24.614 -41.093  1.00  0.00     0.045 C 
BRANCH  15  18
ATOM     18  C   UNL     1     -11.922 -25.583 -41.373  1.00  0.00     0.042 C 
BRANCH  18  19
ATOM     19  C   UNL     1     -12.842 -24.378 -41.085  1.00  0.00     0.030 CG0
ATOM     20  G   UNL     1     -14.287 -24.695 -41.403  1.00  0.00     0.000 G0
ENDBRANCH  18  19
ENDBRANCH  15  18
ENDBRANCH   1  14
TORSDOF 0
ENDMDL
