MODEL 1
REMARK VINA RESULT:    -4.104      0.000      0.000
REMARK INTER + INTRA:          -4.383
REMARK INTER:                  -4.464
REMARK INTRA:                   0.081
REMARK UNBOUND:                 0.081
REMARK SMILES CC1(C)CC[C@]2(C(=O)[O-])CC[C@]3(C)C(=CC[C@H]4[C@]5(C)CC[C@H](O)C(C)(C)[C@@H]5CC[C@@]43C)[C@@H]2C1
REMARK SMILES IDX 6 1 5 2 10 3 32 4 4 5 11 6 14 7 33 8 2 9 12 10 15 11 1 12
REMARK SMILES IDX 3 13 13 14 30 15 16 16 17 17 29 18 31 19 18 20 28 21 27 22
REMARK SMILES IDX 20 23 19 24 24 25 21 26 22 27 25 28 26 29 7 30 8 31 9 32
REMARK SMILES IDX 23 33
REMARK H PARENT 23 34
REMARK Flexibility Score: inf
ROOT
ATOM      1  C   UNL     1      18.773  -1.819  16.250  1.00  0.00     0.017 C 
ATOM      2  C   UNL     1      19.399  -0.466  15.767  1.00  0.00     0.014 C 
ATOM      3  C   UNL     1      19.324  -2.122  17.667  1.00  0.00     0.014 C 
ATOM      4  C   UNL     1      19.155  -2.997  15.284  1.00  0.00     0.028 C 
ATOM      5  C   UNL     1      19.651  -0.446  14.254  1.00  0.00     0.007 C 
ATOM      6  C   UNL     1      18.712  -3.397  18.255  1.00  0.00     0.013 C 
ATOM      7  C   UNL     1      18.972  -4.396  15.877  1.00  0.00    -0.064 C 
ATOM      8  C   UNL     1      20.586  -2.806  14.720  1.00  0.00     0.015 C 
ATOM      9  C   UNL     1      20.695  -1.526  13.828  1.00  0.00    -0.035 C 
ATOM     10  C   UNL     1      18.962  -4.693  17.397  1.00  0.00    -0.006 C 
ATOM     11  C   UNL     1      18.976  -5.443  15.016  1.00  0.00    -0.027 C 
ATOM     12  C   UNL     1      22.123  -0.943  13.950  1.00  0.00     0.011 C 
ATOM     13  C   UNL     1      20.449  -1.895  12.349  1.00  0.00     0.011 C 
ATOM     14  C   UNL     1      20.454  -5.091  17.694  1.00  0.00     0.017 C 
ATOM     15  C   UNL     1      17.890  -5.896  17.765  1.00  0.00    -0.020 C 
ATOM     16  C   UNL     1      18.673  -6.839  15.489  1.00  0.00     0.032 C 
ATOM     17  C   UNL     1      17.504  -6.741  16.488  1.00  0.00     0.006 C 
ATOM     18  C   UNL     1      16.504  -5.364  18.273  1.00  0.00     0.008 C 
ATOM     19  C   UNL     1      18.514  -6.757  18.907  1.00  0.00     0.012 C 
ATOM     20  C   UNL     1      16.630  -8.055  16.717  1.00  0.00    -0.025 C 
ATOM     21  C   UNL     1      15.268  -6.296  18.082  1.00  0.00     0.005 C 
ATOM     22  C   UNL     1      15.565  -7.814  17.893  1.00  0.00     0.003 C 
ATOM     23  C   UNL     1      15.911  -8.367  15.357  1.00  0.00     0.010 C 
ATOM     24  C   UNL     1      17.561  -9.257  17.059  1.00  0.00     0.012 C 
ATOM     25  C   UNL     1      14.250  -8.723  17.858  1.00  0.00    -0.006 C 
ATOM     26  C   UNL     1      14.759  -9.365  15.442  1.00  0.00     0.033 C 
ATOM     27  C   UNL     1      13.686  -8.887  16.417  1.00  0.00     0.120 C 
ATOM     28  C   UNL     1      13.114  -8.151  18.755  1.00  0.00     0.014 C 
ATOM     29  C   UNL     1      14.546 -10.125  18.464  1.00  0.00     0.014 C 
ENDROOT
BRANCH   1  30
ATOM     30  C   UNL     1      17.253  -1.651  16.322  1.00  0.00     0.048 C 
ATOM     31  O   UNL     1      16.753  -0.511  16.530  1.00  0.00    -0.550 OA
ATOM     32  O   UNL     1      16.400  -2.741  16.176  1.00  0.00    -0.550 OA
ENDBRANCH   1  30
BRANCH  27  33
ATOM     33  O   UNL     1      13.152  -7.673  15.943  1.00  0.00    -0.393 OA
ATOM     34  H   UNL     1      13.838  -7.247  15.368  1.00  0.00     0.210 HD
ENDBRANCH  27  33
TORSDOF 2
ENDMDL
MODEL 2
REMARK VINA RESULT:    -3.863     14.219     17.444
REMARK INTER + INTRA:          -4.121
REMARK INTER:                  -3.935
REMARK INTRA:                  -0.186
REMARK UNBOUND:                 0.081
REMARK SMILES CC1(C)CC[C@]2(C(=O)[O-])CC[C@]3(C)C(=CC[C@H]4[C@]5(C)CC[C@H](O)C(C)(C)[C@@H]5CC[C@@]43C)[C@@H]2C1
REMARK SMILES IDX 6 1 5 2 10 3 32 4 4 5 11 6 14 7 33 8 2 9 12 10 15 11 1 12
REMARK SMILES IDX 3 13 13 14 30 15 16 16 17 17 29 18 31 19 18 20 28 21 27 22
REMARK SMILES IDX 20 23 19 24 24 25 21 26 22 27 25 28 26 29 7 30 8 31 9 32
REMARK SMILES IDX 23 33
REMARK H PARENT 23 34
REMARK Flexibility Score: inf
ROOT
ATOM      1  C   UNL     1       4.700  -4.596  25.321  1.00  0.00     0.017 C 
ATOM      2  C   UNL     1       4.798  -6.078  25.823  1.00  0.00     0.014 C 
ATOM      3  C   UNL     1       4.477  -3.687  26.556  1.00  0.00     0.014 C 
ATOM      4  C   UNL     1       3.502  -4.414  24.322  1.00  0.00     0.028 C 
ATOM      5  C   UNL     1       4.200  -7.075  24.821  1.00  0.00     0.007 C 
ATOM      6  C   UNL     1       4.439  -2.204  26.173  1.00  0.00     0.013 C 
ATOM      7  C   UNL     1       3.054  -2.965  24.117  1.00  0.00    -0.064 C 
ATOM      8  C   UNL     1       2.309  -5.322  24.720  1.00  0.00     0.015 C 
ATOM      9  C   UNL     1       2.671  -6.839  24.615  1.00  0.00    -0.035 C 
ATOM     10  C   UNL     1       3.311  -1.830  25.139  1.00  0.00    -0.006 C 
ATOM     11  C   UNL     1       2.258  -2.704  23.052  1.00  0.00    -0.027 C 
ATOM     12  C   UNL     1       1.876  -7.626  25.685  1.00  0.00     0.011 C 
ATOM     13  C   UNL     1       2.272  -7.378  23.224  1.00  0.00     0.011 C 
ATOM     14  C   UNL     1       1.985  -1.802  25.983  1.00  0.00     0.017 C 
ATOM     15  C   UNL     1       3.619  -0.397  24.378  1.00  0.00    -0.020 C 
ATOM     16  C   UNL     1       1.875  -1.294  22.694  1.00  0.00     0.032 C 
ATOM     17  C   UNL     1       3.130  -0.419  22.877  1.00  0.00     0.006 C 
ATOM     18  C   UNL     1       5.150  -0.073  24.250  1.00  0.00     0.008 C 
ATOM     19  C   UNL     1       2.965   0.741  25.221  1.00  0.00     0.012 C 
ATOM     20  C   UNL     1       3.184   0.956  22.069  1.00  0.00    -0.025 C 
ATOM     21  C   UNL     1       5.585   0.874  23.090  1.00  0.00     0.005 C 
ATOM     22  C   UNL     1       4.480   1.799  22.497  1.00  0.00     0.003 C 
ATOM     23  C   UNL     1       3.226   0.587  20.544  1.00  0.00     0.010 C 
ATOM     24  C   UNL     1       1.885   1.775  22.334  1.00  0.00     0.012 C 
ATOM     25  C   UNL     1       5.033   2.847  21.422  1.00  0.00    -0.006 C 
ATOM     26  C   UNL     1       3.632   1.723  19.609  1.00  0.00     0.033 C 
ATOM     27  C   UNL     1       5.008   2.274  19.976  1.00  0.00     0.120 C 
ATOM     28  C   UNL     1       6.489   3.298  21.734  1.00  0.00     0.014 C 
ATOM     29  C   UNL     1       4.205   4.162  21.475  1.00  0.00     0.014 C 
ENDROOT
BRANCH   1  30
ATOM     30  C   UNL     1       6.025  -4.224  24.650  1.00  0.00     0.048 C 
ATOM     31  O   UNL     1       7.118  -4.477  25.227  1.00  0.00    -0.550 OA
ATOM     32  O   UNL     1       6.051  -3.594  23.410  1.00  0.00    -0.550 OA
ENDBRANCH   1  30
BRANCH  27  33
ATOM     33  O   UNL     1       5.961   1.247  19.824  1.00  0.00    -0.393 OA
ATOM     34  H   UNL     1       5.494   0.382  19.949  1.00  0.00     0.210 HD
ENDBRANCH  27  33
TORSDOF 2
ENDMDL
MODEL 3
REMARK VINA RESULT:    -3.760     13.775     15.909
REMARK INTER + INTRA:          -4.009
REMARK INTER:                  -3.961
REMARK INTRA:                  -0.047
REMARK UNBOUND:                 0.081
REMARK SMILES CC1(C)CC[C@]2(C(=O)[O-])CC[C@]3(C)C(=CC[C@H]4[C@]5(C)CC[C@H](O)C(C)(C)[C@@H]5CC[C@@]43C)[C@@H]2C1
REMARK SMILES IDX 6 1 5 2 10 3 32 4 4 5 11 6 14 7 33 8 2 9 12 10 15 11 1 12
REMARK SMILES IDX 3 13 13 14 30 15 16 16 17 17 29 18 31 19 18 20 28 21 27 22
REMARK SMILES IDX 20 23 19 24 24 25 21 26 22 27 25 28 26 29 7 30 8 31 9 32
REMARK SMILES IDX 23 33
REMARK H PARENT 23 34
REMARK Flexibility Score: inf
ROOT
ATOM      1  C   UNL     1       2.969  -1.791  23.154  1.00  0.00     0.017 C 
ATOM      2  C   UNL     1       2.546  -0.492  22.385  1.00  0.00     0.014 C 
ATOM      3  C   UNL     1       1.878  -2.098  24.211  1.00  0.00     0.014 C 
ATOM      4  C   UNL     1       4.350  -1.598  23.876  1.00  0.00     0.028 C 
ATOM      5  C   UNL     1       3.752   0.364  21.976  1.00  0.00     0.007 C 
ATOM      6  C   UNL     1       2.169  -3.397  24.970  1.00  0.00     0.013 C 
ATOM      7  C   UNL     1       4.641  -2.615  24.982  1.00  0.00    -0.064 C 
ATOM      8  C   UNL     1       4.504  -0.144  24.392  1.00  0.00     0.015 C 
ATOM      9  C   UNL     1       4.535   0.890  23.220  1.00  0.00    -0.035 C 
ATOM     10  C   UNL     1       3.544  -3.406  25.737  1.00  0.00    -0.006 C 
ATOM     11  C   UNL     1       5.919  -2.707  25.422  1.00  0.00    -0.027 C 
ATOM     12  C   UNL     1       3.909   2.222  23.701  1.00  0.00     0.011 C 
ATOM     13  C   UNL     1       5.996   1.167  22.803  1.00  0.00     0.011 C 
ATOM     14  C   UNL     1       3.294  -2.534  27.021  1.00  0.00     0.017 C 
ATOM     15  C   UNL     1       4.047  -4.940  26.089  1.00  0.00    -0.020 C 
ATOM     16  C   UNL     1       6.327  -3.766  26.411  1.00  0.00     0.032 C 
ATOM     17  C   UNL     1       5.618  -5.071  26.002  1.00  0.00     0.006 C 
ATOM     18  C   UNL     1       3.541  -6.015  25.063  1.00  0.00     0.008 C 
ATOM     19  C   UNL     1       3.474  -5.319  27.490  1.00  0.00     0.012 C 
ATOM     20  C   UNL     1       6.266  -6.440  26.502  1.00  0.00    -0.025 C 
ATOM     21  C   UNL     1       4.384  -7.319  24.921  1.00  0.00     0.005 C 
ATOM     22  C   UNL     1       5.318  -7.675  26.117  1.00  0.00     0.003 C 
ATOM     23  C   UNL     1       7.667  -6.562  25.804  1.00  0.00     0.010 C 
ATOM     24  C   UNL     1       6.496  -6.384  28.042  1.00  0.00     0.012 C 
ATOM     25  C   UNL     1       6.031  -9.099  25.968  1.00  0.00    -0.006 C 
ATOM     26  C   UNL     1       8.305  -7.948  25.860  1.00  0.00     0.033 C 
ATOM     27  C   UNL     1       7.396  -8.999  25.228  1.00  0.00     0.120 C 
ATOM     28  C   UNL     1       5.145 -10.125  25.203  1.00  0.00     0.014 C 
ATOM     29  C   UNL     1       6.243  -9.746  27.366  1.00  0.00     0.014 C 
ENDROOT
BRANCH   1  30
ATOM     30  C   UNL     1       3.041  -2.945  22.150  1.00  0.00     0.048 C 
ATOM     31  O   UNL     1       2.233  -2.990  21.181  1.00  0.00    -0.550 OA
ATOM     32  O   UNL     1       3.978  -3.964  22.291  1.00  0.00    -0.550 OA
ENDBRANCH   1  30
BRANCH  27  33
ATOM     33  O   UNL     1       7.211  -8.679  23.869  1.00  0.00    -0.393 OA
ATOM     34  H   UNL     1       7.110  -9.529  23.370  1.00  0.00     0.210 HD
ENDBRANCH  27  33
TORSDOF 2
ENDMDL
MODEL 4
REMARK VINA RESULT:    -3.502     14.520     17.566
REMARK INTER + INTRA:          -3.728
REMARK INTER:                  -3.608
REMARK INTRA:                  -0.120
REMARK UNBOUND:                 0.081
REMARK SMILES CC1(C)CC[C@]2(C(=O)[O-])CC[C@]3(C)C(=CC[C@H]4[C@]5(C)CC[C@H](O)C(C)(C)[C@@H]5CC[C@@]43C)[C@@H]2C1
REMARK SMILES IDX 6 1 5 2 10 3 32 4 4 5 11 6 14 7 33 8 2 9 12 10 15 11 1 12
REMARK SMILES IDX 3 13 13 14 30 15 16 16 17 17 29 18 31 19 18 20 28 21 27 22
REMARK SMILES IDX 20 23 19 24 24 25 21 26 22 27 25 28 26 29 7 30 8 31 9 32
REMARK SMILES IDX 23 33
REMARK H PARENT 23 34
REMARK Flexibility Score: inf
ROOT
ATOM      1  C   UNL     1       3.912  -5.560  26.906  1.00  0.00     0.017 C 
ATOM      2  C   UNL     1       4.261  -6.812  27.782  1.00  0.00     0.014 C 
ATOM      3  C   UNL     1       2.580  -5.848  26.170  1.00  0.00     0.014 C 
ATOM      4  C   UNL     1       5.038  -5.277  25.848  1.00  0.00     0.028 C 
ATOM      5  C   UNL     1       5.773  -7.059  27.873  1.00  0.00     0.007 C 
ATOM      6  C   UNL     1       2.118  -4.647  25.338  1.00  0.00     0.013 C 
ATOM      7  C   UNL     1       4.612  -4.376  24.686  1.00  0.00    -0.064 C 
ATOM      8  C   UNL     1       5.659  -6.602  25.336  1.00  0.00     0.015 C 
ATOM      9  C   UNL     1       6.390  -7.383  26.477  1.00  0.00    -0.035 C 
ATOM     10  C   UNL     1       3.143  -4.188  24.235  1.00  0.00    -0.006 C 
ATOM     11  C   UNL     1       5.595  -3.839  23.922  1.00  0.00    -0.027 C 
ATOM     12  C   UNL     1       6.282  -8.902  26.201  1.00  0.00     0.011 C 
ATOM     13  C   UNL     1       7.886  -7.001  26.497  1.00  0.00     0.011 C 
ATOM     14  C   UNL     1       2.987  -5.242  23.078  1.00  0.00     0.017 C 
ATOM     15  C   UNL     1       2.864  -2.638  23.734  1.00  0.00    -0.020 C 
ATOM     16  C   UNL     1       5.281  -2.839  22.843  1.00  0.00     0.032 C 
ATOM     17  C   UNL     1       4.210  -1.884  23.401  1.00  0.00     0.006 C 
ATOM     18  C   UNL     1       2.211  -1.733  24.839  1.00  0.00     0.008 C 
ATOM     19  C   UNL     1       1.876  -2.698  22.528  1.00  0.00     0.012 C 
ATOM     20  C   UNL     1       4.092  -0.444  22.723  1.00  0.00    -0.025 C 
ATOM     21  C   UNL     1       2.441  -0.195  24.729  1.00  0.00     0.005 C 
ATOM     22  C   UNL     1       2.834   0.350  23.323  1.00  0.00     0.003 C 
ATOM     23  C   UNL     1       5.436   0.311  23.024  1.00  0.00     0.010 C 
ATOM     24  C   UNL     1       3.958  -0.598  21.178  1.00  0.00     0.012 C 
ATOM     25  C   UNL     1       2.903   1.946  23.253  1.00  0.00    -0.006 C 
ATOM     26  C   UNL     1       5.406   1.817  22.776  1.00  0.00     0.033 C 
ATOM     27  C   UNL     1       4.316   2.491  23.607  1.00  0.00     0.120 C 
ATOM     28  C   UNL     1       1.875   2.623  24.206  1.00  0.00     0.014 C 
ATOM     29  C   UNL     1       2.493   2.442  21.837  1.00  0.00     0.014 C 
ENDROOT
BRANCH   1  30
ATOM     30  C   UNL     1       3.729  -4.356  27.835  1.00  0.00     0.048 C 
ATOM     31  O   UNL     1       3.131  -4.494  28.937  1.00  0.00    -0.550 OA
ATOM     32  O   UNL     1       4.201  -3.096  27.481  1.00  0.00    -0.550 OA
ENDBRANCH   1  30
BRANCH  27  33
ATOM     33  O   UNL     1       4.604   2.297  24.972  1.00  0.00    -0.393 OA
ATOM     34  H   UNL     1       4.474   3.165  25.434  1.00  0.00     0.210 HD
ENDBRANCH  27  33
TORSDOF 2
ENDMDL
MODEL 5
REMARK VINA RESULT:    -3.433     14.627     18.045
REMARK INTER + INTRA:          -3.654
REMARK INTER:                  -4.084
REMARK INTRA:                   0.431
REMARK UNBOUND:                 0.081
REMARK SMILES CC1(C)CC[C@]2(C(=O)[O-])CC[C@]3(C)C(=CC[C@H]4[C@]5(C)CC[C@H](O)C(C)(C)[C@@H]5CC[C@@]43C)[C@@H]2C1
REMARK SMILES IDX 6 1 5 2 10 3 32 4 4 5 11 6 14 7 33 8 2 9 12 10 15 11 1 12
REMARK SMILES IDX 3 13 13 14 30 15 16 16 17 17 29 18 31 19 18 20 28 21 27 22
REMARK SMILES IDX 20 23 19 24 24 25 21 26 22 27 25 28 26 29 7 30 8 31 9 32
REMARK SMILES IDX 23 33
REMARK H PARENT 23 34
REMARK Flexibility Score: inf
ROOT
ATOM      1  C   UNL     1       3.214   1.566  21.852  1.00  0.00     0.017 C 
ATOM      2  C   UNL     1       2.580   0.245  22.410  1.00  0.00     0.014 C 
ATOM      3  C   UNL     1       3.325   1.429  20.312  1.00  0.00     0.014 C 
ATOM      4  C   UNL     1       4.645   1.806  22.454  1.00  0.00     0.028 C 
ATOM      5  C   UNL     1       3.137  -0.133  23.789  1.00  0.00     0.007 C 
ATOM      6  C   UNL     1       3.872   2.706  19.665  1.00  0.00     0.013 C 
ATOM      7  C   UNL     1       5.510   2.798  21.673  1.00  0.00    -0.064 C 
ATOM      8  C   UNL     1       5.385   0.461  22.671  1.00  0.00     0.015 C 
ATOM      9  C   UNL     1       4.667  -0.436  23.732  1.00  0.00    -0.035 C 
ATOM     10  C   UNL     1       5.299   3.132  20.175  1.00  0.00    -0.006 C 
ATOM     11  C   UNL     1       6.610   3.288  22.293  1.00  0.00    -0.027 C 
ATOM     12  C   UNL     1       4.888  -1.924  23.371  1.00  0.00     0.011 C 
ATOM     13  C   UNL     1       5.273  -0.183  25.129  1.00  0.00     0.011 C 
ATOM     14  C   UNL     1       6.294   2.155  19.448  1.00  0.00     0.017 C 
ATOM     15  C   UNL     1       5.618   4.723  19.866  1.00  0.00    -0.020 C 
ATOM     16  C   UNL     1       7.447   4.365  21.657  1.00  0.00     0.032 C 
ATOM     17  C   UNL     1       6.479   5.378  21.016  1.00  0.00     0.006 C 
ATOM     18  C   UNL     1       4.332   5.622  19.826  1.00  0.00     0.008 C 
ATOM     19  C   UNL     1       6.297   4.809  18.464  1.00  0.00     0.012 C 
ATOM     20  C   UNL     1       7.029   6.855  20.768  1.00  0.00    -0.025 C 
ATOM     21  C   UNL     1       4.512   7.139  20.139  1.00  0.00     0.005 C 
ATOM     22  C   UNL     1       5.946   7.720  19.960  1.00  0.00     0.003 C 
ATOM     23  C   UNL     1       7.313   7.478  22.181  1.00  0.00     0.010 C 
ATOM     24  C   UNL     1       8.375   6.792  19.986  1.00  0.00     0.012 C 
ATOM     25  C   UNL     1       6.021   9.307  20.149  1.00  0.00    -0.006 C 
ATOM     26  C   UNL     1       7.508   8.992  22.198  1.00  0.00     0.033 C 
ATOM     27  C   UNL     1       6.289   9.712  21.627  1.00  0.00     0.120 C 
ATOM     28  C   UNL     1       4.717  10.018  19.685  1.00  0.00     0.014 C 
ATOM     29  C   UNL     1       7.128   9.907  19.236  1.00  0.00     0.014 C 
ENDROOT
BRANCH   1  30
ATOM     30  C   UNL     1       2.282   2.731  22.192  1.00  0.00     0.048 C 
ATOM     31  O   UNL     1       1.875   3.501  21.280  1.00  0.00    -0.550 OA
ATOM     32  O   UNL     1       1.881   2.972  23.503  1.00  0.00    -0.550 OA
ENDBRANCH   1  30
BRANCH  27  33
ATOM     33  O   UNL     1       5.173   9.425  22.438  1.00  0.00    -0.393 OA
ATOM     34  H   UNL     1       5.291   9.909  23.295  1.00  0.00     0.210 HD
ENDBRANCH  27  33
TORSDOF 2
ENDMDL
MODEL 6
REMARK VINA RESULT:    -3.173     13.827     15.619
REMARK INTER + INTRA:          -3.370
REMARK INTER:                  -3.153
REMARK INTRA:                  -0.217
REMARK UNBOUND:                 0.081
REMARK SMILES CC1(C)CC[C@]2(C(=O)[O-])CC[C@]3(C)C(=CC[C@H]4[C@]5(C)CC[C@H](O)C(C)(C)[C@@H]5CC[C@@]43C)[C@@H]2C1
REMARK SMILES IDX 6 1 5 2 10 3 32 4 4 5 11 6 14 7 33 8 2 9 12 10 15 11 1 12
REMARK SMILES IDX 3 13 13 14 30 15 16 16 17 17 29 18 31 19 18 20 28 21 27 22
REMARK SMILES IDX 20 23 19 24 24 25 21 26 22 27 25 28 26 29 7 30 8 31 9 32
REMARK SMILES IDX 23 33
REMARK H PARENT 23 34
REMARK Flexibility Score: inf
ROOT
ATOM      1  C   UNL     1       5.489   2.636  20.019  1.00  0.00     0.017 C 
ATOM      2  C   UNL     1       6.012   3.835  19.155  1.00  0.00     0.014 C 
ATOM      3  C   UNL     1       3.970   2.483  19.752  1.00  0.00     0.014 C 
ATOM      4  C   UNL     1       5.721   2.897  21.550  1.00  0.00     0.028 C 
ATOM      5  C   UNL     1       7.135   4.613  19.855  1.00  0.00     0.007 C 
ATOM      6  C   UNL     1       3.378   1.285  20.503  1.00  0.00     0.013 C 
ATOM      7  C   UNL     1       4.880   2.023  22.483  1.00  0.00    -0.064 C 
ATOM      8  C   UNL     1       5.556   4.402  21.885  1.00  0.00     0.015 C 
ATOM      9  C   UNL     1       6.638   5.280  21.176  1.00  0.00    -0.035 C 
ATOM     10  C   UNL     1       3.549   1.351  22.067  1.00  0.00    -0.006 C 
ATOM     11  C   UNL     1       5.250   1.967  23.786  1.00  0.00    -0.027 C 
ATOM     12  C   UNL     1       6.036   6.671  20.861  1.00  0.00     0.011 C 
ATOM     13  C   UNL     1       7.848   5.479  22.114  1.00  0.00     0.011 C 
ATOM     14  C   UNL     1       2.462   2.382  22.546  1.00  0.00     0.017 C 
ATOM     15  C   UNL     1       3.382  -0.134  22.772  1.00  0.00    -0.020 C 
ATOM     16  C   UNL     1       4.566   1.035  24.749  1.00  0.00     0.032 C 
ATOM     17  C   UNL     1       4.343  -0.300  24.013  1.00  0.00     0.006 C 
ATOM     18  C   UNL     1       3.801  -1.321  21.834  1.00  0.00     0.008 C 
ATOM     19  C   UNL     1       1.875  -0.325  23.130  1.00  0.00     0.012 C 
ATOM     20  C   UNL     1       4.159  -1.605  24.911  1.00  0.00    -0.025 C 
ATOM     21  C   UNL     1       4.255  -2.646  22.520  1.00  0.00     0.005 C 
ATOM     22  C   UNL     1       3.786  -2.864  23.989  1.00  0.00     0.003 C 
ATOM     23  C   UNL     1       5.518  -1.836  25.663  1.00  0.00     0.010 C 
ATOM     24  C   UNL     1       3.050  -1.359  25.979  1.00  0.00     0.012 C 
ATOM     25  C   UNL     1       4.158  -4.306  24.572  1.00  0.00    -0.006 C 
ATOM     26  C   UNL     1       5.685  -3.213  26.300  1.00  0.00     0.033 C 
ATOM     27  C   UNL     1       5.555  -4.322  25.257  1.00  0.00     0.120 C 
ATOM     28  C   UNL     1       4.152  -5.406  23.471  1.00  0.00     0.014 C 
ATOM     29  C   UNL     1       3.076  -4.775  25.586  1.00  0.00     0.014 C 
ENDROOT
BRANCH   1  30
ATOM     30  C   UNL     1       6.214   1.365  19.571  1.00  0.00     0.048 C 
ATOM     31  O   UNL     1       6.032   0.910  18.408  1.00  0.00    -0.550 OA
ATOM     32  O   UNL     1       7.068   0.682  20.432  1.00  0.00    -0.550 OA
ENDBRANCH   1  30
BRANCH  27  33
ATOM     33  O   UNL     1       6.584  -4.172  24.307  1.00  0.00    -0.393 OA
ATOM     34  H   UNL     1       6.451  -3.301  23.853  1.00  0.00     0.210 HD
ENDBRANCH  27  33
TORSDOF 2
ENDMDL
MODEL 7
REMARK VINA RESULT:    -2.831     13.704     16.708
REMARK INTER + INTRA:          -2.999
REMARK INTER:                  -2.790
REMARK INTRA:                  -0.209
REMARK UNBOUND:                 0.081
REMARK SMILES CC1(C)CC[C@]2(C(=O)[O-])CC[C@]3(C)C(=CC[C@H]4[C@]5(C)CC[C@H](O)C(C)(C)[C@@H]5CC[C@@]43C)[C@@H]2C1
REMARK SMILES IDX 6 1 5 2 10 3 32 4 4 5 11 6 14 7 33 8 2 9 12 10 15 11 1 12
REMARK SMILES IDX 3 13 13 14 30 15 16 16 17 17 29 18 31 19 18 20 28 21 27 22
REMARK SMILES IDX 20 23 19 24 24 25 21 26 22 27 25 28 26 29 7 30 8 31 9 32
REMARK SMILES IDX 23 33
REMARK H PARENT 23 34
REMARK Flexibility Score: inf
ROOT
ATOM      1  C   UNL     1       5.510  -6.122  24.979  1.00  0.00     0.017 C 
ATOM      2  C   UNL     1       6.003  -7.594  25.198  1.00  0.00     0.014 C 
ATOM      3  C   UNL     1       4.398  -5.831  26.018  1.00  0.00     0.014 C 
ATOM      4  C   UNL     1       4.931  -5.927  23.532  1.00  0.00     0.028 C 
ATOM      5  C   UNL     1       6.404  -8.277  23.884  1.00  0.00     0.007 C 
ATOM      6  C   UNL     1       3.900  -4.384  25.929  1.00  0.00     0.013 C 
ATOM      7  C   UNL     1       4.047  -4.690  23.358  1.00  0.00    -0.064 C 
ATOM      8  C   UNL     1       4.207  -7.210  23.050  1.00  0.00     0.015 C 
ATOM      9  C   UNL     1       5.190  -8.418  22.912  1.00  0.00    -0.035 C 
ATOM     10  C   UNL     1       3.309  -3.987  24.525  1.00  0.00    -0.006 C 
ATOM     11  C   UNL     1       3.779  -4.289  22.092  1.00  0.00    -0.027 C 
ATOM     12  C   UNL     1       4.429  -9.730  23.219  1.00  0.00     0.011 C 
ATOM     13  C   UNL     1       5.723  -8.497  21.464  1.00  0.00     0.011 C 
ATOM     14  C   UNL     1       1.880  -4.641  24.490  1.00  0.00     0.017 C 
ATOM     15  C   UNL     1       3.272  -2.349  24.309  1.00  0.00    -0.020 C 
ATOM     16  C   UNL     1       3.030  -3.012  21.823  1.00  0.00     0.032 C 
ATOM     17  C   UNL     1       3.561  -1.954  22.808  1.00  0.00     0.006 C 
ATOM     18  C   UNL     1       4.394  -1.589  25.101  1.00  0.00     0.008 C 
ATOM     19  C   UNL     1       1.895  -1.831  24.828  1.00  0.00     0.012 C 
ATOM     20  C   UNL     1       3.369  -0.422  22.405  1.00  0.00    -0.025 C 
ATOM     21  C   UNL     1       4.843  -0.202  24.548  1.00  0.00     0.005 C 
ATOM     22  C   UNL     1       3.838   0.530  23.609  1.00  0.00     0.003 C 
ATOM     23  C   UNL     1       4.236  -0.178  21.119  1.00  0.00     0.010 C 
ATOM     24  C   UNL     1       1.878  -0.154  22.043  1.00  0.00     0.012 C 
ATOM     25  C   UNL     1       4.298   2.008  23.207  1.00  0.00    -0.006 C 
ATOM     26  C   UNL     1       4.480   1.287  20.766  1.00  0.00     0.033 C 
ATOM     27  C   UNL     1       5.165   2.024  21.915  1.00  0.00     0.120 C 
ATOM     28  C   UNL     1       5.112   2.700  24.339  1.00  0.00     0.014 C 
ATOM     29  C   UNL     1       3.058   2.926  23.013  1.00  0.00     0.014 C 
ENDROOT
BRANCH   1  30
ATOM     30  C   UNL     1       6.691  -5.177  25.220  1.00  0.00     0.048 C 
ATOM     31  O   UNL     1       7.356  -5.258  26.289  1.00  0.00    -0.550 OA
ATOM     32  O   UNL     1       7.041  -4.209  24.284  1.00  0.00    -0.550 OA
ENDBRANCH   1  30
BRANCH  27  33
ATOM     33  O   UNL     1       6.423   1.433  22.145  1.00  0.00    -0.393 OA
ATOM     34  H   UNL     1       6.919   2.016  22.775  1.00  0.00     0.210 HD
ENDBRANCH  27  33
TORSDOF 2
ENDMDL
