MODEL 1
REMARK VINA RESULT:    -2.287      0.000      0.000
REMARK INTER + INTRA:          -2.287
REMARK INTER:                  -2.287
REMARK INTRA:                   0.000
REMARK UNBOUND:                 0.000
REMARK SMILES CC(=O)[O-]
REMARK SMILES IDX 1 1 2 2 3 3 4 4
REMARK H PARENT
REMARK Flexibility Score: inf
ROOT
ATOM      1  C   UNL     1      13.018  40.396  28.085  1.00  0.00     0.063 C 
ATOM      2  C   UNL     1      13.990  41.283  28.788  1.00  0.00     0.038 C 
ATOM      3  O   UNL     1      13.962  42.526  28.596  1.00  0.00    -0.550 OA
ATOM      4  O   UNL     1      14.893  40.744  29.695  1.00  0.00    -0.550 OA
ENDROOT
TORSDOF 0
ENDMDL
MODEL 2
REMARK VINA RESULT:    -2.280      0.153      1.624
REMARK INTER + INTRA:          -2.280
REMARK INTER:                  -2.280
REMARK INTRA:                   0.000
REMARK UNBOUND:                 0.000
REMARK SMILES CC(=O)[O-]
REMARK SMILES IDX 1 1 2 2 3 3 4 4
REMARK H PARENT
REMARK Flexibility Score: inf
ROOT
ATOM      1  C   UNL     1      12.943  40.382  28.012  1.00  0.00     0.063 C 
ATOM      2  C   UNL     1      13.874  41.249  28.789  1.00  0.00     0.038 C 
ATOM      3  O   UNL     1      14.677  40.735  29.611  1.00  0.00    -0.550 OA
ATOM      4  O   UNL     1      13.895  42.620  28.570  1.00  0.00    -0.550 OA
ENDROOT
TORSDOF 0
ENDMDL
MODEL 3
REMARK VINA RESULT:    -2.225     10.859     11.418
REMARK INTER + INTRA:          -2.225
REMARK INTER:                  -2.225
REMARK INTRA:                   0.000
REMARK UNBOUND:                 0.000
REMARK SMILES CC(=O)[O-]
REMARK SMILES IDX 1 1 2 2 3 3 4 4
REMARK H PARENT
REMARK Flexibility Score: inf
ROOT
ATOM      1  C   UNL     1      21.549  50.529  32.714  1.00  0.00     0.063 C 
ATOM      2  C   UNL     1      20.434  49.584  32.420  1.00  0.00     0.038 C 
ATOM      3  O   UNL     1      20.594  48.662  31.578  1.00  0.00    -0.550 OA
ATOM      4  O   UNL     1      19.236  49.685  33.113  1.00  0.00    -0.550 OA
ENDROOT
TORSDOF 0
ENDMDL
MODEL 4
REMARK VINA RESULT:    -2.209     10.943     11.416
REMARK INTER + INTRA:          -2.209
REMARK INTER:                  -2.209
REMARK INTRA:                   0.000
REMARK UNBOUND:                 0.000
REMARK SMILES CC(=O)[O-]
REMARK SMILES IDX 1 1 2 2 3 3 4 4
REMARK H PARENT
REMARK Flexibility Score: inf
ROOT
ATOM      1  C   UNL     1      19.267  50.039  33.129  1.00  0.00     0.063 C 
ATOM      2  C   UNL     1      20.551  49.734  32.435  1.00  0.00     0.038 C 
ATOM      3  O   UNL     1      21.581  50.411  32.689  1.00  0.00    -0.550 OA
ATOM      4  O   UNL     1      20.627  48.669  31.547  1.00  0.00    -0.550 OA
ENDROOT
TORSDOF 0
ENDMDL
MODEL 5
REMARK VINA RESULT:    -2.190      1.375      1.758
REMARK INTER + INTRA:          -2.190
REMARK INTER:                  -2.190
REMARK INTRA:                   0.000
REMARK UNBOUND:                 0.000
REMARK SMILES CC(=O)[O-]
REMARK SMILES IDX 1 1 2 2 3 3 4 4
REMARK H PARENT
REMARK Flexibility Score: inf
ROOT
ATOM      1  C   UNL     1      14.989  40.600  29.545  1.00  0.00     0.063 C 
ATOM      2  C   UNL     1      13.892  41.251  28.774  1.00  0.00     0.038 C 
ATOM      3  O   UNL     1      13.925  42.490  28.553  1.00  0.00    -0.550 OA
ATOM      4  O   UNL     1      12.859  40.485  28.251  1.00  0.00    -0.550 OA
ENDROOT
TORSDOF 0
ENDMDL
MODEL 6
REMARK VINA RESULT:    -2.174     11.321     11.760
REMARK INTER + INTRA:          -2.174
REMARK INTER:                  -2.174
REMARK INTRA:                   0.000
REMARK UNBOUND:                 0.000
REMARK SMILES CC(=O)[O-]
REMARK SMILES IDX 1 1 2 2 3 3 4 4
REMARK H PARENT
REMARK Flexibility Score: inf
ROOT
ATOM      1  C   UNL     1       9.824  48.100  18.737  1.00  0.00     0.063 C 
ATOM      2  C   UNL     1      10.382  46.829  19.282  1.00  0.00     0.038 C 
ATOM      3  O   UNL     1      11.591  46.766  19.624  1.00  0.00    -0.550 OA
ATOM      4  O   UNL     1       9.555  45.729  19.464  1.00  0.00    -0.550 OA
ENDROOT
TORSDOF 0
ENDMDL
MODEL 7
REMARK VINA RESULT:    -2.146     13.950     14.299
REMARK INTER + INTRA:          -2.146
REMARK INTER:                  -2.146
REMARK INTRA:                   0.000
REMARK UNBOUND:                 0.000
REMARK SMILES CC(=O)[O-]
REMARK SMILES IDX 1 1 2 2 3 3 4 4
REMARK H PARENT
REMARK Flexibility Score: inf
ROOT
ATOM      1  C   UNL     1       9.876  48.096  18.766  1.00  0.00     0.063 C 
ATOM      2  C   UNL     1       9.198  49.164  17.977  1.00  0.00     0.038 C 
ATOM      3  O   UNL     1       8.001  49.017  17.615  1.00  0.00    -0.550 OA
ATOM      4  O   UNL     1       9.867  50.345  17.686  1.00  0.00    -0.550 OA
ENDROOT
TORSDOF 0
ENDMDL
MODEL 8
REMARK VINA RESULT:    -2.143     10.358     10.549
REMARK INTER + INTRA:          -2.143
REMARK INTER:                  -2.143
REMARK INTRA:                   0.000
REMARK UNBOUND:                 0.000
REMARK SMILES CC(=O)[O-]
REMARK SMILES IDX 1 1 2 2 3 3 4 4
REMARK H PARENT
REMARK Flexibility Score: inf
ROOT
ATOM      1  C   UNL     1      21.017  46.598  33.454  1.00  0.00     0.063 C 
ATOM      2  C   UNL     1      21.006  47.883  32.697  1.00  0.00     0.038 C 
ATOM      3  O   UNL     1      21.846  48.083  31.781  1.00  0.00    -0.550 OA
ATOM      4  O   UNL     1      20.035  48.839  32.963  1.00  0.00    -0.550 OA
ENDROOT
TORSDOF 0
ENDMDL
MODEL 9
REMARK VINA RESULT:    -2.111     11.472     11.925
REMARK INTER + INTRA:          -2.111
REMARK INTER:                  -2.111
REMARK INTRA:                   0.000
REMARK UNBOUND:                 0.000
REMARK SMILES CC(=O)[O-]
REMARK SMILES IDX 1 1 2 2 3 3 4 4
REMARK H PARENT
REMARK Flexibility Score: inf
ROOT
ATOM      1  C   UNL     1      11.667  46.637  18.381  1.00  0.00     0.063 C 
ATOM      2  C   UNL     1      10.415  46.902  19.146  1.00  0.00     0.038 C 
ATOM      3  O   UNL     1       9.815  45.958  19.724  1.00  0.00    -0.550 OA
ATOM      4  O   UNL     1       9.936  48.200  19.268  1.00  0.00    -0.550 OA
ENDROOT
TORSDOF 0
ENDMDL
