MODEL 1
REMARK VINA RESULT:    -6.971      0.000      0.000
REMARK INTER + INTRA:          -8.126
REMARK INTER:                  -8.398
REMARK INTRA:                   0.271
REMARK UNBOUND:                 0.271
REMARK SMILES O=c1c(O)c(-c2ccc(O)c(O)c2)oc2cc(O)cc(O)c12
REMARK SMILES IDX 5 1 3 2 2 3 1 4 22 5 20 6 19 7 17 8 16 9 15 10 14 11 6 12
REMARK SMILES IDX 7 13 8 14 9 15 13 16 11 17 10 18 12 20 4 22 21 24 18 26
REMARK H PARENT 10 19 12 21 4 23 21 25 18 27
REMARK Flexibility Score: inf
ROOT
ATOM      1  C   UNL     1      61.945  44.440  17.377  1.00  0.00     0.180 A 
ATOM      2  C   UNL     1      61.591  43.134  17.000  1.00  0.00     0.208 A 
ATOM      3  C   UNL     1      61.917  42.685  15.709  1.00  0.00     0.238 A 
ATOM      4  O   UNL     1      61.549  41.534  15.359  1.00  0.00    -0.285 OA
ATOM      5  C   UNL     1      62.607  43.543  14.819  1.00  0.00     0.111 A 
ATOM      6  C   UNL     1      63.023  43.179  13.504  1.00  0.00     0.134 A 
ATOM      7  C   UNL     1      63.583  44.150  12.664  1.00  0.00     0.093 A 
ATOM      8  C   UNL     1      63.801  45.454  13.115  1.00  0.00     0.123 A 
ATOM      9  C   UNL     1      63.453  45.802  14.418  1.00  0.00     0.094 A 
ATOM     10  C   UNL     1      62.860  44.866  15.267  1.00  0.00     0.146 A 
ATOM     11  O   UNL     1      62.534  45.243  16.498  1.00  0.00    -0.452 OA
ENDROOT
BRANCH   1  12
ATOM     12  C   UNL     1      61.658  44.976  18.727  1.00  0.00     0.025 A 
ATOM     13  C   UNL     1      61.523  46.361  18.907  1.00  0.00     0.016 A 
ATOM     14  C   UNL     1      61.272  46.889  20.176  1.00  0.00     0.051 A 
ATOM     15  C   UNL     1      61.167  46.045  21.286  1.00  0.00     0.157 A 
ATOM     16  C   UNL     1      61.573  44.130  19.849  1.00  0.00     0.062 A 
ATOM     17  C   UNL     1      61.323  44.658  21.123  1.00  0.00     0.158 A 
BRANCH  15  18
ATOM     18  O   UNL     1      60.916  46.601  22.540  1.00  0.00    -0.504 OA
ATOM     19  H   UNL     1      60.264  46.182  23.192  1.00  0.00     0.293 HD
ENDBRANCH  15  18
BRANCH  17  20
ATOM     20  O   UNL     1      61.235  43.812  22.228  1.00  0.00    -0.504 OA
ATOM     21  H   UNL     1      60.991  44.162  23.147  1.00  0.00     0.293 HD
ENDBRANCH  17  20
ENDBRANCH   1  12
BRANCH   2  22
ATOM     22  O   UNL     1      60.890  42.312  17.887  1.00  0.00    -0.502 OA
ATOM     23  H   UNL     1      59.939  42.509  18.176  1.00  0.00     0.293 HD
ENDBRANCH   2  22
BRANCH   6  24
ATOM     24  O   UNL     1      62.935  41.883  12.987  1.00  0.00    -0.507 OA
ATOM     25  H   UNL     1      62.965  41.041  13.541  1.00  0.00     0.293 HD
ENDBRANCH   6  24
BRANCH   8  26
ATOM     26  O   UNL     1      64.374  46.410  12.278  1.00  0.00    -0.508 OA
ATOM     27  H   UNL     1      64.970  46.146  11.502  1.00  0.00     0.293 HD
ENDBRANCH   8  26
TORSDOF 6
ENDMDL
MODEL 2
REMARK VINA RESULT:    -6.956      1.214      2.876
REMARK INTER + INTRA:          -8.108
REMARK INTER:                  -8.417
REMARK INTRA:                   0.310
REMARK UNBOUND:                 0.271
REMARK SMILES O=c1c(O)c(-c2ccc(O)c(O)c2)oc2cc(O)cc(O)c12
REMARK SMILES IDX 5 1 3 2 2 3 1 4 22 5 20 6 19 7 17 8 16 9 15 10 14 11 6 12
REMARK SMILES IDX 7 13 8 14 9 15 13 16 11 17 10 18 12 20 4 22 21 24 18 26
REMARK H PARENT 10 19 12 21 4 23 21 25 18 27
REMARK Flexibility Score: inf
ROOT
ATOM      1  C   UNL     1      62.290  45.350  17.574  1.00  0.00     0.180 A 
ATOM      2  C   UNL     1      62.976  46.321  16.824  1.00  0.00     0.208 A 
ATOM      3  C   UNL     1      63.365  46.017  15.509  1.00  0.00     0.238 A 
ATOM      4  O   UNL     1      64.027  46.870  14.863  1.00  0.00    -0.285 OA
ATOM      5  C   UNL     1      63.048  44.753  14.955  1.00  0.00     0.111 A 
ATOM      6  C   UNL     1      63.357  44.354  13.621  1.00  0.00     0.134 A 
ATOM      7  C   UNL     1      63.112  43.033  13.221  1.00  0.00     0.093 A 
ATOM      8  C   UNL     1      62.509  42.119  14.088  1.00  0.00     0.123 A 
ATOM      9  C   UNL     1      62.150  42.517  15.373  1.00  0.00     0.094 A 
ATOM     10  C   UNL     1      62.414  43.816  15.812  1.00  0.00     0.146 A 
ATOM     11  O   UNL     1      62.064  44.151  17.049  1.00  0.00    -0.452 OA
ENDROOT
BRANCH   1  12
ATOM     12  C   UNL     1      61.826  45.604  18.956  1.00  0.00     0.025 A 
ATOM     13  C   UNL     1      61.491  46.911  19.343  1.00  0.00     0.016 A 
ATOM     14  C   UNL     1      61.070  47.178  20.649  1.00  0.00     0.051 A 
ATOM     15  C   UNL     1      60.993  46.148  21.591  1.00  0.00     0.157 A 
ATOM     16  C   UNL     1      61.769  44.573  19.912  1.00  0.00     0.062 A 
ATOM     17  C   UNL     1      61.349  44.839  21.224  1.00  0.00     0.158 A 
BRANCH  15  18
ATOM     18  O   UNL     1      60.569  46.443  22.886  1.00  0.00    -0.504 OA
ATOM     19  H   UNL     1      61.030  46.061  23.703  1.00  0.00     0.293 HD
ENDBRANCH  15  18
BRANCH  17  20
ATOM     20  O   UNL     1      61.289  43.810  22.162  1.00  0.00    -0.504 OA
ATOM     21  H   UNL     1      60.409  43.382  22.426  1.00  0.00     0.293 HD
ENDBRANCH  17  20
ENDBRANCH   1  12
BRANCH   2  22
ATOM     22  O   UNL     1      63.299  47.553  17.399  1.00  0.00    -0.502 OA
ATOM     23  H   UNL     1      63.863  47.632  18.237  1.00  0.00     0.293 HD
ENDBRANCH   2  22
BRANCH   6  24
ATOM     24  O   UNL     1      63.876  45.214  12.649  1.00  0.00    -0.507 OA
ATOM     25  H   UNL     1      63.583  45.233  11.683  1.00  0.00     0.293 HD
ENDBRANCH   6  24
BRANCH   8  26
ATOM     26  O   UNL     1      62.255  40.812  13.677  1.00  0.00    -0.508 OA
ATOM     27  H   UNL     1      62.990  40.114  13.644  1.00  0.00     0.293 HD
ENDBRANCH   8  26
TORSDOF 6
ENDMDL
MODEL 3
REMARK VINA RESULT:    -6.475      1.596      7.247
REMARK INTER + INTRA:          -7.528
REMARK INTER:                  -7.416
REMARK INTRA:                  -0.112
REMARK UNBOUND:                 0.271
REMARK SMILES O=c1c(O)c(-c2ccc(O)c(O)c2)oc2cc(O)cc(O)c12
REMARK SMILES IDX 5 1 3 2 2 3 1 4 22 5 20 6 19 7 17 8 16 9 15 10 14 11 6 12
REMARK SMILES IDX 7 13 8 14 9 15 13 16 11 17 10 18 12 20 4 22 21 24 18 26
REMARK H PARENT 10 19 12 21 4 23 21 25 18 27
REMARK Flexibility Score: inf
ROOT
ATOM      1  C   UNL     1      62.016  45.380  16.754  1.00  0.00     0.180 A 
ATOM      2  C   UNL     1      62.011  46.784  16.807  1.00  0.00     0.208 A 
ATOM      3  C   UNL     1      61.787  47.418  18.041  1.00  0.00     0.238 A 
ATOM      4  O   UNL     1      61.728  48.676  18.072  1.00  0.00    -0.285 OA
ATOM      5  C   UNL     1      61.588  46.640  19.207  1.00  0.00     0.111 A 
ATOM      6  C   UNL     1      61.394  47.177  20.514  1.00  0.00     0.134 A 
ATOM      7  C   UNL     1      61.077  46.317  21.573  1.00  0.00     0.093 A 
ATOM      8  C   UNL     1      61.013  44.934  21.384  1.00  0.00     0.123 A 
ATOM      9  C   UNL     1      61.261  44.397  20.123  1.00  0.00     0.094 A 
ATOM     10  C   UNL     1      61.543  45.232  19.040  1.00  0.00     0.146 A 
ATOM     11  O   UNL     1      61.762  44.678  17.853  1.00  0.00    -0.452 OA
ENDROOT
BRANCH   1  12
ATOM     12  C   UNL     1      62.269  44.641  15.497  1.00  0.00     0.025 A 
ATOM     13  C   UNL     1      63.483  44.827  14.818  1.00  0.00     0.016 A 
ATOM     14  C   UNL     1      63.735  44.155  13.619  1.00  0.00     0.051 A 
ATOM     15  C   UNL     1      62.773  43.299  13.072  1.00  0.00     0.157 A 
ATOM     16  C   UNL     1      61.294  43.796  14.934  1.00  0.00     0.062 A 
ATOM     17  C   UNL     1      61.544  43.122  13.730  1.00  0.00     0.158 A 
BRANCH  15  18
ATOM     18  O   UNL     1      63.053  42.641  11.876  1.00  0.00    -0.504 OA
ATOM     19  H   UNL     1      63.288  41.656  11.845  1.00  0.00     0.293 HD
ENDBRANCH  15  18
BRANCH  17  20
ATOM     20  O   UNL     1      60.575  42.282  13.183  1.00  0.00    -0.504 OA
ATOM     21  H   UNL     1      60.087  42.522  12.327  1.00  0.00     0.293 HD
ENDBRANCH  17  20
ENDBRANCH   1  12
BRANCH   2  22
ATOM     22  O   UNL     1      62.186  47.533  15.640  1.00  0.00    -0.502 OA
ATOM     23  H   UNL     1      61.408  47.936  15.130  1.00  0.00     0.293 HD
ENDBRANCH   2  22
BRANCH   6  24
ATOM     24  O   UNL     1      61.526  48.533  20.830  1.00  0.00    -0.507 OA
ATOM     25  H   UNL     1      61.392  49.290  20.177  1.00  0.00     0.293 HD
ENDBRANCH   6  24
BRANCH   8  26
ATOM     26  O   UNL     1      60.713  44.084  22.446  1.00  0.00    -0.508 OA
ATOM     27  H   UNL     1      59.773  44.015  22.821  1.00  0.00     0.293 HD
ENDBRANCH   8  26
TORSDOF 6
ENDMDL
MODEL 4
REMARK VINA RESULT:    -6.431      1.733      1.934
REMARK INTER + INTRA:          -7.476
REMARK INTER:                  -7.180
REMARK INTRA:                  -0.296
REMARK UNBOUND:                 0.271
REMARK SMILES O=c1c(O)c(-c2ccc(O)c(O)c2)oc2cc(O)cc(O)c12
REMARK SMILES IDX 5 1 3 2 2 3 1 4 22 5 20 6 19 7 17 8 16 9 15 10 14 11 6 12
REMARK SMILES IDX 7 13 8 14 9 15 13 16 11 17 10 18 12 20 4 22 21 24 18 26
REMARK H PARENT 10 19 12 21 4 23 21 25 18 27
REMARK Flexibility Score: inf
ROOT
ATOM      1  C   UNL     1      61.253  45.575  17.074  1.00  0.00     0.180 A 
ATOM      2  C   UNL     1      60.172  44.948  16.431  1.00  0.00     0.208 A 
ATOM      3  C   UNL     1      60.412  44.206  15.262  1.00  0.00     0.238 A 
ATOM      4  O   UNL     1      59.433  43.694  14.660  1.00  0.00    -0.285 OA
ATOM      5  C   UNL     1      61.732  44.086  14.763  1.00  0.00     0.111 A 
ATOM      6  C   UNL     1      62.095  43.326  13.611  1.00  0.00     0.134 A 
ATOM      7  C   UNL     1      63.410  43.385  13.133  1.00  0.00     0.093 A 
ATOM      8  C   UNL     1      64.388  44.124  13.803  1.00  0.00     0.123 A 
ATOM      9  C   UNL     1      64.055  44.821  14.961  1.00  0.00     0.094 A 
ATOM     10  C   UNL     1      62.745  44.811  15.442  1.00  0.00     0.146 A 
ATOM     11  O   UNL     1      62.469  45.498  16.546  1.00  0.00    -0.452 OA
ENDROOT
BRANCH   1  12
ATOM     12  C   UNL     1      61.083  46.352  18.323  1.00  0.00     0.025 A 
ATOM     13  C   UNL     1      60.655  47.686  18.253  1.00  0.00     0.016 A 
ATOM     14  C   UNL     1      60.507  48.445  19.417  1.00  0.00     0.051 A 
ATOM     15  C   UNL     1      60.800  47.889  20.666  1.00  0.00     0.157 A 
ATOM     16  C   UNL     1      61.398  45.801  19.578  1.00  0.00     0.062 A 
ATOM     17  C   UNL     1      61.253  46.561  20.748  1.00  0.00     0.158 A 
BRANCH  15  18
ATOM     18  O   UNL     1      60.642  48.669  21.810  1.00  0.00    -0.504 OA
ATOM     19  H   UNL     1      60.137  49.547  21.797  1.00  0.00     0.293 HD
ENDBRANCH  15  18
BRANCH  17  20
ATOM     20  O   UNL     1      61.561  46.004  21.988  1.00  0.00    -0.504 OA
ATOM     21  H   UNL     1      61.602  46.570  22.828  1.00  0.00     0.293 HD
ENDBRANCH  17  20
ENDBRANCH   1  12
BRANCH   2  22
ATOM     22  O   UNL     1      58.875  45.098  16.928  1.00  0.00    -0.502 OA
ATOM     23  H   UNL     1      58.664  45.053  17.919  1.00  0.00     0.293 HD
ENDBRANCH   2  22
BRANCH   6  24
ATOM     24  O   UNL     1      61.217  42.484  12.922  1.00  0.00    -0.507 OA
ATOM     25  H   UNL     1      61.246  42.313  11.929  1.00  0.00     0.293 HD
ENDBRANCH   6  24
BRANCH   8  26
ATOM     26  O   UNL     1      65.698  44.164  13.328  1.00  0.00    -0.508 OA
ATOM     27  H   UNL     1      66.412  43.541  13.690  1.00  0.00     0.293 HD
ENDBRANCH   8  26
TORSDOF 6
ENDMDL
MODEL 5
REMARK VINA RESULT:    -6.424      0.712      1.517
REMARK INTER + INTRA:          -7.467
REMARK INTER:                  -7.679
REMARK INTRA:                   0.212
REMARK UNBOUND:                 0.271
REMARK SMILES O=c1c(O)c(-c2ccc(O)c(O)c2)oc2cc(O)cc(O)c12
REMARK SMILES IDX 5 1 3 2 2 3 1 4 22 5 20 6 19 7 17 8 16 9 15 10 14 11 6 12
REMARK SMILES IDX 7 13 8 14 9 15 13 16 11 17 10 18 12 20 4 22 21 24 18 26
REMARK H PARENT 10 19 12 21 4 23 21 25 18 27
REMARK Flexibility Score: inf
ROOT
ATOM      1  C   UNL     1      61.972  44.542  17.506  1.00  0.00     0.180 A 
ATOM      2  C   UNL     1      61.526  43.248  17.187  1.00  0.00     0.208 A 
ATOM      3  C   UNL     1      61.844  42.709  15.930  1.00  0.00     0.238 A 
ATOM      4  O   UNL     1      61.395  41.571  15.629  1.00  0.00    -0.285 OA
ATOM      5  C   UNL     1      62.617  43.463  15.015  1.00  0.00     0.111 A 
ATOM      6  C   UNL     1      63.031  42.999  13.730  1.00  0.00     0.134 A 
ATOM      7  C   UNL     1      63.683  43.880  12.856  1.00  0.00     0.093 A 
ATOM      8  C   UNL     1      63.991  45.185  13.246  1.00  0.00     0.123 A 
ATOM      9  C   UNL     1      63.644  45.626  14.520  1.00  0.00     0.094 A 
ATOM     10  C   UNL     1      62.962  44.784  15.400  1.00  0.00     0.146 A 
ATOM     11  O   UNL     1      62.640  45.250  16.602  1.00  0.00    -0.452 OA
ENDROOT
BRANCH   1  12
ATOM     12  C   UNL     1      61.698  45.168  18.819  1.00  0.00     0.025 A 
ATOM     13  C   UNL     1      61.703  44.375  19.977  1.00  0.00     0.016 A 
ATOM     14  C   UNL     1      61.428  44.941  21.225  1.00  0.00     0.051 A 
ATOM     15  C   UNL     1      61.128  46.303  21.333  1.00  0.00     0.157 A 
ATOM     16  C   UNL     1      61.375  46.533  18.928  1.00  0.00     0.062 A 
ATOM     17  C   UNL     1      61.097  47.103  20.178  1.00  0.00     0.158 A 
BRANCH  15  18
ATOM     18  O   UNL     1      60.859  46.840  22.591  1.00  0.00    -0.504 OA
ATOM     19  H   UNL     1      61.557  46.870  23.324  1.00  0.00     0.293 HD
ENDBRANCH  15  18
BRANCH  17  20
ATOM     20  O   UNL     1      60.783  48.458  20.277  1.00  0.00    -0.504 OA
ATOM     21  H   UNL     1      60.083  48.795  20.928  1.00  0.00     0.293 HD
ENDBRANCH  17  20
ENDBRANCH   1  12
BRANCH   2  22
ATOM     22  O   UNL     1      60.745  42.530  18.097  1.00  0.00    -0.502 OA
ATOM     23  H   UNL     1      60.703  42.764  19.082  1.00  0.00     0.293 HD
ENDBRANCH   2  22
BRANCH   6  24
ATOM     24  O   UNL     1      62.854  41.689  13.278  1.00  0.00    -0.507 OA
ATOM     25  H   UNL     1      63.122  40.863  13.792  1.00  0.00     0.293 HD
ENDBRANCH   6  24
BRANCH   8  26
ATOM     26  O   UNL     1      64.654  46.049  12.376  1.00  0.00    -0.508 OA
ATOM     27  H   UNL     1      65.312  46.741  12.715  1.00  0.00     0.293 HD
ENDBRANCH   8  26
TORSDOF 6
ENDMDL
MODEL 6
REMARK VINA RESULT:    -6.396      2.244      7.267
REMARK INTER + INTRA:          -7.434
REMARK INTER:                  -7.113
REMARK INTRA:                  -0.321
REMARK UNBOUND:                 0.271
REMARK SMILES O=c1c(O)c(-c2ccc(O)c(O)c2)oc2cc(O)cc(O)c12
REMARK SMILES IDX 5 1 3 2 2 3 1 4 22 5 20 6 19 7 17 8 16 9 15 10 14 11 6 12
REMARK SMILES IDX 7 13 8 14 9 15 13 16 11 17 10 18 12 20 4 22 21 24 18 26
REMARK H PARENT 10 19 12 21 4 23 21 25 18 27
REMARK Flexibility Score: inf
ROOT
ATOM      1  C   UNL     1      61.286  46.061  16.376  1.00  0.00     0.180 A 
ATOM      2  C   UNL     1      60.627  47.270  16.093  1.00  0.00     0.208 A 
ATOM      3  C   UNL     1      60.294  48.128  17.153  1.00  0.00     0.238 A 
ATOM      4  O   UNL     1      59.655  49.183  16.899  1.00  0.00    -0.285 OA
ATOM      5  C   UNL     1      60.639  47.775  18.481  1.00  0.00     0.111 A 
ATOM      6  C   UNL     1      60.387  48.588  19.626  1.00  0.00     0.134 A 
ATOM      7  C   UNL     1      60.654  48.081  20.904  1.00  0.00     0.093 A 
ATOM      8  C   UNL     1      61.224  46.817  21.073  1.00  0.00     0.123 A 
ATOM      9  C   UNL     1      61.529  46.042  19.957  1.00  0.00     0.094 A 
ATOM     10  C   UNL     1      61.241  46.505  18.672  1.00  0.00     0.146 A 
ATOM     11  O   UNL     1      61.538  45.728  17.636  1.00  0.00    -0.452 OA
ENDROOT
BRANCH   1  12
ATOM     12  C   UNL     1      61.692  45.117  15.310  1.00  0.00     0.025 A 
ATOM     13  C   UNL     1      62.961  45.240  14.724  1.00  0.00     0.016 A 
ATOM     14  C   UNL     1      63.357  44.372  13.702  1.00  0.00     0.051 A 
ATOM     15  C   UNL     1      62.487  43.380  13.240  1.00  0.00     0.157 A 
ATOM     16  C   UNL     1      60.810  44.132  14.829  1.00  0.00     0.062 A 
ATOM     17  C   UNL     1      61.204  43.261  13.802  1.00  0.00     0.158 A 
BRANCH  15  18
ATOM     18  O   UNL     1      62.909  42.528  12.221  1.00  0.00    -0.504 OA
ATOM     19  H   UNL     1      63.030  41.533  12.367  1.00  0.00     0.293 HD
ENDBRANCH  15  18
BRANCH  17  20
ATOM     20  O   UNL     1      60.326  42.284  13.336  1.00  0.00    -0.504 OA
ATOM     21  H   UNL     1      60.495  41.298  13.496  1.00  0.00     0.293 HD
ENDBRANCH  17  20
ENDBRANCH   1  12
BRANCH   2  22
ATOM     22  O   UNL     1      60.276  47.587  14.778  1.00  0.00    -0.502 OA
ATOM     23  H   UNL     1      59.993  48.521  14.501  1.00  0.00     0.293 HD
ENDBRANCH   2  22
BRANCH   6  24
ATOM     24  O   UNL     1      59.905  49.899  19.562  1.00  0.00    -0.507 OA
ATOM     25  H   UNL     1      59.353  50.272  18.805  1.00  0.00     0.293 HD
ENDBRANCH   6  24
BRANCH   8  26
ATOM     26  O   UNL     1      61.501  46.327  22.348  1.00  0.00    -0.508 OA
ATOM     27  H   UNL     1      60.943  45.590  22.765  1.00  0.00     0.293 HD
ENDBRANCH   8  26
TORSDOF 6
ENDMDL
MODEL 7
REMARK VINA RESULT:    -6.083      2.777      6.702
REMARK INTER + INTRA:          -7.056
REMARK INTER:                  -6.726
REMARK INTRA:                  -0.330
REMARK UNBOUND:                 0.271
REMARK SMILES O=c1c(O)c(-c2ccc(O)c(O)c2)oc2cc(O)cc(O)c12
REMARK SMILES IDX 5 1 3 2 2 3 1 4 22 5 20 6 19 7 17 8 16 9 15 10 14 11 6 12
REMARK SMILES IDX 7 13 8 14 9 15 13 16 11 17 10 18 12 20 4 22 21 24 18 26
REMARK H PARENT 10 19 12 21 4 23 21 25 18 27
REMARK Flexibility Score: inf
ROOT
ATOM      1  C   UNL     1      61.566  45.411  16.392  1.00  0.00     0.180 A 
ATOM      2  C   UNL     1      60.282  45.981  16.362  1.00  0.00     0.208 A 
ATOM      3  C   UNL     1      60.041  47.157  17.091  1.00  0.00     0.238 A 
ATOM      4  O   UNL     1      58.875  47.632  17.104  1.00  0.00    -0.285 OA
ATOM      5  C   UNL     1      61.092  47.757  17.827  1.00  0.00     0.111 A 
ATOM      6  C   UNL     1      60.970  48.970  18.568  1.00  0.00     0.134 A 
ATOM      7  C   UNL     1      62.039  49.402  19.364  1.00  0.00     0.093 A 
ATOM      8  C   UNL     1      63.245  48.699  19.394  1.00  0.00     0.123 A 
ATOM      9  C   UNL     1      63.392  47.546  18.627  1.00  0.00     0.094 A 
ATOM     10  C   UNL     1      62.333  47.070  17.852  1.00  0.00     0.146 A 
ATOM     11  O   UNL     1      62.513  45.961  17.144  1.00  0.00    -0.452 OA
ENDROOT
BRANCH   1  12
ATOM     12  C   UNL     1      61.903  44.187  15.630  1.00  0.00     0.025 A 
ATOM     13  C   UNL     1      61.881  42.942  16.278  1.00  0.00     0.016 A 
ATOM     14  C   UNL     1      62.215  41.776  15.583  1.00  0.00     0.051 A 
ATOM     15  C   UNL     1      62.592  41.838  14.238  1.00  0.00     0.157 A 
ATOM     16  C   UNL     1      62.303  44.249  14.283  1.00  0.00     0.062 A 
ATOM     17  C   UNL     1      62.641  43.081  13.585  1.00  0.00     0.158 A 
BRANCH  15  18
ATOM     18  O   UNL     1      62.919  40.659  13.571  1.00  0.00    -0.504 OA
ATOM     19  H   UNL     1      62.629  40.482  12.616  1.00  0.00     0.293 HD
ENDBRANCH  15  18
BRANCH  17  20
ATOM     20  O   UNL     1      63.030  43.152  12.248  1.00  0.00    -0.504 OA
ATOM     21  H   UNL     1      62.793  42.421  11.587  1.00  0.00     0.293 HD
ENDBRANCH  17  20
ENDBRANCH   1  12
BRANCH   2  22
ATOM     22  O   UNL     1      59.254  45.360  15.647  1.00  0.00    -0.502 OA
ATOM     23  H   UNL     1      58.730  44.576  16.019  1.00  0.00     0.293 HD
ENDBRANCH   2  22
BRANCH   6  24
ATOM     24  O   UNL     1      59.842  49.796  18.535  1.00  0.00    -0.507 OA
ATOM     25  H   UNL     1      59.764  50.681  19.013  1.00  0.00     0.293 HD
ENDBRANCH   6  24
BRANCH   8  26
ATOM     26  O   UNL     1      64.308  49.144  20.177  1.00  0.00    -0.508 OA
ATOM     27  H   UNL     1      64.336  48.980  21.177  1.00  0.00     0.293 HD
ENDBRANCH   8  26
TORSDOF 6
ENDMDL
MODEL 8
REMARK VINA RESULT:    -6.026      2.098      2.350
REMARK INTER + INTRA:          -6.988
REMARK INTER:                  -6.659
REMARK INTRA:                  -0.329
REMARK UNBOUND:                 0.271
REMARK SMILES O=c1c(O)c(-c2ccc(O)c(O)c2)oc2cc(O)cc(O)c12
REMARK SMILES IDX 5 1 3 2 2 3 1 4 22 5 20 6 19 7 17 8 16 9 15 10 14 11 6 12
REMARK SMILES IDX 7 13 8 14 9 15 13 16 11 17 10 18 12 20 4 22 21 24 18 26
REMARK H PARENT 10 19 12 21 4 23 21 25 18 27
REMARK Flexibility Score: inf
ROOT
ATOM      1  C   UNL     1      62.121  46.077  17.142  1.00  0.00     0.180 A 
ATOM      2  C   UNL     1      61.202  45.734  16.135  1.00  0.00     0.208 A 
ATOM      3  C   UNL     1      61.622  45.751  14.795  1.00  0.00     0.238 A 
ATOM      4  O   UNL     1      60.780  45.497  13.894  1.00  0.00    -0.285 OA
ATOM      5  C   UNL     1      62.959  46.095  14.480  1.00  0.00     0.111 A 
ATOM      6  C   UNL     1      63.503  46.105  13.161  1.00  0.00     0.134 A 
ATOM      7  C   UNL     1      64.802  46.587  12.954  1.00  0.00     0.093 A 
ATOM      8  C   UNL     1      65.597  46.996  14.026  1.00  0.00     0.123 A 
ATOM      9  C   UNL     1      65.095  46.933  15.324  1.00  0.00     0.094 A 
ATOM     10  C   UNL     1      63.792  46.492  15.558  1.00  0.00     0.146 A 
ATOM     11  O   UNL     1      63.349  46.457  16.810  1.00  0.00    -0.452 OA
ENDROOT
BRANCH   1  12
ATOM     12  C   UNL     1      61.760  46.058  18.577  1.00  0.00     0.025 A 
ATOM     13  C   UNL     1      61.396  47.254  19.214  1.00  0.00     0.016 A 
ATOM     14  C   UNL     1      61.072  47.263  20.574  1.00  0.00     0.051 A 
ATOM     15  C   UNL     1      61.120  46.082  21.320  1.00  0.00     0.157 A 
ATOM     16  C   UNL     1      61.830  44.875  19.335  1.00  0.00     0.062 A 
ATOM     17  C   UNL     1      61.506  44.882  20.700  1.00  0.00     0.158 A 
BRANCH  15  18
ATOM     18  O   UNL     1      60.790  46.121  22.674  1.00  0.00    -0.504 OA
ATOM     19  H   UNL     1      59.837  46.248  22.992  1.00  0.00     0.293 HD
ENDBRANCH  15  18
BRANCH  17  20
ATOM     20  O   UNL     1      61.572  43.703  21.441  1.00  0.00    -0.504 OA
ATOM     21  H   UNL     1      61.935  42.844  21.043  1.00  0.00     0.293 HD
ENDBRANCH  17  20
ENDBRANCH   1  12
BRANCH   2  22
ATOM     22  O   UNL     1      59.881  45.421  16.467  1.00  0.00    -0.502 OA
ATOM     23  H   UNL     1      59.404  44.608  16.092  1.00  0.00     0.293 HD
ENDBRANCH   2  22
BRANCH   6  24
ATOM     24  O   UNL     1      62.825  45.632  12.033  1.00  0.00    -0.507 OA
ATOM     25  H   UNL     1      62.364  46.216  11.353  1.00  0.00     0.293 HD
ENDBRANCH   6  24
BRANCH   8  26
ATOM     26  O   UNL     1      66.894  47.459  13.813  1.00  0.00    -0.508 OA
ATOM     27  H   UNL     1      67.080  48.430  13.583  1.00  0.00     0.293 HD
ENDBRANCH   8  26
TORSDOF 6
ENDMDL
MODEL 9
REMARK VINA RESULT:    -5.885      3.417      6.400
REMARK INTER + INTRA:          -6.818
REMARK INTER:                  -6.497
REMARK INTRA:                  -0.321
REMARK UNBOUND:                 0.271
REMARK SMILES O=c1c(O)c(-c2ccc(O)c(O)c2)oc2cc(O)cc(O)c12
REMARK SMILES IDX 5 1 3 2 2 3 1 4 22 5 20 6 19 7 17 8 16 9 15 10 14 11 6 12
REMARK SMILES IDX 7 13 8 14 9 15 13 16 11 17 10 18 12 20 4 22 21 24 18 26
REMARK H PARENT 10 19 12 21 4 23 21 25 18 27
REMARK Flexibility Score: inf
ROOT
ATOM      1  C   UNL     1      64.172  45.690  13.960  1.00  0.00     0.180 A 
ATOM      2  C   UNL     1      64.123  44.511  13.197  1.00  0.00     0.208 A 
ATOM      3  C   UNL     1      62.965  43.717  13.243  1.00  0.00     0.238 A 
ATOM      4  O   UNL     1      62.949  42.634  12.601  1.00  0.00    -0.285 OA
ATOM      5  C   UNL     1      61.865  44.122  14.037  1.00  0.00     0.111 A 
ATOM      6  C   UNL     1      60.628  43.416  14.125  1.00  0.00     0.134 A 
ATOM      7  C   UNL     1      59.657  43.839  15.042  1.00  0.00     0.093 A 
ATOM      8  C   UNL     1      59.853  44.978  15.825  1.00  0.00     0.123 A 
ATOM      9  C   UNL     1      61.033  45.707  15.702  1.00  0.00     0.094 A 
ATOM     10  C   UNL     1      62.035  45.290  14.823  1.00  0.00     0.146 A 
ATOM     11  O   UNL     1      63.149  46.009  14.745  1.00  0.00    -0.452 OA
ENDROOT
BRANCH   1  12
ATOM     12  C   UNL     1      65.347  46.590  13.945  1.00  0.00     0.025 A 
ATOM     13  C   UNL     1      65.408  47.631  13.005  1.00  0.00     0.016 A 
ATOM     14  C   UNL     1      66.517  48.480  12.960  1.00  0.00     0.051 A 
ATOM     15  C   UNL     1      67.588  48.293  13.839  1.00  0.00     0.157 A 
ATOM     16  C   UNL     1      66.435  46.390  14.814  1.00  0.00     0.062 A 
ATOM     17  C   UNL     1      67.550  47.240  14.769  1.00  0.00     0.158 A 
BRANCH  15  18
ATOM     18  O   UNL     1      68.680  49.157  13.771  1.00  0.00    -0.504 OA
ATOM     19  H   UNL     1      69.056  49.481  12.888  1.00  0.00     0.293 HD
ENDBRANCH  15  18
BRANCH  17  20
ATOM     20  O   UNL     1      68.620  47.039  15.639  1.00  0.00    -0.504 OA
ATOM     21  H   UNL     1      69.581  47.110  15.324  1.00  0.00     0.293 HD
ENDBRANCH  17  20
ENDBRANCH   1  12
BRANCH   2  22
ATOM     22  O   UNL     1      65.229  44.118  12.439  1.00  0.00    -0.502 OA
ATOM     23  H   UNL     1      65.245  43.258  11.903  1.00  0.00     0.293 HD
ENDBRANCH   2  22
BRANCH   6  24
ATOM     24  O   UNL     1      60.294  42.321  13.323  1.00  0.00    -0.507 OA
ATOM     25  H   UNL     1      59.985  42.384  12.365  1.00  0.00     0.293 HD
ENDBRANCH   6  24
BRANCH   8  26
ATOM     26  O   UNL     1      58.875  45.400  16.724  1.00  0.00    -0.508 OA
ATOM     27  H   UNL     1      58.131  44.781  17.027  1.00  0.00     0.293 HD
ENDBRANCH   8  26
TORSDOF 6
ENDMDL
