MODEL 1
REMARK VINA RESULT:    -4.591      0.000      0.000
REMARK INTER + INTRA:          -6.090
REMARK INTER:                  -6.469
REMARK INTRA:                   0.379
REMARK UNBOUND:                 0.379
REMARK SMILES CC1=CCC(=C(C)C)C(=O)CC(C)=CCC1
REMARK SMILES IDX 12 1 14 2 13 3 15 4 16 5 2 6 1 7 3 8 11 10 9 11 10 12 5 13
REMARK SMILES IDX 6 14 7 15 8 16 4 17
REMARK H PARENT
REMARK Flexibility Score: 60.00
ROOT
ATOM      1  C   UNL     1      32.455  40.882  84.980  1.00  0.00    -0.070 C 
ATOM      2  C   UNL     1      33.435  40.283  85.692  1.00  0.00    -0.027 C 
ATOM      3  C   UNL     1      31.415  41.670  85.738  1.00  0.00     0.039 C 
ENDROOT
BRANCH   2   4
ATOM      4  C   UNL     1      34.507  39.375  85.127  1.00  0.00     0.032 C 
BRANCH   4   5
ATOM      5  C   UNL     1      35.869  40.057  84.880  1.00  0.00     0.034 C 
BRANCH   5   6
ATOM      6  C   UNL     1      35.989  41.411  85.555  1.00  0.00    -0.077 C 
ATOM      7  C   UNL     1      36.305  41.437  87.029  1.00  0.00     0.039 C 
ATOM      8  C   UNL     1      35.765  42.595  84.934  1.00  0.00    -0.023 CG0
ATOM      9  G   UNL     1      35.455  42.815  83.466  1.00  0.00     0.000 G0
ENDBRANCH   5   6
ENDBRANCH   4   5
ENDBRANCH   2   4
BRANCH   1  10
ATOM     10  C   UNL     1      32.300  40.726  83.481  1.00  0.00     0.111 C 
BRANCH  10  11
ATOM     11  C   UNL     1      33.410  41.414  82.733  1.00  0.00     0.163 C 
ATOM     12  O   UNL     1      33.924  40.813  81.750  1.00  0.00    -0.294 OA
BRANCH  11  13
ATOM     13  C   UNL     1      33.958  42.738  83.150  1.00  0.00    -0.002 C 
ATOM     14  C   UNL     1      33.163  43.851  83.164  1.00  0.00    -0.069 C 
ATOM     15  C   UNL     1      31.674  43.754  82.913  1.00  0.00     0.039 C 
ATOM     16  C   UNL     1      33.722  45.232  83.428  1.00  0.00     0.039 C 
BRANCH  13  17
ATOM     17  C   UNL     1      35.445  42.811  83.460  1.00  0.00     0.066 CG0
ATOM     18  G   UNL     1      35.738  42.587  84.931  1.00  0.00     0.000 G0
ENDBRANCH  13  17
ENDBRANCH  11  13
ENDBRANCH  10  11
ENDBRANCH   1  10
TORSDOF 0
ENDMDL
MODEL 2
REMARK VINA RESULT:    -4.474      2.153      3.900
REMARK INTER + INTRA:          -5.925
REMARK INTER:                  -6.544
REMARK INTRA:                   0.619
REMARK UNBOUND:                 0.379
REMARK SMILES CC1=CCC(=C(C)C)C(=O)CC(C)=CCC1
REMARK SMILES IDX 12 1 14 2 13 3 15 4 16 5 2 6 1 7 3 8 11 10 9 11 10 12 5 13
REMARK SMILES IDX 6 14 7 15 8 16 4 17
REMARK H PARENT
REMARK Flexibility Score: 60.00
ROOT
ATOM      1  C   UNL     1      34.665  39.857  85.168  1.00  0.00    -0.070 C 
ATOM      2  C   UNL     1      33.381  39.756  84.761  1.00  0.00    -0.027 C 
ATOM      3  C   UNL     1      35.730  39.225  84.305  1.00  0.00     0.039 C 
ENDROOT
BRANCH   2   4
ATOM      4  C   UNL     1      32.170  40.236  85.532  1.00  0.00     0.032 C 
BRANCH   4   5
ATOM      5  C   UNL     1      31.690  41.657  85.166  1.00  0.00     0.034 C 
BRANCH   5   6
ATOM      6  C   UNL     1      32.253  42.730  86.080  1.00  0.00    -0.077 C 
ATOM      7  C   UNL     1      31.486  43.057  87.336  1.00  0.00     0.039 C 
ATOM      8  C   UNL     1      33.363  43.460  85.807  1.00  0.00    -0.023 CG0
ATOM      9  G   UNL     1      34.297  43.297  84.624  1.00  0.00     0.000 G0
ENDBRANCH   5   6
ENDBRANCH   4   5
ENDBRANCH   2   4
BRANCH   1  10
ATOM     10  C   UNL     1      35.075  40.488  86.483  1.00  0.00     0.111 C 
BRANCH  10  11
ATOM     11  C   UNL     1      35.639  41.870  86.284  1.00  0.00     0.163 C 
ATOM     12  O   UNL     1      36.123  42.463  87.287  1.00  0.00    -0.294 OA
BRANCH  11  13
ATOM     13  C   UNL     1      35.587  42.576  84.971  1.00  0.00    -0.002 C 
ATOM     14  C   UNL     1      36.693  42.647  84.171  1.00  0.00    -0.069 C 
ATOM     15  C   UNL     1      37.956  41.886  84.509  1.00  0.00     0.039 C 
ATOM     16  C   UNL     1      36.720  43.487  82.912  1.00  0.00     0.039 C 
BRANCH  13  17
ATOM     17  C   UNL     1      34.291  43.286  84.612  1.00  0.00     0.066 CG0
ATOM     18  G   UNL     1      33.372  43.447  85.808  1.00  0.00     0.000 G0
ENDBRANCH  13  17
ENDBRANCH  11  13
ENDBRANCH  10  11
ENDBRANCH   1  10
TORSDOF 0
ENDMDL
MODEL 3
REMARK VINA RESULT:    -4.422      1.508      3.149
REMARK INTER + INTRA:          -5.852
REMARK INTER:                  -6.724
REMARK INTRA:                   0.872
REMARK UNBOUND:                 0.379
REMARK SMILES CC1=CCC(=C(C)C)C(=O)CC(C)=CCC1
REMARK SMILES IDX 12 1 14 2 13 3 15 4 16 5 2 6 1 7 3 8 11 10 9 11 10 12 5 13
REMARK SMILES IDX 6 14 7 15 8 16 4 17
REMARK H PARENT
REMARK Flexibility Score: 60.00
ROOT
ATOM      1  C   UNL     1      35.371  41.180  85.298  1.00  0.00    -0.070 C 
ATOM      2  C   UNL     1      34.234  40.685  85.835  1.00  0.00    -0.027 C 
ATOM      3  C   UNL     1      36.255  42.027  86.180  1.00  0.00     0.039 C 
ENDROOT
BRANCH   2   4
ATOM      4  C   UNL     1      33.175  39.900  85.089  1.00  0.00     0.032 C 
BRANCH   4   5
ATOM      5  C   UNL     1      31.784  40.565  85.049  1.00  0.00     0.034 C 
BRANCH   5   6
ATOM      6  C   UNL     1      31.815  42.037  85.419  1.00  0.00    -0.077 C 
ATOM      7  C   UNL     1      31.429  42.415  86.828  1.00  0.00     0.039 C 
ATOM      8  C   UNL     1      32.101  43.037  84.550  1.00  0.00    -0.023 CG0
ATOM      9  G   UNL     1      32.531  42.896  83.103  1.00  0.00     0.000 G0
ENDBRANCH   5   6
ENDBRANCH   4   5
ENDBRANCH   2   4
BRANCH   1  10
ATOM     10  C   UNL     1      35.750  41.005  83.842  1.00  0.00     0.111 C 
BRANCH  10  11
ATOM     11  C   UNL     1      34.633  41.425  82.923  1.00  0.00     0.163 C 
ATOM     12  O   UNL     1      34.232  40.597  82.060  1.00  0.00    -0.294 OA
BRANCH  11  13
ATOM     13  C   UNL     1      34.037  42.792  82.959  1.00  0.00    -0.002 C 
ATOM     14  C   UNL     1      34.834  43.903  82.952  1.00  0.00    -0.069 C 
ATOM     15  C   UNL     1      36.329  43.795  82.751  1.00  0.00     0.039 C 
ATOM     16  C   UNL     1      34.271  45.295  83.146  1.00  0.00     0.039 C 
BRANCH  13  17
ATOM     17  C   UNL     1      32.526  42.890  83.098  1.00  0.00     0.066 CG0
ATOM     18  G   UNL     1      32.090  43.066  84.540  1.00  0.00     0.000 G0
ENDBRANCH  13  17
ENDBRANCH  11  13
ENDBRANCH  10  11
ENDBRANCH   1  10
TORSDOF 0
ENDMDL
MODEL 4
REMARK VINA RESULT:    -4.414      2.272      4.319
REMARK INTER + INTRA:          -5.841
REMARK INTER:                  -6.037
REMARK INTRA:                   0.196
REMARK UNBOUND:                 0.379
REMARK SMILES CC1=CCC(=C(C)C)C(=O)CC(C)=CCC1
REMARK SMILES IDX 12 1 14 2 13 3 15 4 16 5 2 6 1 7 3 8 11 10 9 11 10 12 5 13
REMARK SMILES IDX 6 14 7 15 8 16 4 17
REMARK H PARENT
REMARK Flexibility Score: 60.00
ROOT
ATOM      1  C   UNL     1      35.477  40.193  83.674  1.00  0.00    -0.070 C 
ATOM      2  C   UNL     1      34.404  40.145  82.854  1.00  0.00    -0.027 C 
ATOM      3  C   UNL     1      36.154  38.891  84.024  1.00  0.00     0.039 C 
ENDROOT
BRANCH   2   4
ATOM      4  C   UNL     1      33.536  41.324  82.466  1.00  0.00     0.032 C 
BRANCH   4   5
ATOM      5  C   UNL     1      32.223  41.452  83.267  1.00  0.00     0.034 C 
BRANCH   5   6
ATOM      6  C   UNL     1      31.989  42.851  83.807  1.00  0.00    -0.077 C 
ATOM      7  C   UNL     1      31.321  43.853  82.899  1.00  0.00     0.039 C 
ATOM      8  C   UNL     1      32.400  43.278  85.026  1.00  0.00    -0.023 CG0
ATOM      9  G   UNL     1      33.069  42.451  86.107  1.00  0.00     0.000 G0
ENDBRANCH   5   6
ENDBRANCH   4   5
ENDBRANCH   2   4
BRANCH   1  10
ATOM     10  C   UNL     1      35.970  41.468  84.326  1.00  0.00     0.111 C 
BRANCH  10  11
ATOM     11  C   UNL     1      35.479  41.593  85.744  1.00  0.00     0.163 C 
ATOM     12  O   UNL     1      35.803  40.692  86.565  1.00  0.00    -0.294 OA
BRANCH  11  13
ATOM     13  C   UNL     1      34.582  42.700  86.187  1.00  0.00    -0.002 C 
ATOM     14  C   UNL     1      35.100  43.855  86.706  1.00  0.00    -0.069 C 
ATOM     15  C   UNL     1      36.591  44.116  86.705  1.00  0.00     0.039 C 
ATOM     16  C   UNL     1      34.221  44.928  87.309  1.00  0.00     0.039 C 
BRANCH  13  17
ATOM     17  C   UNL     1      33.084  42.450  86.126  1.00  0.00     0.066 CG0
ATOM     18  G   UNL     1      32.408  43.265  85.041  1.00  0.00     0.000 G0
ENDBRANCH  13  17
ENDBRANCH  11  13
ENDBRANCH  10  11
ENDBRANCH   1  10
TORSDOF 0
ENDMDL
MODEL 5
REMARK VINA RESULT:    -4.301      1.753      3.699
REMARK INTER + INTRA:          -5.683
REMARK INTER:                  -6.280
REMARK INTRA:                   0.597
REMARK UNBOUND:                 0.379
REMARK SMILES CC1=CCC(=C(C)C)C(=O)CC(C)=CCC1
REMARK SMILES IDX 12 1 14 2 13 3 15 4 16 5 2 6 1 7 3 8 11 10 9 11 10 12 5 13
REMARK SMILES IDX 6 14 7 15 8 16 4 17
REMARK H PARENT
REMARK Flexibility Score: 60.00
ROOT
ATOM      1  C   UNL     1      34.441  39.949  84.491  1.00  0.00    -0.070 C 
ATOM      2  C   UNL     1      33.385  39.780  85.317  1.00  0.00    -0.027 C 
ATOM      3  C   UNL     1      35.755  39.326  84.890  1.00  0.00     0.039 C 
ENDROOT
BRANCH   2   4
ATOM      4  C   UNL     1      32.017  40.405  85.141  1.00  0.00     0.032 C 
BRANCH   4   5
ATOM      5  C   UNL     1      31.620  41.414  86.239  1.00  0.00     0.034 C 
BRANCH   5   6
ATOM      6  C   UNL     1      31.792  42.860  85.810  1.00  0.00    -0.077 C 
ATOM      7  C   UNL     1      30.555  43.628  85.417  1.00  0.00     0.039 C 
ATOM      8  C   UNL     1      32.990  43.485  85.693  1.00  0.00    -0.023 CG0
ATOM      9  G   UNL     1      34.353  42.924  86.047  1.00  0.00     0.000 G0
ENDBRANCH   5   6
ENDBRANCH   4   5
ENDBRANCH   2   4
BRANCH   1  10
ATOM     10  C   UNL     1      34.391  40.804  83.242  1.00  0.00     0.111 C 
BRANCH  10  11
ATOM     11  C   UNL     1      34.582  42.264  83.560  1.00  0.00     0.163 C 
ATOM     12  O   UNL     1      34.215  43.111  82.700  1.00  0.00    -0.294 OA
BRANCH  11  13
ATOM     13  C   UNL     1      35.239  42.732  84.815  1.00  0.00    -0.002 C 
ATOM     14  C   UNL     1      36.595  42.900  84.874  1.00  0.00    -0.069 C 
ATOM     15  C   UNL     1      37.455  42.772  83.636  1.00  0.00     0.039 C 
ATOM     16  C   UNL     1      37.307  43.220  86.170  1.00  0.00     0.039 C 
BRANCH  13  17
ATOM     17  C   UNL     1      34.354  42.917  86.037  1.00  0.00     0.066 CG0
ATOM     18  G   UNL     1      32.994  43.485  85.683  1.00  0.00     0.000 G0
ENDBRANCH  13  17
ENDBRANCH  11  13
ENDBRANCH  10  11
ENDBRANCH   1  10
TORSDOF 0
ENDMDL
MODEL 6
REMARK VINA RESULT:    -4.294      2.113      3.133
REMARK INTER + INTRA:          -5.672
REMARK INTER:                  -5.949
REMARK INTRA:                   0.277
REMARK UNBOUND:                 0.379
REMARK SMILES CC1=CCC(=C(C)C)C(=O)CC(C)=CCC1
REMARK SMILES IDX 12 1 14 2 13 3 15 4 16 5 2 6 1 7 3 8 11 10 9 11 10 12 5 13
REMARK SMILES IDX 6 14 7 15 8 16 4 17
REMARK H PARENT
REMARK Flexibility Score: 60.00
ROOT
ATOM      1  C   UNL     1      32.428  41.739  86.174  1.00  0.00    -0.070 C 
ATOM      2  C   UNL     1      32.452  40.567  85.501  1.00  0.00    -0.027 C 
ATOM      3  C   UNL     1      31.091  42.405  86.382  1.00  0.00     0.039 C 
ENDROOT
BRANCH   2   4
ATOM      4  C   UNL     1      33.696  39.799  85.109  1.00  0.00     0.032 C 
BRANCH   4   5
ATOM      5  C   UNL     1      34.402  40.315  83.837  1.00  0.00     0.034 C 
BRANCH   5   6
ATOM      6  C   UNL     1      35.915  40.326  83.957  1.00  0.00    -0.077 C 
ATOM      7  C   UNL     1      36.622  38.997  84.055  1.00  0.00     0.039 C 
ATOM      8  C   UNL     1      36.665  41.451  84.050  1.00  0.00    -0.023 CG0
ATOM      9  G   UNL     1      36.181  42.884  83.958  1.00  0.00     0.000 G0
ENDBRANCH   5   6
ENDBRANCH   4   5
ENDBRANCH   2   4
BRANCH   1  10
ATOM     10  C   UNL     1      33.678  42.454  86.644  1.00  0.00     0.111 C 
BRANCH  10  11
ATOM     11  C   UNL     1      34.241  43.350  85.574  1.00  0.00     0.163 C 
ATOM     12  O   UNL     1      33.432  44.008  84.864  1.00  0.00    -0.294 OA
BRANCH  11  13
ATOM     13  C   UNL     1      35.704  43.437  85.288  1.00  0.00    -0.002 C 
ATOM     14  C   UNL     1      36.551  44.063  86.159  1.00  0.00    -0.069 C 
ATOM     15  C   UNL     1      36.069  44.548  87.509  1.00  0.00     0.039 C 
ATOM     16  C   UNL     1      38.007  44.306  85.827  1.00  0.00     0.039 C 
BRANCH  13  17
ATOM     17  C   UNL     1      36.186  42.889  83.954  1.00  0.00     0.066 CG0
ATOM     18  G   UNL     1      36.665  41.454  84.060  1.00  0.00     0.000 G0
ENDBRANCH  13  17
ENDBRANCH  11  13
ENDBRANCH  10  11
ENDBRANCH   1  10
TORSDOF 0
ENDMDL
MODEL 7
REMARK VINA RESULT:    -4.255      1.935      3.209
REMARK INTER + INTRA:          -5.617
REMARK INTER:                  -6.254
REMARK INTRA:                   0.637
REMARK UNBOUND:                 0.379
REMARK SMILES CC1=CCC(=C(C)C)C(=O)CC(C)=CCC1
REMARK SMILES IDX 12 1 14 2 13 3 15 4 16 5 2 6 1 7 3 8 11 10 9 11 10 12 5 13
REMARK SMILES IDX 6 14 7 15 8 16 4 17
REMARK H PARENT
REMARK Flexibility Score: 60.00
ROOT
ATOM      1  C   UNL     1      32.178  42.430  83.384  1.00  0.00    -0.070 C 
ATOM      2  C   UNL     1      33.363  42.392  82.736  1.00  0.00    -0.027 C 
ATOM      3  C   UNL     1      31.534  43.777  83.596  1.00  0.00     0.039 C 
ENDROOT
BRANCH   2   4
ATOM      4  C   UNL     1      34.208  41.156  82.513  1.00  0.00     0.032 C 
BRANCH   4   5
ATOM      5  C   UNL     1      35.516  41.109  83.330  1.00  0.00     0.034 C 
BRANCH   5   6
ATOM      6  C   UNL     1      35.432  40.191  84.537  1.00  0.00    -0.077 C 
ATOM      7  C   UNL     1      35.941  38.779  84.382  1.00  0.00     0.039 C 
ATOM      8  C   UNL     1      34.870  40.536  85.721  1.00  0.00    -0.023 CG0
ATOM      9  G   UNL     1      34.315  41.892  86.110  1.00  0.00     0.000 G0
ENDBRANCH   5   6
ENDBRANCH   4   5
ENDBRANCH   2   4
BRANCH   1  10
ATOM     10  C   UNL     1      31.518  41.206  83.984  1.00  0.00     0.111 C 
BRANCH  10  11
ATOM     11  C   UNL     1      32.055  40.901  85.357  1.00  0.00     0.163 C 
ATOM     12  O   UNL     1      31.826  39.760  85.844  1.00  0.00    -0.294 OA
BRANCH  11  13
ATOM     13  C   UNL     1      32.786  41.913  86.175  1.00  0.00    -0.002 C 
ATOM     14  C   UNL     1      32.105  42.865  86.882  1.00  0.00    -0.069 C 
ATOM     15  C   UNL     1      30.596  42.832  86.989  1.00  0.00     0.039 C 
ATOM     16  C   UNL     1      32.814  43.997  87.591  1.00  0.00     0.039 C 
BRANCH  13  17
ATOM     17  C   UNL     1      34.305  41.897  86.109  1.00  0.00     0.066 CG0
ATOM     18  G   UNL     1      34.850  40.536  85.723  1.00  0.00     0.000 G0
ENDBRANCH  13  17
ENDBRANCH  11  13
ENDBRANCH  10  11
ENDBRANCH   1  10
TORSDOF 0
ENDMDL
MODEL 8
REMARK VINA RESULT:    -4.246      2.140      3.911
REMARK INTER + INTRA:          -5.605
REMARK INTER:                  -6.058
REMARK INTRA:                   0.453
REMARK UNBOUND:                 0.379
REMARK SMILES CC1=CCC(=C(C)C)C(=O)CC(C)=CCC1
REMARK SMILES IDX 12 1 14 2 13 3 15 4 16 5 2 6 1 7 3 8 11 10 9 11 10 12 5 13
REMARK SMILES IDX 6 14 7 15 8 16 4 17
REMARK H PARENT
REMARK Flexibility Score: 60.00
ROOT
ATOM      1  C   UNL     1      36.159  40.495  83.985  1.00  0.00    -0.070 C 
ATOM      2  C   UNL     1      35.064  40.141  83.278  1.00  0.00    -0.027 C 
ATOM      3  C   UNL     1      36.880  39.416  84.755  1.00  0.00     0.039 C 
ENDROOT
BRANCH   2   4
ATOM      4  C   UNL     1      34.155  41.090  82.525  1.00  0.00     0.032 C 
BRANCH   4   5
ATOM      5  C   UNL     1      32.728  41.211  83.098  1.00  0.00     0.034 C 
BRANCH   5   6
ATOM      6  C   UNL     1      32.700  41.319  84.612  1.00  0.00    -0.077 C 
ATOM      7  C   UNL     1      32.110  40.169  85.388  1.00  0.00     0.039 C 
ATOM      8  C   UNL     1      33.108  42.409  85.307  1.00  0.00    -0.023 CG0
ATOM      9  G   UNL     1      33.747  43.665  84.747  1.00  0.00     0.000 G0
ENDBRANCH   5   6
ENDBRANCH   4   5
ENDBRANCH   2   4
BRANCH   1  10
ATOM     10  C   UNL     1      36.639  41.926  84.117  1.00  0.00     0.111 C 
BRANCH  10  11
ATOM     11  C   UNL     1      36.030  42.608  85.312  1.00  0.00     0.163 C 
ATOM     12  O   UNL     1      36.194  42.079  86.446  1.00  0.00    -0.294 OA
BRANCH  11  13
ATOM     13  C   UNL     1      35.197  43.841  85.194  1.00  0.00    -0.002 C 
ATOM     14  C   UNL     1      35.693  45.059  85.566  1.00  0.00    -0.069 C 
ATOM     15  C   UNL     1      37.145  45.228  85.958  1.00  0.00     0.039 C 
ATOM     16  C   UNL     1      34.828  46.299  85.607  1.00  0.00     0.039 C 
BRANCH  13  17
ATOM     17  C   UNL     1      33.757  43.667  84.738  1.00  0.00     0.066 CG0
ATOM     18  G   UNL     1      33.119  42.415  85.308  1.00  0.00     0.000 G0
ENDBRANCH  13  17
ENDBRANCH  11  13
ENDBRANCH  10  11
ENDBRANCH   1  10
TORSDOF 0
ENDMDL
MODEL 9
REMARK VINA RESULT:    -4.236      1.968      2.885
REMARK INTER + INTRA:          -5.591
REMARK INTER:                  -6.056
REMARK INTRA:                   0.466
REMARK UNBOUND:                 0.379
REMARK SMILES CC1=CCC(=C(C)C)C(=O)CC(C)=CCC1
REMARK SMILES IDX 12 1 14 2 13 3 15 4 16 5 2 6 1 7 3 8 11 10 9 11 10 12 5 13
REMARK SMILES IDX 6 14 7 15 8 16 4 17
REMARK H PARENT
REMARK Flexibility Score: 60.00
ROOT
ATOM      1  C   UNL     1      33.626  40.554  83.452  1.00  0.00    -0.070 C 
ATOM      2  C   UNL     1      34.600  40.087  84.264  1.00  0.00    -0.027 C 
ATOM      3  C   UNL     1      33.959  40.752  81.994  1.00  0.00     0.039 C 
ENDROOT
BRANCH   2   4
ATOM      4  C   UNL     1      34.492  39.915  85.764  1.00  0.00     0.032 C 
BRANCH   4   5
ATOM      5  C   UNL     1      35.455  40.795  86.588  1.00  0.00     0.034 C 
BRANCH   5   6
ATOM      6  C   UNL     1      35.456  42.249  86.151  1.00  0.00    -0.077 C 
ATOM      7  C   UNL     1      36.756  42.832  85.655  1.00  0.00     0.039 C 
ATOM      8  C   UNL     1      34.384  43.074  86.240  1.00  0.00    -0.023 CG0
ATOM      9  G   UNL     1      32.983  42.708  86.687  1.00  0.00     0.000 G0
ENDBRANCH   5   6
ENDBRANCH   4   5
ENDBRANCH   2   4
BRANCH   1  10
ATOM     10  C   UNL     1      32.258  40.973  83.949  1.00  0.00     0.111 C 
BRANCH  10  11
ATOM     11  C   UNL     1      32.205  42.446  84.254  1.00  0.00     0.163 C 
ATOM     12  O   UNL     1      32.454  43.255  83.318  1.00  0.00    -0.294 OA
BRANCH  11  13
ATOM     13  C   UNL     1      31.931  42.973  85.623  1.00  0.00    -0.002 C 
ATOM     14  C   UNL     1      30.825  43.736  85.872  1.00  0.00    -0.069 C 
ATOM     15  C   UNL     1      29.762  43.943  84.815  1.00  0.00     0.039 C 
ATOM     16  C   UNL     1      30.601  44.415  87.205  1.00  0.00     0.039 C 
BRANCH  13  17
ATOM     17  C   UNL     1      32.977  42.705  86.694  1.00  0.00     0.066 CG0
ATOM     18  G   UNL     1      34.376  43.073  86.239  1.00  0.00     0.000 G0
ENDBRANCH  13  17
ENDBRANCH  11  13
ENDBRANCH  10  11
ENDBRANCH   1  10
TORSDOF 0
ENDMDL
