MODEL 1
REMARK VINA RESULT:    -5.431      0.000      0.000
REMARK INTER + INTRA:          -6.957
REMARK INTER:                  -6.542
REMARK INTRA:                  -0.414
REMARK UNBOUND:                -0.414
REMARK SMILES O=c1c(O)c(-c2ccc(O)cc2O)oc2cc(O)cc(O)c12
REMARK SMILES IDX 5 1 3 2 2 3 1 4 22 5 20 6 19 7 17 8 16 9 15 10 14 11 6 12
REMARK SMILES IDX 8 13 7 14 9 15 11 16 12 17 10 18 13 20 4 22 21 24 18 26
REMARK H PARENT 10 19 13 21 4 23 21 25 18 27
REMARK Flexibility Score: inf
ROOT
ATOM      1  C   UNL     1      15.794  34.951  52.100  1.00  0.00     0.184 A 
ATOM      2  C   UNL     1      16.931  34.256  52.542  1.00  0.00     0.208 A 
ATOM      3  C   UNL     1      16.841  33.472  53.702  1.00  0.00     0.238 A 
ATOM      4  O   UNL     1      17.879  32.900  54.127  1.00  0.00    -0.285 OA
ATOM      5  C   UNL     1      15.606  33.368  54.388  1.00  0.00     0.111 A 
ATOM      6  C   UNL     1      15.388  32.571  55.552  1.00  0.00     0.134 A 
ATOM      7  C   UNL     1      14.158  32.642  56.217  1.00  0.00     0.093 A 
ATOM      8  C   UNL     1      13.118  33.430  55.728  1.00  0.00     0.123 A 
ATOM      9  C   UNL     1      13.300  34.170  54.558  1.00  0.00     0.094 A 
ATOM     10  C   UNL     1      14.527  34.149  53.892  1.00  0.00     0.146 A 
ATOM     11  O   UNL     1      14.664  34.878  52.790  1.00  0.00    -0.451 OA
ENDROOT
BRANCH   1  12
ATOM     12  C   UNL     1      15.824  35.774  50.873  1.00  0.00     0.063 A 
ATOM     13  C   UNL     1      15.483  35.945  48.469  1.00  0.00     0.047 A 
ATOM     14  C   UNL     1      15.516  35.179  49.636  1.00  0.00     0.020 A 
ATOM     15  C   UNL     1      15.748  37.314  48.519  1.00  0.00     0.119 A 
ATOM     16  C   UNL     1      16.054  37.919  49.745  1.00  0.00     0.093 A 
ATOM     17  C   UNL     1      16.102  37.160  50.920  1.00  0.00     0.130 A 
BRANCH  15  18
ATOM     18  O   UNL     1      15.706  38.067  47.347  1.00  0.00    -0.508 OA
ATOM     19  H   UNL     1      15.102  37.811  46.574  1.00  0.00     0.293 HD
ENDBRANCH  15  18
BRANCH  17  20
ATOM     20  O   UNL     1      16.448  37.807  52.109  1.00  0.00    -0.507 OA
ATOM     21  H   UNL     1      17.354  38.228  52.265  1.00  0.00     0.293 HD
ENDBRANCH  17  20
ENDBRANCH   1  12
BRANCH   2  22
ATOM     22  O   UNL     1      18.135  34.373  51.842  1.00  0.00    -0.502 OA
ATOM     23  H   UNL     1      18.480  35.262  51.501  1.00  0.00     0.293 HD
ENDBRANCH   2  22
BRANCH   6  24
ATOM     24  O   UNL     1      16.329  31.679  56.074  1.00  0.00    -0.507 OA
ATOM     25  H   UNL     1      16.167  30.695  56.226  1.00  0.00     0.293 HD
ENDBRANCH   6  24
BRANCH   8  26
ATOM     26  O   UNL     1      11.902  33.464  56.407  1.00  0.00    -0.508 OA
ATOM     27  H   UNL     1      11.728  32.876  57.214  1.00  0.00     0.293 HD
ENDBRANCH   8  26
TORSDOF 6
ENDMDL
MODEL 2
REMARK VINA RESULT:    -5.016      2.450      3.832
REMARK INTER + INTRA:          -6.456
REMARK INTER:                  -6.169
REMARK INTRA:                  -0.287
REMARK UNBOUND:                -0.414
REMARK SMILES O=c1c(O)c(-c2ccc(O)cc2O)oc2cc(O)cc(O)c12
REMARK SMILES IDX 5 1 3 2 2 3 1 4 22 5 20 6 19 7 17 8 16 9 15 10 14 11 6 12
REMARK SMILES IDX 8 13 7 14 9 15 11 16 12 17 10 18 13 20 4 22 21 24 18 26
REMARK H PARENT 10 19 13 21 4 23 21 25 18 27
REMARK Flexibility Score: inf
ROOT
ATOM      1  C   UNL     1      13.010  34.450  52.299  1.00  0.00     0.184 A 
ATOM      2  C   UNL     1      11.654  34.096  52.365  1.00  0.00     0.208 A 
ATOM      3  C   UNL     1      11.143  33.580  53.566  1.00  0.00     0.238 A 
ATOM      4  O   UNL     1       9.941  33.208  53.601  1.00  0.00    -0.285 OA
ATOM      5  C   UNL     1      11.990  33.453  54.695  1.00  0.00     0.111 A 
ATOM      6  C   UNL     1      11.570  32.980  55.975  1.00  0.00     0.134 A 
ATOM      7  C   UNL     1      12.522  32.780  56.982  1.00  0.00     0.093 A 
ATOM      8  C   UNL     1      13.864  33.096  56.780  1.00  0.00     0.123 A 
ATOM      9  C   UNL     1      14.276  33.614  55.551  1.00  0.00     0.094 A 
ATOM     10  C   UNL     1      13.357  33.790  54.514  1.00  0.00     0.146 A 
ATOM     11  O   UNL     1      13.793  34.273  53.356  1.00  0.00    -0.451 OA
ENDROOT
BRANCH   1  12
ATOM     12  C   UNL     1      13.597  35.020  51.068  1.00  0.00     0.063 A 
ATOM     13  C   UNL     1      15.056  34.753  49.138  1.00  0.00     0.047 A 
ATOM     14  C   UNL     1      14.527  34.262  50.334  1.00  0.00     0.020 A 
ATOM     15  C   UNL     1      14.659  36.000  48.654  1.00  0.00     0.119 A 
ATOM     16  C   UNL     1      13.733  36.764  49.375  1.00  0.00     0.093 A 
ATOM     17  C   UNL     1      13.204  36.288  50.581  1.00  0.00     0.130 A 
BRANCH  15  18
ATOM     18  O   UNL     1      15.192  36.475  47.456  1.00  0.00    -0.508 OA
ATOM     19  H   UNL     1      15.853  37.242  47.438  1.00  0.00     0.293 HD
ENDBRANCH  15  18
BRANCH  17  20
ATOM     20  O   UNL     1      12.312  37.106  51.278  1.00  0.00    -0.507 OA
ATOM     21  H   UNL     1      11.929  37.959  50.893  1.00  0.00     0.293 HD
ENDBRANCH  17  20
ENDBRANCH   1  12
BRANCH   2  22
ATOM     22  O   UNL     1      10.841  34.236  51.237  1.00  0.00    -0.502 OA
ATOM     23  H   UNL     1      10.286  33.472  50.871  1.00  0.00     0.293 HD
ENDBRANCH   2  22
BRANCH   6  24
ATOM     24  O   UNL     1      10.239  32.719  56.313  1.00  0.00    -0.507 OA
ATOM     25  H   UNL     1       9.926  32.414  57.222  1.00  0.00     0.293 HD
ENDBRANCH   6  24
BRANCH   8  26
ATOM     26  O   UNL     1      14.781  32.900  57.811  1.00  0.00    -0.508 OA
ATOM     27  H   UNL     1      15.182  33.679  58.320  1.00  0.00     0.293 HD
ENDBRANCH   8  26
TORSDOF 6
ENDMDL
MODEL 3
REMARK VINA RESULT:    -4.981      1.511      1.630
REMARK INTER + INTRA:          -6.415
REMARK INTER:                  -6.000
REMARK INTRA:                  -0.414
REMARK UNBOUND:                -0.414
REMARK SMILES O=c1c(O)c(-c2ccc(O)cc2O)oc2cc(O)cc(O)c12
REMARK SMILES IDX 5 1 3 2 2 3 1 4 22 5 20 6 19 7 17 8 16 9 15 10 14 11 6 12
REMARK SMILES IDX 8 13 7 14 9 15 11 16 12 17 10 18 13 20 4 22 21 24 18 26
REMARK H PARENT 10 19 13 21 4 23 21 25 18 27
REMARK Flexibility Score: inf
ROOT
ATOM      1  C   UNL     1      14.351  34.577  52.054  1.00  0.00     0.184 A 
ATOM      2  C   UNL     1      15.616  34.208  52.538  1.00  0.00     0.208 A 
ATOM      3  C   UNL     1      15.720  33.671  53.830  1.00  0.00     0.238 A 
ATOM      4  O   UNL     1      16.863  33.399  54.281  1.00  0.00    -0.285 OA
ATOM      5  C   UNL     1      14.553  33.481  54.610  1.00  0.00     0.111 A 
ATOM      6  C   UNL     1      14.535  32.909  55.918  1.00  0.00     0.134 A 
ATOM      7  C   UNL     1      13.338  32.884  56.644  1.00  0.00     0.093 A 
ATOM      8  C   UNL     1      12.148  33.351  56.089  1.00  0.00     0.123 A 
ATOM      9  C   UNL     1      12.142  33.861  54.789  1.00  0.00     0.094 A 
ATOM     10  C   UNL     1      13.327  33.933  54.053  1.00  0.00     0.146 A 
ATOM     11  O   UNL     1      13.280  34.437  52.825  1.00  0.00    -0.451 OA
ENDROOT
BRANCH   1  12
ATOM     12  C   UNL     1      14.179  35.127  50.693  1.00  0.00     0.063 A 
ATOM     13  C   UNL     1      13.726  34.744  48.332  1.00  0.00     0.047 A 
ATOM     14  C   UNL     1      13.948  34.249  49.619  1.00  0.00     0.020 A 
ATOM     15  C   UNL     1      13.723  36.120  48.100  1.00  0.00     0.119 A 
ATOM     16  C   UNL     1      13.949  37.005  49.162  1.00  0.00     0.093 A 
ATOM     17  C   UNL     1      14.184  36.521  50.454  1.00  0.00     0.130 A 
BRANCH  15  18
ATOM     18  O   UNL     1      13.495  36.600  46.811  1.00  0.00    -0.508 OA
ATOM     19  H   UNL     1      13.357  37.588  46.631  1.00  0.00     0.293 HD
ENDBRANCH  15  18
BRANCH  17  20
ATOM     20  O   UNL     1      14.440  37.447  51.469  1.00  0.00    -0.507 OA
ATOM     21  H   UNL     1      13.709  37.947  51.956  1.00  0.00     0.293 HD
ENDBRANCH  17  20
ENDBRANCH   1  12
BRANCH   2  22
ATOM     22  O   UNL     1      16.750  34.402  51.744  1.00  0.00    -0.502 OA
ATOM     23  H   UNL     1      16.891  35.242  51.197  1.00  0.00     0.293 HD
ENDBRANCH   2  22
BRANCH   6  24
ATOM     24  O   UNL     1      15.649  32.330  56.532  1.00  0.00    -0.507 OA
ATOM     25  H   UNL     1      15.960  32.534  57.470  1.00  0.00     0.293 HD
ENDBRANCH   6  24
BRANCH   8  26
ATOM     26  O   UNL     1      10.972  33.296  56.835  1.00  0.00    -0.508 OA
ATOM     27  H   UNL     1      10.612  34.110  57.319  1.00  0.00     0.293 HD
ENDBRANCH   8  26
TORSDOF 6
ENDMDL
MODEL 4
REMARK VINA RESULT:    -4.943      1.231      2.866
REMARK INTER + INTRA:          -6.369
REMARK INTER:                  -5.967
REMARK INTRA:                  -0.403
REMARK UNBOUND:                -0.414
REMARK SMILES O=c1c(O)c(-c2ccc(O)cc2O)oc2cc(O)cc(O)c12
REMARK SMILES IDX 5 1 3 2 2 3 1 4 22 5 20 6 19 7 17 8 16 9 15 10 14 11 6 12
REMARK SMILES IDX 8 13 7 14 9 15 11 16 12 17 10 18 13 20 4 22 21 24 18 26
REMARK H PARENT 10 19 13 21 4 23 21 25 18 27
REMARK Flexibility Score: inf
ROOT
ATOM      1  C   UNL     1      14.818  34.795  52.198  1.00  0.00     0.184 A 
ATOM      2  C   UNL     1      13.486  34.696  52.626  1.00  0.00     0.208 A 
ATOM      3  C   UNL     1      13.195  33.957  53.783  1.00  0.00     0.238 A 
ATOM      4  O   UNL     1      11.992  33.822  54.127  1.00  0.00    -0.285 OA
ATOM      5  C   UNL     1      14.247  33.350  54.514  1.00  0.00     0.111 A 
ATOM      6  C   UNL     1      14.074  32.611  55.722  1.00  0.00     0.134 A 
ATOM      7  C   UNL     1      15.170  31.952  56.291  1.00  0.00     0.093 A 
ATOM      8  C   UNL     1      16.443  32.057  55.734  1.00  0.00     0.123 A 
ATOM      9  C   UNL     1      16.635  32.825  54.584  1.00  0.00     0.094 A 
ATOM     10  C   UNL     1      15.555  33.464  53.972  1.00  0.00     0.146 A 
ATOM     11  O   UNL     1      15.778  34.173  52.872  1.00  0.00    -0.451 OA
ENDROOT
BRANCH   1  12
ATOM     12  C   UNL     1      15.186  35.578  51.000  1.00  0.00     0.063 A 
ATOM     13  C   UNL     1      15.516  35.672  48.590  1.00  0.00     0.047 A 
ATOM     14  C   UNL     1      15.226  34.943  49.746  1.00  0.00     0.020 A 
ATOM     15  C   UNL     1      15.761  37.043  48.667  1.00  0.00     0.119 A 
ATOM     16  C   UNL     1      15.722  37.688  49.910  1.00  0.00     0.093 A 
ATOM     17  C   UNL     1      15.444  36.968  51.077  1.00  0.00     0.130 A 
BRANCH  15  18
ATOM     18  O   UNL     1      16.044  37.758  47.505  1.00  0.00    -0.508 OA
ATOM     19  H   UNL     1      15.398  37.777  46.724  1.00  0.00     0.293 HD
ENDBRANCH  15  18
BRANCH  17  20
ATOM     20  O   UNL     1      15.452  37.654  52.294  1.00  0.00    -0.507 OA
ATOM     21  H   UNL     1      16.174  38.314  52.550  1.00  0.00     0.293 HD
ENDBRANCH  17  20
ENDBRANCH   1  12
BRANCH   2  22
ATOM     22  O   UNL     1      12.469  35.309  51.888  1.00  0.00    -0.502 OA
ATOM     23  H   UNL     1      11.612  34.828  51.643  1.00  0.00     0.293 HD
ENDBRANCH   2  22
BRANCH   6  24
ATOM     24  O   UNL     1      12.862  32.516  56.413  1.00  0.00    -0.507 OA
ATOM     25  H   UNL     1      11.995  32.937  56.116  1.00  0.00     0.293 HD
ENDBRANCH   6  24
BRANCH   8  26
ATOM     26  O   UNL     1      17.515  31.401  56.337  1.00  0.00    -0.508 OA
ATOM     27  H   UNL     1      17.607  30.392  56.301  1.00  0.00     0.293 HD
ENDBRANCH   8  26
TORSDOF 6
ENDMDL
MODEL 5
REMARK VINA RESULT:    -4.940      2.674      4.023
REMARK INTER + INTRA:          -6.365
REMARK INTER:                  -5.964
REMARK INTRA:                  -0.401
REMARK UNBOUND:                -0.414
REMARK SMILES O=c1c(O)c(-c2ccc(O)cc2O)oc2cc(O)cc(O)c12
REMARK SMILES IDX 5 1 3 2 2 3 1 4 22 5 20 6 19 7 17 8 16 9 15 10 14 11 6 12
REMARK SMILES IDX 8 13 7 14 9 15 11 16 12 17 10 18 13 20 4 22 21 24 18 26
REMARK H PARENT 10 19 13 21 4 23 21 25 18 27
REMARK Flexibility Score: inf
ROOT
ATOM      1  C   UNL     1      13.542  34.597  51.761  1.00  0.00     0.184 A 
ATOM      2  C   UNL     1      12.446  34.256  50.953  1.00  0.00     0.208 A 
ATOM      3  C   UNL     1      11.283  33.755  51.559  1.00  0.00     0.238 A 
ATOM      4  O   UNL     1      10.327  33.394  50.824  1.00  0.00    -0.285 OA
ATOM      5  C   UNL     1      11.221  33.632  52.969  1.00  0.00     0.111 A 
ATOM      6  C   UNL     1      10.079  33.174  53.693  1.00  0.00     0.134 A 
ATOM      7  C   UNL     1      10.174  32.975  55.076  1.00  0.00     0.093 A 
ATOM      8  C   UNL     1      11.344  33.277  55.770  1.00  0.00     0.123 A 
ATOM      9  C   UNL     1      12.448  33.780  55.080  1.00  0.00     0.094 A 
ATOM     10  C   UNL     1      12.398  33.954  53.695  1.00  0.00     0.146 A 
ATOM     11  O   UNL     1      13.475  34.422  53.075  1.00  0.00    -0.451 OA
ENDROOT
BRANCH   1  12
ATOM     12  C   UNL     1      14.783  35.149  51.181  1.00  0.00     0.063 A 
ATOM     13  C   UNL     1      16.995  34.765  50.239  1.00  0.00     0.047 A 
ATOM     14  C   UNL     1      15.832  34.277  50.840  1.00  0.00     0.020 A 
ATOM     15  C   UNL     1      17.124  36.127  49.963  1.00  0.00     0.119 A 
ATOM     16  C   UNL     1      16.085  37.006  50.296  1.00  0.00     0.093 A 
ATOM     17  C   UNL     1      14.920  36.531  50.909  1.00  0.00     0.130 A 
BRANCH  15  18
ATOM     18  O   UNL     1      18.288  36.599  49.358  1.00  0.00    -0.508 OA
ATOM     19  H   UNL     1      18.845  36.010  48.750  1.00  0.00     0.293 HD
ENDBRANCH  15  18
BRANCH  17  20
ATOM     20  O   UNL     1      13.931  37.456  51.252  1.00  0.00    -0.507 OA
ATOM     21  H   UNL     1      13.088  37.203  51.750  1.00  0.00     0.293 HD
ENDBRANCH  17  20
ENDBRANCH   1  12
BRANCH   2  22
ATOM     22  O   UNL     1      12.534  34.392  49.565  1.00  0.00    -0.502 OA
ATOM     23  H   UNL     1      13.101  35.108  49.126  1.00  0.00     0.293 HD
ENDBRANCH   2  22
BRANCH   6  24
ATOM     24  O   UNL     1       8.832  32.928  53.112  1.00  0.00    -0.507 OA
ATOM     25  H   UNL     1       8.047  32.509  53.588  1.00  0.00     0.293 HD
ENDBRANCH   6  24
BRANCH   8  26
ATOM     26  O   UNL     1      11.397  33.082  57.149  1.00  0.00    -0.508 OA
ATOM     27  H   UNL     1      12.212  33.343  57.691  1.00  0.00     0.293 HD
ENDBRANCH   8  26
TORSDOF 6
ENDMDL
MODEL 6
REMARK VINA RESULT:    -4.861      4.177      7.256
REMARK INTER + INTRA:          -6.270
REMARK INTER:                  -5.930
REMARK INTRA:                  -0.339
REMARK UNBOUND:                -0.414
REMARK SMILES O=c1c(O)c(-c2ccc(O)cc2O)oc2cc(O)cc(O)c12
REMARK SMILES IDX 5 1 3 2 2 3 1 4 22 5 20 6 19 7 17 8 16 9 15 10 14 11 6 12
REMARK SMILES IDX 8 13 7 14 9 15 11 16 12 17 10 18 13 20 4 22 21 24 18 26
REMARK H PARENT 10 19 13 21 4 23 21 25 18 27
REMARK Flexibility Score: inf
ROOT
ATOM      1  C   UNL     1      15.745  31.918  57.834  1.00  0.00     0.184 A 
ATOM      2  C   UNL     1      15.075  30.896  58.523  1.00  0.00     0.208 A 
ATOM      3  C   UNL     1      15.659  30.359  59.681  1.00  0.00     0.238 A 
ATOM      4  O   UNL     1      15.082  29.400  60.259  1.00  0.00    -0.285 OA
ATOM      5  C   UNL     1      16.891  30.874  60.152  1.00  0.00     0.111 A 
ATOM      6  C   UNL     1      17.555  30.433  61.336  1.00  0.00     0.134 A 
ATOM      7  C   UNL     1      18.830  30.928  61.637  1.00  0.00     0.093 A 
ATOM      8  C   UNL     1      19.437  31.893  60.836  1.00  0.00     0.123 A 
ATOM      9  C   UNL     1      18.772  32.373  59.706  1.00  0.00     0.094 A 
ATOM     10  C   UNL     1      17.516  31.873  59.358  1.00  0.00     0.146 A 
ATOM     11  O   UNL     1      16.924  32.347  58.268  1.00  0.00    -0.451 OA
ENDROOT
BRANCH   1  12
ATOM     12  C   UNL     1      15.168  32.537  56.622  1.00  0.00     0.063 A 
ATOM     13  C   UNL     1      13.399  33.856  55.596  1.00  0.00     0.047 A 
ATOM     14  C   UNL     1      13.940  33.215  56.713  1.00  0.00     0.020 A 
ATOM     15  C   UNL     1      14.078  33.836  54.377  1.00  0.00     0.119 A 
ATOM     16  C   UNL     1      15.303  33.166  54.274  1.00  0.00     0.093 A 
ATOM     17  C   UNL     1      15.850  32.510  55.383  1.00  0.00     0.130 A 
BRANCH  15  18
ATOM     18  O   UNL     1      13.528  34.485  53.272  1.00  0.00    -0.508 OA
ATOM     19  H   UNL     1      13.803  34.246  52.327  1.00  0.00     0.293 HD
ENDBRANCH  15  18
BRANCH  17  20
ATOM     20  O   UNL     1      17.057  31.826  55.216  1.00  0.00    -0.507 OA
ATOM     21  H   UNL     1      17.430  31.579  54.309  1.00  0.00     0.293 HD
ENDBRANCH  17  20
ENDBRANCH   1  12
BRANCH   2  22
ATOM     22  O   UNL     1      13.858  30.410  58.037  1.00  0.00    -0.502 OA
ATOM     23  H   UNL     1      13.287  30.933  57.385  1.00  0.00     0.293 HD
ENDBRANCH   2  22
BRANCH   6  24
ATOM     24  O   UNL     1      17.000  29.540  62.256  1.00  0.00    -0.507 OA
ATOM     25  H   UNL     1      17.411  28.658  62.523  1.00  0.00     0.293 HD
ENDBRANCH   6  24
BRANCH   8  26
ATOM     26  O   UNL     1      20.700  32.375  61.175  1.00  0.00    -0.508 OA
ATOM     27  H   UNL     1      21.463  31.749  61.405  1.00  0.00     0.293 HD
ENDBRANCH   8  26
TORSDOF 6
ENDMDL
MODEL 7
REMARK VINA RESULT:    -4.829      2.064      4.127
REMARK INTER + INTRA:          -6.232
REMARK INTER:                  -5.904
REMARK INTRA:                  -0.328
REMARK UNBOUND:                -0.414
REMARK SMILES O=c1c(O)c(-c2ccc(O)cc2O)oc2cc(O)cc(O)c12
REMARK SMILES IDX 5 1 3 2 2 3 1 4 22 5 20 6 19 7 17 8 16 9 15 10 14 11 6 12
REMARK SMILES IDX 8 13 7 14 9 15 11 16 12 17 10 18 13 20 4 22 21 24 18 26
REMARK H PARENT 10 19 13 21 4 23 21 25 18 27
REMARK Flexibility Score: inf
ROOT
ATOM      1  C   UNL     1      14.101  33.871  54.006  1.00  0.00     0.184 A 
ATOM      2  C   UNL     1      12.796  34.016  54.500  1.00  0.00     0.208 A 
ATOM      3  C   UNL     1      12.485  33.493  55.764  1.00  0.00     0.238 A 
ATOM      4  O   UNL     1      11.297  33.571  56.175  1.00  0.00    -0.285 OA
ATOM      5  C   UNL     1      13.493  32.859  56.531  1.00  0.00     0.111 A 
ATOM      6  C   UNL     1      13.301  32.327  57.842  1.00  0.00     0.134 A 
ATOM      7  C   UNL     1      14.337  31.613  58.456  1.00  0.00     0.093 A 
ATOM      8  C   UNL     1      15.577  31.465  57.836  1.00  0.00     0.123 A 
ATOM      9  C   UNL     1      15.794  32.030  56.578  1.00  0.00     0.094 A 
ATOM     10  C   UNL     1      14.769  32.717  55.925  1.00  0.00     0.146 A 
ATOM     11  O   UNL     1      15.013  33.227  54.723  1.00  0.00    -0.451 OA
ENDROOT
BRANCH   1  12
ATOM     12  C   UNL     1      14.492  34.422  52.691  1.00  0.00     0.063 A 
ATOM     13  C   UNL     1      15.841  35.985  51.403  1.00  0.00     0.047 A 
ATOM     14  C   UNL     1      15.413  35.483  52.634  1.00  0.00     0.020 A 
ATOM     15  C   UNL     1      15.365  35.431  50.214  1.00  0.00     0.119 A 
ATOM     16  C   UNL     1      14.449  34.373  50.257  1.00  0.00     0.093 A 
ATOM     17  C   UNL     1      14.003  33.868  51.484  1.00  0.00     0.130 A 
BRANCH  15  18
ATOM     18  O   UNL     1      15.806  35.940  48.993  1.00  0.00    -0.508 OA
ATOM     19  H   UNL     1      15.167  36.095  48.222  1.00  0.00     0.293 HD
ENDBRANCH  15  18
BRANCH  17  20
ATOM     20  O   UNL     1      13.061  32.836  51.470  1.00  0.00    -0.507 OA
ATOM     21  H   UNL     1      12.210  32.873  50.926  1.00  0.00     0.293 HD
ENDBRANCH  17  20
ENDBRANCH   1  12
BRANCH   2  22
ATOM     22  O   UNL     1      11.822  34.650  53.722  1.00  0.00    -0.502 OA
ATOM     23  H   UNL     1      10.876  34.796  54.052  1.00  0.00     0.293 HD
ENDBRANCH   2  22
BRANCH   6  24
ATOM     24  O   UNL     1      12.132  32.495  58.590  1.00  0.00    -0.507 OA
ATOM     25  H   UNL     1      11.907  33.317  59.129  1.00  0.00     0.293 HD
ENDBRANCH   6  24
BRANCH   8  26
ATOM     26  O   UNL     1      16.591  30.761  58.483  1.00  0.00    -0.508 OA
ATOM     27  H   UNL     1      17.550  30.794  58.159  1.00  0.00     0.293 HD
ENDBRANCH   8  26
TORSDOF 6
ENDMDL
MODEL 8
REMARK VINA RESULT:    -4.823      1.912      6.571
REMARK INTER + INTRA:          -6.224
REMARK INTER:                  -6.281
REMARK INTRA:                   0.057
REMARK UNBOUND:                -0.414
REMARK SMILES O=c1c(O)c(-c2ccc(O)cc2O)oc2cc(O)cc(O)c12
REMARK SMILES IDX 5 1 3 2 2 3 1 4 22 5 20 6 19 7 17 8 16 9 15 10 14 11 6 12
REMARK SMILES IDX 8 13 7 14 9 15 11 16 12 17 10 18 13 20 4 22 21 24 18 26
REMARK H PARENT 10 19 13 21 4 23 21 25 18 27
REMARK Flexibility Score: inf
ROOT
ATOM      1  C   UNL     1      14.924  34.813  52.043  1.00  0.00     0.184 A 
ATOM      2  C   UNL     1      16.073  35.481  51.593  1.00  0.00     0.208 A 
ATOM      3  C   UNL     1      16.030  36.159  50.365  1.00  0.00     0.238 A 
ATOM      4  O   UNL     1      17.081  36.704  49.938  1.00  0.00    -0.285 OA
ATOM      5  C   UNL     1      14.826  36.186  49.618  1.00  0.00     0.111 A 
ATOM      6  C   UNL     1      14.656  36.875  48.380  1.00  0.00     0.134 A 
ATOM      7  C   UNL     1      13.458  36.730  47.669  1.00  0.00     0.093 A 
ATOM      8  C   UNL     1      12.403  35.976  48.179  1.00  0.00     0.123 A 
ATOM      9  C   UNL     1      12.538  35.344  49.416  1.00  0.00     0.094 A 
ATOM     10  C   UNL     1      13.734  35.439  50.132  1.00  0.00     0.146 A 
ATOM     11  O   UNL     1      13.825  34.811  51.299  1.00  0.00    -0.451 OA
ENDROOT
BRANCH   1  12
ATOM     12  C   UNL     1      14.905  34.102  53.338  1.00  0.00     0.063 A 
ATOM     13  C   UNL     1      16.084  32.782  55.010  1.00  0.00     0.047 A 
ATOM     14  C   UNL     1      16.056  33.417  53.765  1.00  0.00     0.020 A 
ATOM     15  C   UNL     1      14.970  32.830  55.848  1.00  0.00     0.119 A 
ATOM     16  C   UNL     1      13.818  33.511  55.435  1.00  0.00     0.093 A 
ATOM     17  C   UNL     1      13.773  34.141  54.186  1.00  0.00     0.130 A 
BRANCH  15  18
ATOM     18  O   UNL     1      15.014  32.197  57.089  1.00  0.00    -0.508 OA
ATOM     19  H   UNL     1      15.558  32.574  57.856  1.00  0.00     0.293 HD
ENDBRANCH  15  18
BRANCH  17  20
ATOM     20  O   UNL     1      12.586  34.775  53.809  1.00  0.00    -0.507 OA
ATOM     21  H   UNL     1      11.670  34.406  54.026  1.00  0.00     0.293 HD
ENDBRANCH  17  20
ENDBRANCH   1  12
BRANCH   2  22
ATOM     22  O   UNL     1      17.246  35.441  52.353  1.00  0.00    -0.502 OA
ATOM     23  H   UNL     1      18.166  35.502  51.934  1.00  0.00     0.293 HD
ENDBRANCH   2  22
BRANCH   6  24
ATOM     24  O   UNL     1      15.612  37.730  47.823  1.00  0.00    -0.507 OA
ATOM     25  H   UNL     1      16.127  37.543  46.976  1.00  0.00     0.293 HD
ENDBRANCH   6  24
BRANCH   8  26
ATOM     26  O   UNL     1      11.220  35.866  47.451  1.00  0.00    -0.508 OA
ATOM     27  H   UNL     1      11.123  35.203  46.691  1.00  0.00     0.293 HD
ENDBRANCH   8  26
TORSDOF 6
ENDMDL
