MODEL 1
REMARK VINA RESULT:     4.505      0.000      0.000
REMARK INTER + INTRA:           4.674
REMARK INTER:                   4.900
REMARK INTRA:                  -0.226
REMARK UNBOUND:                -0.226
REMARK SMILES O=C([O-])c1ccccc1O
REMARK SMILES IDX 4 1 9 2 5 3 8 4 6 5 7 6 2 7 1 8 3 9 10 10
REMARK H PARENT 10 11
REMARK Flexibility Score: inf
ROOT
ATOM      1  C   UNL     1     -23.058   2.522 -14.007  1.00  0.00     0.039 A 
ATOM      2  C   UNL     1     -22.668   1.546 -13.054  1.00  0.00     0.124 A 
ATOM      3  C   UNL     1     -23.607   2.095 -15.232  1.00  0.00     0.014 A 
ATOM      4  C   UNL     1     -22.779   0.186 -13.370  1.00  0.00     0.047 A 
ATOM      5  C   UNL     1     -23.728   0.734 -15.523  1.00  0.00     0.001 A 
ATOM      6  C   UNL     1     -23.306  -0.219 -14.597  1.00  0.00     0.004 A 
ENDROOT
BRANCH   1   7
ATOM      7  C   UNL     1     -22.882   3.975 -13.787  1.00  0.00     0.075 C 
ATOM      8  O   UNL     1     -23.419   4.550 -12.805  1.00  0.00    -0.545 OA
ATOM      9  O   UNL     1     -22.058   4.712 -14.631  1.00  0.00    -0.545 OA
ENDBRANCH   1   7
BRANCH   2  10
ATOM     10  O   UNL     1     -22.204   1.880 -11.779  1.00  0.00    -0.507 OA
ATOM     11  H   UNL     1     -21.401   1.447 -11.346  1.00  0.00     0.293 HD
ENDBRANCH   2  10
TORSDOF 2
ENDMDL
MODEL 2
REMARK VINA RESULT:     4.958     12.954     14.149
REMARK INTER + INTRA:           5.167
REMARK INTER:                   5.247
REMARK INTRA:                  -0.080
REMARK UNBOUND:                -0.226
REMARK SMILES O=C([O-])c1ccccc1O
REMARK SMILES IDX 4 1 9 2 5 3 8 4 6 5 7 6 2 7 1 8 3 9 10 10
REMARK H PARENT 10 11
REMARK Flexibility Score: inf
ROOT
ATOM      1  C   UNL     1     -32.586   4.218 -23.199  1.00  0.00     0.039 A 
ATOM      2  C   UNL     1     -32.891   5.546 -23.595  1.00  0.00     0.124 A 
ATOM      3  C   UNL     1     -32.585   3.901 -21.828  1.00  0.00     0.014 A 
ATOM      4  C   UNL     1     -33.124   6.524 -22.619  1.00  0.00     0.047 A 
ATOM      5  C   UNL     1     -32.839   4.884 -20.868  1.00  0.00     0.001 A 
ATOM      6  C   UNL     1     -33.099   6.195 -21.263  1.00  0.00     0.004 A 
ENDROOT
BRANCH   1   7
ATOM      7  C   UNL     1     -32.234   3.154 -24.165  1.00  0.00     0.075 C 
ATOM      8  O   UNL     1     -33.125   2.443 -24.699  1.00  0.00    -0.545 OA
ATOM      9  O   UNL     1     -30.909   2.973 -24.549  1.00  0.00    -0.545 OA
ENDBRANCH   1   7
BRANCH   2  10
ATOM     10  O   UNL     1     -33.008   5.927 -24.934  1.00  0.00    -0.507 OA
ATOM     11  H   UNL     1     -33.398   6.809 -25.232  1.00  0.00     0.293 HD
ENDBRANCH   2  10
TORSDOF 2
ENDMDL
MODEL 3
REMARK VINA RESULT:     5.166      8.823     10.681
REMARK INTER + INTRA:           5.393
REMARK INTER:                   5.613
REMARK INTRA:                  -0.220
REMARK UNBOUND:                -0.226
REMARK SMILES O=C([O-])c1ccccc1O
REMARK SMILES IDX 4 1 9 2 5 3 8 4 6 5 7 6 2 7 1 8 3 9 10 10
REMARK H PARENT 10 11
REMARK Flexibility Score: inf
ROOT
ATOM      1  C   UNL     1     -20.058   8.589 -20.601  1.00  0.00     0.039 A 
ATOM      2  C   UNL     1     -19.121   9.609 -20.913  1.00  0.00     0.124 A 
ATOM      3  C   UNL     1     -21.388   8.953 -20.316  1.00  0.00     0.014 A 
ATOM      4  C   UNL     1     -19.519  10.952 -20.871  1.00  0.00     0.047 A 
ATOM      5  C   UNL     1     -21.772  10.296 -20.298  1.00  0.00     0.001 A 
ATOM      6  C   UNL     1     -20.837  11.294 -20.566  1.00  0.00     0.004 A 
ENDROOT
BRANCH   1   7
ATOM      7  C   UNL     1     -19.692   7.158 -20.528  1.00  0.00     0.075 C 
ATOM      8  O   UNL     1     -19.233   6.555 -21.534  1.00  0.00    -0.545 OA
ATOM      9  O   UNL     1     -19.786   6.475 -19.320  1.00  0.00    -0.545 OA
ENDBRANCH   1   7
BRANCH   2  10
ATOM     10  O   UNL     1     -17.808   9.333 -21.300  1.00  0.00    -0.507 OA
ATOM     11  H   UNL     1     -17.097  10.042 -21.408  1.00  0.00     0.293 HD
ENDBRANCH   2  10
TORSDOF 2
ENDMDL
MODEL 4
REMARK VINA RESULT:     6.374      5.340      6.281
REMARK INTER + INTRA:           6.707
REMARK INTER:                   6.955
REMARK INTRA:                  -0.248
REMARK UNBOUND:                -0.226
REMARK SMILES O=C([O-])c1ccccc1O
REMARK SMILES IDX 4 1 9 2 5 3 8 4 6 5 7 6 2 7 1 8 3 9 10 10
REMARK H PARENT 10 11
REMARK Flexibility Score: inf
ROOT
ATOM      1  C   UNL     1     -18.882   5.787 -15.536  1.00  0.00     0.039 A 
ATOM      2  C   UNL     1     -17.491   5.652 -15.288  1.00  0.00     0.124 A 
ATOM      3  C   UNL     1     -19.389   5.400 -16.791  1.00  0.00     0.014 A 
ATOM      4  C   UNL     1     -16.646   5.198 -16.310  1.00  0.00     0.047 A 
ATOM      5  C   UNL     1     -18.535   4.932 -17.792  1.00  0.00     0.001 A 
ATOM      6  C   UNL     1     -17.164   4.840 -17.555  1.00  0.00     0.004 A 
ENDROOT
BRANCH   1   7
ATOM      7  C   UNL     1     -19.823   6.348 -14.542  1.00  0.00     0.075 C 
ATOM      8  O   UNL     1     -19.455   7.241 -13.735  1.00  0.00    -0.545 OA
ATOM      9  O   UNL     1     -21.153   5.942 -14.536  1.00  0.00    -0.545 OA
ENDBRANCH   1   7
BRANCH   2  10
ATOM     10  O   UNL     1     -16.917   5.920 -14.043  1.00  0.00    -0.507 OA
ATOM     11  H   UNL     1     -17.445   6.228 -13.239  1.00  0.00     0.293 HD
ENDBRANCH   2  10
TORSDOF 2
ENDMDL
MODEL 5
REMARK VINA RESULT:     6.541      2.049      3.421
REMARK INTER + INTRA:           6.888
REMARK INTER:                   7.100
REMARK INTRA:                  -0.212
REMARK UNBOUND:                -0.226
REMARK SMILES O=C([O-])c1ccccc1O
REMARK SMILES IDX 4 1 9 2 5 3 8 4 6 5 7 6 2 7 1 8 3 9 10 10
REMARK H PARENT 10 11
REMARK Flexibility Score: inf
ROOT
ATOM      1  C   UNL     1     -23.109   1.730 -14.342  1.00  0.00     0.039 A 
ATOM      2  C   UNL     1     -22.675   2.089 -13.040  1.00  0.00     0.124 A 
ATOM      3  C   UNL     1     -23.237   2.737 -15.318  1.00  0.00     0.014 A 
ATOM      4  C   UNL     1     -22.443   3.436 -12.733  1.00  0.00     0.047 A 
ATOM      5  C   UNL     1     -22.983   4.074 -15.000  1.00  0.00     0.001 A 
ATOM      6  C   UNL     1     -22.595   4.424 -13.707  1.00  0.00     0.004 A 
ENDROOT
BRANCH   1   7
ATOM      7  C   UNL     1     -23.467   0.344 -14.715  1.00  0.00     0.075 C 
ATOM      8  O   UNL     1     -23.424  -0.586 -13.868  1.00  0.00    -0.545 OA
ATOM      9  O   UNL     1     -23.924   0.064 -15.999  1.00  0.00    -0.545 OA
ENDBRANCH   1   7
BRANCH   2  10
ATOM     10  O   UNL     1     -22.429   1.145 -12.040  1.00  0.00    -0.507 OA
ATOM     11  H   UNL     1     -21.600   0.568 -12.008  1.00  0.00     0.293 HD
ENDBRANCH   2  10
TORSDOF 2
ENDMDL
MODEL 6
REMARK VINA RESULT:     6.733      6.019      7.133
REMARK INTER + INTRA:           7.097
REMARK INTER:                   7.275
REMARK INTRA:                  -0.177
REMARK UNBOUND:                -0.226
REMARK SMILES O=C([O-])c1ccccc1O
REMARK SMILES IDX 4 1 9 2 5 3 8 4 6 5 7 6 2 7 1 8 3 9 10 10
REMARK H PARENT 10 11
REMARK Flexibility Score: inf
ROOT
ATOM      1  C   UNL     1     -17.121   5.503 -15.614  1.00  0.00     0.039 A 
ATOM      2  C   UNL     1     -18.447   5.971 -15.426  1.00  0.00     0.124 A 
ATOM      3  C   UNL     1     -16.776   4.914 -16.845  1.00  0.00     0.014 A 
ATOM      4  C   UNL     1     -19.399   5.783 -16.438  1.00  0.00     0.047 A 
ATOM      5  C   UNL     1     -17.732   4.752 -17.851  1.00  0.00     0.001 A 
ATOM      6  C   UNL     1     -19.044   5.178 -17.644  1.00  0.00     0.004 A 
ENDROOT
BRANCH   1   7
ATOM      7  C   UNL     1     -16.087   5.577 -14.558  1.00  0.00     0.075 C 
ATOM      8  O   UNL     1     -16.222   4.950 -13.475  1.00  0.00    -0.545 OA
ATOM      9  O   UNL     1     -14.914   6.289 -14.781  1.00  0.00    -0.545 OA
ENDBRANCH   1   7
BRANCH   2  10
ATOM     10  O   UNL     1     -18.851   6.652 -14.275  1.00  0.00    -0.507 OA
ATOM     11  H   UNL     1     -19.551   6.304 -13.636  1.00  0.00     0.293 HD
ENDBRANCH   2  10
TORSDOF 2
ENDMDL
MODEL 7
REMARK VINA RESULT:     6.778      6.223      6.915
REMARK INTER + INTRA:           7.147
REMARK INTER:                   7.391
REMARK INTRA:                  -0.244
REMARK UNBOUND:                -0.226
REMARK SMILES O=C([O-])c1ccccc1O
REMARK SMILES IDX 4 1 9 2 5 3 8 4 6 5 7 6 2 7 1 8 3 9 10 10
REMARK H PARENT 10 11
REMARK Flexibility Score: inf
ROOT
ATOM      1  C   UNL     1     -18.495   5.518 -16.385  1.00  0.00     0.039 A 
ATOM      2  C   UNL     1     -17.463   5.707 -15.429  1.00  0.00     0.124 A 
ATOM      3  C   UNL     1     -19.813   5.874 -16.041  1.00  0.00     0.014 A 
ATOM      4  C   UNL     1     -17.781   6.182 -14.150  1.00  0.00     0.047 A 
ATOM      5  C   UNL     1     -20.110   6.364 -14.767  1.00  0.00     0.001 A 
ATOM      6  C   UNL     1     -19.097   6.510 -13.820  1.00  0.00     0.004 A 
ENDROOT
BRANCH   1   7
ATOM      7  C   UNL     1     -18.254   4.930 -17.721  1.00  0.00     0.075 C 
ATOM      8  O   UNL     1     -17.316   4.112 -17.909  1.00  0.00    -0.545 OA
ATOM      9  O   UNL     1     -19.111   5.226 -18.776  1.00  0.00    -0.545 OA
ENDBRANCH   1   7
BRANCH   2  10
ATOM     10  O   UNL     1     -16.117   5.472 -15.717  1.00  0.00    -0.507 OA
ATOM     11  H   UNL     1     -15.533   4.844 -15.184  1.00  0.00     0.293 HD
ENDBRANCH   2  10
TORSDOF 2
ENDMDL
MODEL 8
REMARK VINA RESULT:     7.160      6.202      7.298
REMARK INTER + INTRA:           7.562
REMARK INTER:                   7.744
REMARK INTRA:                  -0.182
REMARK UNBOUND:                -0.226
REMARK SMILES O=C([O-])c1ccccc1O
REMARK SMILES IDX 4 1 9 2 5 3 8 4 6 5 7 6 2 7 1 8 3 9 10 10
REMARK H PARENT 10 11
REMARK Flexibility Score: inf
ROOT
ATOM      1  C   UNL     1     -17.367   5.838 -15.110  1.00  0.00     0.039 A 
ATOM      2  C   UNL     1     -17.885   5.325 -16.327  1.00  0.00     0.124 A 
ATOM      3  C   UNL     1     -18.262   6.361 -14.157  1.00  0.00     0.014 A 
ATOM      4  C   UNL     1     -19.260   5.403 -16.583  1.00  0.00     0.047 A 
ATOM      5  C   UNL     1     -19.633   6.414 -14.420  1.00  0.00     0.001 A 
ATOM      6  C   UNL     1     -20.130   5.943 -15.635  1.00  0.00     0.004 A 
ENDROOT
BRANCH   1   7
ATOM      7  C   UNL     1     -15.919   5.880 -14.808  1.00  0.00     0.075 C 
ATOM      8  O   UNL     1     -15.130   6.559 -15.515  1.00  0.00    -0.545 OA
ATOM      9  O   UNL     1     -15.422   5.219 -13.690  1.00  0.00    -0.545 OA
ENDBRANCH   1   7
BRANCH   2  10
ATOM     10  O   UNL     1     -17.082   4.701 -17.285  1.00  0.00    -0.507 OA
ATOM     11  H   UNL     1     -17.318   4.653 -18.266  1.00  0.00     0.293 HD
ENDBRANCH   2  10
TORSDOF 2
ENDMDL
MODEL 9
REMARK VINA RESULT:     7.208     12.301     13.452
REMARK INTER + INTRA:           7.614
REMARK INTER:                   7.849
REMARK INTRA:                  -0.235
REMARK UNBOUND:                -0.226
REMARK SMILES O=C([O-])c1ccccc1O
REMARK SMILES IDX 4 1 9 2 5 3 8 4 6 5 7 6 2 7 1 8 3 9 10 10
REMARK H PARENT 10 11
REMARK Flexibility Score: inf
ROOT
ATOM      1  C   UNL     1     -32.460   4.659 -22.015  1.00  0.00     0.039 A 
ATOM      2  C   UNL     1     -32.534   4.148 -23.337  1.00  0.00     0.124 A 
ATOM      3  C   UNL     1     -32.764   6.016 -21.794  1.00  0.00     0.014 A 
ATOM      4  C   UNL     1     -32.846   5.009 -24.397  1.00  0.00     0.047 A 
ATOM      5  C   UNL     1     -33.092   6.857 -22.860  1.00  0.00     0.001 A 
ATOM      6  C   UNL     1     -33.124   6.356 -24.161  1.00  0.00     0.004 A 
ENDROOT
BRANCH   1   7
ATOM      7  C   UNL     1     -32.043   3.836 -20.859  1.00  0.00     0.075 C 
ATOM      8  O   UNL     1     -30.993   3.143 -20.902  1.00  0.00    -0.545 OA
ATOM      9  O   UNL     1     -32.776   3.875 -19.677  1.00  0.00    -0.545 OA
ENDBRANCH   1   7
BRANCH   2  10
ATOM     10  O   UNL     1     -32.343   2.796 -23.634  1.00  0.00    -0.507 OA
ATOM     11  H   UNL     1     -32.866   2.301 -24.342  1.00  0.00     0.293 HD
ENDBRANCH   2  10
TORSDOF 2
ENDMDL
