MODEL 1
REMARK VINA RESULT:    -4.523      0.000      0.000
REMARK INTER + INTRA:         -16.188
REMARK INTER:                 -11.397
REMARK INTRA:                  -4.791
REMARK UNBOUND:                -4.791
REMARK SMILES CCCCCCCCCCCCCCCCCCCCCCCCCCCC(=O)[O-]
REMARK SMILES IDX 15 1 16 2 17 3 18 4 19 5 20 6 21 7 22 8 23 9 24 10 25 11
REMARK SMILES IDX 26 12 27 13 28 14 29 15 30 16 14 17 13 18 12 19 11 20 10 21
REMARK SMILES IDX 9 22 8 23 7 24 6 25 5 26 4 27 3 28 2 29 1 30
REMARK H PARENT
REMARK Flexibility Score: inf
ROOT
ATOM      1  C   UNL     1      15.878 -18.201  39.166  1.00  0.00     0.000 C 
ENDROOT
BRANCH   1   2
ATOM      2  C   UNL     1      14.955 -19.435  39.210  1.00  0.00     0.000 C 
BRANCH   2   3
ATOM      3  C   UNL     1      13.636 -19.202  39.977  1.00  0.00     0.000 C 
BRANCH   3   4
ATOM      4  C   UNL     1      12.393 -19.381  39.089  1.00  0.00     0.000 C 
BRANCH   4   5
ATOM      5  C   UNL     1      12.752 -19.493  37.598  1.00  0.00     0.000 C 
BRANCH   5   6
ATOM      6  C   UNL     1      11.919 -20.566  36.873  1.00  0.00     0.000 C 
BRANCH   6   7
ATOM      7  C   UNL     1      11.321 -21.607  37.837  1.00  0.00     0.000 C 
BRANCH   7   8
ATOM      8  C   UNL     1      12.172 -22.880  38.031  1.00  0.00     0.000 C 
BRANCH   8   9
ATOM      9  C   UNL     1      13.506 -22.907  37.258  1.00  0.00     0.000 C 
BRANCH   9  10
ATOM     10  C   UNL     1      14.770 -22.941  38.139  1.00  0.00     0.000 C 
BRANCH  10  11
ATOM     11  C   UNL     1      14.575 -23.761  39.426  1.00  0.00     0.000 C 
BRANCH  11  12
ATOM     12  C   UNL     1      15.404 -25.055  39.438  1.00  0.00     0.006 C 
BRANCH  12  13
ATOM     13  C   UNL     1      16.530 -25.055  38.396  1.00  0.00     0.053 C 
BRANCH  13  14
ATOM     14  C   UNL     1      17.860 -25.242  39.055  1.00  0.00     0.041 C 
ATOM     15  O   UNL     1      18.896 -25.407  38.357  1.00  0.00    -0.550 OA
ATOM     16  O   UNL     1      17.963 -25.201  40.441  1.00  0.00    -0.550 OA
ENDBRANCH  13  14
ENDBRANCH  12  13
ENDBRANCH  11  12
ENDBRANCH  10  11
ENDBRANCH   9  10
ENDBRANCH   8   9
ENDBRANCH   7   8
ENDBRANCH   6   7
ENDBRANCH   5   6
ENDBRANCH   4   5
ENDBRANCH   3   4
ENDBRANCH   2   3
ENDBRANCH   1   2
BRANCH   1  17
ATOM     17  C   UNL     1      16.430 -17.850  37.772  1.00  0.00     0.000 C 
BRANCH  17  18
ATOM     18  C   UNL     1      15.431 -17.160  36.820  1.00  0.00     0.000 C 
BRANCH  18  19
ATOM     19  C   UNL     1      15.905 -15.820  36.226  1.00  0.00     0.000 C 
BRANCH  19  20
ATOM     20  C   UNL     1      17.319 -15.426  36.689  1.00  0.00     0.000 C 
BRANCH  20  21
ATOM     21  C   UNL     1      17.331 -14.144  37.537  1.00  0.00     0.000 C 
BRANCH  21  22
ATOM     22  C   UNL     1      16.086 -13.266  37.313  1.00  0.00    -0.000 C 
BRANCH  22  23
ATOM     23  C   UNL     1      15.187 -13.194  38.558  1.00  0.00    -0.000 C 
BRANCH  23  24
ATOM     24  C   UNL     1      15.841 -13.821  39.799  1.00  0.00    -0.000 C 
BRANCH  24  25
ATOM     25  C   UNL     1      14.983 -14.970  40.349  1.00  0.00    -0.000 C 
BRANCH  25  26
ATOM     26  C   UNL     1      13.865 -15.388  39.379  1.00  0.00    -0.000 C 
BRANCH  26  27
ATOM     27  C   UNL     1      12.490 -15.463  40.061  1.00  0.00    -0.000 C 
BRANCH  27  28
ATOM     28  C   UNL     1      11.394 -15.828  39.048  1.00  0.00    -0.000 C 
BRANCH  28  29
ATOM     29  C   UNL     1      11.911 -15.848  37.601  1.00  0.00    -0.003 C 
ATOM     30  C   UNL     1      10.885 -16.399  36.610  1.00  0.00     0.004 C 
ENDBRANCH  28  29
ENDBRANCH  27  28
ENDBRANCH  26  27
ENDBRANCH  25  26
ENDBRANCH  24  25
ENDBRANCH  23  24
ENDBRANCH  22  23
ENDBRANCH  21  22
ENDBRANCH  20  21
ENDBRANCH  19  20
ENDBRANCH  18  19
ENDBRANCH  17  18
ENDBRANCH   1  17
TORSDOF 26
ENDMDL
MODEL 2
REMARK VINA RESULT:    -4.374      1.269      3.524
REMARK INTER + INTRA:         -15.813
REMARK INTER:                 -10.679
REMARK INTRA:                  -5.134
REMARK UNBOUND:                -4.791
REMARK SMILES CCCCCCCCCCCCCCCCCCCCCCCCCCCC(=O)[O-]
REMARK SMILES IDX 15 1 16 2 17 3 18 4 19 5 20 6 21 7 22 8 23 9 24 10 25 11
REMARK SMILES IDX 26 12 27 13 28 14 29 15 30 16 14 17 13 18 12 19 11 20 10 21
REMARK SMILES IDX 9 22 8 23 7 24 6 25 5 26 4 27 3 28 2 29 1 30
REMARK H PARENT
REMARK Flexibility Score: inf
ROOT
ATOM      1  C   UNL     1      16.479 -17.650  37.963  1.00  0.00     0.000 C 
ENDROOT
BRANCH   1   2
ATOM      2  C   UNL     1      15.511 -17.879  39.141  1.00  0.00     0.000 C 
BRANCH   2   3
ATOM      3  C   UNL     1      15.145 -19.360  39.370  1.00  0.00     0.000 C 
BRANCH   3   4
ATOM      4  C   UNL     1      13.859 -19.534  40.194  1.00  0.00     0.000 C 
BRANCH   4   5
ATOM      5  C   UNL     1      12.830 -20.433  39.488  1.00  0.00     0.000 C 
BRANCH   5   6
ATOM      6  C   UNL     1      13.333 -20.943  38.126  1.00  0.00     0.000 C 
BRANCH   6   7
ATOM      7  C   UNL     1      12.351 -21.926  37.460  1.00  0.00     0.000 C 
BRANCH   7   8
ATOM      8  C   UNL     1      11.370 -22.622  38.427  1.00  0.00     0.000 C 
BRANCH   8   9
ATOM      9  C   UNL     1      11.745 -24.066  38.822  1.00  0.00     0.000 C 
BRANCH   9  10
ATOM     10  C   UNL     1      12.694 -24.185  40.029  1.00  0.00     0.000 C 
BRANCH  10  11
ATOM     11  C   UNL     1      14.019 -24.884  39.676  1.00  0.00     0.000 C 
BRANCH  11  12
ATOM     12  C   UNL     1      15.123 -23.894  39.269  1.00  0.00     0.006 C 
BRANCH  12  13
ATOM     13  C   UNL     1      15.531 -24.025  37.795  1.00  0.00     0.053 C 
BRANCH  13  14
ATOM     14  C   UNL     1      16.561 -25.097  37.625  1.00  0.00     0.041 C 
ATOM     15  O   UNL     1      17.634 -25.055  38.285  1.00  0.00    -0.550 OA
ATOM     16  O   UNL     1      16.323 -26.161  36.763  1.00  0.00    -0.550 OA
ENDBRANCH  13  14
ENDBRANCH  12  13
ENDBRANCH  11  12
ENDBRANCH  10  11
ENDBRANCH   9  10
ENDBRANCH   8   9
ENDBRANCH   7   8
ENDBRANCH   6   7
ENDBRANCH   5   6
ENDBRANCH   4   5
ENDBRANCH   3   4
ENDBRANCH   2   3
ENDBRANCH   1   2
BRANCH   1  17
ATOM     17  C   UNL     1      15.806 -17.267  36.632  1.00  0.00     0.000 C 
BRANCH  17  18
ATOM     18  C   UNL     1      14.335 -16.815  36.741  1.00  0.00     0.000 C 
BRANCH  18  19
ATOM     19  C   UNL     1      13.293 -17.842  36.258  1.00  0.00     0.000 C 
BRANCH  19  20
ATOM     20  C   UNL     1      11.963 -17.754  37.029  1.00  0.00     0.000 C 
BRANCH  20  21
ATOM     21  C   UNL     1      11.819 -16.443  37.818  1.00  0.00     0.000 C 
BRANCH  21  22
ATOM     22  C   UNL     1      11.772 -16.663  39.341  1.00  0.00    -0.000 C 
BRANCH  22  23
ATOM     23  C   UNL     1      12.746 -15.743  40.097  1.00  0.00    -0.000 C 
BRANCH  23  24
ATOM     24  C   UNL     1      13.308 -14.620  39.212  1.00  0.00    -0.000 C 
BRANCH  24  25
ATOM     25  C   UNL     1      14.800 -14.392  39.497  1.00  0.00    -0.000 C 
BRANCH  25  26
ATOM     26  C   UNL     1      15.355 -13.149  38.783  1.00  0.00    -0.000 C 
BRANCH  26  27
ATOM     27  C   UNL     1      16.029 -13.489  37.445  1.00  0.00    -0.000 C 
BRANCH  27  28
ATOM     28  C   UNL     1      17.393 -14.158  37.672  1.00  0.00    -0.000 C 
BRANCH  28  29
ATOM     29  C   UNL     1      18.242 -14.217  36.393  1.00  0.00    -0.003 C 
ATOM     30  C   UNL     1      17.397 -14.241  35.119  1.00  0.00     0.004 C 
ENDBRANCH  28  29
ENDBRANCH  27  28
ENDBRANCH  26  27
ENDBRANCH  25  26
ENDBRANCH  24  25
ENDBRANCH  23  24
ENDBRANCH  22  23
ENDBRANCH  21  22
ENDBRANCH  20  21
ENDBRANCH  19  20
ENDBRANCH  18  19
ENDBRANCH  17  18
ENDBRANCH   1  17
TORSDOF 26
ENDMDL
MODEL 3
REMARK VINA RESULT:    -4.352      2.841      7.525
REMARK INTER + INTRA:         -15.758
REMARK INTER:                 -11.297
REMARK INTRA:                  -4.461
REMARK UNBOUND:                -4.791
REMARK SMILES CCCCCCCCCCCCCCCCCCCCCCCCCCCC(=O)[O-]
REMARK SMILES IDX 15 1 16 2 17 3 18 4 19 5 20 6 21 7 22 8 23 9 24 10 25 11
REMARK SMILES IDX 26 12 27 13 28 14 29 15 30 16 14 17 13 18 12 19 11 20 10 21
REMARK SMILES IDX 9 22 8 23 7 24 6 25 5 26 4 27 3 28 2 29 1 30
REMARK H PARENT
REMARK Flexibility Score: inf
ROOT
ATOM      1  C   UNL     1      16.638 -14.726  35.203  1.00  0.00     0.000 C 
ENDROOT
BRANCH   1   2
ATOM      2  C   UNL     1      17.178 -13.715  36.234  1.00  0.00     0.000 C 
BRANCH   2   3
ATOM      3  C   UNL     1      17.689 -14.365  37.537  1.00  0.00     0.000 C 
BRANCH   3   4
ATOM      4  C   UNL     1      16.930 -13.876  38.782  1.00  0.00     0.000 C 
BRANCH   4   5
ATOM      5  C   UNL     1      15.407 -14.023  38.632  1.00  0.00     0.000 C 
BRANCH   5   6
ATOM      6  C   UNL     1      14.692 -12.663  38.540  1.00  0.00     0.000 C 
BRANCH   6   7
ATOM      7  C   UNL     1      13.186 -12.801  38.252  1.00  0.00     0.000 C 
BRANCH   7   8
ATOM      8  C   UNL     1      12.693 -14.248  38.039  1.00  0.00     0.000 C 
BRANCH   8   9
ATOM      9  C   UNL     1      11.862 -14.841  39.195  1.00  0.00     0.000 C 
BRANCH   9  10
ATOM     10  C   UNL     1      12.528 -16.012  39.943  1.00  0.00     0.000 C 
BRANCH  10  11
ATOM     11  C   UNL     1      11.693 -17.303  39.887  1.00  0.00     0.000 C 
BRANCH  11  12
ATOM     12  C   UNL     1      11.330 -17.714  38.451  1.00  0.00     0.006 C 
BRANCH  12  13
ATOM     13  C   UNL     1      11.451 -19.225  38.211  1.00  0.00     0.053 C 
BRANCH  13  14
ATOM     14  C   UNL     1      11.465 -19.528  36.746  1.00  0.00     0.041 C 
ATOM     15  O   UNL     1      12.552 -19.783  36.162  1.00  0.00    -0.550 OA
ATOM     16  O   UNL     1      10.273 -19.563  36.030  1.00  0.00    -0.550 OA
ENDBRANCH  13  14
ENDBRANCH  12  13
ENDBRANCH  11  12
ENDBRANCH  10  11
ENDBRANCH   9  10
ENDBRANCH   8   9
ENDBRANCH   7   8
ENDBRANCH   6   7
ENDBRANCH   5   6
ENDBRANCH   4   5
ENDBRANCH   3   4
ENDBRANCH   2   3
ENDBRANCH   1   2
BRANCH   1  17
ATOM     17  C   UNL     1      16.497 -16.170  35.718  1.00  0.00     0.000 C 
BRANCH  17  18
ATOM     18  C   UNL     1      15.049 -16.692  35.835  1.00  0.00     0.000 C 
BRANCH  18  19
ATOM     19  C   UNL     1      14.680 -17.311  37.196  1.00  0.00     0.000 C 
BRANCH  19  20
ATOM     20  C   UNL     1      15.885 -17.437  38.144  1.00  0.00     0.000 C 
BRANCH  20  21
ATOM     21  C   UNL     1      15.519 -18.089  39.488  1.00  0.00     0.000 C 
BRANCH  21  22
ATOM     22  C   UNL     1      15.132 -19.572  39.348  1.00  0.00    -0.000 C 
BRANCH  22  23
ATOM     23  C   UNL     1      14.153 -20.028  40.443  1.00  0.00    -0.000 C 
BRANCH  23  24
ATOM     24  C   UNL     1      13.762 -21.508  40.310  1.00  0.00    -0.000 C 
BRANCH  24  25
ATOM     25  C   UNL     1      14.416 -22.138  39.071  1.00  0.00    -0.000 C 
BRANCH  25  26
ATOM     26  C   UNL     1      13.386 -22.728  38.094  1.00  0.00    -0.000 C 
BRANCH  26  27
ATOM     27  C   UNL     1      14.034 -23.605  37.012  1.00  0.00    -0.000 C 
BRANCH  27  28
ATOM     28  C   UNL     1      13.978 -25.090  37.402  1.00  0.00    -0.000 C 
BRANCH  28  29
ATOM     29  C   UNL     1      12.982 -25.363  38.540  1.00  0.00    -0.003 C 
ATOM     30  C   UNL     1      13.665 -25.798  39.836  1.00  0.00     0.004 C 
ENDBRANCH  28  29
ENDBRANCH  27  28
ENDBRANCH  26  27
ENDBRANCH  25  26
ENDBRANCH  24  25
ENDBRANCH  23  24
ENDBRANCH  22  23
ENDBRANCH  21  22
ENDBRANCH  20  21
ENDBRANCH  19  20
ENDBRANCH  18  19
ENDBRANCH  17  18
ENDBRANCH   1  17
TORSDOF 26
ENDMDL
MODEL 4
REMARK VINA RESULT:    -4.330      1.248      3.806
REMARK INTER + INTRA:         -15.702
REMARK INTER:                 -10.461
REMARK INTRA:                  -5.241
REMARK UNBOUND:                -4.791
REMARK SMILES CCCCCCCCCCCCCCCCCCCCCCCCCCCC(=O)[O-]
REMARK SMILES IDX 15 1 16 2 17 3 18 4 19 5 20 6 21 7 22 8 23 9 24 10 25 11
REMARK SMILES IDX 26 12 27 13 28 14 29 15 30 16 14 17 13 18 12 19 11 20 10 21
REMARK SMILES IDX 9 22 8 23 7 24 6 25 5 26 4 27 3 28 2 29 1 30
REMARK H PARENT
REMARK Flexibility Score: inf
ROOT
ATOM      1  C   UNL     1      14.448 -17.973  40.001  1.00  0.00     0.000 C 
ENDROOT
BRANCH   1   2
ATOM      2  C   UNL     1      15.201 -19.103  39.272  1.00  0.00     0.000 C 
BRANCH   2   3
ATOM      3  C   UNL     1      14.430 -20.439  39.226  1.00  0.00     0.000 C 
BRANCH   3   4
ATOM      4  C   UNL     1      13.048 -20.350  39.896  1.00  0.00     0.000 C 
BRANCH   4   5
ATOM      5  C   UNL     1      11.907 -20.253  38.869  1.00  0.00     0.000 C 
BRANCH   5   6
ATOM      6  C   UNL     1      12.335 -20.727  37.469  1.00  0.00     0.000 C 
BRANCH   6   7
ATOM      7  C   UNL     1      11.364 -21.761  36.869  1.00  0.00     0.000 C 
BRANCH   7   8
ATOM      8  C   UNL     1      10.590 -22.605  37.904  1.00  0.00     0.000 C 
BRANCH   8   9
ATOM      9  C   UNL     1      11.155 -24.017  38.161  1.00  0.00     0.000 C 
BRANCH   9  10
ATOM     10  C   UNL     1      11.838 -24.207  39.528  1.00  0.00     0.000 C 
BRANCH  10  11
ATOM     11  C   UNL     1      13.369 -24.080  39.450  1.00  0.00     0.000 C 
BRANCH  11  12
ATOM     12  C   UNL     1      13.905 -24.227  38.017  1.00  0.00     0.006 C 
BRANCH  12  13
ATOM     13  C   UNL     1      15.351 -23.736  37.865  1.00  0.00     0.053 C 
BRANCH  13  14
ATOM     14  C   UNL     1      16.318 -24.808  38.259  1.00  0.00     0.041 C 
ATOM     15  O   UNL     1      16.908 -24.752  39.371  1.00  0.00    -0.550 OA
ATOM     16  O   UNL     1      16.543 -25.888  37.413  1.00  0.00    -0.550 OA
ENDBRANCH  13  14
ENDBRANCH  12  13
ENDBRANCH  11  12
ENDBRANCH  10  11
ENDBRANCH   9  10
ENDBRANCH   8   9
ENDBRANCH   7   8
ENDBRANCH   6   7
ENDBRANCH   5   6
ENDBRANCH   4   5
ENDBRANCH   3   4
ENDBRANCH   2   3
ENDBRANCH   1   2
BRANCH   1  17
ATOM     17  C   UNL     1      15.171 -16.613  40.015  1.00  0.00     0.000 C 
BRANCH  17  18
ATOM     18  C   UNL     1      14.257 -15.377  39.877  1.00  0.00     0.000 C 
BRANCH  18  19
ATOM     19  C   UNL     1      12.751 -15.650  40.045  1.00  0.00     0.000 C 
BRANCH  19  20
ATOM     20  C   UNL     1      11.965 -15.502  38.730  1.00  0.00     0.000 C 
BRANCH  20  21
ATOM     21  C   UNL     1      11.695 -16.852  38.044  1.00  0.00     0.000 C 
BRANCH  21  22
ATOM     22  C   UNL     1      12.173 -16.886  36.582  1.00  0.00    -0.000 C 
BRANCH  22  23
ATOM     23  C   UNL     1      13.573 -17.505  36.437  1.00  0.00    -0.000 C 
BRANCH  23  24
ATOM     24  C   UNL     1      14.685 -16.447  36.367  1.00  0.00    -0.000 C 
BRANCH  24  25
ATOM     25  C   UNL     1      16.056 -17.107  36.159  1.00  0.00    -0.000 C 
BRANCH  25  26
ATOM     26  C   UNL     1      17.131 -16.546  37.105  1.00  0.00    -0.000 C 
BRANCH  26  27
ATOM     27  C   UNL     1      17.538 -15.108  36.749  1.00  0.00    -0.000 C 
BRANCH  27  28
ATOM     28  C   UNL     1      17.128 -14.130  37.860  1.00  0.00    -0.000 C 
BRANCH  28  29
ATOM     29  C   UNL     1      15.946 -13.236  37.454  1.00  0.00    -0.003 C 
ATOM     30  C   UNL     1      15.989 -12.826  35.982  1.00  0.00     0.004 C 
ENDBRANCH  28  29
ENDBRANCH  27  28
ENDBRANCH  26  27
ENDBRANCH  25  26
ENDBRANCH  24  25
ENDBRANCH  23  24
ENDBRANCH  22  23
ENDBRANCH  21  22
ENDBRANCH  20  21
ENDBRANCH  19  20
ENDBRANCH  18  19
ENDBRANCH  17  18
ENDBRANCH   1  17
TORSDOF 26
ENDMDL
MODEL 5
REMARK VINA RESULT:    -4.297      3.525      9.040
REMARK INTER + INTRA:         -15.619
REMARK INTER:                 -11.921
REMARK INTRA:                  -3.698
REMARK UNBOUND:                -4.791
REMARK SMILES CCCCCCCCCCCCCCCCCCCCCCCCCCCC(=O)[O-]
REMARK SMILES IDX 15 1 16 2 17 3 18 4 19 5 20 6 21 7 22 8 23 9 24 10 25 11
REMARK SMILES IDX 26 12 27 13 28 14 29 15 30 16 14 17 13 18 12 19 11 20 10 21
REMARK SMILES IDX 9 22 8 23 7 24 6 25 5 26 4 27 3 28 2 29 1 30
REMARK H PARENT
REMARK Flexibility Score: inf
ROOT
ATOM      1  C   UNL     1      16.434 -18.082  37.949  1.00  0.00     0.000 C 
ENDROOT
BRANCH   1   2
ATOM      2  C   UNL     1      15.707 -17.207  36.909  1.00  0.00     0.000 C 
BRANCH   2   3
ATOM      3  C   UNL     1      16.637 -16.236  36.151  1.00  0.00     0.000 C 
BRANCH   3   4
ATOM      4  C   UNL     1      17.736 -15.643  37.049  1.00  0.00     0.000 C 
BRANCH   4   5
ATOM      5  C   UNL     1      18.136 -14.222  36.620  1.00  0.00     0.000 C 
BRANCH   5   6
ATOM      6  C   UNL     1      17.137 -13.605  35.625  1.00  0.00     0.000 C 
BRANCH   6   7
ATOM      7  C   UNL     1      16.218 -12.556  36.277  1.00  0.00     0.000 C 
BRANCH   7   8
ATOM      8  C   UNL     1      15.026 -13.134  37.068  1.00  0.00     0.000 C 
BRANCH   8   9
ATOM      9  C   UNL     1      15.026 -12.830  38.580  1.00  0.00     0.000 C 
BRANCH   9  10
ATOM     10  C   UNL     1      15.835 -13.817  39.443  1.00  0.00     0.000 C 
BRANCH  10  11
ATOM     11  C   UNL     1      14.954 -14.894  40.099  1.00  0.00     0.000 C 
BRANCH  11  12
ATOM     12  C   UNL     1      13.708 -15.232  39.263  1.00  0.00     0.006 C 
BRANCH  12  13
ATOM     13  C   UNL     1      12.409 -15.184  40.077  1.00  0.00     0.053 C 
BRANCH  13  14
ATOM     14  C   UNL     1      11.301 -14.584  39.270  1.00  0.00     0.041 C 
ATOM     15  O   UNL     1      10.505 -15.327  38.636  1.00  0.00    -0.550 OA
ATOM     16  O   UNL     1      11.126 -13.205  39.244  1.00  0.00    -0.550 OA
ENDBRANCH  13  14
ENDBRANCH  12  13
ENDBRANCH  11  12
ENDBRANCH  10  11
ENDBRANCH   9  10
ENDBRANCH   8   9
ENDBRANCH   7   8
ENDBRANCH   6   7
ENDBRANCH   5   6
ENDBRANCH   4   5
ENDBRANCH   3   4
ENDBRANCH   2   3
ENDBRANCH   1   2
BRANCH   1  17
ATOM     17  C   UNL     1      15.676 -18.282  39.275  1.00  0.00     0.000 C 
BRANCH  17  18
ATOM     18  C   UNL     1      14.995 -19.657  39.446  1.00  0.00     0.000 C 
BRANCH  18  19
ATOM     19  C   UNL     1      13.537 -19.612  39.942  1.00  0.00     0.000 C 
BRANCH  19  20
ATOM     20  C   UNL     1      12.649 -18.670  39.110  1.00  0.00     0.000 C 
BRANCH  20  21
ATOM     21  C   UNL     1      12.462 -19.154  37.663  1.00  0.00     0.000 C 
BRANCH  21  22
ATOM     22  C   UNL     1      11.753 -20.517  37.574  1.00  0.00    -0.000 C 
BRANCH  22  23
ATOM     23  C   UNL     1      12.686 -21.631  37.071  1.00  0.00    -0.000 C 
BRANCH  23  24
ATOM     24  C   UNL     1      12.804 -22.799  38.062  1.00  0.00    -0.000 C 
BRANCH  24  25
ATOM     25  C   UNL     1      14.003 -23.693  37.716  1.00  0.00    -0.000 C 
BRANCH  25  26
ATOM     26  C   UNL     1      15.187 -23.492  38.677  1.00  0.00    -0.000 C 
BRANCH  26  27
ATOM     27  C   UNL     1      15.585 -24.787  39.401  1.00  0.00    -0.000 C 
BRANCH  27  28
ATOM     28  C   UNL     1      17.085 -25.072  39.231  1.00  0.00    -0.000 C 
BRANCH  28  29
ATOM     29  C   UNL     1      17.391 -25.878  37.959  1.00  0.00    -0.003 C 
ATOM     30  C   UNL     1      18.042 -25.034  36.863  1.00  0.00     0.004 C 
ENDBRANCH  28  29
ENDBRANCH  27  28
ENDBRANCH  26  27
ENDBRANCH  25  26
ENDBRANCH  24  25
ENDBRANCH  23  24
ENDBRANCH  22  23
ENDBRANCH  21  22
ENDBRANCH  20  21
ENDBRANCH  19  20
ENDBRANCH  18  19
ENDBRANCH  17  18
ENDBRANCH   1  17
TORSDOF 26
ENDMDL
MODEL 6
REMARK VINA RESULT:    -4.241      3.409      7.710
REMARK INTER + INTRA:         -15.480
REMARK INTER:                 -10.205
REMARK INTRA:                  -5.275
REMARK UNBOUND:                -4.791
REMARK SMILES CCCCCCCCCCCCCCCCCCCCCCCCCCCC(=O)[O-]
REMARK SMILES IDX 15 1 16 2 17 3 18 4 19 5 20 6 21 7 22 8 23 9 24 10 25 11
REMARK SMILES IDX 26 12 27 13 28 14 29 15 30 16 14 17 13 18 12 19 11 20 10 21
REMARK SMILES IDX 9 22 8 23 7 24 6 25 5 26 4 27 3 28 2 29 1 30
REMARK H PARENT
REMARK Flexibility Score: inf
ROOT
ATOM      1  C   UNL     1      17.110 -17.032  37.376  1.00  0.00     0.000 C 
ENDROOT
BRANCH   1   2
ATOM      2  C   UNL     1      16.654 -18.297  38.130  1.00  0.00     0.000 C 
BRANCH   2   3
ATOM      3  C   UNL     1      15.567 -18.033  39.193  1.00  0.00     0.000 C 
BRANCH   3   4
ATOM      4  C   UNL     1      14.631 -19.236  39.396  1.00  0.00     0.000 C 
BRANCH   4   5
ATOM      5  C   UNL     1      13.314 -18.841  40.086  1.00  0.00     0.000 C 
BRANCH   5   6
ATOM      6  C   UNL     1      13.052 -17.326  40.027  1.00  0.00     0.000 C 
BRANCH   6   7
ATOM      7  C   UNL     1      11.557 -16.976  40.141  1.00  0.00     0.000 C 
BRANCH   7   8
ATOM      8  C   UNL     1      11.256 -15.492  40.441  1.00  0.00     0.000 C 
BRANCH   8   9
ATOM      9  C   UNL     1      10.456 -14.747  39.353  1.00  0.00     0.000 C 
BRANCH   9  10
ATOM     10  C   UNL     1      11.291 -14.237  38.163  1.00  0.00     0.000 C 
BRANCH  10  11
ATOM     11  C   UNL     1      12.103 -12.976  38.504  1.00  0.00     0.000 C 
BRANCH  11  12
ATOM     12  C   UNL     1      13.569 -13.072  38.051  1.00  0.00     0.006 C 
BRANCH  12  13
ATOM     13  C   UNL     1      14.321 -14.241  38.702  1.00  0.00     0.053 C 
BRANCH  13  14
ATOM     14  C   UNL     1      15.760 -13.891  38.913  1.00  0.00     0.041 C 
ATOM     15  O   UNL     1      16.502 -13.637  37.926  1.00  0.00    -0.550 OA
ATOM     16  O   UNL     1      16.277 -13.811  40.201  1.00  0.00    -0.550 OA
ENDBRANCH  13  14
ENDBRANCH  12  13
ENDBRANCH  11  12
ENDBRANCH  10  11
ENDBRANCH   9  10
ENDBRANCH   8   9
ENDBRANCH   7   8
ENDBRANCH   6   7
ENDBRANCH   5   6
ENDBRANCH   4   5
ENDBRANCH   3   4
ENDBRANCH   2   3
ENDBRANCH   1   2
BRANCH   1  17
ATOM     17  C   UNL     1      16.510 -16.861  35.968  1.00  0.00     0.000 C 
BRANCH  17  18
ATOM     18  C   UNL     1      15.039 -16.395  35.929  1.00  0.00     0.000 C 
BRANCH  18  19
ATOM     19  C   UNL     1      13.991 -17.524  35.900  1.00  0.00     0.000 C 
BRANCH  19  20
ATOM     20  C   UNL     1      12.652 -17.117  36.539  1.00  0.00     0.000 C 
BRANCH  20  21
ATOM     21  C   UNL     1      11.671 -18.294  36.665  1.00  0.00     0.000 C 
BRANCH  21  22
ATOM     22  C   UNL     1      12.357 -19.664  36.520  1.00  0.00    -0.000 C 
BRANCH  22  23
ATOM     23  C   UNL     1      11.431 -20.828  36.908  1.00  0.00    -0.000 C 
BRANCH  23  24
ATOM     24  C   UNL     1      10.648 -20.557  38.202  1.00  0.00    -0.000 C 
BRANCH  24  25
ATOM     25  C   UNL     1      10.776 -21.737  39.177  1.00  0.00    -0.000 C 
BRANCH  25  26
ATOM     26  C   UNL     1      10.962 -23.082  38.455  1.00  0.00    -0.000 C 
BRANCH  26  27
ATOM     27  C   UNL     1      12.193 -23.854  38.954  1.00  0.00    -0.000 C 
BRANCH  27  28
ATOM     28  C   UNL     1      13.108 -22.946  39.790  1.00  0.00    -0.000 C 
BRANCH  28  29
ATOM     29  C   UNL     1      14.542 -22.888  39.242  1.00  0.00    -0.003 C 
ATOM     30  C   UNL     1      14.616 -23.155  37.739  1.00  0.00     0.004 C 
ENDBRANCH  28  29
ENDBRANCH  27  28
ENDBRANCH  26  27
ENDBRANCH  25  26
ENDBRANCH  24  25
ENDBRANCH  23  24
ENDBRANCH  22  23
ENDBRANCH  21  22
ENDBRANCH  20  21
ENDBRANCH  19  20
ENDBRANCH  18  19
ENDBRANCH  17  18
ENDBRANCH   1  17
TORSDOF 26
ENDMDL
MODEL 7
REMARK VINA RESULT:    -4.241      4.266      7.446
REMARK INTER + INTRA:         -15.477
REMARK INTER:                 -10.412
REMARK INTRA:                  -5.066
REMARK UNBOUND:                -4.791
REMARK SMILES CCCCCCCCCCCCCCCCCCCCCCCCCCCC(=O)[O-]
REMARK SMILES IDX 15 1 16 2 17 3 18 4 19 5 20 6 21 7 22 8 23 9 24 10 25 11
REMARK SMILES IDX 26 12 27 13 28 14 29 15 30 16 14 17 13 18 12 19 11 20 10 21
REMARK SMILES IDX 9 22 8 23 7 24 6 25 5 26 4 27 3 28 2 29 1 30
REMARK H PARENT
REMARK Flexibility Score: inf
ROOT
ATOM      1  C   UNL     1      16.989 -14.295  36.166  1.00  0.00     0.000 C 
ENDROOT
BRANCH   1   2
ATOM      2  C   UNL     1      17.333 -15.608  36.896  1.00  0.00     0.000 C 
BRANCH   2   3
ATOM      3  C   UNL     1      16.634 -16.851  36.309  1.00  0.00     0.000 C 
BRANCH   3   4
ATOM      4  C   UNL     1      15.217 -16.548  35.793  1.00  0.00     0.000 C 
BRANCH   4   5
ATOM      5  C   UNL     1      14.191 -17.596  36.256  1.00  0.00     0.000 C 
BRANCH   5   6
ATOM      6  C   UNL     1      12.867 -16.959  36.714  1.00  0.00     0.000 C 
BRANCH   6   7
ATOM      7  C   UNL     1      11.815 -18.005  37.125  1.00  0.00     0.000 C 
BRANCH   7   8
ATOM      8  C   UNL     1      10.548 -17.429  37.792  1.00  0.00     0.000 C 
BRANCH   8   9
ATOM      9  C   UNL     1      10.261 -17.941  39.219  1.00  0.00     0.000 C 
BRANCH   9  10
ATOM     10  C   UNL     1      11.090 -17.270  40.330  1.00  0.00     0.000 C 
BRANCH  10  11
ATOM     11  C   UNL     1      10.453 -15.967  40.843  1.00  0.00     0.000 C 
BRANCH  11  12
ATOM     12  C   UNL     1      11.267 -14.719  40.464  1.00  0.00     0.006 C 
BRANCH  12  13
ATOM     13  C   UNL     1      10.639 -13.921  39.313  1.00  0.00     0.053 C 
BRANCH  13  14
ATOM     14  C   UNL     1      11.283 -12.576  39.189  1.00  0.00     0.041 C 
ATOM     15  O   UNL     1      12.317 -12.431  38.484  1.00  0.00    -0.550 OA
ATOM     16  O   UNL     1      10.722 -11.475  39.826  1.00  0.00    -0.550 OA
ENDBRANCH  13  14
ENDBRANCH  12  13
ENDBRANCH  11  12
ENDBRANCH  10  11
ENDBRANCH   9  10
ENDBRANCH   8   9
ENDBRANCH   7   8
ENDBRANCH   6   7
ENDBRANCH   5   6
ENDBRANCH   4   5
ENDBRANCH   3   4
ENDBRANCH   2   3
ENDBRANCH   1   2
BRANCH   1  17
ATOM     17  C   UNL     1      16.281 -13.235  37.030  1.00  0.00     0.000 C 
BRANCH  17  18
ATOM     18  C   UNL     1      15.339 -13.791  38.119  1.00  0.00     0.000 C 
BRANCH  18  19
ATOM     19  C   UNL     1      15.937 -13.857  39.537  1.00  0.00     0.000 C 
BRANCH  19  20
ATOM     20  C   UNL     1      15.165 -14.805  40.470  1.00  0.00     0.000 C 
BRANCH  20  21
ATOM     21  C   UNL     1      14.485 -15.959  39.715  1.00  0.00     0.000 C 
BRANCH  21  22
ATOM     22  C   UNL     1      15.340 -17.239  39.683  1.00  0.00    -0.000 C 
BRANCH  22  23
ATOM     23  C   UNL     1      14.515 -18.502  39.981  1.00  0.00    -0.000 C 
BRANCH  23  24
ATOM     24  C   UNL     1      15.073 -19.752  39.284  1.00  0.00    -0.000 C 
BRANCH  24  25
ATOM     25  C   UNL     1      13.974 -20.806  39.086  1.00  0.00    -0.000 C 
BRANCH  25  26
ATOM     26  C   UNL     1      12.716 -20.511  39.921  1.00  0.00    -0.000 C 
BRANCH  26  27
ATOM     27  C   UNL     1      11.873 -21.769  40.181  1.00  0.00    -0.000 C 
BRANCH  27  28
ATOM     28  C   UNL     1      11.369 -22.374  38.862  1.00  0.00    -0.000 C 
BRANCH  28  29
ATOM     29  C   UNL     1      10.709 -21.329  37.949  1.00  0.00    -0.003 C 
ATOM     30  C   UNL     1      11.066 -21.517  36.474  1.00  0.00     0.004 C 
ENDBRANCH  28  29
ENDBRANCH  27  28
ENDBRANCH  26  27
ENDBRANCH  25  26
ENDBRANCH  24  25
ENDBRANCH  23  24
ENDBRANCH  22  23
ENDBRANCH  21  22
ENDBRANCH  20  21
ENDBRANCH  19  20
ENDBRANCH  18  19
ENDBRANCH  17  18
ENDBRANCH   1  17
TORSDOF 26
ENDMDL
MODEL 8
REMARK VINA RESULT:    -4.170      3.601      8.833
REMARK INTER + INTRA:         -15.299
REMARK INTER:                 -10.532
REMARK INTRA:                  -4.767
REMARK UNBOUND:                -4.791
REMARK SMILES CCCCCCCCCCCCCCCCCCCCCCCCCCCC(=O)[O-]
REMARK SMILES IDX 15 1 16 2 17 3 18 4 19 5 20 6 21 7 22 8 23 9 24 10 25 11
REMARK SMILES IDX 26 12 27 13 28 14 29 15 30 16 14 17 13 18 12 19 11 20 10 21
REMARK SMILES IDX 9 22 8 23 7 24 6 25 5 26 4 27 3 28 2 29 1 30
REMARK H PARENT
REMARK Flexibility Score: inf
ROOT
ATOM      1  C   UNL     1      15.506 -17.534  39.493  1.00  0.00     0.000 C 
ENDROOT
BRANCH   1   2
ATOM      2  C   UNL     1      14.545 -16.384  39.854  1.00  0.00     0.000 C 
BRANCH   2   3
ATOM      3  C   UNL     1      15.212 -14.992  39.863  1.00  0.00     0.000 C 
BRANCH   3   4
ATOM      4  C   UNL     1      14.607 -14.037  38.821  1.00  0.00     0.000 C 
BRANCH   4   5
ATOM      5  C   UNL     1      15.613 -13.664  37.718  1.00  0.00     0.000 C 
BRANCH   5   6
ATOM      6  C   UNL     1      17.015 -14.242  37.983  1.00  0.00     0.000 C 
BRANCH   6   7
ATOM      7  C   UNL     1      17.386 -15.371  37.004  1.00  0.00     0.000 C 
BRANCH   7   8
ATOM      8  C   UNL     1      16.386 -15.587  35.848  1.00  0.00     0.000 C 
BRANCH   8   9
ATOM      9  C   UNL     1      15.594 -16.910  35.898  1.00  0.00     0.000 C 
BRANCH   9  10
ATOM     10  C   UNL     1      14.102 -16.764  36.253  1.00  0.00     0.000 C 
BRANCH  10  11
ATOM     11  C   UNL     1      13.381 -18.119  36.361  1.00  0.00     0.000 C 
BRANCH  11  12
ATOM     12  C   UNL     1      11.950 -17.989  36.907  1.00  0.00     0.006 C 
BRANCH  12  13
ATOM     13  C   UNL     1      11.721 -16.684  37.681  1.00  0.00     0.053 C 
BRANCH  13  14
ATOM     14  C   UNL     1      10.803 -15.775  36.926  1.00  0.00     0.041 C 
ATOM     15  O   UNL     1      10.658 -14.577  37.288  1.00  0.00    -0.550 OA
ATOM     16  O   UNL     1      10.133 -16.241  35.800  1.00  0.00    -0.550 OA
ENDBRANCH  13  14
ENDBRANCH  12  13
ENDBRANCH  11  12
ENDBRANCH  10  11
ENDBRANCH   9  10
ENDBRANCH   8   9
ENDBRANCH   7   8
ENDBRANCH   6   7
ENDBRANCH   5   6
ENDBRANCH   4   5
ENDBRANCH   3   4
ENDBRANCH   2   3
ENDBRANCH   1   2
BRANCH   1  17
ATOM     17  C   UNL     1      14.903 -18.946  39.608  1.00  0.00     0.000 C 
BRANCH  17  18
ATOM     18  C   UNL     1      13.550 -19.030  40.345  1.00  0.00     0.000 C 
BRANCH  18  19
ATOM     19  C   UNL     1      12.659 -20.224  39.955  1.00  0.00     0.000 C 
BRANCH  19  20
ATOM     20  C   UNL     1      13.416 -21.301  39.157  1.00  0.00     0.000 C 
BRANCH  20  21
ATOM     21  C   UNL     1      12.846 -21.504  37.743  1.00  0.00     0.000 C 
BRANCH  21  22
ATOM     22  C   UNL     1      11.731 -22.564  37.694  1.00  0.00    -0.000 C 
BRANCH  22  23
ATOM     23  C   UNL     1      11.920 -23.663  38.754  1.00  0.00    -0.000 C 
BRANCH  23  24
ATOM     24  C   UNL     1      12.060 -25.063  38.138  1.00  0.00    -0.000 C 
BRANCH  24  25
ATOM     25  C   UNL     1      13.492 -25.593  38.303  1.00  0.00    -0.000 C 
BRANCH  25  26
ATOM     26  C   UNL     1      14.442 -25.078  37.209  1.00  0.00    -0.000 C 
BRANCH  26  27
ATOM     27  C   UNL     1      15.500 -24.107  37.756  1.00  0.00    -0.000 C 
BRANCH  27  28
ATOM     28  C   UNL     1      15.732 -24.339  39.257  1.00  0.00    -0.000 C 
BRANCH  28  29
ATOM     29  C   UNL     1      17.070 -25.036  39.546  1.00  0.00    -0.003 C 
ATOM     30  C   UNL     1      16.920 -26.540  39.774  1.00  0.00     0.004 C 
ENDBRANCH  28  29
ENDBRANCH  27  28
ENDBRANCH  26  27
ENDBRANCH  25  26
ENDBRANCH  24  25
ENDBRANCH  23  24
ENDBRANCH  22  23
ENDBRANCH  21  22
ENDBRANCH  20  21
ENDBRANCH  19  20
ENDBRANCH  18  19
ENDBRANCH  17  18
ENDBRANCH   1  17
TORSDOF 26
ENDMDL
MODEL 9
REMARK VINA RESULT:    -4.125      3.208      8.432
REMARK INTER + INTRA:         -15.185
REMARK INTER:                 -10.094
REMARK INTRA:                  -5.091
REMARK UNBOUND:                -4.791
REMARK SMILES CCCCCCCCCCCCCCCCCCCCCCCCCCCC(=O)[O-]
REMARK SMILES IDX 15 1 16 2 17 3 18 4 19 5 20 6 21 7 22 8 23 9 24 10 25 11
REMARK SMILES IDX 26 12 27 13 28 14 29 15 30 16 14 17 13 18 12 19 11 20 10 21
REMARK SMILES IDX 9 22 8 23 7 24 6 25 5 26 4 27 3 28 2 29 1 30
REMARK H PARENT
REMARK Flexibility Score: inf
ROOT
ATOM      1  C   UNL     1      15.638 -17.719  38.026  1.00  0.00     0.000 C 
ENDROOT
BRANCH   1   2
ATOM      2  C   UNL     1      14.609 -17.161  37.022  1.00  0.00     0.000 C 
BRANCH   2   3
ATOM      3  C   UNL     1      13.347 -18.035  36.872  1.00  0.00     0.000 C 
BRANCH   3   4
ATOM      4  C   UNL     1      12.054 -17.205  36.805  1.00  0.00     0.000 C 
BRANCH   4   5
ATOM      5  C   UNL     1      11.200 -17.351  38.076  1.00  0.00     0.000 C 
BRANCH   5   6
ATOM      6  C   UNL     1      11.255 -16.098  38.967  1.00  0.00     0.000 C 
BRANCH   6   7
ATOM      7  C   UNL     1      12.426 -16.130  39.966  1.00  0.00     0.000 C 
BRANCH   7   8
ATOM      8  C   UNL     1      13.466 -15.003  39.789  1.00  0.00     0.000 C 
BRANCH   8   9
ATOM      9  C   UNL     1      13.231 -14.072  38.582  1.00  0.00     0.000 C 
BRANCH   9  10
ATOM     10  C   UNL     1      14.510 -13.523  37.923  1.00  0.00     0.000 C 
BRANCH  10  11
ATOM     11  C   UNL     1      15.783 -13.879  38.710  1.00  0.00     0.000 C 
BRANCH  11  12
ATOM     12  C   UNL     1      16.944 -14.311  37.798  1.00  0.00     0.006 C 
BRANCH  12  13
ATOM     13  C   UNL     1      17.073 -13.441  36.540  1.00  0.00     0.053 C 
BRANCH  13  14
ATOM     14  C   UNL     1      17.469 -14.273  35.361  1.00  0.00     0.041 C 
ATOM     15  O   UNL     1      16.948 -15.406  35.181  1.00  0.00    -0.550 OA
ATOM     16  O   UNL     1      18.389 -13.784  34.441  1.00  0.00    -0.550 OA
ENDBRANCH  13  14
ENDBRANCH  12  13
ENDBRANCH  11  12
ENDBRANCH  10  11
ENDBRANCH   9  10
ENDBRANCH   8   9
ENDBRANCH   7   8
ENDBRANCH   6   7
ENDBRANCH   5   6
ENDBRANCH   4   5
ENDBRANCH   3   4
ENDBRANCH   2   3
ENDBRANCH   1   2
BRANCH   1  17
ATOM     17  C   UNL     1      15.038 -18.304  39.317  1.00  0.00     0.000 C 
BRANCH  17  18
ATOM     18  C   UNL     1      15.170 -19.833  39.474  1.00  0.00     0.000 C 
BRANCH  18  19
ATOM     19  C   UNL     1      14.164 -20.486  40.441  1.00  0.00     0.000 C 
BRANCH  19  20
ATOM     20  C   UNL     1      12.771 -19.834  40.386  1.00  0.00     0.000 C 
BRANCH  20  21
ATOM     21  C   UNL     1      11.696 -20.776  39.818  1.00  0.00     0.000 C 
BRANCH  21  22
ATOM     22  C   UNL     1      11.780 -20.927  38.289  1.00  0.00    -0.000 C 
BRANCH  22  23
ATOM     23  C   UNL     1      12.094 -22.370  37.859  1.00  0.00    -0.000 C 
BRANCH  23  24
ATOM     24  C   UNL     1      11.215 -23.407  38.575  1.00  0.00    -0.000 C 
BRANCH  24  25
ATOM     25  C   UNL     1      11.978 -24.724  38.778  1.00  0.00    -0.000 C 
BRANCH  25  26
ATOM     26  C   UNL     1      12.910 -24.683  40.001  1.00  0.00    -0.000 C 
BRANCH  26  27
ATOM     27  C   UNL     1      14.354 -25.077  39.654  1.00  0.00    -0.000 C 
BRANCH  27  28
ATOM     28  C   UNL     1      15.187 -23.839  39.287  1.00  0.00    -0.000 C 
BRANCH  28  29
ATOM     29  C   UNL     1      15.498 -23.762  37.785  1.00  0.00    -0.003 C 
ATOM     30  C   UNL     1      15.323 -25.102  37.071  1.00  0.00     0.004 C 
ENDBRANCH  28  29
ENDBRANCH  27  28
ENDBRANCH  26  27
ENDBRANCH  25  26
ENDBRANCH  24  25
ENDBRANCH  23  24
ENDBRANCH  22  23
ENDBRANCH  21  22
ENDBRANCH  20  21
ENDBRANCH  19  20
ENDBRANCH  18  19
ENDBRANCH  17  18
ENDBRANCH   1  17
TORSDOF 26
ENDMDL
