MODEL 1
REMARK VINA RESULT:    -5.165      0.000      0.000
REMARK INTER + INTRA:         -12.156
REMARK INTER:                  -9.695
REMARK INTRA:                  -2.461
REMARK UNBOUND:                -2.461
REMARK SMILES CCCCCCCCC=CCCCCCCCC(=O)[O-]
REMARK SMILES IDX 10 1 9 2 11 3 12 4 13 5 14 6 15 7 16 8 17 9 18 10 19 11
REMARK SMILES IDX 20 12 8 13 7 14 6 15 5 16 4 17 3 18 2 19 1 20
REMARK H PARENT
REMARK Flexibility Score: inf
ROOT
ATOM      1  C   UNL     1      21.800  -4.625 -14.830  1.00  0.00    -0.031 C 
ATOM      2  C   UNL     1      21.055  -5.741 -14.837  1.00  0.00    -0.031 C 
ENDROOT
BRANCH   1   3
ATOM      3  C   UNL     1      21.594  -3.531 -15.843  1.00  0.00     0.027 C 
BRANCH   3   4
ATOM      4  C   UNL     1      20.244  -3.650 -16.566  1.00  0.00     0.004 C 
BRANCH   4   5
ATOM      5  C   UNL     1      19.144  -2.827 -15.877  1.00  0.00     0.000 C 
BRANCH   5   6
ATOM      6  C   UNL     1      17.960  -3.717 -15.479  1.00  0.00     0.000 C 
BRANCH   6   7
ATOM      7  C   UNL     1      17.515  -4.598 -16.656  1.00  0.00     0.000 C 
BRANCH   7   8
ATOM      8  C   UNL     1      16.436  -3.929 -17.527  1.00  0.00     0.006 C 
BRANCH   8   9
ATOM      9  C   UNL     1      15.553  -2.921 -16.774  1.00  0.00     0.053 C 
BRANCH   9  10
ATOM     10  C   UNL     1      15.499  -1.594 -17.469  1.00  0.00     0.041 C 
ATOM     11  O   UNL     1      14.940  -0.612 -16.916  1.00  0.00    -0.550 OA
ATOM     12  O   UNL     1      16.039  -1.454 -18.741  1.00  0.00    -0.550 OA
ENDBRANCH   9  10
ENDBRANCH   8   9
ENDBRANCH   7   8
ENDBRANCH   6   7
ENDBRANCH   5   6
ENDBRANCH   4   5
ENDBRANCH   3   4
ENDBRANCH   1   3
BRANCH   2  13
ATOM     13  C   UNL     1      21.256  -6.828 -13.818  1.00  0.00     0.027 C 
BRANCH  13  14
ATOM     14  C   UNL     1      20.164  -7.901 -13.928  1.00  0.00     0.004 C 
BRANCH  14  15
ATOM     15  C   UNL     1      19.141  -7.533 -15.013  1.00  0.00     0.000 C 
BRANCH  15  16
ATOM     16  C   UNL     1      17.728  -7.320 -14.447  1.00  0.00     0.000 C 
BRANCH  16  17
ATOM     17  C   UNL     1      17.739  -6.692 -13.046  1.00  0.00    -0.000 C 
BRANCH  17  18
ATOM     18  C   UNL     1      16.339  -6.210 -12.649  1.00  0.00    -0.000 C 
BRANCH  18  19
ATOM     19  C   UNL     1      15.382  -6.250 -13.847  1.00  0.00    -0.003 C 
ATOM     20  C   UNL     1      14.483  -5.018 -13.874  1.00  0.00     0.004 C 
ENDBRANCH  18  19
ENDBRANCH  17  18
ENDBRANCH  16  17
ENDBRANCH  15  16
ENDBRANCH  14  15
ENDBRANCH  13  14
ENDBRANCH   2  13
TORSDOF 15
ENDMDL
MODEL 2
REMARK VINA RESULT:    -5.015      4.562      7.552
REMARK INTER + INTRA:         -11.874
REMARK INTER:                  -9.852
REMARK INTRA:                  -2.022
REMARK UNBOUND:                -2.461
REMARK SMILES CCCCCCCCC=CCCCCCCCC(=O)[O-]
REMARK SMILES IDX 10 1 9 2 11 3 12 4 13 5 14 6 15 7 16 8 17 9 18 10 19 11
REMARK SMILES IDX 20 12 8 13 7 14 6 15 5 16 4 17 3 18 2 19 1 20
REMARK H PARENT
REMARK Flexibility Score: inf
ROOT
ATOM      1  C   UNL     1      16.557  -4.388 -13.978  1.00  0.00    -0.031 C 
ATOM      2  C   UNL     1      15.748  -4.136 -15.018  1.00  0.00    -0.031 C 
ENDROOT
BRANCH   1   3
ATOM      3  C   UNL     1      16.015  -4.836 -12.647  1.00  0.00     0.027 C 
BRANCH   3   4
ATOM      4  C   UNL     1      16.491  -6.247 -12.268  1.00  0.00     0.004 C 
BRANCH   4   5
ATOM      5  C   UNL     1      17.517  -6.800 -13.268  1.00  0.00     0.000 C 
BRANCH   5   6
ATOM      6  C   UNL     1      18.642  -7.549 -12.544  1.00  0.00     0.000 C 
BRANCH   6   7
ATOM      7  C   UNL     1      19.565  -8.257 -13.546  1.00  0.00     0.000 C 
BRANCH   7   8
ATOM      8  C   UNL     1      20.414  -9.365 -12.896  1.00  0.00     0.006 C 
BRANCH   8   9
ATOM      9  C   UNL     1      19.689 -10.148 -11.790  1.00  0.00     0.053 C 
BRANCH   9  10
ATOM     10  C   UNL     1      20.537 -10.301 -10.564  1.00  0.00     0.041 C 
ATOM     11  O   UNL     1      21.099  -9.297 -10.054  1.00  0.00    -0.550 OA
ATOM     12  O   UNL     1      20.731 -11.557 -10.005  1.00  0.00    -0.550 OA
ENDBRANCH   9  10
ENDBRANCH   8   9
ENDBRANCH   7   8
ENDBRANCH   6   7
ENDBRANCH   5   6
ENDBRANCH   4   5
ENDBRANCH   3   4
ENDBRANCH   1   3
BRANCH   2  13
ATOM     13  C   UNL     1      16.292  -3.697 -16.350  1.00  0.00     0.027 C 
BRANCH  13  14
ATOM     14  C   UNL     1      17.815  -3.870 -16.413  1.00  0.00     0.004 C 
BRANCH  14  15
ATOM     15  C   UNL     1      18.188  -5.193 -17.099  1.00  0.00     0.000 C 
BRANCH  15  16
ATOM     16  C   UNL     1      19.436  -5.846 -16.485  1.00  0.00     0.000 C 
BRANCH  16  17
ATOM     17  C   UNL     1      19.987  -5.062 -15.286  1.00  0.00    -0.000 C 
BRANCH  17  18
ATOM     18  C   UNL     1      21.520  -5.026 -15.310  1.00  0.00    -0.000 C 
BRANCH  18  19
ATOM     19  C   UNL     1      22.040  -3.589 -15.188  1.00  0.00    -0.003 C 
ATOM     20  C   UNL     1      21.599  -2.741 -16.378  1.00  0.00     0.004 C 
ENDBRANCH  18  19
ENDBRANCH  17  18
ENDBRANCH  16  17
ENDBRANCH  15  16
ENDBRANCH  14  15
ENDBRANCH  13  14
ENDBRANCH   2  13
TORSDOF 15
ENDMDL
MODEL 3
REMARK VINA RESULT:    -4.989      3.741      6.135
REMARK INTER + INTRA:         -11.826
REMARK INTER:                  -9.297
REMARK INTRA:                  -2.529
REMARK UNBOUND:                -2.461
REMARK SMILES CCCCCCCCC=CCCCCCCCC(=O)[O-]
REMARK SMILES IDX 10 1 9 2 11 3 12 4 13 5 14 6 15 7 16 8 17 9 18 10 19 11
REMARK SMILES IDX 20 12 8 13 7 14 6 15 5 16 4 17 3 18 2 19 1 20
REMARK H PARENT
REMARK Flexibility Score: inf
ROOT
ATOM      1  C   UNL     1      17.727  -3.860 -15.738  1.00  0.00    -0.031 C 
ATOM      2  C   UNL     1      18.542  -2.906 -16.212  1.00  0.00    -0.031 C 
ENDROOT
BRANCH   1   3
ATOM      3  C   UNL     1      16.229  -3.716 -15.786  1.00  0.00     0.027 C 
BRANCH   3   4
ATOM      4  C   UNL     1      15.540  -4.361 -14.574  1.00  0.00     0.004 C 
BRANCH   4   5
ATOM      5  C   UNL     1      16.460  -4.413 -13.345  1.00  0.00     0.000 C 
BRANCH   5   6
ATOM      6  C   UNL     1      16.574  -5.843 -12.804  1.00  0.00     0.000 C 
BRANCH   6   7
ATOM      7  C   UNL     1      16.586  -6.865 -13.950  1.00  0.00     0.000 C 
BRANCH   7   8
ATOM      8  C   UNL     1      18.010  -7.224 -14.414  1.00  0.00     0.006 C 
BRANCH   8   9
ATOM      9  C   UNL     1      19.090  -7.040 -13.336  1.00  0.00     0.053 C 
BRANCH   9  10
ATOM     10  C   UNL     1      19.709  -8.344 -12.935  1.00  0.00     0.041 C 
ATOM     11  O   UNL     1      19.104  -9.117 -12.148  1.00  0.00    -0.550 OA
ATOM     12  O   UNL     1      20.970  -8.689 -13.406  1.00  0.00    -0.550 OA
ENDBRANCH   9  10
ENDBRANCH   8   9
ENDBRANCH   7   8
ENDBRANCH   6   7
ENDBRANCH   5   6
ENDBRANCH   4   5
ENDBRANCH   3   4
ENDBRANCH   1   3
BRANCH   2  13
ATOM     13  C   UNL     1      20.037  -3.056 -16.172  1.00  0.00     0.027 C 
BRANCH  13  14
ATOM     14  C   UNL     1      20.445  -4.392 -15.538  1.00  0.00     0.004 C 
BRANCH  14  15
ATOM     15  C   UNL     1      21.040  -5.340 -16.590  1.00  0.00     0.000 C 
BRANCH  15  16
ATOM     16  C   UNL     1      21.219  -4.666 -17.959  1.00  0.00     0.000 C 
BRANCH  16  17
ATOM     17  C   UNL     1      20.427  -5.366 -19.074  1.00  0.00    -0.000 C 
BRANCH  17  18
ATOM     18  C   UNL     1      19.057  -5.829 -18.565  1.00  0.00    -0.000 C 
BRANCH  18  19
ATOM     19  C   UNL     1      18.767  -7.272 -18.999  1.00  0.00    -0.003 C 
ATOM     20  C   UNL     1      19.156  -8.264 -17.907  1.00  0.00     0.004 C 
ENDBRANCH  18  19
ENDBRANCH  17  18
ENDBRANCH  16  17
ENDBRANCH  15  16
ENDBRANCH  14  15
ENDBRANCH  13  14
ENDBRANCH   2  13
TORSDOF 15
ENDMDL
MODEL 4
REMARK VINA RESULT:    -4.980      4.636      7.404
REMARK INTER + INTRA:         -11.808
REMARK INTER:                  -9.629
REMARK INTRA:                  -2.179
REMARK UNBOUND:                -2.461
REMARK SMILES CCCCCCCCC=CCCCCCCCC(=O)[O-]
REMARK SMILES IDX 10 1 9 2 11 3 12 4 13 5 14 6 15 7 16 8 17 9 18 10 19 11
REMARK SMILES IDX 20 12 8 13 7 14 6 15 5 16 4 17 3 18 2 19 1 20
REMARK H PARENT
REMARK Flexibility Score: inf
ROOT
ATOM      1  C   UNL     1      16.282  -4.350 -15.016  1.00  0.00    -0.031 C 
ATOM      2  C   UNL     1      16.092  -3.749 -16.201  1.00  0.00    -0.031 C 
ENDROOT
BRANCH   1   3
ATOM      3  C   UNL     1      15.126  -4.852 -14.191  1.00  0.00     0.027 C 
BRANCH   3   4
ATOM      4  C   UNL     1      15.390  -6.245 -13.602  1.00  0.00     0.004 C 
BRANCH   4   5
ATOM      5  C   UNL     1      16.758  -6.802 -14.024  1.00  0.00     0.000 C 
BRANCH   5   6
ATOM      6  C   UNL     1      17.663  -7.018 -12.804  1.00  0.00     0.000 C 
BRANCH   6   7
ATOM      7  C   UNL     1      18.915  -7.823 -13.184  1.00  0.00     0.000 C 
BRANCH   7   8
ATOM      8  C   UNL     1      19.707  -8.309 -11.957  1.00  0.00     0.006 C 
BRANCH   8   9
ATOM      9  C   UNL     1      19.848  -9.836 -11.860  1.00  0.00     0.053 C 
BRANCH   9  10
ATOM     10  C   UNL     1      20.672 -10.250 -10.679  1.00  0.00     0.041 C 
ATOM     11  O   UNL     1      21.488  -9.442 -10.163  1.00  0.00    -0.550 OA
ATOM     12  O   UNL     1      20.562 -11.538 -10.172  1.00  0.00    -0.550 OA
ENDBRANCH   9  10
ENDBRANCH   8   9
ENDBRANCH   7   8
ENDBRANCH   6   7
ENDBRANCH   5   6
ENDBRANCH   4   5
ENDBRANCH   3   4
ENDBRANCH   1   3
BRANCH   2  13
ATOM     13  C   UNL     1      17.248  -3.257 -17.028  1.00  0.00     0.027 C 
BRANCH  13  14
ATOM     14  C   UNL     1      18.391  -2.749 -16.139  1.00  0.00     0.004 C 
BRANCH  14  15
ATOM     15  C   UNL     1      19.685  -3.530 -16.413  1.00  0.00     0.000 C 
BRANCH  15  16
ATOM     16  C   UNL     1      19.938  -4.638 -15.378  1.00  0.00     0.000 C 
BRANCH  16  17
ATOM     17  C   UNL     1      20.248  -5.995 -16.026  1.00  0.00    -0.000 C 
BRANCH  17  18
ATOM     18  C   UNL     1      19.006  -6.569 -16.719  1.00  0.00    -0.000 C 
BRANCH  18  19
ATOM     19  C   UNL     1      19.278  -6.835 -18.204  1.00  0.00    -0.003 C 
ATOM     20  C   UNL     1      18.239  -6.148 -19.086  1.00  0.00     0.004 C 
ENDBRANCH  18  19
ENDBRANCH  17  18
ENDBRANCH  16  17
ENDBRANCH  15  16
ENDBRANCH  14  15
ENDBRANCH  13  14
ENDBRANCH   2  13
TORSDOF 15
ENDMDL
MODEL 5
REMARK VINA RESULT:    -4.941      3.126      7.108
REMARK INTER + INTRA:         -11.735
REMARK INTER:                 -10.353
REMARK INTRA:                  -1.382
REMARK UNBOUND:                -2.461
REMARK SMILES CCCCCCCCC=CCCCCCCCC(=O)[O-]
REMARK SMILES IDX 10 1 9 2 11 3 12 4 13 5 14 6 15 7 16 8 17 9 18 10 19 11
REMARK SMILES IDX 20 12 8 13 7 14 6 15 5 16 4 17 3 18 2 19 1 20
REMARK H PARENT
REMARK Flexibility Score: inf
ROOT
ATOM      1  C   UNL     1      16.269  -4.082 -15.502  1.00  0.00    -0.031 C 
ATOM      2  C   UNL     1      15.509  -3.345 -16.326  1.00  0.00    -0.031 C 
ENDROOT
BRANCH   1   3
ATOM      3  C   UNL     1      15.938  -4.225 -14.040  1.00  0.00     0.027 C 
BRANCH   3   4
ATOM      4  C   UNL     1      15.128  -5.497 -13.745  1.00  0.00     0.004 C 
BRANCH   4   5
ATOM      5  C   UNL     1      15.971  -6.770 -13.906  1.00  0.00     0.000 C 
BRANCH   5   6
ATOM      6  C   UNL     1      17.192  -6.742 -12.978  1.00  0.00     0.000 C 
BRANCH   6   7
ATOM      7  C   UNL     1      18.498  -6.800 -13.786  1.00  0.00     0.000 C 
BRANCH   7   8
ATOM      8  C   UNL     1      18.277  -7.240 -15.245  1.00  0.00     0.006 C 
BRANCH   8   9
ATOM      9  C   UNL     1      19.226  -6.576 -16.255  1.00  0.00     0.053 C 
BRANCH   9  10
ATOM     10  C   UNL     1      18.938  -7.007 -17.661  1.00  0.00     0.041 C 
ATOM     11  O   UNL     1      18.371  -6.219 -18.461  1.00  0.00    -0.550 OA
ATOM     12  O   UNL     1      19.268  -8.291 -18.076  1.00  0.00    -0.550 OA
ENDBRANCH   9  10
ENDBRANCH   8   9
ENDBRANCH   7   8
ENDBRANCH   6   7
ENDBRANCH   5   6
ENDBRANCH   4   5
ENDBRANCH   3   4
ENDBRANCH   1   3
BRANCH   2  13
ATOM     13  C   UNL     1      15.835  -3.210 -17.788  1.00  0.00     0.027 C 
BRANCH  13  14
ATOM     14  C   UNL     1      15.903  -1.736 -18.209  1.00  0.00     0.004 C 
BRANCH  14  15
ATOM     15  C   UNL     1      15.367  -1.549 -19.636  1.00  0.00     0.000 C 
BRANCH  15  16
ATOM     16  C   UNL     1      14.007  -0.835 -19.668  1.00  0.00     0.000 C 
BRANCH  16  17
ATOM     17  C   UNL     1      13.622  -0.231 -18.309  1.00  0.00    -0.000 C 
BRANCH  17  18
ATOM     18  C   UNL     1      12.292   0.526 -18.402  1.00  0.00    -0.000 C 
BRANCH  18  19
ATOM     19  C   UNL     1      11.397  -0.064 -19.499  1.00  0.00    -0.003 C 
ATOM     20  C   UNL     1      10.182  -0.768 -18.900  1.00  0.00     0.004 C 
ENDBRANCH  18  19
ENDBRANCH  17  18
ENDBRANCH  16  17
ENDBRANCH  15  16
ENDBRANCH  14  15
ENDBRANCH  13  14
ENDBRANCH   2  13
TORSDOF 15
ENDMDL
MODEL 6
REMARK VINA RESULT:    -4.907      2.544      4.503
REMARK INTER + INTRA:         -11.671
REMARK INTER:                  -8.641
REMARK INTRA:                  -3.030
REMARK UNBOUND:                -2.461
REMARK SMILES CCCCCCCCC=CCCCCCCCC(=O)[O-]
REMARK SMILES IDX 10 1 9 2 11 3 12 4 13 5 14 6 15 7 16 8 17 9 18 10 19 11
REMARK SMILES IDX 20 12 8 13 7 14 6 15 5 16 4 17 3 18 2 19 1 20
REMARK H PARENT
REMARK Flexibility Score: inf
ROOT
ATOM      1  C   UNL     1      21.463  -5.150 -14.874  1.00  0.00    -0.031 C 
ATOM      2  C   UNL     1      21.636  -4.996 -16.196  1.00  0.00    -0.031 C 
ENDROOT
BRANCH   1   3
ATOM      3  C   UNL     1      22.098  -6.289 -14.121  1.00  0.00     0.027 C 
BRANCH   3   4
ATOM      4  C   UNL     1      21.133  -6.938 -13.118  1.00  0.00     0.004 C 
BRANCH   4   5
ATOM      5  C   UNL     1      19.666  -6.796 -13.553  1.00  0.00     0.000 C 
BRANCH   5   6
ATOM      6  C   UNL     1      19.222  -8.002 -14.389  1.00  0.00     0.000 C 
BRANCH   6   7
ATOM      7  C   UNL     1      18.363  -7.557 -15.582  1.00  0.00     0.000 C 
BRANCH   7   8
ATOM      8  C   UNL     1      19.131  -7.596 -16.917  1.00  0.00     0.006 C 
BRANCH   8   9
ATOM      9  C   UNL     1      18.701  -6.517 -17.923  1.00  0.00     0.053 C 
BRANCH   9  10
ATOM     10  C   UNL     1      19.443  -6.633 -19.220  1.00  0.00     0.041 C 
ATOM     11  O   UNL     1      19.718  -5.601 -19.886  1.00  0.00    -0.550 OA
ATOM     12  O   UNL     1      19.802  -7.884 -19.706  1.00  0.00    -0.550 OA
ENDBRANCH   9  10
ENDBRANCH   8   9
ENDBRANCH   7   8
ENDBRANCH   6   7
ENDBRANCH   5   6
ENDBRANCH   4   5
ENDBRANCH   3   4
ENDBRANCH   1   3
BRANCH   2  13
ATOM     13  C   UNL     1      21.009  -3.853 -16.944  1.00  0.00     0.027 C 
BRANCH  13  14
ATOM     14  C   UNL     1      20.231  -2.929 -15.998  1.00  0.00     0.004 C 
BRANCH  14  15
ATOM     15  C   UNL     1      18.722  -3.016 -16.266  1.00  0.00     0.000 C 
BRANCH  15  16
ATOM     16  C   UNL     1      17.969  -3.782 -15.167  1.00  0.00     0.000 C 
BRANCH  16  17
ATOM     17  C   UNL     1      16.624  -4.345 -15.651  1.00  0.00    -0.000 C 
BRANCH  17  18
ATOM     18  C   UNL     1      15.749  -4.772 -14.467  1.00  0.00    -0.000 C 
BRANCH  18  19
ATOM     19  C   UNL     1      16.523  -4.675 -13.147  1.00  0.00    -0.003 C 
ATOM     20  C   UNL     1      16.157  -5.821 -12.208  1.00  0.00     0.004 C 
ENDBRANCH  18  19
ENDBRANCH  17  18
ENDBRANCH  16  17
ENDBRANCH  15  16
ENDBRANCH  14  15
ENDBRANCH  13  14
ENDBRANCH   2  13
TORSDOF 15
ENDMDL
MODEL 7
REMARK VINA RESULT:    -4.900      2.869      6.425
REMARK INTER + INTRA:         -11.658
REMARK INTER:                 -10.040
REMARK INTRA:                  -1.618
REMARK UNBOUND:                -2.461
REMARK SMILES CCCCCCCCC=CCCCCCCCC(=O)[O-]
REMARK SMILES IDX 10 1 9 2 11 3 12 4 13 5 14 6 15 7 16 8 17 9 18 10 19 11
REMARK SMILES IDX 20 12 8 13 7 14 6 15 5 16 4 17 3 18 2 19 1 20
REMARK H PARENT
REMARK Flexibility Score: inf
ROOT
ATOM      1  C   UNL     1      17.991  -2.954 -16.312  1.00  0.00    -0.031 C 
ATOM      2  C   UNL     1      17.022  -3.759 -16.771  1.00  0.00    -0.031 C 
ENDROOT
BRANCH   1   3
ATOM      3  C   UNL     1      19.366  -3.476 -15.990  1.00  0.00     0.027 C 
BRANCH   3   4
ATOM      4  C   UNL     1      19.545  -4.944 -16.403  1.00  0.00     0.004 C 
BRANCH   4   5
ATOM      5  C   UNL     1      20.545  -5.682 -15.500  1.00  0.00     0.000 C 
BRANCH   5   6
ATOM      6  C   UNL     1      19.854  -6.805 -14.717  1.00  0.00     0.000 C 
BRANCH   6   7
ATOM      7  C   UNL     1      18.364  -6.892 -15.081  1.00  0.00     0.000 C 
BRANCH   7   8
ATOM      8  C   UNL     1      17.443  -6.780 -13.852  1.00  0.00     0.006 C 
BRANCH   8   9
ATOM      9  C   UNL     1      16.035  -6.248 -14.164  1.00  0.00     0.053 C 
BRANCH   9  10
ATOM     10  C   UNL     1      15.664  -5.095 -13.282  1.00  0.00     0.041 C 
ATOM     11  O   UNL     1      16.497  -4.181 -13.050  1.00  0.00    -0.550 OA
ATOM     12  O   UNL     1      14.407  -5.049 -12.691  1.00  0.00    -0.550 OA
ENDBRANCH   9  10
ENDBRANCH   8   9
ENDBRANCH   7   8
ENDBRANCH   6   7
ENDBRANCH   5   6
ENDBRANCH   4   5
ENDBRANCH   3   4
ENDBRANCH   1   3
BRANCH   2  13
ATOM     13  C   UNL     1      15.652  -3.234 -17.101  1.00  0.00     0.027 C 
BRANCH  13  14
ATOM     14  C   UNL     1      15.685  -1.724 -17.369  1.00  0.00     0.004 C 
BRANCH  14  15
ATOM     15  C   UNL     1      15.648  -1.434 -18.876  1.00  0.00     0.000 C 
BRANCH  15  16
ATOM     16  C   UNL     1      14.282  -0.906 -19.344  1.00  0.00     0.000 C 
BRANCH  16  17
ATOM     17  C   UNL     1      13.551  -0.106 -18.256  1.00  0.00    -0.000 C 
BRANCH  17  18
ATOM     18  C   UNL     1      12.136   0.273 -18.709  1.00  0.00    -0.000 C 
BRANCH  18  19
ATOM     19  C   UNL     1      11.370  -0.959 -19.209  1.00  0.00    -0.003 C 
ATOM     20  C   UNL     1       9.865  -0.781 -19.031  1.00  0.00     0.004 C 
ENDBRANCH  18  19
ENDBRANCH  17  18
ENDBRANCH  16  17
ENDBRANCH  15  16
ENDBRANCH  14  15
ENDBRANCH  13  14
ENDBRANCH   2  13
TORSDOF 15
ENDMDL
MODEL 8
REMARK VINA RESULT:    -4.887      5.245      8.251
REMARK INTER + INTRA:         -11.634
REMARK INTER:                  -9.615
REMARK INTRA:                  -2.019
REMARK UNBOUND:                -2.461
REMARK SMILES CCCCCCCCC=CCCCCCCCC(=O)[O-]
REMARK SMILES IDX 10 1 9 2 11 3 12 4 13 5 14 6 15 7 16 8 17 9 18 10 19 11
REMARK SMILES IDX 20 12 8 13 7 14 6 15 5 16 4 17 3 18 2 19 1 20
REMARK H PARENT
REMARK Flexibility Score: inf
ROOT
ATOM      1  C   UNL     1      17.199  -6.319 -13.137  1.00  0.00    -0.031 C 
ATOM      2  C   UNL     1      15.941  -6.512 -13.560  1.00  0.00    -0.031 C 
ENDROOT
BRANCH   1   3
ATOM      3  C   UNL     1      18.046  -7.457 -12.632  1.00  0.00     0.027 C 
BRANCH   3   4
ATOM      4  C   UNL     1      19.496  -7.374 -13.132  1.00  0.00     0.004 C 
BRANCH   4   5
ATOM      5  C   UNL     1      20.122  -8.764 -13.324  1.00  0.00     0.000 C 
BRANCH   5   6
ATOM      6  C   UNL     1      21.617  -8.745 -12.982  1.00  0.00     0.000 C 
BRANCH   6   7
ATOM      7  C   UNL     1      21.932  -9.728 -11.844  1.00  0.00     0.000 C 
BRANCH   7   8
ATOM      8  C   UNL     1      20.689 -10.099 -11.016  1.00  0.00     0.006 C 
BRANCH   8   9
ATOM      9  C   UNL     1      20.939 -11.181  -9.953  1.00  0.00     0.053 C 
BRANCH   9  10
ATOM     10  C   UNL     1      21.327 -10.590  -8.632  1.00  0.00     0.041 C 
ATOM     11  O   UNL     1      21.213  -9.353  -8.434  1.00  0.00    -0.550 OA
ATOM     12  O   UNL     1      21.847 -11.403  -7.632  1.00  0.00    -0.550 OA
ENDBRANCH   9  10
ENDBRANCH   8   9
ENDBRANCH   7   8
ENDBRANCH   6   7
ENDBRANCH   5   6
ENDBRANCH   4   5
ENDBRANCH   3   4
ENDBRANCH   1   3
BRANCH   2  13
ATOM     13  C   UNL     1      15.100  -5.376 -14.073  1.00  0.00     0.027 C 
BRANCH  13  14
ATOM     14  C   UNL     1      15.962  -4.148 -14.396  1.00  0.00     0.004 C 
BRANCH  14  15
ATOM     15  C   UNL     1      15.835  -3.763 -15.877  1.00  0.00     0.000 C 
BRANCH  15  16
ATOM     16  C   UNL     1      17.198  -3.643 -16.577  1.00  0.00     0.000 C 
BRANCH  16  17
ATOM     17  C   UNL     1      18.378  -3.742 -15.598  1.00  0.00    -0.000 C 
BRANCH  17  18
ATOM     18  C   UNL     1      19.233  -4.980 -15.891  1.00  0.00    -0.000 C 
BRANCH  18  19
ATOM     19  C   UNL     1      18.444  -6.014 -16.704  1.00  0.00    -0.003 C 
ATOM     20  C   UNL     1      19.209  -7.330 -16.812  1.00  0.00     0.004 C 
ENDBRANCH  18  19
ENDBRANCH  17  18
ENDBRANCH  16  17
ENDBRANCH  15  16
ENDBRANCH  14  15
ENDBRANCH  13  14
ENDBRANCH   2  13
TORSDOF 15
ENDMDL
MODEL 9
REMARK VINA RESULT:    -4.887      2.343      6.235
REMARK INTER + INTRA:         -11.634
REMARK INTER:                  -9.495
REMARK INTRA:                  -2.139
REMARK UNBOUND:                -2.461
REMARK SMILES CCCCCCCCC=CCCCCCCCC(=O)[O-]
REMARK SMILES IDX 10 1 9 2 11 3 12 4 13 5 14 6 15 7 16 8 17 9 18 10 19 11
REMARK SMILES IDX 20 12 8 13 7 14 6 15 5 16 4 17 3 18 2 19 1 20
REMARK H PARENT
REMARK Flexibility Score: inf
ROOT
ATOM      1  C   UNL     1      15.207  -4.464 -14.840  1.00  0.00    -0.031 C 
ATOM      2  C   UNL     1      16.322  -4.094 -15.487  1.00  0.00    -0.031 C 
ENDROOT
BRANCH   1   3
ATOM      3  C   UNL     1      15.258  -5.329 -13.608  1.00  0.00     0.027 C 
BRANCH   3   4
ATOM      4  C   UNL     1      16.046  -6.627 -13.838  1.00  0.00     0.004 C 
BRANCH   4   5
ATOM      5  C   UNL     1      17.238  -6.758 -12.878  1.00  0.00     0.000 C 
BRANCH   5   6
ATOM      6  C   UNL     1      18.533  -7.052 -13.647  1.00  0.00     0.000 C 
BRANCH   6   7
ATOM      7  C   UNL     1      18.249  -7.258 -15.142  1.00  0.00     0.000 C 
BRANCH   7   8
ATOM      8  C   UNL     1      19.219  -6.475 -16.046  1.00  0.00     0.006 C 
BRANCH   8   9
ATOM      9  C   UNL     1      19.816  -5.218 -15.392  1.00  0.00     0.053 C 
BRANCH   9  10
ATOM     10  C   UNL     1      20.057  -4.127 -16.391  1.00  0.00     0.041 C 
ATOM     11  O   UNL     1      19.782  -2.934 -16.103  1.00  0.00    -0.550 OA
ATOM     12  O   UNL     1      20.555  -4.436 -17.651  1.00  0.00    -0.550 OA
ENDBRANCH   9  10
ENDBRANCH   8   9
ENDBRANCH   7   8
ENDBRANCH   6   7
ENDBRANCH   5   6
ENDBRANCH   4   5
ENDBRANCH   3   4
ENDBRANCH   1   3
BRANCH   2  13
ATOM     13  C   UNL     1      16.270  -3.223 -16.712  1.00  0.00     0.027 C 
BRANCH  13  14
ATOM     14  C   UNL     1      16.639  -4.014 -17.973  1.00  0.00     0.004 C 
BRANCH  14  15
ATOM     15  C   UNL     1      16.131  -3.301 -19.235  1.00  0.00     0.000 C 
BRANCH  15  16
ATOM     16  C   UNL     1      14.704  -3.721 -19.618  1.00  0.00     0.000 C 
BRANCH  16  17
ATOM     17  C   UNL     1      13.672  -2.611 -19.370  1.00  0.00    -0.000 C 
BRANCH  17  18
ATOM     18  C   UNL     1      14.337  -1.230 -19.381  1.00  0.00    -0.000 C 
BRANCH  18  19
ATOM     19  C   UNL     1      13.839  -0.369 -18.214  1.00  0.00    -0.003 C 
ATOM     20  C   UNL     1      12.640   0.480 -18.627  1.00  0.00     0.004 C 
ENDBRANCH  18  19
ENDBRANCH  17  18
ENDBRANCH  16  17
ENDBRANCH  15  16
ENDBRANCH  14  15
ENDBRANCH  13  14
ENDBRANCH   2  13
TORSDOF 15
ENDMDL
