MODEL 1
REMARK VINA RESULT:    -3.704      0.000      0.000
REMARK INTER + INTRA:          -4.403
REMARK INTER:                  -4.354
REMARK INTRA:                  -0.049
REMARK UNBOUND:                -0.049
REMARK SMILES CCCCC(=O)[O-]
REMARK SMILES IDX 4 1 5 2 6 3 7 4 3 5 2 6 1 7
REMARK H PARENT
REMARK Flexibility Score: inf
ROOT
ATOM      1  C   UNL     1     -16.451  -5.478  39.180  1.00  0.00     0.053 C 
ENDROOT
BRANCH   1   2
ATOM      2  C   UNL     1     -17.373  -6.563  39.643  1.00  0.00     0.041 C 
ATOM      3  O   UNL     1     -17.771  -7.443  38.834  1.00  0.00    -0.550 OA
ATOM      4  O   UNL     1     -17.832  -6.573  40.953  1.00  0.00    -0.550 OA
ENDBRANCH   1   2
BRANCH   1   5
ATOM      5  C   UNL     1     -15.092  -6.062  38.782  1.00  0.00     0.006 C 
BRANCH   5   6
ATOM      6  C   UNL     1     -14.867  -5.945  37.270  1.00  0.00    -0.003 C 
ATOM      7  C   UNL     1     -13.713  -6.835  36.815  1.00  0.00     0.004 C 
ENDBRANCH   5   6
ENDBRANCH   1   5
TORSDOF 3
ENDMDL
MODEL 2
REMARK VINA RESULT:    -3.635      1.083      1.495
REMARK INTER + INTRA:          -4.322
REMARK INTER:                  -4.263
REMARK INTRA:                  -0.058
REMARK UNBOUND:                -0.049
REMARK SMILES CCCCC(=O)[O-]
REMARK SMILES IDX 4 1 5 2 6 3 7 4 3 5 2 6 1 7
REMARK H PARENT
REMARK Flexibility Score: inf
ROOT
ATOM      1  C   UNL     1     -15.188  -6.142  38.684  1.00  0.00     0.053 C 
ENDROOT
BRANCH   1   2
ATOM      2  C   UNL     1     -16.675  -6.226  38.823  1.00  0.00     0.041 C 
ATOM      3  O   UNL     1     -17.280  -7.292  38.531  1.00  0.00    -0.550 OA
ATOM      4  O   UNL     1     -17.399  -5.112  39.227  1.00  0.00    -0.550 OA
ENDBRANCH   1   2
BRANCH   1   5
ATOM      5  C   UNL     1     -14.802  -5.799  37.242  1.00  0.00     0.006 C 
BRANCH   5   6
ATOM      6  C   UNL     1     -13.902  -6.886  36.642  1.00  0.00    -0.003 C 
ATOM      7  C   UNL     1     -12.869  -7.368  37.658  1.00  0.00     0.004 C 
ENDBRANCH   5   6
ENDBRANCH   1   5
TORSDOF 3
ENDMDL
MODEL 3
REMARK VINA RESULT:    -3.552      2.961      4.062
REMARK INTER + INTRA:          -4.224
REMARK INTER:                  -4.123
REMARK INTRA:                  -0.101
REMARK UNBOUND:                -0.049
REMARK SMILES CCCCC(=O)[O-]
REMARK SMILES IDX 4 1 5 2 6 3 7 4 3 5 2 6 1 7
REMARK H PARENT
REMARK Flexibility Score: inf
ROOT
ATOM      1  C   UNL     1     -14.000  -6.496  38.553  1.00  0.00     0.053 C 
ENDROOT
BRANCH   1   2
ATOM      2  C   UNL     1     -13.545  -6.882  37.180  1.00  0.00     0.041 C 
ATOM      3  O   UNL     1     -14.191  -6.498  36.168  1.00  0.00    -0.550 OA
ATOM      4  O   UNL     1     -12.439  -7.705  37.020  1.00  0.00    -0.550 OA
ENDBRANCH   1   2
BRANCH   1   5
ATOM      5  C   UNL     1     -14.830  -5.211  38.502  1.00  0.00     0.006 C 
BRANCH   5   6
ATOM      6  C   UNL     1     -16.171  -5.396  39.221  1.00  0.00    -0.003 C 
ATOM      7  C   UNL     1     -16.966  -6.550  38.616  1.00  0.00     0.004 C 
ENDBRANCH   5   6
ENDBRANCH   1   5
TORSDOF 3
ENDMDL
MODEL 4
REMARK VINA RESULT:    -3.388      2.439      3.426
REMARK INTER + INTRA:          -4.032
REMARK INTER:                  -4.016
REMARK INTRA:                  -0.016
REMARK UNBOUND:                -0.049
REMARK SMILES CCCCC(=O)[O-]
REMARK SMILES IDX 4 1 5 2 6 3 7 4 3 5 2 6 1 7
REMARK H PARENT
REMARK Flexibility Score: inf
ROOT
ATOM      1  C   UNL     1     -13.979  -6.666  37.079  1.00  0.00     0.053 C 
ENDROOT
BRANCH   1   2
ATOM      2  C   UNL     1     -14.965  -5.924  37.925  1.00  0.00     0.041 C 
ATOM      3  O   UNL     1     -14.631  -4.850  38.493  1.00  0.00    -0.550 OA
ATOM      4  O   UNL     1     -16.236  -6.444  38.129  1.00  0.00    -0.550 OA
ENDBRANCH   1   2
BRANCH   1   5
ATOM      5  C   UNL     1     -12.894  -7.303  37.951  1.00  0.00     0.006 C 
BRANCH   5   6
ATOM      6  C   UNL     1     -12.029  -8.268  37.133  1.00  0.00    -0.003 C 
ATOM      7  C   UNL     1     -11.160  -9.134  38.042  1.00  0.00     0.004 C 
ENDBRANCH   5   6
ENDBRANCH   1   5
TORSDOF 3
ENDMDL
MODEL 5
REMARK VINA RESULT:    -3.379      3.287      4.396
REMARK INTER + INTRA:          -4.021
REMARK INTER:                  -3.997
REMARK INTRA:                  -0.024
REMARK UNBOUND:                -0.049
REMARK SMILES CCCCC(=O)[O-]
REMARK SMILES IDX 4 1 5 2 6 3 7 4 3 5 2 6 1 7
REMARK H PARENT
REMARK Flexibility Score: inf
ROOT
ATOM      1  C   UNL     1     -13.640  -6.876  37.221  1.00  0.00     0.053 C 
ENDROOT
BRANCH   1   2
ATOM      2  C   UNL     1     -12.503  -7.634  37.831  1.00  0.00     0.041 C 
ATOM      3  O   UNL     1     -11.917  -8.535  37.174  1.00  0.00    -0.550 OA
ATOM      4  O   UNL     1     -12.124  -7.381  39.143  1.00  0.00    -0.550 OA
ENDBRANCH   1   2
BRANCH   1   5
ATOM      5  C   UNL     1     -14.420  -6.118  38.298  1.00  0.00     0.006 C 
BRANCH   5   6
ATOM      6  C   UNL     1     -15.929  -6.193  38.037  1.00  0.00    -0.003 C 
ATOM      7  C   UNL     1     -16.723  -5.747  39.263  1.00  0.00     0.004 C 
ENDBRANCH   5   6
ENDBRANCH   1   5
TORSDOF 3
ENDMDL
MODEL 6
REMARK VINA RESULT:    -3.254      2.175      2.627
REMARK INTER + INTRA:          -3.874
REMARK INTER:                  -3.769
REMARK INTRA:                  -0.105
REMARK UNBOUND:                -0.049
REMARK SMILES CCCCC(=O)[O-]
REMARK SMILES IDX 4 1 5 2 6 3 7 4 3 5 2 6 1 7
REMARK H PARENT
REMARK Flexibility Score: inf
ROOT
ATOM      1  C   UNL     1     -15.095  -5.093  39.325  1.00  0.00     0.053 C 
ENDROOT
BRANCH   1   2
ATOM      2  C   UNL     1     -14.590  -5.823  40.530  1.00  0.00     0.041 C 
ATOM      3  O   UNL     1     -15.306  -5.910  41.563  1.00  0.00    -0.550 OA
ATOM      4  O   UNL     1     -13.311  -6.362  40.531  1.00  0.00    -0.550 OA
ENDBRANCH   1   2
BRANCH   1   5
ATOM      5  C   UNL     1     -15.596  -6.082  38.269  1.00  0.00     0.006 C 
BRANCH   5   6
ATOM      6  C   UNL     1     -14.767  -5.979  36.983  1.00  0.00    -0.003 C 
ATOM      7  C   UNL     1     -13.607  -6.971  36.995  1.00  0.00     0.004 C 
ENDBRANCH   5   6
ENDBRANCH   1   5
TORSDOF 3
ENDMDL
MODEL 7
REMARK VINA RESULT:    -3.243      8.082      9.206
REMARK INTER + INTRA:          -3.861
REMARK INTER:                  -3.770
REMARK INTRA:                  -0.092
REMARK UNBOUND:                -0.049
REMARK SMILES CCCCC(=O)[O-]
REMARK SMILES IDX 4 1 5 2 6 3 7 4 3 5 2 6 1 7
REMARK H PARENT
REMARK Flexibility Score: inf
ROOT
ATOM      1  C   UNL     1     -15.155 -11.409  46.879  1.00  0.00     0.053 C 
ENDROOT
BRANCH   1   2
ATOM      2  C   UNL     1     -15.720 -10.681  48.058  1.00  0.00     0.041 C 
ATOM      3  O   UNL     1     -15.133 -10.727  49.172  1.00  0.00    -0.550 OA
ATOM      4  O   UNL     1     -16.921  -9.993  47.940  1.00  0.00    -0.550 OA
ENDBRANCH   1   2
BRANCH   1   5
ATOM      5  C   UNL     1     -15.097 -10.489  45.657  1.00  0.00     0.006 C 
BRANCH   5   6
ATOM      6  C   UNL     1     -16.149 -10.891  44.617  1.00  0.00    -0.003 C 
ATOM      7  C   UNL     1     -17.005  -9.695  44.208  1.00  0.00     0.004 C 
ENDBRANCH   5   6
ENDBRANCH   1   5
TORSDOF 3
ENDMDL
MODEL 8
REMARK VINA RESULT:    -3.232      2.565      3.807
REMARK INTER + INTRA:          -3.848
REMARK INTER:                  -3.798
REMARK INTRA:                  -0.050
REMARK UNBOUND:                -0.049
REMARK SMILES CCCCC(=O)[O-]
REMARK SMILES IDX 4 1 5 2 6 3 7 4 3 5 2 6 1 7
REMARK H PARENT
REMARK Flexibility Score: inf
ROOT
ATOM      1  C   UNL     1     -15.506  -5.586  39.183  1.00  0.00     0.053 C 
ENDROOT
BRANCH   1   2
ATOM      2  C   UNL     1     -14.540  -6.054  38.140  1.00  0.00     0.041 C 
ATOM      3  O   UNL     1     -14.776  -5.848  36.920  1.00  0.00    -0.550 OA
ATOM      4  O   UNL     1     -13.404  -6.760  38.513  1.00  0.00    -0.550 OA
ENDBRANCH   1   2
BRANCH   1   5
ATOM      5  C   UNL     1     -16.938  -5.965  38.796  1.00  0.00     0.006 C 
BRANCH   5   6
ATOM      6  C   UNL     1     -17.624  -6.742  39.926  1.00  0.00    -0.003 C 
ATOM      7  C   UNL     1     -16.958  -6.462  41.270  1.00  0.00     0.004 C 
ENDBRANCH   5   6
ENDBRANCH   1   5
TORSDOF 3
ENDMDL
MODEL 9
REMARK VINA RESULT:    -3.163      7.489      8.640
REMARK INTER + INTRA:          -3.767
REMARK INTER:                  -3.722
REMARK INTRA:                  -0.045
REMARK UNBOUND:                -0.049
REMARK SMILES CCCCC(=O)[O-]
REMARK SMILES IDX 4 1 5 2 6 3 7 4 3 5 2 6 1 7
REMARK H PARENT
REMARK Flexibility Score: inf
ROOT
ATOM      1  C   UNL     1     -15.880 -10.879  44.882  1.00  0.00     0.053 C 
ENDROOT
BRANCH   1   2
ATOM      2  C   UNL     1     -16.978  -9.877  44.709  1.00  0.00     0.041 C 
ATOM      3  O   UNL     1     -17.568  -9.404  45.717  1.00  0.00    -0.550 OA
ATOM      4  O   UNL     1     -17.384  -9.504  43.435  1.00  0.00    -0.550 OA
ENDBRANCH   1   2
BRANCH   1   5
ATOM      5  C   UNL     1     -15.097 -10.601  46.168  1.00  0.00     0.006 C 
BRANCH   5   6
ATOM      6  C   UNL     1     -15.327 -11.711  47.201  1.00  0.00    -0.003 C 
ATOM      7  C   UNL     1     -14.019 -12.117  47.874  1.00  0.00     0.004 C 
ENDBRANCH   5   6
ENDBRANCH   1   5
TORSDOF 3
ENDMDL
