MODEL 1
REMARK VINA RESULT:    -4.122      0.000      0.000
REMARK INTER + INTRA:          -6.282
REMARK INTER:                  -5.568
REMARK INTRA:                  -0.714
REMARK UNBOUND:                -0.714
REMARK SMILES CCCCCCC=CC(=O)[O-]
REMARK SMILES IDX 5 1 6 2 7 3 8 4 9 5 10 6 11 7 4 8 3 9 2 10 1 11
REMARK H PARENT
REMARK Flexibility Score: inf
ROOT
ATOM      1  C   UNL     1      -8.553  25.841  24.767  1.00  0.00     0.004 C 
ENDROOT
BRANCH   1   2
ATOM      2  C   UNL     1      -7.182  25.940  24.081  1.00  0.00     0.027 C 
BRANCH   2   3
ATOM      3  C   UNL     1      -7.313  25.958  22.584  1.00  0.00    -0.025 C 
ATOM      4  C   UNL     1      -8.506  26.015  21.983  1.00  0.00     0.020 C 
BRANCH   4   5
ATOM      5  C   UNL     1      -8.649  26.058  20.519  1.00  0.00     0.064 C 
ATOM      6  O   UNL     1      -8.902  27.137  19.919  1.00  0.00    -0.545 OA
ATOM      7  O   UNL     1      -8.503  24.887  19.785  1.00  0.00    -0.545 OA
ENDBRANCH   4   5
ENDBRANCH   2   3
ENDBRANCH   1   2
BRANCH   1   8
ATOM      8  C   UNL     1      -8.879  27.021  25.704  1.00  0.00     0.000 C 
BRANCH   8   9
ATOM      9  C   UNL     1      -9.819  28.090  25.109  1.00  0.00    -0.000 C 
BRANCH   9  10
ATOM     10  C   UNL     1      -9.124  29.151  24.237  1.00  0.00    -0.003 C 
ATOM     11  C   UNL     1      -9.744  29.278  22.846  1.00  0.00     0.004 C 
ENDBRANCH   9  10
ENDBRANCH   8   9
ENDBRANCH   1   8
TORSDOF 6
ENDMDL
MODEL 2
REMARK VINA RESULT:    -3.911      3.481      5.225
REMARK INTER + INTRA:          -5.997
REMARK INTER:                  -5.352
REMARK INTRA:                  -0.645
REMARK UNBOUND:                -0.714
REMARK SMILES CCCCCCC=CC(=O)[O-]
REMARK SMILES IDX 5 1 6 2 7 3 8 4 9 5 10 6 11 7 4 8 3 9 2 10 1 11
REMARK H PARENT
REMARK Flexibility Score: inf
ROOT
ATOM      1  C   UNL     1      -8.035  26.232  21.935  1.00  0.00     0.004 C 
ENDROOT
BRANCH   1   2
ATOM      2  C   UNL     1      -7.270  25.905  23.226  1.00  0.00     0.027 C 
BRANCH   2   3
ATOM      3  C   UNL     1      -8.001  26.401  24.442  1.00  0.00    -0.025 C 
ATOM      4  C   UNL     1      -8.973  25.686  25.019  1.00  0.00     0.020 C 
BRANCH   4   5
ATOM      5  C   UNL     1      -9.681  26.147  26.224  1.00  0.00     0.064 C 
ATOM      6  O   UNL     1      -9.237  27.102  26.916  1.00  0.00    -0.545 OA
ATOM      7  O   UNL     1     -10.859  25.518  26.606  1.00  0.00    -0.545 OA
ENDBRANCH   4   5
ENDBRANCH   2   3
ENDBRANCH   1   2
BRANCH   1   8
ATOM      8  C   UNL     1      -8.246  25.023  21.000  1.00  0.00     0.000 C 
BRANCH   8   9
ATOM      9  C   UNL     1      -9.687  24.476  20.951  1.00  0.00    -0.000 C 
BRANCH   9  10
ATOM     10  C   UNL     1     -10.007  23.397  22.001  1.00  0.00    -0.003 C 
ATOM     11  C   UNL     1      -8.797  22.539  22.362  1.00  0.00     0.004 C 
ENDBRANCH   9  10
ENDBRANCH   8   9
ENDBRANCH   1   8
TORSDOF 6
ENDMDL
MODEL 3
REMARK VINA RESULT:    -3.879      2.745      4.695
REMARK INTER + INTRA:          -5.953
REMARK INTER:                  -5.591
REMARK INTRA:                  -0.362
REMARK UNBOUND:                -0.714
REMARK SMILES CCCCCCC=CC(=O)[O-]
REMARK SMILES IDX 5 1 6 2 7 3 8 4 9 5 10 6 11 7 4 8 3 9 2 10 1 11
REMARK H PARENT
REMARK Flexibility Score: inf
ROOT
ATOM      1  C   UNL     1      -7.258  25.803  22.471  1.00  0.00     0.004 C 
ENDROOT
BRANCH   1   2
ATOM      2  C   UNL     1      -7.923  26.048  23.833  1.00  0.00     0.027 C 
BRANCH   2   3
ATOM      3  C   UNL     1      -8.776  27.285  23.818  1.00  0.00    -0.025 C 
ATOM      4  C   UNL     1      -9.183  27.844  22.673  1.00  0.00     0.020 C 
BRANCH   4   5
ATOM      5  C   UNL     1     -10.038  29.042  22.643  1.00  0.00     0.064 C 
ATOM      6  O   UNL     1     -10.431  29.535  21.552  1.00  0.00    -0.545 OA
ATOM      7  O   UNL     1     -10.418  29.639  23.838  1.00  0.00    -0.545 OA
ENDBRANCH   4   5
ENDBRANCH   2   3
ENDBRANCH   1   2
BRANCH   1   8
ATOM      8  C   UNL     1      -7.732  24.521  21.755  1.00  0.00     0.000 C 
BRANCH   8   9
ATOM      9  C   UNL     1      -9.028  23.900  22.316  1.00  0.00    -0.000 C 
BRANCH   9  10
ATOM     10  C   UNL     1      -9.113  22.367  22.206  1.00  0.00    -0.003 C 
ATOM     11  C   UNL     1     -10.260  21.897  21.312  1.00  0.00     0.004 C 
ENDBRANCH   9  10
ENDBRANCH   8   9
ENDBRANCH   1   8
TORSDOF 6
ENDMDL
MODEL 4
REMARK VINA RESULT:    -3.826      1.301      1.691
REMARK INTER + INTRA:          -5.881
REMARK INTER:                  -5.281
REMARK INTRA:                  -0.600
REMARK UNBOUND:                -0.714
REMARK SMILES CCCCCCC=CC(=O)[O-]
REMARK SMILES IDX 5 1 6 2 7 3 8 4 9 5 10 6 11 7 4 8 3 9 2 10 1 11
REMARK H PARENT
REMARK Flexibility Score: inf
ROOT
ATOM      1  C   UNL     1      -7.395  26.005  24.155  1.00  0.00     0.004 C 
ENDROOT
BRANCH   1   2
ATOM      2  C   UNL     1      -6.995  25.861  22.679  1.00  0.00     0.027 C 
BRANCH   2   3
ATOM      3  C   UNL     1      -7.969  25.001  21.924  1.00  0.00    -0.025 C 
ATOM      4  C   UNL     1      -8.405  25.337  20.704  1.00  0.00     0.020 C 
BRANCH   4   5
ATOM      5  C   UNL     1      -9.339  24.493  19.942  1.00  0.00     0.064 C 
ATOM      6  O   UNL     1     -10.150  23.726  20.527  1.00  0.00    -0.545 OA
ATOM      7  O   UNL     1      -9.326  24.542  18.554  1.00  0.00    -0.545 OA
ENDBRANCH   4   5
ENDBRANCH   2   3
ENDBRANCH   1   2
BRANCH   1   8
ATOM      8  C   UNL     1      -8.774  26.657  24.378  1.00  0.00     0.000 C 
BRANCH   8   9
ATOM      9  C   UNL     1      -8.740  28.160  24.721  1.00  0.00    -0.000 C 
BRANCH   9  10
ATOM     10  C   UNL     1      -9.181  29.096  23.581  1.00  0.00    -0.003 C 
ATOM     11  C   UNL     1      -9.869  28.357  22.435  1.00  0.00     0.004 C 
ENDBRANCH   9  10
ENDBRANCH   8   9
ENDBRANCH   1   8
TORSDOF 6
ENDMDL
MODEL 5
REMARK VINA RESULT:    -3.821      3.665      5.541
REMARK INTER + INTRA:          -5.875
REMARK INTER:                  -5.621
REMARK INTRA:                  -0.254
REMARK UNBOUND:                -0.714
REMARK SMILES CCCCCCC=CC(=O)[O-]
REMARK SMILES IDX 5 1 6 2 7 3 8 4 9 5 10 6 11 7 4 8 3 9 2 10 1 11
REMARK H PARENT
REMARK Flexibility Score: inf
ROOT
ATOM      1  C   UNL     1      -8.346  24.400  21.343  1.00  0.00     0.004 C 
ENDROOT
BRANCH   1   2
ATOM      2  C   UNL     1      -7.390  25.261  22.182  1.00  0.00     0.027 C 
BRANCH   2   3
ATOM      3  C   UNL     1      -8.138  26.243  23.039  1.00  0.00    -0.025 C 
ATOM      4  C   UNL     1      -7.848  26.410  24.334  1.00  0.00     0.020 C 
BRANCH   4   5
ATOM      5  C   UNL     1      -8.555  27.384  25.181  1.00  0.00     0.064 C 
ATOM      6  O   UNL     1      -8.692  28.583  24.820  1.00  0.00    -0.545 OA
ATOM      7  O   UNL     1      -9.080  26.975  26.400  1.00  0.00    -0.545 OA
ENDBRANCH   4   5
ENDBRANCH   2   3
ENDBRANCH   1   2
BRANCH   1   8
ATOM      8  C   UNL     1      -8.789  23.092  22.031  1.00  0.00     0.000 C 
BRANCH   8   9
ATOM      9  C   UNL     1     -10.241  22.662  21.744  1.00  0.00    -0.000 C 
BRANCH   9  10
ATOM     10  C   UNL     1     -10.386  21.353  20.947  1.00  0.00    -0.003 C 
ATOM     11  C   UNL     1     -10.709  21.585  19.473  1.00  0.00     0.004 C 
ENDBRANCH   9  10
ENDBRANCH   8   9
ENDBRANCH   1   8
TORSDOF 6
ENDMDL
MODEL 6
REMARK VINA RESULT:    -3.798      1.387      2.049
REMARK INTER + INTRA:          -5.844
REMARK INTER:                  -5.120
REMARK INTRA:                  -0.724
REMARK UNBOUND:                -0.714
REMARK SMILES CCCCCCC=CC(=O)[O-]
REMARK SMILES IDX 5 1 6 2 7 3 8 4 9 5 10 6 11 7 4 8 3 9 2 10 1 11
REMARK H PARENT
REMARK Flexibility Score: inf
ROOT
ATOM      1  C   UNL     1      -8.944  27.670  25.039  1.00  0.00     0.004 C 
ENDROOT
BRANCH   1   2
ATOM      2  C   UNL     1      -7.782  26.710  24.748  1.00  0.00     0.027 C 
BRANCH   2   3
ATOM      3  C   UNL     1      -8.175  25.650  23.757  1.00  0.00    -0.025 C 
ATOM      4  C   UNL     1      -7.726  25.664  22.497  1.00  0.00     0.020 C 
BRANCH   4   5
ATOM      5  C   UNL     1      -8.082  24.621  21.522  1.00  0.00     0.064 C 
ATOM      6  O   UNL     1      -8.185  24.883  20.295  1.00  0.00    -0.545 OA
ATOM      7  O   UNL     1      -8.311  23.324  21.965  1.00  0.00    -0.545 OA
ENDBRANCH   4   5
ENDBRANCH   2   3
ENDBRANCH   1   2
BRANCH   1   8
ATOM      8  C   UNL     1      -8.789  29.066  24.400  1.00  0.00     0.000 C 
BRANCH   8   9
ATOM      9  C   UNL     1      -9.704  29.336  23.188  1.00  0.00    -0.000 C 
BRANCH   9  10
ATOM     10  C   UNL     1     -10.736  28.232  22.895  1.00  0.00    -0.003 C 
ATOM     11  C   UNL     1     -10.586  27.633  21.498  1.00  0.00     0.004 C 
ENDBRANCH   9  10
ENDBRANCH   8   9
ENDBRANCH   1   8
TORSDOF 6
ENDMDL
MODEL 7
REMARK VINA RESULT:    -3.797      2.165      3.578
REMARK INTER + INTRA:          -5.843
REMARK INTER:                  -5.147
REMARK INTRA:                  -0.696
REMARK UNBOUND:                -0.714
REMARK SMILES CCCCCCC=CC(=O)[O-]
REMARK SMILES IDX 5 1 6 2 7 3 8 4 9 5 10 6 11 7 4 8 3 9 2 10 1 11
REMARK H PARENT
REMARK Flexibility Score: inf
ROOT
ATOM      1  C   UNL     1      -7.965  24.885  22.077  1.00  0.00     0.004 C 
ENDROOT
BRANCH   1   2
ATOM      2  C   UNL     1      -8.603  25.480  20.812  1.00  0.00     0.027 C 
BRANCH   2   3
ATOM      3  C   UNL     1      -9.039  26.902  21.029  1.00  0.00    -0.025 C 
ATOM      4  C   UNL     1     -10.151  27.201  21.710  1.00  0.00     0.020 C 
BRANCH   4   5
ATOM      5  C   UNL     1     -10.577  28.589  21.951  1.00  0.00     0.064 C 
ATOM      6  O   UNL     1     -10.843  28.997  23.113  1.00  0.00    -0.545 OA
ATOM      7  O   UNL     1     -10.690  29.464  20.878  1.00  0.00    -0.545 OA
ENDBRANCH   4   5
ENDBRANCH   2   3
ENDBRANCH   1   2
BRANCH   1   8
ATOM      8  C   UNL     1      -6.963  25.822  22.782  1.00  0.00     0.000 C 
BRANCH   8   9
ATOM      9  C   UNL     1      -7.244  26.075  24.276  1.00  0.00    -0.000 C 
BRANCH   9  10
ATOM     10  C   UNL     1      -8.580  25.511  24.791  1.00  0.00    -0.003 C 
ATOM     11  C   UNL     1      -9.510  26.590  25.343  1.00  0.00     0.004 C 
ENDBRANCH   9  10
ENDBRANCH   8   9
ENDBRANCH   1   8
TORSDOF 6
ENDMDL
MODEL 8
REMARK VINA RESULT:    -3.775      2.401      4.388
REMARK INTER + INTRA:          -5.813
REMARK INTER:                  -5.181
REMARK INTRA:                  -0.632
REMARK UNBOUND:                -0.714
REMARK SMILES CCCCCCC=CC(=O)[O-]
REMARK SMILES IDX 5 1 6 2 7 3 8 4 9 5 10 6 11 7 4 8 3 9 2 10 1 11
REMARK H PARENT
REMARK Flexibility Score: inf
ROOT
ATOM      1  C   UNL     1      -7.377  26.026  23.952  1.00  0.00     0.004 C 
ENDROOT
BRANCH   1   2
ATOM      2  C   UNL     1      -8.843  25.781  24.340  1.00  0.00     0.027 C 
BRANCH   2   3
ATOM      3  C   UNL     1      -9.703  26.975  24.033  1.00  0.00    -0.025 C 
ATOM      4  C   UNL     1      -9.280  28.223  24.262  1.00  0.00     0.020 C 
BRANCH   4   5
ATOM      5  C   UNL     1     -10.102  29.403  23.946  1.00  0.00     0.064 C 
ATOM      6  O   UNL     1     -10.813  29.442  22.907  1.00  0.00    -0.545 OA
ATOM      7  O   UNL     1     -10.091  30.493  24.807  1.00  0.00    -0.545 OA
ENDBRANCH   4   5
ENDBRANCH   2   3
ENDBRANCH   1   2
BRANCH   1   8
ATOM      8  C   UNL     1      -7.046  25.695  22.482  1.00  0.00     0.000 C 
BRANCH   8   9
ATOM      9  C   UNL     1      -7.964  24.644  21.826  1.00  0.00    -0.000 C 
BRANCH   9  10
ATOM     10  C   UNL     1      -8.663  25.108  20.536  1.00  0.00    -0.003 C 
ATOM     11  C   UNL     1      -8.882  26.619  20.486  1.00  0.00     0.004 C 
ENDBRANCH   9  10
ENDBRANCH   8   9
ENDBRANCH   1   8
TORSDOF 6
ENDMDL
MODEL 9
REMARK VINA RESULT:    -3.575      1.173      2.800
REMARK INTER + INTRA:          -5.542
REMARK INTER:                  -4.785
REMARK INTRA:                  -0.757
REMARK UNBOUND:                -0.714
REMARK SMILES CCCCCCC=CC(=O)[O-]
REMARK SMILES IDX 5 1 6 2 7 3 8 4 9 5 10 6 11 7 4 8 3 9 2 10 1 11
REMARK H PARENT
REMARK Flexibility Score: inf
ROOT
ATOM      1  C   UNL     1      -9.238  29.073  22.832  1.00  0.00     0.004 C 
ENDROOT
BRANCH   1   2
ATOM      2  C   UNL     1     -10.461  28.354  22.243  1.00  0.00     0.027 C 
BRANCH   2   3
ATOM      3  C   UNL     1     -10.094  27.010  21.681  1.00  0.00    -0.025 C 
ATOM      4  C   UNL     1      -8.863  26.750  21.226  1.00  0.00     0.020 C 
BRANCH   4   5
ATOM      5  C   UNL     1      -8.483  25.431  20.694  1.00  0.00     0.064 C 
ATOM      6  O   UNL     1      -8.803  25.081  19.527  1.00  0.00    -0.545 OA
ATOM      7  O   UNL     1      -7.759  24.556  21.494  1.00  0.00    -0.545 OA
ENDBRANCH   4   5
ENDBRANCH   2   3
ENDBRANCH   1   2
BRANCH   1   8
ATOM      8  C   UNL     1      -9.278  29.242  24.364  1.00  0.00     0.000 C 
BRANCH   8   9
ATOM      9  C   UNL     1      -9.356  27.927  25.166  1.00  0.00    -0.000 C 
BRANCH   9  10
ATOM     10  C   UNL     1      -8.126  27.012  25.033  1.00  0.00    -0.003 C 
ATOM     11  C   UNL     1      -8.494  25.558  24.741  1.00  0.00     0.004 C 
ENDBRANCH   9  10
ENDBRANCH   8   9
ENDBRANCH   1   8
TORSDOF 6
ENDMDL
