MODEL 1
REMARK VINA RESULT:    -2.744      0.000      0.000
REMARK INTER + INTRA:          -4.417
REMARK INTER:                  -4.188
REMARK INTRA:                  -0.229
REMARK UNBOUND:                -0.229
REMARK SMILES CC1=CCC[C@@H](C)C(=O)C[C@H](C(C)C)C(=O)C1
REMARK SMILES IDX 8 1 9 2 6 3 7 4 5 5 4 6 3 7 2 8 1 9 10 11 11 12 15 13 16 14
REMARK SMILES IDX 17 15 12 17 13 18 14 19
REMARK H PARENT
REMARK Flexibility Score: 70.00
ROOT
ATOM      1  C   UNL     1     188.294 182.173 226.735  1.00  0.00     0.136 C 
ATOM      2  O   UNL     1     187.326 181.918 227.438  1.00  0.00    -0.299 OA
ENDROOT
BRANCH   1   3
ATOM      3  C   UNL     1     189.323 183.181 227.205  1.00  0.00     0.053 C 
ATOM      4  C   UNL     1     189.597 182.966 228.697  1.00  0.00     0.016 C 
BRANCH   3   5
ATOM      5  C   UNL     1     188.862 184.634 226.948  1.00  0.00     0.015 C 
BRANCH   5   6
ATOM      6  C   UNL     1     189.717 185.365 225.902  1.00  0.00     0.028 C 
BRANCH   6   7
ATOM      7  C   UNL     1     191.051 184.682 225.708  1.00  0.00    -0.028 C 
ATOM      8  C   UNL     1     191.431 183.991 224.610  1.00  0.00    -0.070 CG0
ATOM      9  C   UNL     1     192.810 183.379 224.601  1.00  0.00     0.039 C 
ATOM     10  G   UNL     1     190.529 183.777 223.410  1.00  0.00     0.000 G0
ENDBRANCH   6   7
ENDBRANCH   5   6
ENDBRANCH   3   5
ENDBRANCH   1   3
BRANCH   1  11
ATOM     11  C   UNL     1     188.449 181.457 225.418  1.00  0.00     0.087 C 
BRANCH  11  12
ATOM     12  C   UNL     1     188.399 182.438 224.218  1.00  0.00     0.066 C 
BRANCH  12  13
ATOM     13  C   UNL     1     189.733 182.479 223.493  1.00  0.00     0.140 C 
ATOM     14  O   UNL     1     190.161 181.471 222.949  1.00  0.00    -0.299 OA
BRANCH  13  15
ATOM     15  C   UNL     1     190.524 183.756 223.380  1.00  0.00     0.106 CG0
ATOM     16  G   UNL     1     191.404 183.957 224.598  1.00  0.00     0.000 G0
ENDBRANCH  13  15
ENDBRANCH  12  13
BRANCH  12  17
ATOM     17  C   UNL     1     187.244 182.134 223.213  1.00  0.00    -0.006 C 
ATOM     18  C   UNL     1     186.713 180.691 223.292  1.00  0.00     0.008 C 
ATOM     19  C   UNL     1     186.082 183.130 223.363  1.00  0.00     0.008 C 
ENDBRANCH  12  17
ENDBRANCH  11  12
ENDBRANCH   1  11
TORSDOF 1
ENDMDL
MODEL 2
REMARK VINA RESULT:    -2.582     13.718     15.325
REMARK INTER + INTRA:          -4.170
REMARK INTER:                  -3.859
REMARK INTRA:                  -0.311
REMARK UNBOUND:                -0.229
REMARK SMILES CC1=CCC[C@@H](C)C(=O)C[C@H](C(C)C)C(=O)C1
REMARK SMILES IDX 8 1 9 2 6 3 7 4 5 5 4 6 3 7 2 8 1 9 10 11 11 12 15 13 16 14
REMARK SMILES IDX 17 15 12 17 13 18 14 19
REMARK H PARENT
REMARK Flexibility Score: 70.00
ROOT
ATOM      1  C   UNL     1     179.946 180.235 236.756  1.00  0.00     0.136 C 
ATOM      2  O   UNL     1     180.370 180.335 237.899  1.00  0.00    -0.299 OA
ENDROOT
BRANCH   1   3
ATOM      3  C   UNL     1     178.467 180.417 236.482  1.00  0.00     0.053 C 
ATOM      4  C   UNL     1     178.020 181.788 236.998  1.00  0.00     0.016 C 
BRANCH   3   5
ATOM      5  C   UNL     1     177.621 179.298 237.132  1.00  0.00     0.015 C 
BRANCH   5   6
ATOM      6  C   UNL     1     177.362 178.110 236.193  1.00  0.00     0.028 C 
BRANCH   6   7
ATOM      7  C   UNL     1     177.109 178.574 234.778  1.00  0.00    -0.028 C 
ATOM      8  C   UNL     1     177.845 178.240 233.694  1.00  0.00    -0.070 CG0
ATOM      9  C   UNL     1     177.433 178.804 232.357  1.00  0.00     0.039 C 
ATOM     10  G   UNL     1     179.076 177.358 233.767  1.00  0.00     0.000 G0
ENDBRANCH   6   7
ENDBRANCH   5   6
ENDBRANCH   3   5
ENDBRANCH   1   3
BRANCH   1  11
ATOM     11  C   UNL     1     180.917 179.954 235.639  1.00  0.00     0.087 C 
BRANCH  11  12
ATOM     12  C   UNL     1     180.971 178.446 235.287  1.00  0.00     0.066 C 
BRANCH  12  13
ATOM     13  C   UNL     1     180.355 178.183 233.923  1.00  0.00     0.140 C 
ATOM     14  O   UNL     1     180.905 178.605 232.916  1.00  0.00    -0.299 OA
BRANCH  13  15
ATOM     15  C   UNL     1     179.101 177.361 233.775  1.00  0.00     0.106 CG0
ATOM     16  G   UNL     1     177.875 178.251 233.714  1.00  0.00     0.000 G0
ENDBRANCH  13  15
ENDBRANCH  12  13
BRANCH  12  17
ATOM     17  C   UNL     1     182.408 177.840 235.360  1.00  0.00    -0.006 C 
ATOM     18  C   UNL     1     183.306 178.493 236.426  1.00  0.00     0.008 C 
ATOM     19  C   UNL     1     182.374 176.316 235.563  1.00  0.00     0.008 C 
ENDBRANCH  12  17
ENDBRANCH  11  12
ENDBRANCH   1  11
TORSDOF 1
ENDMDL
MODEL 3
REMARK VINA RESULT:    -2.575      2.427      4.847
REMARK INTER + INTRA:          -4.158
REMARK INTER:                  -4.340
REMARK INTRA:                   0.181
REMARK UNBOUND:                -0.229
REMARK SMILES CC1=CCC[C@@H](C)C(=O)C[C@H](C(C)C)C(=O)C1
REMARK SMILES IDX 8 1 9 2 6 3 7 4 5 5 4 6 3 7 2 8 1 9 10 11 11 12 15 13 16 14
REMARK SMILES IDX 17 15 12 17 13 18 14 19
REMARK H PARENT
REMARK Flexibility Score: 70.00
ROOT
ATOM      1  C   UNL     1     188.397 181.770 224.345  1.00  0.00     0.136 C 
ATOM      2  O   UNL     1     189.217 181.182 223.654  1.00  0.00    -0.299 OA
ENDROOT
BRANCH   1   3
ATOM      3  C   UNL     1     186.918 181.501 224.155  1.00  0.00     0.053 C 
ATOM      4  C   UNL     1     186.735 180.384 223.121  1.00  0.00     0.016 C 
BRANCH   3   5
ATOM      5  C   UNL     1     186.155 182.770 223.714  1.00  0.00     0.015 C 
BRANCH   5   6
ATOM      6  C   UNL     1     185.552 183.555 224.889  1.00  0.00     0.028 C 
BRANCH   6   7
ATOM      7  C   UNL     1     185.559 185.041 224.618  1.00  0.00    -0.028 C 
ATOM      8  C   UNL     1     186.561 185.896 224.927  1.00  0.00    -0.070 CG0
ATOM      9  C   UNL     1     186.384 187.351 224.574  1.00  0.00     0.039 C 
ATOM     10  G   UNL     1     187.830 185.464 225.637  1.00  0.00     0.000 G0
ENDBRANCH   6   7
ENDBRANCH   5   6
ENDBRANCH   3   5
ENDBRANCH   1   3
BRANCH   1  11
ATOM     11  C   UNL     1     188.884 182.740 225.391  1.00  0.00     0.087 C 
BRANCH  11  12
ATOM     12  C   UNL     1     189.749 183.868 224.774  1.00  0.00     0.066 C 
BRANCH  12  13
ATOM     13  C   UNL     1     188.967 185.168 224.688  1.00  0.00     0.140 C 
ATOM     14  O   UNL     1     189.209 185.965 223.793  1.00  0.00    -0.299 OA
BRANCH  13  15
ATOM     15  C   UNL     1     187.853 185.477 225.654  1.00  0.00     0.106 CG0
ATOM     16  G   UNL     1     186.592 185.882 224.915  1.00  0.00     0.000 G0
ENDBRANCH  13  15
ENDBRANCH  12  13
BRANCH  12  17
ATOM     17  C   UNL     1     191.101 184.096 225.520  1.00  0.00    -0.006 C 
ATOM     18  C   UNL     1     191.201 183.359 226.867  1.00  0.00     0.008 C 
ATOM     19  C   UNL     1     192.307 183.739 224.636  1.00  0.00     0.008 C 
ENDBRANCH  12  17
ENDBRANCH  11  12
ENDBRANCH   1  11
TORSDOF 1
ENDMDL
MODEL 4
REMARK VINA RESULT:    -2.414     13.227     14.584
REMARK INTER + INTRA:          -3.913
REMARK INTER:                  -3.673
REMARK INTRA:                  -0.240
REMARK UNBOUND:                -0.229
REMARK SMILES CC1=CCC[C@@H](C)C(=O)C[C@H](C(C)C)C(=O)C1
REMARK SMILES IDX 8 1 9 2 6 3 7 4 5 5 4 6 3 7 2 8 1 9 10 11 11 12 15 13 16 14
REMARK SMILES IDX 17 15 12 17 13 18 14 19
REMARK H PARENT
REMARK Flexibility Score: 70.00
ROOT
ATOM      1  C   UNL     1     179.913 180.725 237.600  1.00  0.00     0.136 C 
ATOM      2  O   UNL     1     178.973 181.506 237.643  1.00  0.00    -0.299 OA
ENDROOT
BRANCH   1   3
ATOM      3  C   UNL     1     181.310 181.209 237.931  1.00  0.00     0.053 C 
ATOM      4  C   UNL     1     181.285 181.958 239.267  1.00  0.00     0.016 C 
BRANCH   3   5
ATOM      5  C   UNL     1     181.882 182.116 236.818  1.00  0.00     0.015 C 
BRANCH   5   6
ATOM      6  C   UNL     1     182.736 181.354 235.792  1.00  0.00     0.028 C 
BRANCH   6   7
ATOM      7  C   UNL     1     183.343 180.111 236.399  1.00  0.00    -0.028 C 
ATOM      8  C   UNL     1     183.126 178.843 235.983  1.00  0.00    -0.070 CG0
ATOM      9  C   UNL     1     183.827 177.728 236.717  1.00  0.00     0.039 C 
ATOM     10  G   UNL     1     182.191 178.492 234.842  1.00  0.00     0.000 G0
ENDBRANCH   6   7
ENDBRANCH   5   6
ENDBRANCH   3   5
ENDBRANCH   1   3
BRANCH   1  11
ATOM     11  C   UNL     1     179.651 179.286 237.237  1.00  0.00     0.087 C 
BRANCH  11  12
ATOM     12  C   UNL     1     179.742 179.050 235.708  1.00  0.00     0.066 C 
BRANCH  12  13
ATOM     13  C   UNL     1     180.841 178.054 235.376  1.00  0.00     0.140 C 
ATOM     14  O   UNL     1     180.630 176.855 235.495  1.00  0.00    -0.299 OA
BRANCH  13  15
ATOM     15  C   UNL     1     182.176 178.508 234.847  1.00  0.00     0.106 CG0
ATOM     16  G   UNL     1     183.122 178.844 235.983  1.00  0.00     0.000 G0
ENDBRANCH  13  15
ENDBRANCH  12  13
BRANCH  12  17
ATOM     17  C   UNL     1     178.392 178.604 235.065  1.00  0.00    -0.006 C 
ATOM     18  C   UNL     1     177.349 178.113 236.084  1.00  0.00     0.008 C 
ATOM     19  C   UNL     1     177.786 179.712 234.187  1.00  0.00     0.008 C 
ENDBRANCH  12  17
ENDBRANCH  11  12
ENDBRANCH   1  11
TORSDOF 1
ENDMDL
MODEL 5
REMARK VINA RESULT:    -2.386      1.574      2.097
REMARK INTER + INTRA:          -3.870
REMARK INTER:                  -3.648
REMARK INTRA:                  -0.222
REMARK UNBOUND:                -0.229
REMARK SMILES CC1=CCC[C@@H](C)C(=O)C[C@H](C(C)C)C(=O)C1
REMARK SMILES IDX 8 1 9 2 6 3 7 4 5 5 4 6 3 7 2 8 1 9 10 11 11 12 15 13 16 14
REMARK SMILES IDX 17 15 12 17 13 18 14 19
REMARK H PARENT
REMARK Flexibility Score: 70.00
ROOT
ATOM      1  C   UNL     1     188.910 181.108 227.176  1.00  0.00     0.136 C 
ATOM      2  O   UNL     1     187.881 180.540 227.512  1.00  0.00    -0.299 OA
ENDROOT
BRANCH   1   3
ATOM      3  C   UNL     1     189.878 181.601 228.233  1.00  0.00     0.053 C 
ATOM      4  C   UNL     1     190.149 180.476 229.236  1.00  0.00     0.016 C 
BRANCH   3   5
ATOM      5  C   UNL     1     189.341 182.853 228.964  1.00  0.00     0.015 C 
BRANCH   5   6
ATOM      6  C   UNL     1     190.029 184.154 228.523  1.00  0.00     0.028 C 
BRANCH   6   7
ATOM      7  C   UNL     1     191.454 183.902 228.088  1.00  0.00    -0.028 C 
ATOM      8  C   UNL     1     191.939 184.071 226.836  1.00  0.00    -0.070 CG0
ATOM      9  C   UNL     1     193.396 183.768 226.596  1.00  0.00     0.039 C 
ATOM     10  G   UNL     1     191.081 184.514 225.667  1.00  0.00     0.000 G0
ENDBRANCH   6   7
ENDBRANCH   5   6
ENDBRANCH   3   5
ENDBRANCH   1   3
BRANCH   1  11
ATOM     11  C   UNL     1     189.201 181.287 225.708  1.00  0.00     0.087 C 
BRANCH  11  12
ATOM     12  C   UNL     1     189.128 182.774 225.281  1.00  0.00     0.066 C 
BRANCH  12  13
ATOM     13  C   UNL     1     190.508 183.311 224.941  1.00  0.00     0.140 C 
ATOM     14  O   UNL     1     191.155 182.797 224.040  1.00  0.00    -0.299 OA
BRANCH  13  15
ATOM     15  C   UNL     1     191.082 184.508 225.655  1.00  0.00     0.106 CG0
ATOM     16  G   UNL     1     191.941 184.076 226.828  1.00  0.00     0.000 G0
ENDBRANCH  13  15
ENDBRANCH  12  13
BRANCH  12  17
ATOM     17  C   UNL     1     188.137 183.037 224.104  1.00  0.00    -0.006 C 
ATOM     18  C   UNL     1     186.924 182.091 224.089  1.00  0.00     0.008 C 
ATOM     19  C   UNL     1     187.663 184.500 224.074  1.00  0.00     0.008 C 
ENDBRANCH  12  17
ENDBRANCH  11  12
ENDBRANCH   1  11
TORSDOF 1
ENDMDL
MODEL 6
REMARK VINA RESULT:    -2.380      6.324      7.582
REMARK INTER + INTRA:          -3.861
REMARK INTER:                  -3.681
REMARK INTRA:                  -0.180
REMARK UNBOUND:                -0.229
REMARK SMILES CC1=CCC[C@@H](C)C(=O)C[C@H](C(C)C)C(=O)C1
REMARK SMILES IDX 8 1 9 2 6 3 7 4 5 5 4 6 3 7 2 8 1 9 10 11 11 12 15 13 16 14
REMARK SMILES IDX 17 15 12 17 13 18 14 19
REMARK H PARENT
REMARK Flexibility Score: 70.00
ROOT
ATOM      1  C   UNL     1     182.533 188.209 226.400  1.00  0.00     0.136 C 
ATOM      2  O   UNL     1     181.661 187.575 226.979  1.00  0.00    -0.299 OA
ENDROOT
BRANCH   1   3
ATOM      3  C   UNL     1     182.294 189.660 226.037  1.00  0.00     0.053 C 
ATOM      4  C   UNL     1     181.916 189.757 224.555  1.00  0.00     0.016 C 
BRANCH   3   5
ATOM      5  C   UNL     1     183.532 190.538 226.334  1.00  0.00     0.015 C 
BRANCH   5   6
ATOM      6  C   UNL     1     184.213 191.074 225.065  1.00  0.00     0.028 C 
BRANCH   6   7
ATOM      7  C   UNL     1     185.645 190.601 224.969  1.00  0.00    -0.028 C 
ATOM      8  C   UNL     1     186.090 189.584 224.197  1.00  0.00    -0.070 CG0
ATOM      9  C   UNL     1     187.562 189.260 224.234  1.00  0.00     0.039 C 
ATOM     10  G   UNL     1     185.177 188.740 223.329  1.00  0.00     0.000 G0
ENDBRANCH   6   7
ENDBRANCH   5   6
ENDBRANCH   3   5
ENDBRANCH   1   3
BRANCH   1  11
ATOM     11  C   UNL     1     183.839 187.530 226.079  1.00  0.00     0.087 C 
BRANCH  11  12
ATOM     12  C   UNL     1     183.827 186.894 224.665  1.00  0.00     0.066 C 
BRANCH  12  13
ATOM     13  C   UNL     1     185.046 187.324 223.866  1.00  0.00     0.140 C 
ATOM     14  O   UNL     1     185.929 186.514 223.621  1.00  0.00    -0.299 OA
BRANCH  13  15
ATOM     15  C   UNL     1     185.170 188.721 223.315  1.00  0.00     0.106 CG0
ATOM     16  G   UNL     1     186.068 189.570 224.192  1.00  0.00     0.000 G0
ENDBRANCH  13  15
ENDBRANCH  12  13
BRANCH  12  17
ATOM     17  C   UNL     1     183.710 185.338 224.683  1.00  0.00    -0.006 C 
ATOM     18  C   UNL     1     184.156 184.695 226.008  1.00  0.00     0.008 C 
ATOM     19  C   UNL     1     182.290 184.870 224.323  1.00  0.00     0.008 C 
ENDBRANCH  12  17
ENDBRANCH  11  12
ENDBRANCH   1  11
TORSDOF 1
ENDMDL
MODEL 7
REMARK VINA RESULT:    -2.350      7.575      9.665
REMARK INTER + INTRA:          -3.816
REMARK INTER:                  -3.523
REMARK INTRA:                  -0.293
REMARK UNBOUND:                -0.229
REMARK SMILES CC1=CCC[C@@H](C)C(=O)C[C@H](C(C)C)C(=O)C1
REMARK SMILES IDX 8 1 9 2 6 3 7 4 5 5 4 6 3 7 2 8 1 9 10 11 11 12 15 13 16 14
REMARK SMILES IDX 17 15 12 17 13 18 14 19
REMARK H PARENT
REMARK Flexibility Score: 70.00
ROOT
ATOM      1  C   UNL     1     186.621 190.073 226.724  1.00  0.00     0.136 C 
ATOM      2  O   UNL     1     187.502 190.802 227.158  1.00  0.00    -0.299 OA
ENDROOT
BRANCH   1   3
ATOM      3  C   UNL     1     186.604 189.704 225.255  1.00  0.00     0.053 C 
ATOM      4  C   UNL     1     187.970 189.131 224.861  1.00  0.00     0.016 C 
BRANCH   3   5
ATOM      5  C   UNL     1     186.254 190.916 224.362  1.00  0.00     0.015 C 
BRANCH   5   6
ATOM      6  C   UNL     1     184.777 190.952 223.941  1.00  0.00     0.028 C 
BRANCH   6   7
ATOM      7  C   UNL     1     184.199 189.560 223.842  1.00  0.00    -0.028 C 
ATOM      8  C   UNL     1     183.198 189.064 224.605  1.00  0.00    -0.070 CG0
ATOM      9  C   UNL     1     182.755 187.645 224.355  1.00  0.00     0.039 C 
ATOM     10  G   UNL     1     182.529 189.855 225.712  1.00  0.00     0.000 G0
ENDBRANCH   6   7
ENDBRANCH   5   6
ENDBRANCH   3   5
ENDBRANCH   1   3
BRANCH   1  11
ATOM     11  C   UNL     1     185.579 189.540 227.673  1.00  0.00     0.087 C 
BRANCH  11  12
ATOM     12  C   UNL     1     184.271 190.370 227.621  1.00  0.00     0.066 C 
BRANCH  12  13
ATOM     13  C   UNL     1     183.124 189.544 227.063  1.00  0.00     0.140 C 
ATOM     14  O   UNL     1     182.649 188.636 227.730  1.00  0.00    -0.299 OA
BRANCH  13  15
ATOM     15  C   UNL     1     182.517 189.853 225.719  1.00  0.00     0.106 CG0
ATOM     16  G   UNL     1     183.200 189.059 224.622  1.00  0.00     0.000 G0
ENDBRANCH  13  15
ENDBRANCH  12  13
BRANCH  12  17
ATOM     17  C   UNL     1     183.873 190.993 228.996  1.00  0.00    -0.006 C 
ATOM     18  C   UNL     1     185.027 191.722 229.707  1.00  0.00     0.008 C 
ATOM     19  C   UNL     1     182.661 191.930 228.866  1.00  0.00     0.008 C 
ENDBRANCH  12  17
ENDBRANCH  11  12
ENDBRANCH   1  11
TORSDOF 1
ENDMDL
MODEL 8
REMARK VINA RESULT:    -2.307      2.087      4.598
REMARK INTER + INTRA:          -3.749
REMARK INTER:                  -3.679
REMARK INTRA:                  -0.070
REMARK UNBOUND:                -0.229
REMARK SMILES CC1=CCC[C@@H](C)C(=O)C[C@H](C(C)C)C(=O)C1
REMARK SMILES IDX 8 1 9 2 6 3 7 4 5 5 4 6 3 7 2 8 1 9 10 11 11 12 15 13 16 14
REMARK SMILES IDX 17 15 12 17 13 18 14 19
REMARK H PARENT
REMARK Flexibility Score: 70.00
ROOT
ATOM      1  C   UNL     1     189.270 181.424 227.147  1.00  0.00     0.136 C 
ATOM      2  O   UNL     1     189.414 180.225 227.343  1.00  0.00    -0.299 OA
ENDROOT
BRANCH   1   3
ATOM      3  C   UNL     1     188.530 181.903 225.915  1.00  0.00     0.053 C 
ATOM      4  C   UNL     1     187.104 181.342 225.931  1.00  0.00     0.016 C 
BRANCH   3   5
ATOM      5  C   UNL     1     189.253 181.490 224.613  1.00  0.00     0.015 C 
BRANCH   5   6
ATOM      6  C   UNL     1     190.052 182.636 223.974  1.00  0.00     0.028 C 
BRANCH   6   7
ATOM      7  C   UNL     1     189.286 183.938 224.030  1.00  0.00    -0.028 C 
ATOM      8  C   UNL     1     189.627 185.023 224.762  1.00  0.00    -0.070 CG0
ATOM      9  C   UNL     1     188.734 186.236 224.687  1.00  0.00     0.039 C 
ATOM     10  G   UNL     1     190.838 185.062 225.674  1.00  0.00     0.000 G0
ENDBRANCH   6   7
ENDBRANCH   5   6
ENDBRANCH   3   5
ENDBRANCH   1   3
BRANCH   1  11
ATOM     11  C   UNL     1     189.821 182.400 228.154  1.00  0.00     0.087 C 
BRANCH  11  12
ATOM     12  C   UNL     1     190.992 183.232 227.573  1.00  0.00     0.066 C 
BRANCH  12  13
ATOM     13  C   UNL     1     190.503 184.579 227.067  1.00  0.00     0.140 C 
ATOM     14  O   UNL     1     189.853 185.306 227.804  1.00  0.00    -0.299 OA
BRANCH  13  15
ATOM     15  C   UNL     1     190.850 185.070 225.685  1.00  0.00     0.106 CG0
ATOM     16  G   UNL     1     189.644 185.001 224.769  1.00  0.00     0.000 G0
ENDBRANCH  13  15
ENDBRANCH  12  13
BRANCH  12  17
ATOM     17  C   UNL     1     192.176 183.424 228.571  1.00  0.00    -0.006 C 
ATOM     18  C   UNL     1     191.988 182.686 229.909  1.00  0.00     0.008 C 
ATOM     19  C   UNL     1     193.522 183.032 227.940  1.00  0.00     0.008 C 
ENDBRANCH  12  17
ENDBRANCH  11  12
ENDBRANCH   1  11
TORSDOF 1
ENDMDL
MODEL 9
REMARK VINA RESULT:    -2.114      2.498      4.978
REMARK INTER + INTRA:          -3.455
REMARK INTER:                  -3.341
REMARK INTRA:                  -0.114
REMARK UNBOUND:                -0.229
REMARK SMILES CC1=CCC[C@@H](C)C(=O)C[C@H](C(C)C)C(=O)C1
REMARK SMILES IDX 8 1 9 2 6 3 7 4 5 5 4 6 3 7 2 8 1 9 10 11 11 12 15 13 16 14
REMARK SMILES IDX 17 15 12 17 13 18 14 19
REMARK H PARENT
REMARK Flexibility Score: 70.00
ROOT
ATOM      1  C   UNL     1     189.765 183.156 225.118  1.00  0.00     0.136 C 
ATOM      2  O   UNL     1     190.576 183.692 225.859  1.00  0.00    -0.299 OA
ENDROOT
BRANCH   1   3
ATOM      3  C   UNL     1     189.745 183.503 223.644  1.00  0.00     0.053 C 
ATOM      4  C   UNL     1     191.178 183.751 223.162  1.00  0.00     0.016 C 
BRANCH   3   5
ATOM      5  C   UNL     1     188.862 184.739 223.357  1.00  0.00     0.015 C 
BRANCH   5   6
ATOM      6  C   UNL     1     187.423 184.377 222.959  1.00  0.00     0.028 C 
BRANCH   6   7
ATOM      7  C   UNL     1     186.419 185.003 223.898  1.00  0.00    -0.028 C 
ATOM      8  C   UNL     1     185.794 184.374 224.919  1.00  0.00    -0.070 CG0
ATOM      9  C   UNL     1     184.821 185.170 225.752  1.00  0.00     0.039 C 
ATOM     10  G   UNL     1     186.000 182.906 225.240  1.00  0.00     0.000 G0
ENDBRANCH   6   7
ENDBRANCH   5   6
ENDBRANCH   3   5
ENDBRANCH   1   3
BRANCH   1  11
ATOM     11  C   UNL     1     188.812 182.139 225.692  1.00  0.00     0.087 C 
BRANCH  11  12
ATOM     12  C   UNL     1     188.032 182.700 226.908  1.00  0.00     0.066 C 
BRANCH  12  13
ATOM     13  C   UNL     1     186.537 182.717 226.634  1.00  0.00     0.140 C 
ATOM     14  O   UNL     1     185.747 182.624 227.563  1.00  0.00    -0.299 OA
BRANCH  13  15
ATOM     15  C   UNL     1     185.998 182.903 225.239  1.00  0.00     0.106 CG0
ATOM     16  G   UNL     1     185.808 184.374 224.925  1.00  0.00     0.000 G0
ENDBRANCH  13  15
ENDBRANCH  12  13
BRANCH  12  17
ATOM     17  C   UNL     1     188.330 181.946 228.242  1.00  0.00    -0.006 C 
ATOM     18  C   UNL     1     188.933 180.544 228.044  1.00  0.00     0.008 C 
ATOM     19  C   UNL     1     189.226 182.776 229.176  1.00  0.00     0.008 C 
ENDBRANCH  12  17
ENDBRANCH  11  12
ENDBRANCH   1  11
TORSDOF 1
ENDMDL
