MODEL 1
REMARK VINA RESULT:    -3.759      0.000      0.000
REMARK INTER + INTRA:         -10.215
REMARK INTER:                  -7.055
REMARK INTRA:                  -3.159
REMARK UNBOUND:                -3.159
REMARK SMILES CCCCCCCCCCCCCC=CC=CC(=O)OC
REMARK SMILES IDX 9 1 8 2 7 3 6 4 5 5 4 6 3 7 2 8 1 9 10 10 11 11 12 12 13 13
REMARK SMILES IDX 14 14 15 15 16 16 17 17 18 18 19 19 20 20 21 21
REMARK H PARENT
REMARK Flexibility Score: inf
ROOT
ATOM      1  C   UNL     1     -21.896  33.377  -2.054  1.00  0.00     0.000 C 
ENDROOT
BRANCH   1   2
ATOM      2  C   UNL     1     -21.493  33.139  -3.517  1.00  0.00     0.000 C 
BRANCH   2   3
ATOM      3  C   UNL     1     -19.982  32.915  -3.642  1.00  0.00     0.000 C 
BRANCH   3   4
ATOM      4  C   UNL     1     -19.430  32.171  -2.417  1.00  0.00    -0.000 C 
BRANCH   4   5
ATOM      5  C   UNL     1     -18.146  31.380  -2.743  1.00  0.00    -0.000 C 
BRANCH   5   6
ATOM      6  C   UNL     1     -18.110  30.829  -4.180  1.00  0.00    -0.000 C 
BRANCH   6   7
ATOM      7  C   UNL     1     -17.827  29.321  -4.235  1.00  0.00    -0.000 C 
BRANCH   7   8
ATOM      8  C   UNL     1     -17.725  28.835  -5.685  1.00  0.00    -0.003 C 
ATOM      9  C   UNL     1     -18.736  27.726  -5.966  1.00  0.00     0.004 C 
ENDBRANCH   7   8
ENDBRANCH   6   7
ENDBRANCH   5   6
ENDBRANCH   4   5
ENDBRANCH   3   4
ENDBRANCH   2   3
ENDBRANCH   1   2
BRANCH   1  10
ATOM     10  C   UNL     1     -23.035  32.439  -1.598  1.00  0.00     0.000 C 
BRANCH  10  11
ATOM     11  C   UNL     1     -22.557  31.026  -1.216  1.00  0.00     0.000 C 
BRANCH  11  12
ATOM     12  C   UNL     1     -22.951  29.917  -2.212  1.00  0.00     0.004 C 
BRANCH  12  13
ATOM     13  C   UNL     1     -21.761  29.116  -2.769  1.00  0.00     0.027 C 
BRANCH  13  14
ATOM     14  C   UNL     1     -21.490  29.416  -4.217  1.00  0.00    -0.027 C 
ATOM     15  C   UNL     1     -22.398  30.019  -4.988  1.00  0.00    -0.004 C 
BRANCH  15  16
ATOM     16  C   UNL     1     -22.116  30.311  -6.403  1.00  0.00     0.007 C 
ATOM     17  C   UNL     1     -20.904  30.720  -6.792  1.00  0.00     0.093 C 
BRANCH  17  18
ATOM     18  C   UNL     1     -20.586  31.024  -8.196  1.00  0.00     0.330 C 
ATOM     19  O   UNL     1     -21.289  30.555  -9.134  1.00  0.00    -0.247 OA
BRANCH  18  20
ATOM     20  O   UNL     1     -19.487  31.841  -8.477  1.00  0.00    -0.466 OA
ATOM     21  C   UNL     1     -18.602  32.310  -7.467  1.00  0.00     0.282 C 
ENDBRANCH  18  20
ENDBRANCH  17  18
ENDBRANCH  15  16
ENDBRANCH  13  14
ENDBRANCH  12  13
ENDBRANCH  11  12
ENDBRANCH  10  11
ENDBRANCH   1  10
TORSDOF 15
ENDMDL
MODEL 2
REMARK VINA RESULT:    -3.737      1.486      2.565
REMARK INTER + INTRA:         -10.173
REMARK INTER:                  -7.132
REMARK INTRA:                  -3.041
REMARK UNBOUND:                -3.159
REMARK SMILES CCCCCCCCCCCCCC=CC=CC(=O)OC
REMARK SMILES IDX 9 1 8 2 7 3 6 4 5 5 4 6 3 7 2 8 1 9 10 10 11 11 12 12 13 13
REMARK SMILES IDX 14 14 15 15 16 16 17 17 18 18 19 19 20 20 21 21
REMARK H PARENT
REMARK Flexibility Score: inf
ROOT
ATOM      1  C   UNL     1     -22.147  31.420  -1.358  1.00  0.00     0.000 C 
ENDROOT
BRANCH   1   2
ATOM      2  C   UNL     1     -22.849  32.371  -2.340  1.00  0.00     0.000 C 
BRANCH   2   3
ATOM      3  C   UNL     1     -21.893  32.819  -3.452  1.00  0.00     0.000 C 
BRANCH   3   4
ATOM      4  C   UNL     1     -20.479  33.055  -2.902  1.00  0.00    -0.000 C 
BRANCH   4   5
ATOM      5  C   UNL     1     -19.403  32.980  -4.005  1.00  0.00    -0.000 C 
BRANCH   5   6
ATOM      6  C   UNL     1     -18.381  31.848  -3.795  1.00  0.00    -0.000 C 
BRANCH   6   7
ATOM      7  C   UNL     1     -18.894  30.746  -2.858  1.00  0.00    -0.000 C 
BRANCH   7   8
ATOM      8  C   UNL     1     -18.068  30.692  -1.569  1.00  0.00    -0.003 C 
ATOM      9  C   UNL     1     -17.185  31.929  -1.429  1.00  0.00     0.004 C 
ENDBRANCH   7   8
ENDBRANCH   6   7
ENDBRANCH   5   6
ENDBRANCH   4   5
ENDBRANCH   3   4
ENDBRANCH   2   3
ENDBRANCH   1   2
BRANCH   1  10
ATOM     10  C   UNL     1     -22.506  29.941  -1.615  1.00  0.00     0.000 C 
BRANCH  10  11
ATOM     11  C   UNL     1     -23.778  29.750  -2.463  1.00  0.00     0.000 C 
BRANCH  11  12
ATOM     12  C   UNL     1     -23.558  29.029  -3.807  1.00  0.00     0.004 C 
BRANCH  12  13
ATOM     13  C   UNL     1     -23.856  29.894  -5.045  1.00  0.00     0.027 C 
BRANCH  13  14
ATOM     14  C   UNL     1     -22.625  30.186  -5.856  1.00  0.00    -0.027 C 
ATOM     15  C   UNL     1     -21.428  29.707  -5.509  1.00  0.00    -0.004 C 
BRANCH  15  16
ATOM     16  C   UNL     1     -20.232  29.997  -6.316  1.00  0.00     0.007 C 
ATOM     17  C   UNL     1     -20.184  31.072  -7.110  1.00  0.00     0.093 C 
BRANCH  17  18
ATOM     18  C   UNL     1     -19.007  31.393  -7.934  1.00  0.00     0.330 C 
ATOM     19  O   UNL     1     -18.801  30.794  -9.027  1.00  0.00    -0.247 OA
BRANCH  18  20
ATOM     20  O   UNL     1     -18.117  32.372  -7.486  1.00  0.00    -0.466 OA
ATOM     21  C   UNL     1     -16.750  32.096  -7.207  1.00  0.00     0.282 C 
ENDBRANCH  18  20
ENDBRANCH  17  18
ENDBRANCH  15  16
ENDBRANCH  13  14
ENDBRANCH  12  13
ENDBRANCH  11  12
ENDBRANCH  10  11
ENDBRANCH   1  10
TORSDOF 15
ENDMDL
MODEL 3
REMARK VINA RESULT:    -3.694      1.224      2.181
REMARK INTER + INTRA:         -10.092
REMARK INTER:                  -7.567
REMARK INTRA:                  -2.525
REMARK UNBOUND:                -3.159
REMARK SMILES CCCCCCCCCCCCCC=CC=CC(=O)OC
REMARK SMILES IDX 9 1 8 2 7 3 6 4 5 5 4 6 3 7 2 8 1 9 10 10 11 11 12 12 13 13
REMARK SMILES IDX 14 14 15 15 16 16 17 17 18 18 19 19 20 20 21 21
REMARK H PARENT
REMARK Flexibility Score: inf
ROOT
ATOM      1  C   UNL     1     -22.784  32.506  -1.819  1.00  0.00     0.000 C 
ENDROOT
BRANCH   1   2
ATOM      2  C   UNL     1     -21.567  33.351  -2.225  1.00  0.00     0.000 C 
BRANCH   2   3
ATOM      3  C   UNL     1     -20.780  32.676  -3.355  1.00  0.00     0.000 C 
BRANCH   3   4
ATOM      4  C   UNL     1     -19.307  32.487  -2.964  1.00  0.00    -0.000 C 
BRANCH   4   5
ATOM      5  C   UNL     1     -19.060  31.140  -2.252  1.00  0.00    -0.000 C 
BRANCH   5   6
ATOM      6  C   UNL     1     -17.823  31.145  -1.336  1.00  0.00    -0.000 C 
BRANCH   6   7
ATOM      7  C   UNL     1     -16.584  30.531  -2.000  1.00  0.00    -0.000 C 
BRANCH   7   8
ATOM      8  C   UNL     1     -16.924  29.969  -3.384  1.00  0.00    -0.003 C 
ATOM      9  C   UNL     1     -16.143  30.690  -4.479  1.00  0.00     0.004 C 
ENDBRANCH   7   8
ENDBRANCH   6   7
ENDBRANCH   5   6
ENDBRANCH   4   5
ENDBRANCH   3   4
ENDBRANCH   2   3
ENDBRANCH   1   2
BRANCH   1  10
ATOM     10  C   UNL     1     -22.379  31.131  -1.246  1.00  0.00     0.000 C 
BRANCH  10  11
ATOM     11  C   UNL     1     -23.323  29.985  -1.659  1.00  0.00     0.000 C 
BRANCH  11  12
ATOM     12  C   UNL     1     -23.211  29.552  -3.134  1.00  0.00     0.004 C 
BRANCH  12  13
ATOM     13  C   UNL     1     -21.887  28.852  -3.487  1.00  0.00     0.027 C 
BRANCH  13  14
ATOM     14  C   UNL     1     -21.190  29.491  -4.656  1.00  0.00    -0.027 C 
ATOM     15  C   UNL     1     -20.014  29.042  -5.101  1.00  0.00    -0.004 C 
BRANCH  15  16
ATOM     16  C   UNL     1     -19.347  29.675  -6.250  1.00  0.00     0.007 C 
ATOM     17  C   UNL     1     -19.576  30.956  -6.557  1.00  0.00     0.093 C 
BRANCH  17  18
ATOM     18  C   UNL     1     -18.929  31.622  -7.700  1.00  0.00     0.330 C 
ATOM     19  O   UNL     1     -17.802  32.175  -7.571  1.00  0.00    -0.247 OA
BRANCH  18  20
ATOM     20  O   UNL     1     -19.587  31.635  -8.933  1.00  0.00    -0.466 OA
ATOM     21  C   UNL     1     -20.865  31.041  -9.127  1.00  0.00     0.282 C 
ENDBRANCH  18  20
ENDBRANCH  17  18
ENDBRANCH  15  16
ENDBRANCH  13  14
ENDBRANCH  12  13
ENDBRANCH  11  12
ENDBRANCH  10  11
ENDBRANCH   1  10
TORSDOF 15
ENDMDL
MODEL 4
REMARK VINA RESULT:    -3.673      1.506      2.548
REMARK INTER + INTRA:         -10.052
REMARK INTER:                  -7.429
REMARK INTRA:                  -2.623
REMARK UNBOUND:                -3.159
REMARK SMILES CCCCCCCCCCCCCC=CC=CC(=O)OC
REMARK SMILES IDX 9 1 8 2 7 3 6 4 5 5 4 6 3 7 2 8 1 9 10 10 11 11 12 12 13 13
REMARK SMILES IDX 14 14 15 15 16 16 17 17 18 18 19 19 20 20 21 21
REMARK H PARENT
REMARK Flexibility Score: inf
ROOT
ATOM      1  C   UNL     1     -23.148  32.193  -1.810  1.00  0.00     0.000 C 
ENDROOT
BRANCH   1   2
ATOM      2  C   UNL     1     -22.368  33.514  -1.878  1.00  0.00     0.000 C 
BRANCH   2   3
ATOM      3  C   UNL     1     -20.987  33.307  -2.510  1.00  0.00     0.000 C 
BRANCH   3   4
ATOM      4  C   UNL     1     -21.109  32.705  -3.918  1.00  0.00    -0.000 C 
BRANCH   4   5
ATOM      5  C   UNL     1     -19.769  32.132  -4.426  1.00  0.00    -0.000 C 
BRANCH   5   6
ATOM      6  C   UNL     1     -19.623  30.616  -4.205  1.00  0.00    -0.000 C 
BRANCH   6   7
ATOM      7  C   UNL     1     -18.399  30.250  -3.355  1.00  0.00    -0.000 C 
BRANCH   7   8
ATOM      8  C   UNL     1     -18.550  30.772  -1.922  1.00  0.00    -0.003 C 
ATOM      9  C   UNL     1     -17.477  31.809  -1.598  1.00  0.00     0.004 C 
ENDBRANCH   7   8
ENDBRANCH   6   7
ENDBRANCH   5   6
ENDBRANCH   4   5
ENDBRANCH   3   4
ENDBRANCH   2   3
ENDBRANCH   1   2
BRANCH   1  10
ATOM     10  C   UNL     1     -22.377  31.094  -1.048  1.00  0.00     0.000 C 
BRANCH  10  11
ATOM     11  C   UNL     1     -22.245  29.773  -1.830  1.00  0.00     0.000 C 
BRANCH  11  12
ATOM     12  C   UNL     1     -23.571  29.022  -2.062  1.00  0.00     0.004 C 
BRANCH  12  13
ATOM     13  C   UNL     1     -24.114  29.130  -3.498  1.00  0.00     0.027 C 
BRANCH  13  14
ATOM     14  C   UNL     1     -23.019  29.176  -4.527  1.00  0.00    -0.027 C 
ATOM     15  C   UNL     1     -23.189  29.784  -5.703  1.00  0.00    -0.004 C 
BRANCH  15  16
ATOM     16  C   UNL     1     -22.105  29.826  -6.699  1.00  0.00     0.007 C 
ATOM     17  C   UNL     1     -22.020  30.828  -7.580  1.00  0.00     0.093 C 
BRANCH  17  18
ATOM     18  C   UNL     1     -20.954  30.902  -8.592  1.00  0.00     0.330 C 
ATOM     19  O   UNL     1     -19.874  31.510  -8.348  1.00  0.00    -0.247 OA
BRANCH  18  20
ATOM     20  O   UNL     1     -21.156  30.289  -9.831  1.00  0.00    -0.466 OA
ATOM     21  C   UNL     1     -22.330  30.496 -10.607  1.00  0.00     0.282 C 
ENDBRANCH  18  20
ENDBRANCH  17  18
ENDBRANCH  15  16
ENDBRANCH  13  14
ENDBRANCH  12  13
ENDBRANCH  11  12
ENDBRANCH  10  11
ENDBRANCH   1  10
TORSDOF 15
ENDMDL
MODEL 5
REMARK VINA RESULT:    -3.645      1.702      2.464
REMARK INTER + INTRA:         -10.001
REMARK INTER:                  -7.409
REMARK INTRA:                  -2.592
REMARK UNBOUND:                -3.159
REMARK SMILES CCCCCCCCCCCCCC=CC=CC(=O)OC
REMARK SMILES IDX 9 1 8 2 7 3 6 4 5 5 4 6 3 7 2 8 1 9 10 10 11 11 12 12 13 13
REMARK SMILES IDX 14 14 15 15 16 16 17 17 18 18 19 19 20 20 21 21
REMARK H PARENT
REMARK Flexibility Score: inf
ROOT
ATOM      1  C   UNL     1     -22.259  30.959  -1.246  1.00  0.00     0.000 C 
ENDROOT
BRANCH   1   2
ATOM      2  C   UNL     1     -21.123  31.167  -2.259  1.00  0.00     0.000 C 
BRANCH   2   3
ATOM      3  C   UNL     1     -20.861  32.660  -2.494  1.00  0.00     0.000 C 
BRANCH   3   4
ATOM      4  C   UNL     1     -20.723  32.967  -3.992  1.00  0.00    -0.000 C 
BRANCH   4   5
ATOM      5  C   UNL     1     -19.544  32.208  -4.637  1.00  0.00    -0.000 C 
BRANCH   5   6
ATOM      6  C   UNL     1     -18.165  32.777  -4.261  1.00  0.00    -0.000 C 
BRANCH   6   7
ATOM      7  C   UNL     1     -17.264  31.749  -3.563  1.00  0.00    -0.000 C 
BRANCH   7   8
ATOM      8  C   UNL     1     -17.343  31.893  -2.040  1.00  0.00    -0.003 C 
ATOM      9  C   UNL     1     -17.712  30.567  -1.380  1.00  0.00     0.004 C 
ENDBRANCH   7   8
ENDBRANCH   6   7
ENDBRANCH   5   6
ENDBRANCH   4   5
ENDBRANCH   3   4
ENDBRANCH   2   3
ENDBRANCH   1   2
BRANCH   1  10
ATOM     10  C   UNL     1     -23.320  32.078  -1.315  1.00  0.00     0.000 C 
BRANCH  10  11
ATOM     11  C   UNL     1     -24.613  31.662  -2.040  1.00  0.00     0.000 C 
BRANCH  11  12
ATOM     12  C   UNL     1     -24.855  30.141  -2.112  1.00  0.00     0.004 C 
BRANCH  12  13
ATOM     13  C   UNL     1     -25.267  29.633  -3.505  1.00  0.00     0.027 C 
BRANCH  13  14
ATOM     14  C   UNL     1     -24.510  30.310  -4.614  1.00  0.00    -0.027 C 
ATOM     15  C   UNL     1     -23.286  29.913  -4.969  1.00  0.00    -0.004 C 
BRANCH  15  16
ATOM     16  C   UNL     1     -22.560  30.582  -6.061  1.00  0.00     0.007 C 
ATOM     17  C   UNL     1     -21.652  29.922  -6.787  1.00  0.00     0.093 C 
BRANCH  17  18
ATOM     18  C   UNL     1     -20.904  30.557  -7.884  1.00  0.00     0.330 C 
ATOM     19  O   UNL     1     -21.509  31.056  -8.874  1.00  0.00    -0.247 OA
BRANCH  18  20
ATOM     20  O   UNL     1     -19.509  30.599  -7.814  1.00  0.00    -0.466 OA
ATOM     21  C   UNL     1     -18.750  31.709  -8.279  1.00  0.00     0.282 C 
ENDBRANCH  18  20
ENDBRANCH  17  18
ENDBRANCH  15  16
ENDBRANCH  13  14
ENDBRANCH  12  13
ENDBRANCH  11  12
ENDBRANCH  10  11
ENDBRANCH   1  10
TORSDOF 15
ENDMDL
MODEL 6
REMARK VINA RESULT:    -3.548      1.872      3.737
REMARK INTER + INTRA:          -9.818
REMARK INTER:                  -6.636
REMARK INTRA:                  -3.182
REMARK UNBOUND:                -3.159
REMARK SMILES CCCCCCCCCCCCCC=CC=CC(=O)OC
REMARK SMILES IDX 9 1 8 2 7 3 6 4 5 5 4 6 3 7 2 8 1 9 10 10 11 11 12 12 13 13
REMARK SMILES IDX 14 14 15 15 16 16 17 17 18 18 19 19 20 20 21 21
REMARK H PARENT
REMARK Flexibility Score: inf
ROOT
ATOM      1  C   UNL     1     -20.044  32.512  -2.462  1.00  0.00     0.000 C 
ENDROOT
BRANCH   1   2
ATOM      2  C   UNL     1     -20.600  32.660  -3.886  1.00  0.00     0.000 C 
BRANCH   2   3
ATOM      3  C   UNL     1     -22.054  32.180  -3.962  1.00  0.00     0.000 C 
BRANCH   3   4
ATOM      4  C   UNL     1     -22.225  31.105  -5.046  1.00  0.00    -0.000 C 
BRANCH   4   5
ATOM      5  C   UNL     1     -20.898  30.787  -5.766  1.00  0.00    -0.000 C 
BRANCH   5   6
ATOM      6  C   UNL     1     -20.581  29.283  -5.840  1.00  0.00    -0.000 C 
BRANCH   6   7
ATOM      7  C   UNL     1     -19.712  28.796  -4.672  1.00  0.00    -0.000 C 
BRANCH   7   8
ATOM      8  C   UNL     1     -18.606  27.858  -5.164  1.00  0.00    -0.003 C 
ATOM      9  C   UNL     1     -19.192  26.622  -5.841  1.00  0.00     0.004 C 
ENDBRANCH   7   8
ENDBRANCH   6   7
ENDBRANCH   5   6
ENDBRANCH   4   5
ENDBRANCH   3   4
ENDBRANCH   2   3
ENDBRANCH   1   2
BRANCH   1  10
ATOM     10  C   UNL     1     -20.111  31.056  -1.953  1.00  0.00     0.000 C 
BRANCH  10  11
ATOM     11  C   UNL     1     -18.802  30.565  -1.306  1.00  0.00     0.000 C 
BRANCH  11  12
ATOM     12  C   UNL     1     -17.565  31.434  -1.608  1.00  0.00     0.004 C 
BRANCH  12  13
ATOM     13  C   UNL     1     -16.505  30.741  -2.482  1.00  0.00     0.027 C 
BRANCH  13  14
ATOM     14  C   UNL     1     -16.831  30.809  -3.948  1.00  0.00    -0.027 C 
ATOM     15  C   UNL     1     -17.063  31.973  -4.560  1.00  0.00    -0.004 C 
BRANCH  15  16
ATOM     16  C   UNL     1     -17.376  32.024  -5.998  1.00  0.00     0.007 C 
ATOM     17  C   UNL     1     -17.196  30.953  -6.778  1.00  0.00     0.093 C 
BRANCH  17  18
ATOM     18  C   UNL     1     -17.495  30.967  -8.219  1.00  0.00     0.330 C 
ATOM     19  O   UNL     1     -16.774  31.624  -9.021  1.00  0.00    -0.247 OA
BRANCH  18  20
ATOM     20  O   UNL     1     -18.593  30.241  -8.687  1.00  0.00    -0.466 OA
ATOM     21  C   UNL     1     -18.541  28.839  -8.925  1.00  0.00     0.282 C 
ENDBRANCH  18  20
ENDBRANCH  17  18
ENDBRANCH  15  16
ENDBRANCH  13  14
ENDBRANCH  12  13
ENDBRANCH  11  12
ENDBRANCH  10  11
ENDBRANCH   1  10
TORSDOF 15
ENDMDL
MODEL 7
REMARK VINA RESULT:    -3.540      1.673      4.633
REMARK INTER + INTRA:          -9.804
REMARK INTER:                  -7.815
REMARK INTRA:                  -1.989
REMARK UNBOUND:                -3.159
REMARK SMILES CCCCCCCCCCCCCC=CC=CC(=O)OC
REMARK SMILES IDX 9 1 8 2 7 3 6 4 5 5 4 6 3 7 2 8 1 9 10 10 11 11 12 12 13 13
REMARK SMILES IDX 14 14 15 15 16 16 17 17 18 18 19 19 20 20 21 21
REMARK H PARENT
REMARK Flexibility Score: inf
ROOT
ATOM      1  C   UNL     1     -19.292  31.364  -2.994  1.00  0.00     0.000 C 
ENDROOT
BRANCH   1   2
ATOM      2  C   UNL     1     -19.783  32.618  -3.734  1.00  0.00     0.000 C 
BRANCH   2   3
ATOM      3  C   UNL     1     -21.302  32.778  -3.599  1.00  0.00     0.000 C 
BRANCH   3   4
ATOM      4  C   UNL     1     -21.676  33.359  -2.227  1.00  0.00    -0.000 C 
BRANCH   4   5
ATOM      5  C   UNL     1     -22.838  32.590  -1.565  1.00  0.00    -0.000 C 
BRANCH   5   6
ATOM      6  C   UNL     1     -22.475  31.150  -1.162  1.00  0.00    -0.000 C 
BRANCH   6   7
ATOM      7  C   UNL     1     -23.310  30.093  -1.899  1.00  0.00    -0.000 C 
BRANCH   7   8
ATOM      8  C   UNL     1     -24.688  30.647  -2.275  1.00  0.00    -0.003 C 
ATOM      9  C   UNL     1     -24.913  30.588  -3.783  1.00  0.00     0.004 C 
ENDBRANCH   7   8
ENDBRANCH   6   7
ENDBRANCH   5   6
ENDBRANCH   4   5
ENDBRANCH   3   4
ENDBRANCH   2   3
ENDBRANCH   1   2
BRANCH   1  10
ATOM     10  C   UNL     1     -18.193  31.686  -1.958  1.00  0.00     0.000 C 
BRANCH  10  11
ATOM     11  C   UNL     1     -16.989  30.728  -2.016  1.00  0.00     0.000 C 
BRANCH  11  12
ATOM     12  C   UNL     1     -16.789  30.017  -3.369  1.00  0.00     0.004 C 
BRANCH  12  13
ATOM     13  C   UNL     1     -15.889  30.781  -4.356  1.00  0.00     0.027 C 
BRANCH  13  14
ATOM     14  C   UNL     1     -16.655  31.337  -5.524  1.00  0.00    -0.027 C 
ATOM     15  C   UNL     1     -17.662  30.665  -6.085  1.00  0.00    -0.004 C 
BRANCH  15  16
ATOM     16  C   UNL     1     -18.407  31.225  -7.225  1.00  0.00     0.007 C 
ATOM     17  C   UNL     1     -19.492  30.610  -7.705  1.00  0.00     0.093 C 
BRANCH  17  18
ATOM     18  C   UNL     1     -20.260  31.138  -8.845  1.00  0.00     0.330 C 
ATOM     19  O   UNL     1     -21.519  31.212  -8.795  1.00  0.00    -0.247 OA
BRANCH  18  20
ATOM     20  O   UNL     1     -19.571  31.556  -9.986  1.00  0.00    -0.466 OA
ATOM     21  C   UNL     1     -18.921  30.646 -10.866  1.00  0.00     0.282 C 
ENDBRANCH  18  20
ENDBRANCH  17  18
ENDBRANCH  15  16
ENDBRANCH  13  14
ENDBRANCH  12  13
ENDBRANCH  11  12
ENDBRANCH  10  11
ENDBRANCH   1  10
TORSDOF 15
ENDMDL
MODEL 8
REMARK VINA RESULT:    -3.519      2.979      5.743
REMARK INTER + INTRA:          -9.764
REMARK INTER:                  -7.110
REMARK INTRA:                  -2.654
REMARK UNBOUND:                -3.159
REMARK SMILES CCCCCCCCCCCCCC=CC=CC(=O)OC
REMARK SMILES IDX 9 1 8 2 7 3 6 4 5 5 4 6 3 7 2 8 1 9 10 10 11 11 12 12 13 13
REMARK SMILES IDX 14 14 15 15 16 16 17 17 18 18 19 19 20 20 21 21
REMARK H PARENT
REMARK Flexibility Score: inf
ROOT
ATOM      1  C   UNL     1     -15.649  32.492  -5.743  1.00  0.00     0.000 C 
ENDROOT
BRANCH   1   2
ATOM      2  C   UNL     1     -15.733  31.458  -6.875  1.00  0.00     0.000 C 
BRANCH   2   3
ATOM      3  C   UNL     1     -16.514  32.013  -8.073  1.00  0.00     0.000 C 
BRANCH   3   4
ATOM      4  C   UNL     1     -17.948  31.466  -8.098  1.00  0.00    -0.000 C 
BRANCH   4   5
ATOM      5  C   UNL     1     -18.027  30.009  -7.598  1.00  0.00    -0.000 C 
BRANCH   5   6
ATOM      6  C   UNL     1     -19.426  29.600  -7.105  1.00  0.00    -0.000 C 
BRANCH   6   7
ATOM      7  C   UNL     1     -19.763  30.172  -5.721  1.00  0.00    -0.000 C 
BRANCH   7   8
ATOM      8  C   UNL     1     -19.757  29.070  -4.656  1.00  0.00    -0.003 C 
ATOM      9  C   UNL     1     -21.095  29.004  -3.924  1.00  0.00     0.004 C 
ENDBRANCH   7   8
ENDBRANCH   6   7
ENDBRANCH   5   6
ENDBRANCH   4   5
ENDBRANCH   3   4
ENDBRANCH   2   3
ENDBRANCH   1   2
BRANCH   1  10
ATOM     10  C   UNL     1     -16.645  32.196  -4.601  1.00  0.00     0.000 C 
BRANCH  10  11
ATOM     11  C   UNL     1     -16.548  30.760  -4.052  1.00  0.00     0.000 C 
BRANCH  11  12
ATOM     12  C   UNL     1     -17.049  30.585  -2.605  1.00  0.00     0.004 C 
BRANCH  12  13
ATOM     13  C   UNL     1     -17.736  31.830  -2.019  1.00  0.00     0.027 C 
BRANCH  13  14
ATOM     14  C   UNL     1     -19.236  31.754  -2.099  1.00  0.00    -0.027 C 
ATOM     15  C   UNL     1     -19.947  32.653  -2.783  1.00  0.00    -0.004 C 
BRANCH  15  16
ATOM     16  C   UNL     1     -21.415  32.562  -2.857  1.00  0.00     0.007 C 
ATOM     17  C   UNL     1     -22.117  31.986  -1.875  1.00  0.00     0.093 C 
BRANCH  17  18
ATOM     18  C   UNL     1     -23.584  31.874  -1.915  1.00  0.00     0.330 C 
ATOM     19  O   UNL     1     -24.315  32.795  -1.455  1.00  0.00    -0.247 OA
BRANCH  18  20
ATOM     20  O   UNL     1     -24.157  30.726  -2.469  1.00  0.00    -0.466 OA
ATOM     21  C   UNL     1     -24.480  30.621  -3.851  1.00  0.00     0.282 C 
ENDBRANCH  18  20
ENDBRANCH  17  18
ENDBRANCH  15  16
ENDBRANCH  13  14
ENDBRANCH  12  13
ENDBRANCH  11  12
ENDBRANCH  10  11
ENDBRANCH   1  10
TORSDOF 15
ENDMDL
MODEL 9
REMARK VINA RESULT:    -3.485      2.831      5.426
REMARK INTER + INTRA:          -9.700
REMARK INTER:                  -6.623
REMARK INTRA:                  -3.077
REMARK UNBOUND:                -3.159
REMARK SMILES CCCCCCCCCCCCCC=CC=CC(=O)OC
REMARK SMILES IDX 9 1 8 2 7 3 6 4 5 5 4 6 3 7 2 8 1 9 10 10 11 11 12 12 13 13
REMARK SMILES IDX 14 14 15 15 16 16 17 17 18 18 19 19 20 20 21 21
REMARK H PARENT
REMARK Flexibility Score: inf
ROOT
ATOM      1  C   UNL     1     -17.405  31.841  -5.985  1.00  0.00     0.000 C 
ENDROOT
BRANCH   1   2
ATOM      2  C   UNL     1     -18.906  32.113  -5.811  1.00  0.00     0.000 C 
BRANCH   2   3
ATOM      3  C   UNL     1     -19.742  30.925  -6.302  1.00  0.00     0.000 C 
BRANCH   3   4
ATOM      4  C   UNL     1     -20.053  29.956  -5.152  1.00  0.00    -0.000 C 
BRANCH   4   5
ATOM      5  C   UNL     1     -19.901  28.480  -5.576  1.00  0.00    -0.000 C 
BRANCH   5   6
ATOM      6  C   UNL     1     -18.588  27.834  -5.098  1.00  0.00    -0.000 C 
BRANCH   6   7
ATOM      7  C   UNL     1     -17.423  28.056  -6.073  1.00  0.00    -0.000 C 
BRANCH   7   8
ATOM      8  C   UNL     1     -17.857  27.786  -7.517  1.00  0.00    -0.003 C 
ATOM      9  C   UNL     1     -17.454  28.935  -8.438  1.00  0.00     0.004 C 
ENDBRANCH   7   8
ENDBRANCH   6   7
ENDBRANCH   5   6
ENDBRANCH   4   5
ENDBRANCH   3   4
ENDBRANCH   2   3
ENDBRANCH   1   2
BRANCH   1  10
ATOM     10  C   UNL     1     -16.612  32.066  -4.679  1.00  0.00     0.000 C 
BRANCH  10  11
ATOM     11  C   UNL     1     -16.147  30.761  -4.004  1.00  0.00     0.000 C 
BRANCH  11  12
ATOM     12  C   UNL     1     -16.983  30.329  -2.784  1.00  0.00     0.004 C 
BRANCH  12  13
ATOM     13  C   UNL     1     -17.594  31.497  -1.991  1.00  0.00     0.027 C 
BRANCH  13  14
ATOM     14  C   UNL     1     -19.098  31.480  -2.005  1.00  0.00    -0.027 C 
ATOM     15  C   UNL     1     -19.805  32.519  -2.453  1.00  0.00    -0.004 C 
BRANCH  15  16
ATOM     16  C   UNL     1     -21.277  32.485  -2.466  1.00  0.00     0.007 C 
ATOM     17  C   UNL     1     -21.943  31.420  -2.009  1.00  0.00     0.093 C 
BRANCH  17  18
ATOM     18  C   UNL     1     -23.413  31.348  -2.008  1.00  0.00     0.330 C 
ATOM     19  O   UNL     1     -24.108  32.349  -1.677  1.00  0.00    -0.247 OA
BRANCH  18  20
ATOM     20  O   UNL     1     -24.030  30.150  -2.378  1.00  0.00    -0.466 OA
ATOM     21  C   UNL     1     -25.350  29.809  -1.969  1.00  0.00     0.282 C 
ENDBRANCH  18  20
ENDBRANCH  17  18
ENDBRANCH  15  16
ENDBRANCH  13  14
ENDBRANCH  12  13
ENDBRANCH  11  12
ENDBRANCH  10  11
ENDBRANCH   1  10
TORSDOF 15
ENDMDL
