MODEL 1
REMARK VINA RESULT:    -3.019      0.000      0.000
REMARK INTER + INTRA:          -6.339
REMARK INTER:                  -5.313
REMARK INTRA:                  -1.026
REMARK UNBOUND:                -1.026
REMARK SMILES CCCCCCC=CCCCCCCCC(=O)[O-]
REMARK SMILES IDX 10 1 11 2 12 3 13 4 14 5 15 6 16 7 17 8 18 9 9 10 8 11 7 12
REMARK SMILES IDX 6 13 5 14 4 15 3 16 2 17 1 18
REMARK H PARENT
REMARK Flexibility Score: inf
ROOT
ATOM      1  C   UNL     1     -53.371 120.804  -8.497  1.00  0.00     0.004 C 
ENDROOT
BRANCH   1   2
ATOM      2  C   UNL     1     -54.390 121.900  -8.853  1.00  0.00     0.000 C 
BRANCH   2   3
ATOM      3  C   UNL     1     -55.858 121.433  -8.758  1.00  0.00     0.000 C 
BRANCH   3   4
ATOM      4  C   UNL     1     -56.691 121.891  -9.968  1.00  0.00     0.000 C 
BRANCH   4   5
ATOM      5  C   UNL     1     -55.859 121.996 -11.256  1.00  0.00     0.006 C 
BRANCH   5   6
ATOM      6  C   UNL     1     -55.756 120.661 -12.004  1.00  0.00     0.053 C 
BRANCH   6   7
ATOM      7  C   UNL     1     -56.870 119.749 -11.597  1.00  0.00     0.041 C 
ATOM      8  O   UNL     1     -56.623 118.694 -10.955  1.00  0.00    -0.550 OA
ATOM      9  O   UNL     1     -58.176 120.038 -11.967  1.00  0.00    -0.550 OA
ENDBRANCH   6   7
ENDBRANCH   5   6
ENDBRANCH   4   5
ENDBRANCH   3   4
ENDBRANCH   2   3
ENDBRANCH   1   2
BRANCH   1  10
ATOM     10  C   UNL     1     -53.226 119.744  -9.598  1.00  0.00     0.027 C 
BRANCH  10  11
ATOM     11  C   UNL     1     -52.462 120.285 -10.774  1.00  0.00    -0.031 C 
ATOM     12  C   UNL     1     -52.235 121.599 -10.921  1.00  0.00    -0.031 C 
BRANCH  12  13
ATOM     13  C   UNL     1     -51.416 122.137 -12.063  1.00  0.00     0.027 C 
BRANCH  13  14
ATOM     14  C   UNL     1     -49.936 121.742 -11.938  1.00  0.00     0.004 C 
BRANCH  14  15
ATOM     15  C   UNL     1     -49.286 122.130 -10.597  1.00  0.00     0.000 C 
BRANCH  15  16
ATOM     16  C   UNL     1     -48.876 123.612 -10.541  1.00  0.00    -0.000 C 
BRANCH  16  17
ATOM     17  C   UNL     1     -49.301 124.289  -9.229  1.00  0.00    -0.003 C 
ATOM     18  C   UNL     1     -50.641 123.776  -8.703  1.00  0.00     0.004 C 
ENDBRANCH  16  17
ENDBRANCH  15  16
ENDBRANCH  14  15
ENDBRANCH  13  14
ENDBRANCH  12  13
ENDBRANCH  10  11
ENDBRANCH   1  10
TORSDOF 13
ENDMDL
MODEL 2
REMARK VINA RESULT:    -2.766      1.299      2.852
REMARK INTER + INTRA:          -5.894
REMARK INTER:                  -4.739
REMARK INTRA:                  -1.155
REMARK UNBOUND:                -1.026
REMARK SMILES CCCCCCC=CCCCCCCCC(=O)[O-]
REMARK SMILES IDX 10 1 11 2 12 3 13 4 14 5 15 6 16 7 17 8 18 9 9 10 8 11 7 12
REMARK SMILES IDX 6 13 5 14 4 15 3 16 2 17 1 18
REMARK H PARENT
REMARK Flexibility Score: inf
ROOT
ATOM      1  C   UNL     1     -53.802 121.360  -8.347  1.00  0.00     0.004 C 
ENDROOT
BRANCH   1   2
ATOM      2  C   UNL     1     -52.883 120.538  -9.265  1.00  0.00     0.000 C 
BRANCH   2   3
ATOM      3  C   UNL     1     -53.644 119.571 -10.197  1.00  0.00     0.000 C 
BRANCH   3   4
ATOM      4  C   UNL     1     -53.796 120.136 -11.620  1.00  0.00     0.000 C 
BRANCH   4   5
ATOM      5  C   UNL     1     -55.250 120.107 -12.117  1.00  0.00     0.006 C 
BRANCH   5   6
ATOM      6  C   UNL     1     -56.232 119.622 -11.043  1.00  0.00     0.053 C 
BRANCH   6   7
ATOM      7  C   UNL     1     -57.289 120.652 -10.800  1.00  0.00     0.041 C 
ATOM      8  O   UNL     1     -58.369 120.616 -11.447  1.00  0.00    -0.550 OA
ATOM      9  O   UNL     1     -57.064 121.680  -9.894  1.00  0.00    -0.550 OA
ENDBRANCH   6   7
ENDBRANCH   5   6
ENDBRANCH   4   5
ENDBRANCH   3   4
ENDBRANCH   2   3
ENDBRANCH   1   2
BRANCH   1  10
ATOM     10  C   UNL     1     -54.115 122.754  -8.909  1.00  0.00     0.027 C 
BRANCH  10  11
ATOM     11  C   UNL     1     -52.894 123.630  -8.900  1.00  0.00    -0.031 C 
ATOM     12  C   UNL     1     -51.714 123.187  -8.438  1.00  0.00    -0.031 C 
BRANCH  12  13
ATOM     13  C   UNL     1     -50.476 124.040  -8.487  1.00  0.00     0.027 C 
BRANCH  13  14
ATOM     14  C   UNL     1     -49.375 123.397  -9.346  1.00  0.00     0.004 C 
BRANCH  14  15
ATOM     15  C   UNL     1     -48.875 124.281 -10.504  1.00  0.00     0.000 C 
BRANCH  15  16
ATOM     16  C   UNL     1     -49.207 123.694 -11.887  1.00  0.00    -0.000 C 
BRANCH  16  17
ATOM     17  C   UNL     1     -49.831 122.293 -11.795  1.00  0.00    -0.003 C 
ATOM     18  C   UNL     1     -51.323 122.285 -12.124  1.00  0.00     0.004 C 
ENDBRANCH  16  17
ENDBRANCH  15  16
ENDBRANCH  14  15
ENDBRANCH  13  14
ENDBRANCH  12  13
ENDBRANCH  10  11
ENDBRANCH   1  10
TORSDOF 13
ENDMDL
MODEL 3
REMARK VINA RESULT:    -2.496      1.692      2.178
REMARK INTER + INTRA:          -5.418
REMARK INTER:                  -4.635
REMARK INTRA:                  -0.783
REMARK UNBOUND:                -1.026
REMARK SMILES CCCCCCC=CCCCCCCCC(=O)[O-]
REMARK SMILES IDX 10 1 11 2 12 3 13 4 14 5 15 6 16 7 17 8 18 9 9 10 8 11 7 12
REMARK SMILES IDX 6 13 5 14 4 15 3 16 2 17 1 18
REMARK H PARENT
REMARK Flexibility Score: inf
ROOT
ATOM      1  C   UNL     1     -55.094 120.938  -8.258  1.00  0.00     0.004 C 
ENDROOT
BRANCH   1   2
ATOM      2  C   UNL     1     -56.131 121.766  -9.036  1.00  0.00     0.000 C 
BRANCH   2   3
ATOM      3  C   UNL     1     -57.144 120.906  -9.821  1.00  0.00     0.000 C 
BRANCH   3   4
ATOM      4  C   UNL     1     -56.456 119.798 -10.637  1.00  0.00     0.000 C 
BRANCH   4   5
ATOM      5  C   UNL     1     -56.107 120.244 -12.066  1.00  0.00     0.006 C 
BRANCH   5   6
ATOM      6  C   UNL     1     -54.856 121.130 -12.120  1.00  0.00     0.053 C 
BRANCH   6   7
ATOM      7  C   UNL     1     -55.241 122.576 -12.100  1.00  0.00     0.041 C 
ATOM      8  O   UNL     1     -54.354 123.466 -12.022  1.00  0.00    -0.550 OA
ATOM      9  O   UNL     1     -56.580 122.940 -12.122  1.00  0.00    -0.550 OA
ENDBRANCH   6   7
ENDBRANCH   5   6
ENDBRANCH   4   5
ENDBRANCH   3   4
ENDBRANCH   2   3
ENDBRANCH   1   2
BRANCH   1  10
ATOM     10  C   UNL     1     -53.726 121.629  -8.168  1.00  0.00     0.027 C 
BRANCH  10  11
ATOM     11  C   UNL     1     -52.770 121.075  -9.188  1.00  0.00    -0.031 C 
ATOM     12  C   UNL     1     -52.201 121.859 -10.116  1.00  0.00    -0.031 C 
BRANCH  12  13
ATOM     13  C   UNL     1     -51.195 121.320 -11.097  1.00  0.00     0.027 C 
BRANCH  13  14
ATOM     14  C   UNL     1     -50.483 122.448 -11.861  1.00  0.00     0.004 C 
BRANCH  14  15
ATOM     15  C   UNL     1     -49.024 122.685 -11.429  1.00  0.00     0.000 C 
BRANCH  15  16
ATOM     16  C   UNL     1     -48.875 122.858  -9.907  1.00  0.00    -0.000 C 
BRANCH  16  17
ATOM     17  C   UNL     1     -49.002 124.325  -9.468  1.00  0.00    -0.003 C 
ATOM     18  C   UNL     1     -50.020 124.523  -8.346  1.00  0.00     0.004 C 
ENDBRANCH  16  17
ENDBRANCH  15  16
ENDBRANCH  14  15
ENDBRANCH  13  14
ENDBRANCH  12  13
ENDBRANCH  10  11
ENDBRANCH   1  10
TORSDOF 13
ENDMDL
MODEL 4
REMARK VINA RESULT:    -2.455      2.523      3.879
REMARK INTER + INTRA:          -5.346
REMARK INTER:                  -3.905
REMARK INTRA:                  -1.441
REMARK UNBOUND:                -1.026
REMARK SMILES CCCCCCC=CCCCCCCCC(=O)[O-]
REMARK SMILES IDX 10 1 11 2 12 3 13 4 14 5 15 6 16 7 17 8 18 9 9 10 8 11 7 12
REMARK SMILES IDX 6 13 5 14 4 15 3 16 2 17 1 18
REMARK H PARENT
REMARK Flexibility Score: inf
ROOT
ATOM      1  C   UNL     1     -56.440 120.701 -11.875  1.00  0.00     0.004 C 
ENDROOT
BRANCH   1   2
ATOM      2  C   UNL     1     -57.586 120.320 -10.923  1.00  0.00     0.000 C 
BRANCH   2   3
ATOM      3  C   UNL     1     -57.214 120.443  -9.429  1.00  0.00     0.000 C 
BRANCH   3   4
ATOM      4  C   UNL     1     -55.694 120.377  -9.202  1.00  0.00     0.000 C 
BRANCH   4   5
ATOM      5  C   UNL     1     -55.148 121.619  -8.479  1.00  0.00     0.006 C 
BRANCH   5   6
ATOM      6  C   UNL     1     -53.615 121.661  -8.453  1.00  0.00     0.053 C 
BRANCH   6   7
ATOM      7  C   UNL     1     -53.133 123.077  -8.446  1.00  0.00     0.041 C 
ATOM      8  O   UNL     1     -53.956 124.026  -8.535  1.00  0.00    -0.550 OA
ATOM      9  O   UNL     1     -51.773 123.349  -8.389  1.00  0.00    -0.550 OA
ENDBRANCH   6   7
ENDBRANCH   5   6
ENDBRANCH   4   5
ENDBRANCH   3   4
ENDBRANCH   2   3
ENDBRANCH   1   2
BRANCH   1  10
ATOM     10  C   UNL     1     -56.256 122.218 -12.011  1.00  0.00     0.027 C 
BRANCH  10  11
ATOM     11  C   UNL     1     -54.799 122.586 -12.060  1.00  0.00    -0.031 C 
ATOM     12  C   UNL     1     -53.837 121.653 -12.008  1.00  0.00    -0.031 C 
BRANCH  12  13
ATOM     13  C   UNL     1     -52.380 122.013 -12.122  1.00  0.00     0.027 C 
BRANCH  13  14
ATOM     14  C   UNL     1     -51.502 121.125 -11.227  1.00  0.00     0.004 C 
BRANCH  14  15
ATOM     15  C   UNL     1     -49.999 121.457 -11.282  1.00  0.00     0.000 C 
BRANCH  15  16
ATOM     16  C   UNL     1     -49.499 122.165 -10.010  1.00  0.00    -0.000 C 
BRANCH  16  17
ATOM     17  C   UNL     1     -48.885 123.542 -10.308  1.00  0.00    -0.003 C 
ATOM     18  C   UNL     1     -49.335 124.114 -11.651  1.00  0.00     0.004 C 
ENDBRANCH  16  17
ENDBRANCH  15  16
ENDBRANCH  14  15
ENDBRANCH  13  14
ENDBRANCH  12  13
ENDBRANCH  10  11
ENDBRANCH   1  10
TORSDOF 13
ENDMDL
MODEL 5
REMARK VINA RESULT:    -2.150      1.552      2.315
REMARK INTER + INTRA:          -4.810
REMARK INTER:                  -4.259
REMARK INTRA:                  -0.551
REMARK UNBOUND:                -1.026
REMARK SMILES CCCCCCC=CCCCCCCCC(=O)[O-]
REMARK SMILES IDX 10 1 11 2 12 3 13 4 14 5 15 6 16 7 17 8 18 9 9 10 8 11 7 12
REMARK SMILES IDX 6 13 5 14 4 15 3 16 2 17 1 18
REMARK H PARENT
REMARK Flexibility Score: inf
ROOT
ATOM      1  C   UNL     1     -53.993 121.430  -9.274  1.00  0.00     0.004 C 
ENDROOT
BRANCH   1   2
ATOM      2  C   UNL     1     -54.294 120.021  -9.812  1.00  0.00     0.000 C 
BRANCH   2   3
ATOM      3  C   UNL     1     -54.218 119.917 -11.350  1.00  0.00     0.000 C 
BRANCH   3   4
ATOM      4  C   UNL     1     -55.572 119.537 -11.973  1.00  0.00     0.000 C 
BRANCH   4   5
ATOM      5  C   UNL     1     -56.699 119.447 -10.932  1.00  0.00     0.006 C 
BRANCH   5   6
ATOM      6  C   UNL     1     -57.712 120.592 -11.057  1.00  0.00     0.053 C 
BRANCH   6   7
ATOM      7  C   UNL     1     -57.127 121.864 -10.530  1.00  0.00     0.041 C 
ATOM      8  O   UNL     1     -56.592 122.689 -11.317  1.00  0.00    -0.550 OA
ATOM      9  O   UNL     1     -57.129 122.118  -9.165  1.00  0.00    -0.550 OA
ENDBRANCH   6   7
ENDBRANCH   5   6
ENDBRANCH   4   5
ENDBRANCH   3   4
ENDBRANCH   2   3
ENDBRANCH   1   2
BRANCH   1  10
ATOM     10  C   UNL     1     -53.493 122.389 -10.363  1.00  0.00     0.027 C 
BRANCH  10  11
ATOM     11  C   UNL     1     -52.000 122.307 -10.514  1.00  0.00    -0.031 C 
ATOM     12  C   UNL     1     -51.432 121.802 -11.620  1.00  0.00    -0.031 C 
BRANCH  12  13
ATOM     13  C   UNL     1     -49.938 121.777 -11.801  1.00  0.00     0.027 C 
BRANCH  13  14
ATOM     14  C   UNL     1     -49.220 121.255 -10.546  1.00  0.00     0.004 C 
BRANCH  14  15
ATOM     15  C   UNL     1     -48.880 122.341  -9.509  1.00  0.00     0.000 C 
BRANCH  15  16
ATOM     16  C   UNL     1     -48.875 123.758 -10.112  1.00  0.00    -0.000 C 
BRANCH  16  17
ATOM     17  C   UNL     1     -49.222 124.837  -9.076  1.00  0.00    -0.003 C 
ATOM     18  C   UNL     1     -50.304 124.392  -8.093  1.00  0.00     0.004 C 
ENDBRANCH  16  17
ENDBRANCH  15  16
ENDBRANCH  14  15
ENDBRANCH  13  14
ENDBRANCH  12  13
ENDBRANCH  10  11
ENDBRANCH   1  10
TORSDOF 13
ENDMDL
MODEL 6
REMARK VINA RESULT:    -1.889      2.004      3.146
REMARK INTER + INTRA:          -4.350
REMARK INTER:                  -3.781
REMARK INTRA:                  -0.569
REMARK UNBOUND:                -1.026
REMARK SMILES CCCCCCC=CCCCCCCCC(=O)[O-]
REMARK SMILES IDX 10 1 11 2 12 3 13 4 14 5 15 6 16 7 17 8 18 9 9 10 8 11 7 12
REMARK SMILES IDX 6 13 5 14 4 15 3 16 2 17 1 18
REMARK H PARENT
REMARK Flexibility Score: inf
ROOT
ATOM      1  C   UNL     1     -55.347 122.492 -12.077  1.00  0.00     0.004 C 
ENDROOT
BRANCH   1   2
ATOM      2  C   UNL     1     -55.112 120.974 -12.019  1.00  0.00     0.000 C 
BRANCH   2   3
ATOM      3  C   UNL     1     -56.401 120.158 -11.779  1.00  0.00     0.000 C 
BRANCH   3   4
ATOM      4  C   UNL     1     -57.177 120.650 -10.545  1.00  0.00     0.000 C 
BRANCH   4   5
ATOM      5  C   UNL     1     -56.586 120.129  -9.226  1.00  0.00     0.006 C 
BRANCH   5   6
ATOM      6  C   UNL     1     -56.135 121.261  -8.293  1.00  0.00     0.053 C 
BRANCH   6   7
ATOM      7  C   UNL     1     -54.705 121.613  -8.556  1.00  0.00     0.041 C 
ATOM      8  O   UNL     1     -54.388 122.795  -8.855  1.00  0.00    -0.550 OA
ATOM      9  O   UNL     1     -53.727 120.628  -8.517  1.00  0.00    -0.550 OA
ENDBRANCH   6   7
ENDBRANCH   5   6
ENDBRANCH   4   5
ENDBRANCH   3   4
ENDBRANCH   2   3
ENDBRANCH   1   2
BRANCH   1  10
ATOM     10  C   UNL     1     -54.104 123.303 -11.687  1.00  0.00     0.027 C 
BRANCH  10  11
ATOM     11  C   UNL     1     -52.844 122.609 -12.123  1.00  0.00    -0.031 C 
ATOM     12  C   UNL     1     -52.037 121.996 -11.243  1.00  0.00    -0.031 C 
BRANCH  12  13
ATOM     13  C   UNL     1     -50.810 121.246 -11.684  1.00  0.00     0.027 C 
BRANCH  13  14
ATOM     14  C   UNL     1     -49.687 122.198 -12.124  1.00  0.00     0.004 C 
BRANCH  14  15
ATOM     15  C   UNL     1     -49.435 123.373 -11.159  1.00  0.00     0.000 C 
BRANCH  15  16
ATOM     16  C   UNL     1     -49.319 122.923  -9.692  1.00  0.00    -0.000 C 
BRANCH  16  17
ATOM     17  C   UNL     1     -49.860 123.974  -8.711  1.00  0.00    -0.003 C 
ATOM     18  C   UNL     1     -48.880 125.121  -8.470  1.00  0.00     0.004 C 
ENDBRANCH  16  17
ENDBRANCH  15  16
ENDBRANCH  14  15
ENDBRANCH  13  14
ENDBRANCH  12  13
ENDBRANCH  10  11
ENDBRANCH   1  10
TORSDOF 13
ENDMDL
MODEL 7
REMARK VINA RESULT:    -1.858      1.829      3.586
REMARK INTER + INTRA:          -4.296
REMARK INTER:                  -2.863
REMARK INTRA:                  -1.434
REMARK UNBOUND:                -1.026
REMARK SMILES CCCCCCC=CCCCCCCCC(=O)[O-]
REMARK SMILES IDX 10 1 11 2 12 3 13 4 14 5 15 6 16 7 17 8 18 9 9 10 8 11 7 12
REMARK SMILES IDX 6 13 5 14 4 15 3 16 2 17 1 18
REMARK H PARENT
REMARK Flexibility Score: inf
ROOT
ATOM      1  C   UNL     1     -56.755 120.310  -9.370  1.00  0.00     0.004 C 
ENDROOT
BRANCH   1   2
ATOM      2  C   UNL     1     -56.797 120.041 -10.884  1.00  0.00     0.000 C 
BRANCH   2   3
ATOM      3  C   UNL     1     -56.645 121.316 -11.742  1.00  0.00     0.000 C 
BRANCH   3   4
ATOM      4  C   UNL     1     -55.180 121.586 -12.124  1.00  0.00     0.000 C 
BRANCH   4   5
ATOM      5  C   UNL     1     -54.321 120.312 -12.123  1.00  0.00     0.006 C 
BRANCH   5   6
ATOM      6  C   UNL     1     -52.895 120.559 -11.615  1.00  0.00     0.053 C 
BRANCH   6   7
ATOM      7  C   UNL     1     -52.693 119.897 -10.289  1.00  0.00     0.041 C 
ATOM      8  O   UNL     1     -53.527 119.052  -9.869  1.00  0.00    -0.550 OA
ATOM      9  O   UNL     1     -51.610 120.246  -9.494  1.00  0.00    -0.550 OA
ENDBRANCH   6   7
ENDBRANCH   5   6
ENDBRANCH   4   5
ENDBRANCH   3   4
ENDBRANCH   2   3
ENDBRANCH   1   2
BRANCH   1  10
ATOM     10  C   UNL     1     -56.359 121.754  -9.031  1.00  0.00     0.027 C 
BRANCH  10  11
ATOM     11  C   UNL     1     -54.946 121.824  -8.523  1.00  0.00    -0.031 C 
ATOM     12  C   UNL     1     -54.145 122.860  -8.816  1.00  0.00    -0.031 C 
BRANCH  12  13
ATOM     13  C   UNL     1     -52.752 122.964  -8.256  1.00  0.00     0.027 C 
BRANCH  13  14
ATOM     14  C   UNL     1     -51.728 123.335  -9.341  1.00  0.00     0.004 C 
BRANCH  14  15
ATOM     15  C   UNL     1     -50.343 123.731  -8.798  1.00  0.00     0.000 C 
BRANCH  15  16
ATOM     16  C   UNL     1     -49.216 123.508  -9.822  1.00  0.00    -0.000 C 
BRANCH  16  17
ATOM     17  C   UNL     1     -49.711 122.806 -11.095  1.00  0.00    -0.003 C 
ATOM     18  C   UNL     1     -48.978 121.494 -11.374  1.00  0.00     0.004 C 
ENDBRANCH  16  17
ENDBRANCH  15  16
ENDBRANCH  14  15
ENDBRANCH  13  14
ENDBRANCH  12  13
ENDBRANCH  10  11
ENDBRANCH   1  10
TORSDOF 13
ENDMDL
MODEL 8
REMARK VINA RESULT:    -1.721      1.792      3.008
REMARK INTER + INTRA:          -4.054
REMARK INTER:                  -3.292
REMARK INTRA:                  -0.762
REMARK UNBOUND:                -1.026
REMARK SMILES CCCCCCC=CCCCCCCCC(=O)[O-]
REMARK SMILES IDX 10 1 11 2 12 3 13 4 14 5 15 6 16 7 17 8 18 9 9 10 8 11 7 12
REMARK SMILES IDX 6 13 5 14 4 15 3 16 2 17 1 18
REMARK H PARENT
REMARK Flexibility Score: inf
ROOT
ATOM      1  C   UNL     1     -55.661 121.785  -8.153  1.00  0.00     0.004 C 
ENDROOT
BRANCH   1   2
ATOM      2  C   UNL     1     -56.552 121.715  -9.404  1.00  0.00     0.000 C 
BRANCH   2   3
ATOM      3  C   UNL     1     -57.041 120.289  -9.737  1.00  0.00     0.000 C 
BRANCH   3   4
ATOM      4  C   UNL     1     -57.352 120.117 -11.233  1.00  0.00     0.000 C 
BRANCH   4   5
ATOM      5  C   UNL     1     -56.093 119.857 -12.075  1.00  0.00     0.006 C 
BRANCH   5   6
ATOM      6  C   UNL     1     -55.155 121.070 -12.125  1.00  0.00     0.053 C 
BRANCH   6   7
ATOM      7  C   UNL     1     -53.757 120.660 -11.783  1.00  0.00     0.041 C 
ATOM      8  O   UNL     1     -52.784 121.385 -12.120  1.00  0.00    -0.550 OA
ATOM      9  O   UNL     1     -53.524 119.455 -11.134  1.00  0.00    -0.550 OA
ENDBRANCH   6   7
ENDBRANCH   5   6
ENDBRANCH   4   5
ENDBRANCH   3   4
ENDBRANCH   2   3
ENDBRANCH   1   2
BRANCH   1  10
ATOM     10  C   UNL     1     -54.198 121.424  -8.442  1.00  0.00     0.027 C 
BRANCH  10  11
ATOM     11  C   UNL     1     -53.394 122.648  -8.783  1.00  0.00    -0.031 C 
ATOM     12  C   UNL     1     -52.086 122.733  -8.493  1.00  0.00    -0.031 C 
BRANCH  12  13
ATOM     13  C   UNL     1     -51.266 123.930  -8.891  1.00  0.00     0.027 C 
BRANCH  13  14
ATOM     14  C   UNL     1     -49.761 123.673  -8.713  1.00  0.00     0.004 C 
BRANCH  14  15
ATOM     15  C   UNL     1     -48.950 123.716 -10.021  1.00  0.00     0.000 C 
BRANCH  15  16
ATOM     16  C   UNL     1     -49.743 123.189 -11.230  1.00  0.00    -0.000 C 
BRANCH  16  17
ATOM     17  C   UNL     1     -49.429 121.718 -11.542  1.00  0.00    -0.003 C 
ATOM     18  C   UNL     1     -48.875 120.960 -10.336  1.00  0.00     0.004 C 
ENDBRANCH  16  17
ENDBRANCH  15  16
ENDBRANCH  14  15
ENDBRANCH  13  14
ENDBRANCH  12  13
ENDBRANCH  10  11
ENDBRANCH   1  10
TORSDOF 13
ENDMDL
