MODEL 1
REMARK VINA RESULT:    -4.784      0.000      0.000
REMARK INTER + INTRA:          -5.819
REMARK INTER:                  -5.483
REMARK INTRA:                  -0.336
REMARK UNBOUND:                -0.336
REMARK SMILES COc1ccc(C(C)=O)c(O)c1
REMARK SMILES IDX 6 1 10 2 12 3 3 4 4 5 5 6 7 7 8 8 9 9 11 10 2 12 1 13
REMARK H PARENT 11 11
REMARK Flexibility Score: inf
ROOT
ATOM      1  C   UNL     1     260.426 -28.024  54.964  1.00  0.00     0.059 A 
ATOM      2  C   UNL     1     259.671 -28.656  53.946  1.00  0.00     0.130 A 
ATOM      3  C   UNL     1     259.936 -28.363  52.602  1.00  0.00     0.093 A 
ATOM      4  C   UNL     1     260.957 -27.479  52.243  1.00  0.00     0.122 A 
ATOM      5  C   UNL     1     261.724 -26.874  53.253  1.00  0.00     0.047 A 
ATOM      6  C   UNL     1     261.460 -27.144  54.596  1.00  0.00     0.019 A 
ENDROOT
BRANCH   1   7
ATOM      7  C   UNL     1     260.133 -28.232  56.403  1.00  0.00     0.163 C 
ATOM      8  C   UNL     1     259.690 -27.097  57.274  1.00  0.00     0.093 C 
ATOM      9  O   UNL     1     260.176 -29.392  56.892  1.00  0.00    -0.294 OA
ENDBRANCH   1   7
BRANCH   2  10
ATOM     10  O   UNL     1     258.679 -29.599  54.225  1.00  0.00    -0.507 OA
ATOM     11  H   UNL     1     257.704 -29.464  53.998  1.00  0.00     0.293 HD
ENDBRANCH   2  10
BRANCH   4  12
ATOM     12  O   UNL     1     261.177 -27.232  50.880  1.00  0.00    -0.497 OA
ATOM     13  C   UNL     1     260.858 -28.146  49.836  1.00  0.00     0.278 C 
ENDBRANCH   4  12
TORSDOF 3
ENDMDL
MODEL 2
REMARK VINA RESULT:    -4.592      1.648      2.433
REMARK INTER + INTRA:          -5.599
REMARK INTER:                  -5.279
REMARK INTRA:                  -0.319
REMARK UNBOUND:                -0.336
REMARK SMILES COc1ccc(C(C)=O)c(O)c1
REMARK SMILES IDX 6 1 10 2 12 3 3 4 4 5 5 6 7 7 8 8 9 9 11 10 2 12 1 13
REMARK H PARENT 11 11
REMARK Flexibility Score: inf
ROOT
ATOM      1  C   UNL     1     260.028 -28.214  55.810  1.00  0.00     0.059 A 
ATOM      2  C   UNL     1     260.968 -27.480  55.046  1.00  0.00     0.130 A 
ATOM      3  C   UNL     1     260.944 -27.566  53.648  1.00  0.00     0.093 A 
ATOM      4  C   UNL     1     259.986 -28.339  52.988  1.00  0.00     0.122 A 
ATOM      5  C   UNL     1     259.036 -29.044  53.745  1.00  0.00     0.047 A 
ATOM      6  C   UNL     1     259.059 -28.981  55.140  1.00  0.00     0.019 A 
ENDROOT
BRANCH   1   7
ATOM      7  C   UNL     1     260.060 -28.227  57.292  1.00  0.00     0.163 C 
ATOM      8  C   UNL     1     260.423 -29.469  58.047  1.00  0.00     0.093 C 
ATOM      9  O   UNL     1     259.860 -27.162  57.935  1.00  0.00    -0.294 OA
ENDBRANCH   1   7
BRANCH   2  10
ATOM     10  O   UNL     1     261.914 -26.636  55.632  1.00  0.00    -0.507 OA
ATOM     11  H   UNL     1     262.125 -25.711  55.285  1.00  0.00     0.293 HD
ENDBRANCH   2  10
BRANCH   4  12
ATOM     12  O   UNL     1     260.011 -28.378  51.586  1.00  0.00    -0.497 OA
ATOM     13  C   UNL     1     261.199 -28.388  50.803  1.00  0.00     0.278 C 
ENDBRANCH   4  12
TORSDOF 3
ENDMDL
MODEL 3
REMARK VINA RESULT:    -4.555      7.371      9.229
REMARK INTER + INTRA:          -5.557
REMARK INTER:                  -5.218
REMARK INTRA:                  -0.339
REMARK UNBOUND:                -0.336
REMARK SMILES COc1ccc(C(C)=O)c(O)c1
REMARK SMILES IDX 6 1 10 2 12 3 3 4 4 5 5 6 7 7 8 8 9 9 11 10 2 12 1 13
REMARK H PARENT 11 11
REMARK Flexibility Score: inf
ROOT
ATOM      1  C   UNL     1     253.734 -25.149  49.875  1.00  0.00     0.059 A 
ATOM      2  C   UNL     1     254.350 -24.220  50.748  1.00  0.00     0.130 A 
ATOM      3  C   UNL     1     254.484 -24.528  52.107  1.00  0.00     0.093 A 
ATOM      4  C   UNL     1     254.049 -25.755  52.616  1.00  0.00     0.122 A 
ATOM      5  C   UNL     1     253.465 -26.688  51.744  1.00  0.00     0.047 A 
ATOM      6  C   UNL     1     253.310 -26.387  50.390  1.00  0.00     0.019 A 
ENDROOT
BRANCH   1   7
ATOM      7  C   UNL     1     253.490 -24.842  48.445  1.00  0.00     0.163 C 
ATOM      8  C   UNL     1     252.112 -24.916  47.862  1.00  0.00     0.093 C 
ATOM      9  O   UNL     1     254.435 -24.431  47.720  1.00  0.00    -0.294 OA
ENDBRANCH   1   7
BRANCH   2  10
ATOM     10  O   UNL     1     254.867 -23.001  50.301  1.00  0.00    -0.507 OA
ATOM     11  H   UNL     1     254.894 -22.167  50.869  1.00  0.00     0.293 HD
ENDBRANCH   2  10
BRANCH   4  12
ATOM     12  O   UNL     1     254.218 -26.006  53.986  1.00  0.00    -0.497 OA
ATOM     13  C   UNL     1     253.375 -25.488  55.009  1.00  0.00     0.278 C 
ENDBRANCH   4  12
TORSDOF 3
ENDMDL
MODEL 4
REMARK VINA RESULT:    -4.366      3.331      5.646
REMARK INTER + INTRA:          -5.340
REMARK INTER:                  -5.004
REMARK INTRA:                  -0.336
REMARK UNBOUND:                -0.336
REMARK SMILES COc1ccc(C(C)=O)c(O)c1
REMARK SMILES IDX 6 1 10 2 12 3 3 4 4 5 5 6 7 7 8 8 9 9 11 10 2 12 1 13
REMARK H PARENT 11 11
REMARK Flexibility Score: inf
ROOT
ATOM      1  C   UNL     1     261.835 -27.476  56.405  1.00  0.00     0.059 A 
ATOM      2  C   UNL     1     261.956 -28.599  57.260  1.00  0.00     0.130 A 
ATOM      3  C   UNL     1     260.905 -28.928  58.125  1.00  0.00     0.093 A 
ATOM      4  C   UNL     1     259.721 -28.186  58.139  1.00  0.00     0.122 A 
ATOM      5  C   UNL     1     259.590 -27.090  57.270  1.00  0.00     0.047 A 
ATOM      6  C   UNL     1     260.637 -26.741  56.414  1.00  0.00     0.019 A 
ENDROOT
BRANCH   1   7
ATOM      7  C   UNL     1     262.947 -27.031  55.530  1.00  0.00     0.163 C 
ATOM      8  C   UNL     1     262.681 -26.466  54.168  1.00  0.00     0.093 C 
ATOM      9  O   UNL     1     264.131 -27.049  55.960  1.00  0.00    -0.294 OA
ENDBRANCH   1   7
BRANCH   2  10
ATOM     10  O   UNL     1     263.082 -29.425  57.256  1.00  0.00    -0.507 OA
ATOM     11  H   UNL     1     263.980 -29.139  56.892  1.00  0.00     0.293 HD
ENDBRANCH   2  10
BRANCH   4  12
ATOM     12  O   UNL     1     258.703 -28.571  59.024  1.00  0.00    -0.497 OA
ATOM     13  C   UNL     1     258.420 -27.919  60.257  1.00  0.00     0.278 C 
ENDBRANCH   4  12
TORSDOF 3
ENDMDL
MODEL 5
REMARK VINA RESULT:    -4.360      2.626      4.447
REMARK INTER + INTRA:          -5.334
REMARK INTER:                  -4.992
REMARK INTRA:                  -0.342
REMARK UNBOUND:                -0.336
REMARK SMILES COc1ccc(C(C)=O)c(O)c1
REMARK SMILES IDX 6 1 10 2 12 3 3 4 4 5 5 6 7 7 8 8 9 9 11 10 2 12 1 13
REMARK H PARENT 11 11
REMARK Flexibility Score: inf
ROOT
ATOM      1  C   UNL     1     260.007 -27.528  58.708  1.00  0.00     0.059 A 
ATOM      2  C   UNL     1     261.083 -26.750  58.213  1.00  0.00     0.130 A 
ATOM      3  C   UNL     1     261.378 -26.764  56.845  1.00  0.00     0.093 A 
ATOM      4  C   UNL     1     260.609 -27.510  55.947  1.00  0.00     0.122 A 
ATOM      5  C   UNL     1     259.524 -28.258  56.434  1.00  0.00     0.047 A 
ATOM      6  C   UNL     1     259.229 -28.266  57.799  1.00  0.00     0.019 A 
ENDROOT
BRANCH   1   7
ATOM      7  C   UNL     1     259.703 -27.617  60.156  1.00  0.00     0.163 C 
ATOM      8  C   UNL     1     258.295 -27.517  60.658  1.00  0.00     0.093 C 
ATOM      9  O   UNL     1     260.625 -27.862  60.979  1.00  0.00    -0.294 OA
ENDBRANCH   1   7
BRANCH   2  10
ATOM     10  O   UNL     1     261.856 -25.931  59.040  1.00  0.00    -0.507 OA
ATOM     11  H   UNL     1     261.623 -24.969  59.243  1.00  0.00     0.293 HD
ENDBRANCH   2  10
BRANCH   4  12
ATOM     12  O   UNL     1     260.951 -27.477  54.588  1.00  0.00    -0.497 OA
ATOM     13  C   UNL     1     262.035 -26.728  54.050  1.00  0.00     0.278 C 
ENDBRANCH   4  12
TORSDOF 3
ENDMDL
MODEL 6
REMARK VINA RESULT:    -4.355      7.381      7.974
REMARK INTER + INTRA:          -5.327
REMARK INTER:                  -4.992
REMARK INTRA:                  -0.335
REMARK UNBOUND:                -0.336
REMARK SMILES COc1ccc(C(C)=O)c(O)c1
REMARK SMILES IDX 6 1 10 2 12 3 3 4 4 5 5 6 7 7 8 8 9 9 11 10 2 12 1 13
REMARK H PARENT 11 11
REMARK Flexibility Score: inf
ROOT
ATOM      1  C   UNL     1     254.140 -25.390  51.338  1.00  0.00     0.059 A 
ATOM      2  C   UNL     1     253.329 -26.146  50.457  1.00  0.00     0.130 A 
ATOM      3  C   UNL     1     253.070 -25.666  49.168  1.00  0.00     0.093 A 
ATOM      4  C   UNL     1     253.626 -24.465  48.719  1.00  0.00     0.122 A 
ATOM      5  C   UNL     1     254.454 -23.729  49.583  1.00  0.00     0.047 A 
ATOM      6  C   UNL     1     254.706 -24.188  50.877  1.00  0.00     0.019 A 
ENDROOT
BRANCH   1   7
ATOM      7  C   UNL     1     254.378 -25.807  52.741  1.00  0.00     0.163 C 
ATOM      8  C   UNL     1     253.979 -24.930  53.888  1.00  0.00     0.093 C 
ATOM      9  O   UNL     1     254.847 -26.951  52.986  1.00  0.00    -0.294 OA
ENDBRANCH   1   7
BRANCH   2  10
ATOM     10  O   UNL     1     252.791 -27.385  50.813  1.00  0.00    -0.507 OA
ATOM     11  H   UNL     1     251.816 -27.526  51.033  1.00  0.00     0.293 HD
ENDBRANCH   2  10
BRANCH   4  12
ATOM     12  O   UNL     1     253.335 -24.041  47.414  1.00  0.00    -0.497 OA
ATOM     13  C   UNL     1     253.994 -24.521  46.247  1.00  0.00     0.278 C 
ENDBRANCH   4  12
TORSDOF 3
ENDMDL
MODEL 7
REMARK VINA RESULT:    -4.352     11.725     13.123
REMARK INTER + INTRA:          -5.324
REMARK INTER:                  -5.005
REMARK INTRA:                  -0.320
REMARK UNBOUND:                -0.336
REMARK SMILES COc1ccc(C(C)=O)c(O)c1
REMARK SMILES IDX 6 1 10 2 12 3 3 4 4 5 5 6 7 7 8 8 9 9 11 10 2 12 1 13
REMARK H PARENT 11 11
REMARK Flexibility Score: inf
ROOT
ATOM      1  C   UNL     1     255.511 -24.573  43.362  1.00  0.00     0.059 A 
ATOM      2  C   UNL     1     254.716 -23.471  42.961  1.00  0.00     0.130 A 
ATOM      3  C   UNL     1     253.548 -23.163  43.669  1.00  0.00     0.093 A 
ATOM      4  C   UNL     1     253.167 -23.904  44.791  1.00  0.00     0.122 A 
ATOM      5  C   UNL     1     253.971 -24.979  45.206  1.00  0.00     0.047 A 
ATOM      6  C   UNL     1     255.128 -25.308  44.499  1.00  0.00     0.019 A 
ENDROOT
BRANCH   1   7
ATOM      7  C   UNL     1     256.710 -24.996  42.600  1.00  0.00     0.163 C 
ATOM      8  C   UNL     1     257.059 -26.445  42.450  1.00  0.00     0.093 C 
ATOM      9  O   UNL     1     257.407 -24.137  41.996  1.00  0.00    -0.294 OA
ENDBRANCH   1   7
BRANCH   2  10
ATOM     10  O   UNL     1     255.068 -22.646  41.890  1.00  0.00    -0.507 OA
ATOM     11  H   UNL     1     255.845 -22.002  41.916  1.00  0.00     0.293 HD
ENDBRANCH   2  10
BRANCH   4  12
ATOM     12  O   UNL     1     251.990 -23.540  45.462  1.00  0.00    -0.497 OA
ATOM     13  C   UNL     1     250.791 -24.306  45.455  1.00  0.00     0.278 C 
ENDBRANCH   4  12
TORSDOF 3
ENDMDL
MODEL 8
REMARK VINA RESULT:    -4.336      7.729      8.651
REMARK INTER + INTRA:          -5.306
REMARK INTER:                  -4.992
REMARK INTRA:                  -0.313
REMARK UNBOUND:                -0.336
REMARK SMILES COc1ccc(C(C)=O)c(O)c1
REMARK SMILES IDX 6 1 10 2 12 3 3 4 4 5 5 6 7 7 8 8 9 9 11 10 2 12 1 13
REMARK H PARENT 11 11
REMARK Flexibility Score: inf
ROOT
ATOM      1  C   UNL     1     253.816 -25.183  50.811  1.00  0.00     0.059 A 
ATOM      2  C   UNL     1     254.504 -24.249  49.999  1.00  0.00     0.130 A 
ATOM      3  C   UNL     1     254.191 -24.149  48.638  1.00  0.00     0.093 A 
ATOM      4  C   UNL     1     253.184 -24.934  48.069  1.00  0.00     0.122 A 
ATOM      5  C   UNL     1     252.482 -25.840  48.882  1.00  0.00     0.047 A 
ATOM      6  C   UNL     1     252.797 -25.962  50.236  1.00  0.00     0.019 A 
ENDROOT
BRANCH   1   7
ATOM      7  C   UNL     1     254.165 -25.391  52.238  1.00  0.00     0.163 C 
ATOM      8  C   UNL     1     253.995 -26.729  52.888  1.00  0.00     0.093 C 
ATOM      9  O   UNL     1     254.689 -24.455  52.900  1.00  0.00    -0.294 OA
ENDBRANCH   1   7
BRANCH   2  10
ATOM     10  O   UNL     1     255.477 -23.386  50.510  1.00  0.00    -0.507 OA
ATOM     11  H   UNL     1     256.434 -23.663  50.676  1.00  0.00     0.293 HD
ENDBRANCH   2  10
BRANCH   4  12
ATOM     12  O   UNL     1     252.913 -24.782  46.701  1.00  0.00    -0.497 OA
ATOM     13  C   UNL     1     253.907 -24.608  45.699  1.00  0.00     0.278 C 
ENDBRANCH   4  12
TORSDOF 3
ENDMDL
MODEL 9
REMARK VINA RESULT:    -4.273      4.222      6.619
REMARK INTER + INTRA:          -5.234
REMARK INTER:                  -4.956
REMARK INTRA:                  -0.278
REMARK UNBOUND:                -0.336
REMARK SMILES COc1ccc(C(C)=O)c(O)c1
REMARK SMILES IDX 6 1 10 2 12 3 3 4 4 5 5 6 7 7 8 8 9 9 11 10 2 12 1 13
REMARK H PARENT 11 11
REMARK Flexibility Score: inf
ROOT
ATOM      1  C   UNL     1     261.855 -28.290  58.093  1.00  0.00     0.059 A 
ATOM      2  C   UNL     1     260.655 -29.040  58.041  1.00  0.00     0.130 A 
ATOM      3  C   UNL     1     259.757 -28.987  59.114  1.00  0.00     0.093 A 
ATOM      4  C   UNL     1     260.008 -28.179  60.227  1.00  0.00     0.122 A 
ATOM      5  C   UNL     1     261.184 -27.414  60.265  1.00  0.00     0.047 A 
ATOM      6  C   UNL     1     262.097 -27.471  59.210  1.00  0.00     0.019 A 
ENDROOT
BRANCH   1   7
ATOM      7  C   UNL     1     262.881 -28.374  57.025  1.00  0.00     0.163 C 
ATOM      8  C   UNL     1     264.145 -29.151  57.226  1.00  0.00     0.093 C 
ATOM      9  O   UNL     1     262.658 -27.855  55.898  1.00  0.00    -0.294 OA
ENDBRANCH   1   7
BRANCH   2  10
ATOM     10  O   UNL     1     260.306 -29.819  56.935  1.00  0.00    -0.507 OA
ATOM     11  H   UNL     1     260.036 -29.429  56.043  1.00  0.00     0.293 HD
ENDBRANCH   2  10
BRANCH   4  12
ATOM     12  O   UNL     1     259.065 -28.165  61.266  1.00  0.00    -0.497 OA
ATOM     13  C   UNL     1     258.567 -26.983  61.882  1.00  0.00     0.278 C 
ENDBRANCH   4  12
TORSDOF 3
ENDMDL
