MODEL 1
REMARK VINA RESULT:    -4.370      0.000      0.000
REMARK INTER + INTRA:          -5.061
REMARK INTER:                  -5.009
REMARK INTRA:                  -0.052
REMARK UNBOUND:                -0.052
REMARK SMILES O=C([O-])c1cc(O)c(O)c(O)c1
REMARK SMILES IDX 4 1 5 2 12 3 6 4 10 5 8 6 2 7 1 8 3 9 7 10 11 12 9 14
REMARK H PARENT 7 11 11 13 9 15
REMARK Flexibility Score: inf
ROOT
ATOM      1  C   UNL     1     -45.668 -50.875  10.488  1.00  0.00     0.005 A 
ATOM      2  C   UNL     1     -45.856 -51.258   9.149  1.00  0.00     0.060 A 
ATOM      3  C   UNL     1     -45.297 -51.847  11.431  1.00  0.00     0.060 A 
ATOM      4  C   UNL     1     -45.677 -52.589   8.757  1.00  0.00     0.162 A 
ATOM      5  C   UNL     1     -45.116 -53.183  11.045  1.00  0.00     0.162 A 
ATOM      6  C   UNL     1     -45.305 -53.557   9.704  1.00  0.00     0.200 A 
ENDROOT
BRANCH   1   7
ATOM      7  C   UNL     1     -45.860 -49.464  10.894  1.00  0.00     0.072 C 
ATOM      8  O   UNL     1     -45.976 -49.157  12.110  1.00  0.00    -0.545 OA
ATOM      9  O   UNL     1     -45.916 -48.457   9.937  1.00  0.00    -0.545 OA
ENDBRANCH   1   7
BRANCH   4  10
ATOM     10  O   UNL     1     -45.873 -52.928   7.418  1.00  0.00    -0.504 OA
ATOM     11  H   UNL     1     -46.657 -53.496   7.115  1.00  0.00     0.293 HD
ENDBRANCH   4  10
BRANCH   5  12
ATOM     12  O   UNL     1     -44.747 -54.139  11.991  1.00  0.00    -0.504 OA
ATOM     13  H   UNL     1     -43.801 -54.197  12.348  1.00  0.00     0.293 HD
ENDBRANCH   5  12
BRANCH   6  14
ATOM     14  O   UNL     1     -45.130 -54.883   9.304  1.00  0.00    -0.502 OA
ATOM     15  H   UNL     1     -44.605 -55.131   8.474  1.00  0.00     0.293 HD
ENDBRANCH   6  14
TORSDOF 4
ENDMDL
MODEL 2
REMARK VINA RESULT:    -4.369      0.046      2.430
REMARK INTER + INTRA:          -5.060
REMARK INTER:                  -5.008
REMARK INTRA:                  -0.052
REMARK UNBOUND:                -0.052
REMARK SMILES O=C([O-])c1cc(O)c(O)c(O)c1
REMARK SMILES IDX 4 1 5 2 12 3 6 4 10 5 8 6 2 7 1 8 3 9 7 10 11 12 9 14
REMARK H PARENT 7 11 11 13 9 15
REMARK Flexibility Score: inf
ROOT
ATOM      1  C   UNL     1     -45.676 -50.880  10.525  1.00  0.00     0.005 A 
ATOM      2  C   UNL     1     -45.298 -51.862  11.457  1.00  0.00     0.060 A 
ATOM      3  C   UNL     1     -45.877 -51.251   9.185  1.00  0.00     0.060 A 
ATOM      4  C   UNL     1     -45.123 -53.192  11.058  1.00  0.00     0.162 A 
ATOM      5  C   UNL     1     -45.702 -52.582   8.779  1.00  0.00     0.162 A 
ATOM      6  C   UNL     1     -45.324 -53.557   9.717  1.00  0.00     0.200 A 
ENDROOT
BRANCH   1   7
ATOM      7  C   UNL     1     -45.860 -49.476  10.956  1.00  0.00     0.072 C 
ATOM      8  O   UNL     1     -45.991 -49.191  12.175  1.00  0.00    -0.545 OA
ATOM      9  O   UNL     1     -45.891 -48.450  10.018  1.00  0.00    -0.545 OA
ENDBRANCH   1   7
BRANCH   4  10
ATOM     10  O   UNL     1     -44.747 -54.137  12.014  1.00  0.00    -0.504 OA
ATOM     11  H   UNL     1     -43.795 -54.478  12.090  1.00  0.00     0.293 HD
ENDBRANCH   4  10
BRANCH   5  12
ATOM     12  O   UNL     1     -45.904 -52.937   7.445  1.00  0.00    -0.504 OA
ATOM     13  H   UNL     1     -46.428 -53.765   7.189  1.00  0.00     0.293 HD
ENDBRANCH   5  12
BRANCH   6  14
ATOM     14  O   UNL     1     -45.146 -54.886   9.329  1.00  0.00    -0.502 OA
ATOM     15  H   UNL     1     -45.822 -55.608   9.546  1.00  0.00     0.293 HD
ENDBRANCH   6  14
TORSDOF 4
ENDMDL
MODEL 3
REMARK VINA RESULT:    -4.361      3.851      5.630
REMARK INTER + INTRA:          -5.050
REMARK INTER:                  -5.000
REMARK INTRA:                  -0.050
REMARK UNBOUND:                -0.052
REMARK SMILES O=C([O-])c1cc(O)c(O)c(O)c1
REMARK SMILES IDX 4 1 5 2 12 3 6 4 10 5 8 6 2 7 1 8 3 9 7 10 11 12 9 14
REMARK H PARENT 7 11 11 13 9 15
REMARK Flexibility Score: inf
ROOT
ATOM      1  C   UNL     1     -45.899 -48.862   7.516  1.00  0.00     0.005 A 
ATOM      2  C   UNL     1     -45.139 -49.902   6.955  1.00  0.00     0.060 A 
ATOM      3  C   UNL     1     -46.596 -47.989   6.664  1.00  0.00     0.060 A 
ATOM      4  C   UNL     1     -45.074 -50.070   5.568  1.00  0.00     0.162 A 
ATOM      5  C   UNL     1     -46.535 -48.151   5.272  1.00  0.00     0.162 A 
ATOM      6  C   UNL     1     -45.773 -49.194   4.720  1.00  0.00     0.200 A 
ENDROOT
BRANCH   1   7
ATOM      7  C   UNL     1     -45.962 -48.692   8.985  1.00  0.00     0.072 C 
ATOM      8  O   UNL     1     -45.911 -49.692   9.749  1.00  0.00    -0.545 OA
ATOM      9  O   UNL     1     -46.079 -47.424   9.543  1.00  0.00    -0.545 OA
ENDBRANCH   1   7
BRANCH   4  10
ATOM     10  O   UNL     1     -44.308 -51.115   5.051  1.00  0.00    -0.504 OA
ATOM     11  H   UNL     1     -44.454 -51.480   4.116  1.00  0.00     0.293 HD
ENDBRANCH   4  10
BRANCH   5  12
ATOM     12  O   UNL     1     -47.232 -47.278   4.437  1.00  0.00    -0.504 OA
ATOM     13  H   UNL     1     -48.059 -46.786   4.753  1.00  0.00     0.293 HD
ENDBRANCH   5  12
BRANCH   6  14
ATOM     14  O   UNL     1     -45.702 -49.369   3.337  1.00  0.00    -0.502 OA
ATOM     15  H   UNL     1     -44.860 -49.170   2.810  1.00  0.00     0.293 HD
ENDBRANCH   6  14
TORSDOF 4
ENDMDL
MODEL 4
REMARK VINA RESULT:    -4.328      3.863      5.411
REMARK INTER + INTRA:          -5.012
REMARK INTER:                  -4.963
REMARK INTRA:                  -0.050
REMARK UNBOUND:                -0.052
REMARK SMILES O=C([O-])c1cc(O)c(O)c(O)c1
REMARK SMILES IDX 4 1 5 2 12 3 6 4 10 5 8 6 2 7 1 8 3 9 7 10 11 12 9 14
REMARK H PARENT 7 11 11 13 9 15
REMARK Flexibility Score: inf
ROOT
ATOM      1  C   UNL     1     -45.930 -48.967   7.495  1.00  0.00     0.005 A 
ATOM      2  C   UNL     1     -46.615 -48.069   6.659  1.00  0.00     0.060 A 
ATOM      3  C   UNL     1     -45.138 -49.973   6.915  1.00  0.00     0.060 A 
ATOM      4  C   UNL     1     -46.511 -48.172   5.267  1.00  0.00     0.162 A 
ATOM      5  C   UNL     1     -45.031 -50.082   5.521  1.00  0.00     0.162 A 
ATOM      6  C   UNL     1     -45.719 -49.179   4.693  1.00  0.00     0.200 A 
ENDROOT
BRANCH   1   7
ATOM      7  C   UNL     1     -46.044 -48.852   8.967  1.00  0.00     0.072 C 
ATOM      8  O   UNL     1     -46.085 -49.882   9.689  1.00  0.00    -0.545 OA
ATOM      9  O   UNL     1     -46.108 -47.602   9.572  1.00  0.00    -0.545 OA
ENDBRANCH   1   7
BRANCH   4  10
ATOM     10  O   UNL     1     -47.207 -47.260   4.472  1.00  0.00    -0.504 OA
ATOM     11  H   UNL     1     -47.434 -46.327   4.795  1.00  0.00     0.293 HD
ENDBRANCH   4  10
BRANCH   5  12
ATOM     12  O   UNL     1     -44.242 -51.084   4.958  1.00  0.00    -0.504 OA
ATOM     13  H   UNL     1     -44.568 -52.040   4.887  1.00  0.00     0.293 HD
ENDBRANCH   5  12
BRANCH   6  14
ATOM     14  O   UNL     1     -45.623 -49.274   3.303  1.00  0.00    -0.502 OA
ATOM     15  H   UNL     1     -45.779 -48.479   2.696  1.00  0.00     0.293 HD
ENDBRANCH   6  14
TORSDOF 4
ENDMDL
MODEL 5
REMARK VINA RESULT:    -4.297      1.195      4.047
REMARK INTER + INTRA:          -4.978
REMARK INTER:                  -4.933
REMARK INTRA:                  -0.045
REMARK UNBOUND:                -0.052
REMARK SMILES O=C([O-])c1cc(O)c(O)c(O)c1
REMARK SMILES IDX 4 1 5 2 12 3 6 4 10 5 8 6 2 7 1 8 3 9 7 10 11 12 9 14
REMARK H PARENT 7 11 11 13 9 15
REMARK Flexibility Score: inf
ROOT
ATOM      1  C   UNL     1     -44.882 -52.439  11.154  1.00  0.00     0.005 A 
ATOM      2  C   UNL     1     -45.161 -51.081  11.383  1.00  0.00     0.060 A 
ATOM      3  C   UNL     1     -45.223 -53.008   9.915  1.00  0.00     0.060 A 
ATOM      4  C   UNL     1     -45.770 -50.302  10.393  1.00  0.00     0.162 A 
ATOM      5  C   UNL     1     -45.834 -52.233   8.919  1.00  0.00     0.162 A 
ATOM      6  C   UNL     1     -46.109 -50.876   9.156  1.00  0.00     0.200 A 
ENDROOT
BRANCH   1   7
ATOM      7  C   UNL     1     -44.237 -53.256  12.207  1.00  0.00     0.072 C 
ATOM      8  O   UNL     1     -43.028 -53.595  12.105  1.00  0.00    -0.545 OA
ATOM      9  O   UNL     1     -44.957 -53.660  13.325  1.00  0.00    -0.545 OA
ENDBRANCH   1   7
BRANCH   4  10
ATOM     10  O   UNL     1     -46.031 -48.958  10.659  1.00  0.00    -0.504 OA
ATOM     11  H   UNL     1     -45.652 -48.211  10.087  1.00  0.00     0.293 HD
ENDBRANCH   4  10
BRANCH   5  12
ATOM     12  O   UNL     1     -46.168 -52.809   7.693  1.00  0.00    -0.504 OA
ATOM     13  H   UNL     1     -46.840 -53.563   7.626  1.00  0.00     0.293 HD
ENDBRANCH   5  12
BRANCH   6  14
ATOM     14  O   UNL     1     -46.718 -50.091   8.175  1.00  0.00    -0.502 OA
ATOM     15  H   UNL     1     -46.617 -50.288   7.187  1.00  0.00     0.293 HD
ENDBRANCH   6  14
TORSDOF 4
ENDMDL
MODEL 6
REMARK VINA RESULT:    -4.286      2.006      2.399
REMARK INTER + INTRA:          -4.965
REMARK INTER:                  -4.919
REMARK INTRA:                  -0.045
REMARK UNBOUND:                -0.052
REMARK SMILES O=C([O-])c1cc(O)c(O)c(O)c1
REMARK SMILES IDX 4 1 5 2 12 3 6 4 10 5 8 6 2 7 1 8 3 9 7 10 11 12 9 14
REMARK H PARENT 7 11 11 13 9 15
REMARK Flexibility Score: inf
ROOT
ATOM      1  C   UNL     1     -44.807 -51.178  10.850  1.00  0.00     0.005 A 
ATOM      2  C   UNL     1     -43.561 -51.225  10.202  1.00  0.00     0.060 A 
ATOM      3  C   UNL     1     -45.185 -52.245  11.682  1.00  0.00     0.060 A 
ATOM      4  C   UNL     1     -42.706 -52.318  10.381  1.00  0.00     0.162 A 
ATOM      5  C   UNL     1     -44.333 -53.343  11.866  1.00  0.00     0.162 A 
ATOM      6  C   UNL     1     -43.089 -53.382  11.215  1.00  0.00     0.200 A 
ENDROOT
BRANCH   1   7
ATOM      7  C   UNL     1     -45.705 -50.017  10.655  1.00  0.00     0.072 C 
ATOM      8  O   UNL     1     -45.912 -49.202  11.592  1.00  0.00    -0.545 OA
ATOM      9  O   UNL     1     -46.334 -49.812   9.432  1.00  0.00    -0.545 OA
ENDBRANCH   1   7
BRANCH   4  10
ATOM     10  O   UNL     1     -41.477 -52.328   9.720  1.00  0.00    -0.504 OA
ATOM     11  H   UNL     1     -40.756 -53.009   9.931  1.00  0.00     0.293 HD
ENDBRANCH   4  10
BRANCH   5  12
ATOM     12  O   UNL     1     -44.721 -54.396  12.695  1.00  0.00    -0.504 OA
ATOM     13  H   UNL     1     -45.083 -54.233  13.627  1.00  0.00     0.293 HD
ENDBRANCH   5  12
BRANCH   6  14
ATOM     14  O   UNL     1     -42.229 -54.469  11.387  1.00  0.00    -0.502 OA
ATOM     15  H   UNL     1     -41.371 -54.399  11.920  1.00  0.00     0.293 HD
ENDBRANCH   6  14
TORSDOF 4
ENDMDL
MODEL 7
REMARK VINA RESULT:    -4.280      2.006      3.085
REMARK INTER + INTRA:          -4.958
REMARK INTER:                  -4.913
REMARK INTRA:                  -0.045
REMARK UNBOUND:                -0.052
REMARK SMILES O=C([O-])c1cc(O)c(O)c(O)c1
REMARK SMILES IDX 4 1 5 2 12 3 6 4 10 5 8 6 2 7 1 8 3 9 7 10 11 12 9 14
REMARK H PARENT 7 11 11 13 9 15
REMARK Flexibility Score: inf
ROOT
ATOM      1  C   UNL     1     -44.820 -51.193  10.851  1.00  0.00     0.005 A 
ATOM      2  C   UNL     1     -45.186 -52.264  11.683  1.00  0.00     0.060 A 
ATOM      3  C   UNL     1     -43.577 -51.229  10.197  1.00  0.00     0.060 A 
ATOM      4  C   UNL     1     -44.327 -53.354  11.860  1.00  0.00     0.162 A 
ATOM      5  C   UNL     1     -42.711 -52.318  10.370  1.00  0.00     0.162 A 
ATOM      6  C   UNL     1     -43.086 -53.385  11.204  1.00  0.00     0.200 A 
ENDROOT
BRANCH   1   7
ATOM      7  C   UNL     1     -45.736 -50.043  10.668  1.00  0.00     0.072 C 
ATOM      8  O   UNL     1     -46.350 -49.879   9.582  1.00  0.00    -0.545 OA
ATOM      9  O   UNL     1     -45.929 -49.128  11.696  1.00  0.00    -0.545 OA
ENDBRANCH   1   7
BRANCH   4  10
ATOM     10  O   UNL     1     -44.727 -54.398  12.695  1.00  0.00    -0.504 OA
ATOM     11  H   UNL     1     -45.704 -54.600  12.876  1.00  0.00     0.293 HD
ENDBRANCH   4  10
BRANCH   5  12
ATOM     12  O   UNL     1     -41.480 -52.343   9.715  1.00  0.00    -0.504 OA
ATOM     13  H   UNL     1     -41.353 -52.836   8.840  1.00  0.00     0.293 HD
ENDBRANCH   5  12
BRANCH   6  14
ATOM     14  O   UNL     1     -42.235 -54.477  11.388  1.00  0.00    -0.502 OA
ATOM     15  H   UNL     1     -42.287 -55.070  12.207  1.00  0.00     0.293 HD
ENDBRANCH   6  14
TORSDOF 4
ENDMDL
MODEL 8
REMARK VINA RESULT:    -4.190      1.176      3.729
REMARK INTER + INTRA:          -4.855
REMARK INTER:                  -4.809
REMARK INTRA:                  -0.046
REMARK UNBOUND:                -0.052
REMARK SMILES O=C([O-])c1cc(O)c(O)c(O)c1
REMARK SMILES IDX 4 1 5 2 12 3 6 4 10 5 8 6 2 7 1 8 3 9 7 10 11 12 9 14
REMARK H PARENT 7 11 11 13 9 15
REMARK Flexibility Score: inf
ROOT
ATOM      1  C   UNL     1     -44.794 -52.477  11.090  1.00  0.00     0.005 A 
ATOM      2  C   UNL     1     -45.075 -52.971   9.804  1.00  0.00     0.060 A 
ATOM      3  C   UNL     1     -45.127 -51.148  11.399  1.00  0.00     0.060 A 
ATOM      4  C   UNL     1     -45.678 -52.152   8.843  1.00  0.00     0.162 A 
ATOM      5  C   UNL     1     -45.731 -50.322  10.441  1.00  0.00     0.162 A 
ATOM      6  C   UNL     1     -46.009 -50.824   9.158  1.00  0.00     0.200 A 
ENDROOT
BRANCH   1   7
ATOM      7  C   UNL     1     -44.155 -53.350  12.101  1.00  0.00     0.072 C 
ATOM      8  O   UNL     1     -44.794 -53.725  13.119  1.00  0.00    -0.545 OA
ATOM      9  O   UNL     1     -42.839 -53.769  11.939  1.00  0.00    -0.545 OA
ENDBRANCH   1   7
BRANCH   4  10
ATOM     10  O   UNL     1     -45.941 -52.680   7.579  1.00  0.00    -0.504 OA
ATOM     11  H   UNL     1     -45.230 -53.155   7.034  1.00  0.00     0.293 HD
ENDBRANCH   4  10
BRANCH   5  12
ATOM     12  O   UNL     1     -46.057 -49.004  10.760  1.00  0.00    -0.504 OA
ATOM     13  H   UNL     1     -45.376 -48.370  11.160  1.00  0.00     0.293 HD
ENDBRANCH   5  12
BRANCH   6  14
ATOM     14  O   UNL     1     -46.610 -50.015   8.192  1.00  0.00    -0.502 OA
ATOM     15  H   UNL     1     -46.103 -49.667   7.388  1.00  0.00     0.293 HD
ENDBRANCH   6  14
TORSDOF 4
ENDMDL
MODEL 9
REMARK VINA RESULT:    -4.162      3.954      6.419
REMARK INTER + INTRA:          -4.822
REMARK INTER:                  -4.777
REMARK INTRA:                  -0.045
REMARK UNBOUND:                -0.052
REMARK SMILES O=C([O-])c1cc(O)c(O)c(O)c1
REMARK SMILES IDX 4 1 5 2 12 3 6 4 10 5 8 6 2 7 1 8 3 9 7 10 11 12 9 14
REMARK H PARENT 7 11 11 13 9 15
REMARK Flexibility Score: inf
ROOT
ATOM      1  C   UNL     1     -44.842 -50.532   6.466  1.00  0.00     0.005 A 
ATOM      2  C   UNL     1     -45.479 -49.524   7.208  1.00  0.00     0.060 A 
ATOM      3  C   UNL     1     -44.896 -50.487   5.063  1.00  0.00     0.060 A 
ATOM      4  C   UNL     1     -46.160 -48.486   6.562  1.00  0.00     0.162 A 
ATOM      5  C   UNL     1     -45.577 -49.450   4.409  1.00  0.00     0.162 A 
ATOM      6  C   UNL     1     -46.211 -48.445   5.159  1.00  0.00     0.200 A 
ENDROOT
BRANCH   1   7
ATOM      7  C   UNL     1     -44.123 -51.626   7.159  1.00  0.00     0.072 C 
ATOM      8  O   UNL     1     -42.900 -51.515   7.436  1.00  0.00    -0.545 OA
ATOM      9  O   UNL     1     -44.791 -52.794   7.512  1.00  0.00    -0.545 OA
ENDBRANCH   1   7
BRANCH   4  10
ATOM     10  O   UNL     1     -46.780 -47.503   7.334  1.00  0.00    -0.504 OA
ATOM     11  H   UNL     1     -47.284 -47.725   8.186  1.00  0.00     0.293 HD
ENDBRANCH   4  10
BRANCH   5  12
ATOM     12  O   UNL     1     -45.624 -49.416   3.015  1.00  0.00    -0.504 OA
ATOM     13  H   UNL     1     -44.885 -48.991   2.469  1.00  0.00     0.293 HD
ENDBRANCH   5  12
BRANCH   6  14
ATOM     14  O   UNL     1     -46.894 -47.406   4.523  1.00  0.00    -0.502 OA
ATOM     15  H   UNL     1     -46.810 -46.443   4.822  1.00  0.00     0.293 HD
ENDBRANCH   6  14
TORSDOF 4
ENDMDL
