MODEL 1
REMARK VINA RESULT:    -4.227      0.000      0.000
REMARK INTER + INTRA:          -5.180
REMARK INTER:                  -5.092
REMARK INTRA:                  -0.089
REMARK UNBOUND:                -0.089
REMARK SMILES CC[C@H](C)[C@H]([NH3+])C(=O)[O-]
REMARK SMILES IDX 3 1 4 2 5 3 6 4 7 8 8 9 9 10 2 11 1 12
REMARK H PARENT 6 5 6 6 6 7
REMARK Flexibility Score: inf
ROOT
ATOM      1  C   UNL     1      -0.194  -4.853   2.793  1.00  0.00     0.050 C 
ATOM      2  C   UNL     1       0.951  -5.642   3.453  1.00  0.00     0.014 C 
ENDROOT
BRANCH   1   3
ATOM      3  C   UNL     1       0.092  -3.314   2.848  1.00  0.00     0.230 C 
BRANCH   3   4
ATOM      4  N   UNL     1      -1.103  -2.502   2.569  1.00  0.00    -0.350 N 
ATOM      5  H   UNL     1      -0.850  -1.658   2.010  1.00  0.00     0.345 HD
ATOM      6  H   UNL     1      -1.574  -2.203   3.454  1.00  0.00     0.345 HD
ATOM      7  H   UNL     1      -1.782  -3.065   2.006  1.00  0.00     0.345 HD
ENDBRANCH   3   4
BRANCH   3   8
ATOM      8  C   UNL     1       1.244  -2.921   1.951  1.00  0.00     0.099 C 
ATOM      9  O   UNL     1       1.257  -3.290   0.747  1.00  0.00    -0.544 OA
ATOM     10  O   UNL     1       2.315  -2.183   2.444  1.00  0.00    -0.544 OA
ENDBRANCH   3   8
ENDBRANCH   1   3
BRANCH   1  11
ATOM     11  C   UNL     1      -1.545  -5.300   3.409  1.00  0.00     0.006 C 
ATOM     12  C   UNL     1      -1.656  -6.809   3.620  1.00  0.00     0.004 C 
ENDBRANCH   1  11
TORSDOF 4
ENDMDL
MODEL 2
REMARK VINA RESULT:    -4.111      0.760      1.587
REMARK INTER + INTRA:          -5.040
REMARK INTER:                  -4.958
REMARK INTRA:                  -0.082
REMARK UNBOUND:                -0.089
REMARK SMILES CC[C@H](C)[C@H]([NH3+])C(=O)[O-]
REMARK SMILES IDX 3 1 4 2 5 3 6 4 7 8 8 9 9 10 2 11 1 12
REMARK H PARENT 6 5 6 6 6 7
REMARK Flexibility Score: inf
ROOT
ATOM      1  C   UNL     1      -0.087  -4.432   3.655  1.00  0.00     0.050 C 
ATOM      2  C   UNL     1      -1.103  -5.346   2.947  1.00  0.00     0.014 C 
ENDROOT
BRANCH   1   3
ATOM      3  C   UNL     1      -0.058  -3.016   2.983  1.00  0.00     0.230 C 
BRANCH   3   4
ATOM      4  N   UNL     1      -1.366  -2.615   2.442  1.00  0.00    -0.350 N 
ATOM      5  H   UNL     1      -2.124  -2.810   3.133  1.00  0.00     0.345 HD
ATOM      6  H   UNL     1      -1.576  -3.113   1.547  1.00  0.00     0.345 HD
ATOM      7  H   UNL     1      -1.364  -1.585   2.255  1.00  0.00     0.345 HD
ENDBRANCH   3   4
BRANCH   3   8
ATOM      8  C   UNL     1       1.025  -2.912   1.934  1.00  0.00     0.099 C 
ATOM      9  O   UNL     1       0.863  -3.452   0.808  1.00  0.00    -0.544 OA
ATOM     10  O   UNL     1       2.221  -2.255   2.204  1.00  0.00    -0.544 OA
ENDBRANCH   3   8
ENDBRANCH   1   3
BRANCH   1  11
ATOM     11  C   UNL     1       1.282  -5.154   3.738  1.00  0.00     0.006 C 
ATOM     12  C   UNL     1       1.237  -6.612   3.281  1.00  0.00     0.004 C 
ENDBRANCH   1  11
TORSDOF 4
ENDMDL
MODEL 3
REMARK VINA RESULT:    -4.054      2.082      2.601
REMARK INTER + INTRA:          -4.972
REMARK INTER:                  -4.938
REMARK INTRA:                  -0.034
REMARK UNBOUND:                -0.089
REMARK SMILES CC[C@H](C)[C@H]([NH3+])C(=O)[O-]
REMARK SMILES IDX 3 1 4 2 5 3 6 4 7 8 8 9 9 10 2 11 1 12
REMARK H PARENT 6 5 6 6 6 7
REMARK Flexibility Score: inf
ROOT
ATOM      1  C   UNL     1       0.998  -4.372   2.402  1.00  0.00     0.050 C 
ATOM      2  C   UNL     1       0.731  -5.761   3.008  1.00  0.00     0.014 C 
ENDROOT
BRANCH   1   3
ATOM      3  C   UNL     1       2.512  -3.994   2.533  1.00  0.00     0.230 C 
BRANCH   3   4
ATOM      4  N   UNL     1       3.033  -4.187   3.896  1.00  0.00    -0.350 N 
ATOM      5  H   UNL     1       2.410  -4.825   4.439  1.00  0.00     0.345 HD
ATOM      6  H   UNL     1       3.121  -3.276   4.402  1.00  0.00     0.345 HD
ATOM      7  H   UNL     1       3.979  -4.632   3.847  1.00  0.00     0.345 HD
ENDBRANCH   3   4
BRANCH   3   8
ATOM      8  C   UNL     1       2.790  -2.594   2.033  1.00  0.00     0.099 C 
ATOM      9  O   UNL     1       3.488  -1.807   2.726  1.00  0.00    -0.544 OA
ATOM     10  O   UNL     1       2.255  -2.145   0.830  1.00  0.00    -0.544 OA
ENDBRANCH   3   8
ENDBRANCH   1   3
BRANCH   1  11
ATOM     11  C   UNL     1       0.004  -3.349   3.011  1.00  0.00     0.006 C 
ATOM     12  C   UNL     1      -1.280  -3.982   3.547  1.00  0.00     0.004 C 
ENDBRANCH   1  11
TORSDOF 4
ENDMDL
MODEL 4
REMARK VINA RESULT:    -4.047      5.583      6.989
REMARK INTER + INTRA:          -4.963
REMARK INTER:                  -4.861
REMARK INTRA:                  -0.102
REMARK UNBOUND:                -0.089
REMARK SMILES CC[C@H](C)[C@H]([NH3+])C(=O)[O-]
REMARK SMILES IDX 3 1 4 2 5 3 6 4 7 8 8 9 9 10 2 11 1 12
REMARK H PARENT 6 5 6 6 6 7
REMARK Flexibility Score: inf
ROOT
ATOM      1  C   UNL     1       5.439  -0.855   1.731  1.00  0.00     0.050 C 
ATOM      2  C   UNL     1       5.453  -1.985   2.776  1.00  0.00     0.014 C 
ENDROOT
BRANCH   1   3
ATOM      3  C   UNL     1       5.254  -1.438   0.289  1.00  0.00     0.230 C 
BRANCH   3   4
ATOM      4  N   UNL     1       5.402  -0.419  -0.761  1.00  0.00    -0.350 N 
ATOM      5  H   UNL     1       6.176  -0.674  -1.413  1.00  0.00     0.345 HD
ATOM      6  H   UNL     1       5.592   0.524  -0.352  1.00  0.00     0.345 HD
ATOM      7  H   UNL     1       4.519  -0.365  -1.321  1.00  0.00     0.345 HD
ENDBRANCH   3   4
BRANCH   3   8
ATOM      8  C   UNL     1       3.949  -2.188   0.146  1.00  0.00     0.099 C 
ATOM      9  O   UNL     1       2.869  -1.641   0.495  1.00  0.00    -0.544 OA
ATOM     10  O   UNL     1       3.923  -3.493  -0.334  1.00  0.00    -0.544 OA
ENDBRANCH   3   8
ENDBRANCH   1   3
BRANCH   1  11
ATOM     11  C   UNL     1       6.689   0.041   1.929  1.00  0.00     0.006 C 
ATOM     12  C   UNL     1       6.356   1.501   2.234  1.00  0.00     0.004 C 
ENDBRANCH   1  11
TORSDOF 4
ENDMDL
MODEL 5
REMARK VINA RESULT:    -3.975      4.864      6.328
REMARK INTER + INTRA:          -4.877
REMARK INTER:                  -4.755
REMARK INTRA:                  -0.122
REMARK UNBOUND:                -0.089
REMARK SMILES CC[C@H](C)[C@H]([NH3+])C(=O)[O-]
REMARK SMILES IDX 3 1 4 2 5 3 6 4 7 8 8 9 9 10 2 11 1 12
REMARK H PARENT 6 5 6 6 6 7
REMARK Flexibility Score: inf
ROOT
ATOM      1  C   UNL     1       5.059  -1.528   2.048  1.00  0.00     0.050 C 
ATOM      2  C   UNL     1       4.905  -2.629   3.112  1.00  0.00     0.014 C 
ENDROOT
BRANCH   1   3
ATOM      3  C   UNL     1       4.750  -2.094   0.620  1.00  0.00     0.230 C 
BRANCH   3   4
ATOM      4  N   UNL     1       4.979  -1.106  -0.446  1.00  0.00    -0.350 N 
ATOM      5  H   UNL     1       5.695  -1.454  -1.121  1.00  0.00     0.345 HD
ATOM      6  H   UNL     1       5.291  -0.188  -0.053  1.00  0.00     0.345 HD
ATOM      7  H   UNL     1       4.090  -0.954  -0.977  1.00  0.00     0.345 HD
ENDBRANCH   3   4
BRANCH   3   8
ATOM      8  C   UNL     1       3.359  -2.680   0.534  1.00  0.00     0.099 C 
ATOM      9  O   UNL     1       3.201  -3.868   0.145  1.00  0.00    -0.544 OA
ATOM     10  O   UNL     1       2.239  -1.916   0.846  1.00  0.00    -0.544 OA
ENDBRANCH   3   8
ENDBRANCH   1   3
BRANCH   1  11
ATOM     11  C   UNL     1       6.445  -0.852   2.207  1.00  0.00     0.006 C 
ATOM     12  C   UNL     1       6.369   0.654   2.461  1.00  0.00     0.004 C 
ENDBRANCH   1  11
TORSDOF 4
ENDMDL
MODEL 6
REMARK VINA RESULT:    -3.886      3.447      4.885
REMARK INTER + INTRA:          -4.770
REMARK INTER:                  -4.605
REMARK INTRA:                  -0.165
REMARK UNBOUND:                -0.089
REMARK SMILES CC[C@H](C)[C@H]([NH3+])C(=O)[O-]
REMARK SMILES IDX 3 1 4 2 5 3 6 4 7 8 8 9 9 10 2 11 1 12
REMARK H PARENT 6 5 6 6 6 7
REMARK Flexibility Score: inf
ROOT
ATOM      1  C   UNL     1       3.599  -2.594   0.144  1.00  0.00     0.050 C 
ATOM      2  C   UNL     1       4.680  -1.515  -0.037  1.00  0.00     0.014 C 
ENDROOT
BRANCH   1   3
ATOM      3  C   UNL     1       3.333  -2.860   1.665  1.00  0.00     0.230 C 
BRANCH   3   4
ATOM      4  N   UNL     1       3.958  -4.103   2.144  1.00  0.00    -0.350 N 
ATOM      5  H   UNL     1       3.961  -4.826   1.391  1.00  0.00     0.345 HD
ATOM      6  H   UNL     1       3.461  -4.480   2.984  1.00  0.00     0.345 HD
ATOM      7  H   UNL     1       4.954  -3.913   2.406  1.00  0.00     0.345 HD
ENDBRANCH   3   4
BRANCH   3   8
ATOM      8  C   UNL     1       1.858  -2.826   1.994  1.00  0.00     0.099 C 
ATOM      9  O   UNL     1       1.039  -2.357   1.160  1.00  0.00    -0.544 OA
ATOM     10  O   UNL     1       1.389  -3.274   3.225  1.00  0.00    -0.544 OA
ENDBRANCH   3   8
ENDBRANCH   1   3
BRANCH   1  11
ATOM     11  C   UNL     1       3.978  -3.845  -0.691  1.00  0.00     0.006 C 
ATOM     12  C   UNL     1       2.801  -4.457  -1.450  1.00  0.00     0.004 C 
ENDBRANCH   1  11
TORSDOF 4
ENDMDL
MODEL 7
REMARK VINA RESULT:    -3.858      3.092      4.495
REMARK INTER + INTRA:          -4.736
REMARK INTER:                  -4.623
REMARK INTRA:                  -0.113
REMARK UNBOUND:                -0.089
REMARK SMILES CC[C@H](C)[C@H]([NH3+])C(=O)[O-]
REMARK SMILES IDX 3 1 4 2 5 3 6 4 7 8 8 9 9 10 2 11 1 12
REMARK H PARENT 6 5 6 6 6 7
REMARK Flexibility Score: inf
ROOT
ATOM      1  C   UNL     1       3.915  -4.295   2.154  1.00  0.00     0.050 C 
ATOM      2  C   UNL     1       4.771  -3.806   0.972  1.00  0.00     0.014 C 
ENDROOT
BRANCH   1   3
ATOM      3  C   UNL     1       2.409  -4.400   1.738  1.00  0.00     0.230 C 
BRANCH   3   4
ATOM      4  N   UNL     1       2.230  -4.870   0.356  1.00  0.00    -0.350 N 
ATOM      5  H   UNL     1       2.109  -4.062  -0.294  1.00  0.00     0.345 HD
ATOM      6  H   UNL     1       1.404  -5.506   0.274  1.00  0.00     0.345 HD
ATOM      7  H   UNL     1       3.084  -5.396   0.054  1.00  0.00     0.345 HD
ENDBRANCH   3   4
BRANCH   3   8
ATOM      8  C   UNL     1       1.666  -3.105   1.978  1.00  0.00     0.099 C 
ATOM      9  O   UNL     1       0.858  -3.013   2.939  1.00  0.00    -0.544 OA
ATOM     10  O   UNL     1       1.833  -2.017   1.128  1.00  0.00    -0.544 OA
ENDBRANCH   3   8
ENDBRANCH   1   3
BRANCH   1  11
ATOM     11  C   UNL     1       4.201  -3.409   3.394  1.00  0.00     0.006 C 
ATOM     12  C   UNL     1       5.070  -2.189   3.091  1.00  0.00     0.004 C 
ENDBRANCH   1  11
TORSDOF 4
ENDMDL
MODEL 8
REMARK VINA RESULT:    -3.844      1.958      3.416
REMARK INTER + INTRA:          -4.719
REMARK INTER:                  -4.610
REMARK INTRA:                  -0.109
REMARK UNBOUND:                -0.089
REMARK SMILES CC[C@H](C)[C@H]([NH3+])C(=O)[O-]
REMARK SMILES IDX 3 1 4 2 5 3 6 4 7 8 8 9 9 10 2 11 1 12
REMARK H PARENT 6 5 6 6 6 7
REMARK Flexibility Score: inf
ROOT
ATOM      1  C   UNL     1       2.257  -4.135   3.281  1.00  0.00     0.050 C 
ATOM      2  C   UNL     1       1.443  -5.438   3.185  1.00  0.00     0.014 C 
ENDROOT
BRANCH   1   3
ATOM      3  C   UNL     1       1.493  -2.955   2.590  1.00  0.00     0.230 C 
BRANCH   3   4
ATOM      4  N   UNL     1       0.042  -2.998   2.829  1.00  0.00    -0.350 N 
ATOM      5  H   UNL     1      -0.408  -2.109   2.515  1.00  0.00     0.345 HD
ATOM      6  H   UNL     1      -0.173  -3.156   3.841  1.00  0.00     0.345 HD
ATOM      7  H   UNL     1      -0.379  -3.780   2.275  1.00  0.00     0.345 HD
ENDBRANCH   3   4
BRANCH   3   8
ATOM      8  C   UNL     1       1.804  -2.870   1.113  1.00  0.00     0.099 C 
ATOM      9  O   UNL     1       2.521  -1.932   0.675  1.00  0.00    -0.544 OA
ATOM     10  O   UNL     1       1.279  -3.796   0.217  1.00  0.00    -0.544 OA
ENDBRANCH   3   8
ENDBRANCH   1   3
BRANCH   1  11
ATOM     11  C   UNL     1       3.695  -4.389   2.761  1.00  0.00     0.006 C 
ATOM     12  C   UNL     1       4.738  -3.438   3.347  1.00  0.00     0.004 C 
ENDBRANCH   1  11
TORSDOF 4
ENDMDL
MODEL 9
REMARK VINA RESULT:    -3.820      2.782      3.521
REMARK INTER + INTRA:          -4.691
REMARK INTER:                  -4.596
REMARK INTRA:                  -0.095
REMARK UNBOUND:                -0.089
REMARK SMILES CC[C@H](C)[C@H]([NH3+])C(=O)[O-]
REMARK SMILES IDX 3 1 4 2 5 3 6 4 7 8 8 9 9 10 2 11 1 12
REMARK H PARENT 6 5 6 6 6 7
REMARK Flexibility Score: inf
ROOT
ATOM      1  C   UNL     1       2.068  -3.359   1.794  1.00  0.00     0.050 C 
ATOM      2  C   UNL     1       2.014  -4.186   0.497  1.00  0.00     0.014 C 
ENDROOT
BRANCH   1   3
ATOM      3  C   UNL     1       3.105  -3.972   2.796  1.00  0.00     0.230 C 
BRANCH   3   4
ATOM      4  N   UNL     1       2.475  -4.500   4.016  1.00  0.00    -0.350 N 
ATOM      5  H   UNL     1       2.476  -3.779   4.771  1.00  0.00     0.345 HD
ATOM      6  H   UNL     1       2.965  -5.358   4.356  1.00  0.00     0.345 HD
ATOM      7  H   UNL     1       1.478  -4.747   3.814  1.00  0.00     0.345 HD
ENDBRANCH   3   4
BRANCH   3   8
ATOM      8  C   UNL     1       4.212  -2.998   3.128  1.00  0.00     0.099 C 
ATOM      9  O   UNL     1       5.294  -3.419   3.615  1.00  0.00    -0.544 OA
ATOM     10  O   UNL     1       4.043  -1.630   2.936  1.00  0.00    -0.544 OA
ENDBRANCH   3   8
ENDBRANCH   1   3
BRANCH   1  11
ATOM     11  C   UNL     1       0.631  -3.185   2.350  1.00  0.00     0.006 C 
ATOM     12  C   UNL     1      -0.437  -3.913   1.535  1.00  0.00     0.004 C 
ENDBRANCH   1  11
TORSDOF 4
ENDMDL
