MODEL 1
REMARK VINA RESULT:    -5.639      0.000      0.000
REMARK INTER + INTRA:         -10.287
REMARK INTER:                  -8.936
REMARK INTRA:                  -1.351
REMARK UNBOUND:                -1.351
REMARK SMILES C[C@H]1O[C@@H](O[C@@H]2[C@@H](Oc3cc(O)c4c(c3)O[C@H](c3ccc(O)cc3)CC4=O)O[C@H](CO)[C@H](O)[C@@H]2O)[C@@H](O)[C@@H](O)[C@H]1O
REMARK SMILES IDX 6 1 34 2 32 3 29 4 28 5 7 6 5 7 4 8 1 9 2 10 40 11 3 12
REMARK SMILES IDX 38 13 36 14 41 15 39 17 37 19 35 21 8 23 9 24 10 25 15 26
REMARK SMILES IDX 11 27 14 28 13 29 16 30 26 31 17 32 27 33 25 34 12 35 18 37
REMARK SMILES IDX 19 38 24 39 20 40 23 41 21 42 22 43 33 45 30 47 31 48
REMARK H PARENT 41 16 39 18 37 20 35 22 12 36 22 44 33 46 31 49
REMARK Flexibility Score: inf
ROOT
ATOM      1  C   UNL     1      23.313  14.563  85.616  1.00  0.00     0.221 C 
ATOM      2  C   UNL     1      24.544  13.956  84.919  1.00  0.00     0.181 C 
ATOM      3  C   UNL     1      25.816  14.142  85.772  1.00  0.00     0.177 C 
ATOM      4  C   UNL     1      25.542  13.644  87.209  1.00  0.00     0.179 C 
ATOM      5  O   UNL     1      24.426  14.313  87.777  1.00  0.00    -0.332 OA
ATOM      6  C   UNL     1      23.229  14.032  87.062  1.00  0.00     0.339 C 
ENDROOT
BRANCH   1   7
ATOM      7  O   UNL     1      23.439  15.980  85.651  1.00  0.00    -0.337 OA
BRANCH   7   8
ATOM      8  C   UNL     1      22.637  16.642  84.679  1.00  0.00     0.282 C 
ATOM      9  C   UNL     1      24.792  18.564  85.907  1.00  0.00     0.041 C 
ATOM     10  C   UNL     1      23.612  18.818  84.954  1.00  0.00     0.150 C 
ATOM     11  C   UNL     1      22.333  19.359  85.647  1.00  0.00     0.174 C 
ATOM     12  O   UNL     1      23.364  17.712  84.084  1.00  0.00    -0.344 OA
ATOM     13  C   UNL     1      21.512  18.242  86.309  1.00  0.00     0.179 C 
ATOM     14  C   UNL     1      21.298  17.121  85.279  1.00  0.00     0.202 C 
BRANCH  11  15
ATOM     15  O   UNL     1      22.664  20.351  86.589  1.00  0.00    -0.388 OA
ATOM     16  H   UNL     1      22.839  19.879  87.447  1.00  0.00     0.211 HD
ENDBRANCH  11  15
BRANCH  13  17
ATOM     17  O   UNL     1      22.133  17.834  87.513  1.00  0.00    -0.387 OA
ATOM     18  H   UNL     1      22.327  16.856  87.477  1.00  0.00     0.211 HD
ENDBRANCH  13  17
BRANCH  14  19
ATOM     19  O   UNL     1      20.580  16.057  85.854  1.00  0.00    -0.385 OA
ATOM     20  H   UNL     1      20.439  15.382  85.135  1.00  0.00     0.211 HD
ENDBRANCH  14  19
ENDBRANCH   7   8
ENDBRANCH   1   7
BRANCH   2  21
ATOM     21  O   UNL     1      24.707  14.537  83.653  1.00  0.00    -0.387 OA
ATOM     22  H   UNL     1      25.655  14.379  83.398  1.00  0.00     0.211 HD
ENDBRANCH   2  21
BRANCH   6  23
ATOM     23  O   UNL     1      22.912  12.636  87.089  1.00  0.00    -0.462 OA
BRANCH  23  24
ATOM     24  C   UNL     1      21.987  12.017  86.230  1.00  0.00     0.130 A 
ATOM     25  C   UNL     1      22.191  10.730  85.704  1.00  0.00     0.093 A 
ATOM     26  C   UNL     1      20.827  12.717  85.888  1.00  0.00     0.094 A 
ATOM     27  C   UNL     1      21.252  10.139  84.851  1.00  0.00     0.133 A 
ATOM     28  C   UNL     1      19.862  12.135  85.062  1.00  0.00     0.138 A 
ATOM     29  C   UNL     1      20.053  10.836  84.547  1.00  0.00     0.102 A 
ATOM     30  O   UNL     1      18.697  12.862  84.766  1.00  0.00    -0.484 OA
ATOM     31  C   UNL     1      18.968  10.292  83.696  1.00  0.00     0.174 C 
ATOM     32  C   UNL     1      17.566  12.306  84.081  1.00  0.00     0.211 C 
ATOM     33  O   UNL     1      18.802   9.050  83.535  1.00  0.00    -0.294 OA
ATOM     34  C   UNL     1      18.015  11.255  83.055  1.00  0.00     0.131 C 
BRANCH  27  35
ATOM     35  O   UNL     1      21.575   8.891  84.322  1.00  0.00    -0.507 OA
ATOM     36  H   UNL     1      22.072   8.160  84.827  1.00  0.00     0.293 HD
ENDBRANCH  27  35
BRANCH  32  37
ATOM     37  C   UNL     1      16.542  11.731  85.050  1.00  0.00    -0.007 A 
ATOM     38  C   UNL     1      15.484  10.909  84.620  1.00  0.00     0.011 A 
ATOM     39  C   UNL     1      16.614  12.087  86.414  1.00  0.00     0.011 A 
ATOM     40  C   UNL     1      14.531  10.444  85.534  1.00  0.00     0.046 A 
ATOM     41  C   UNL     1      15.657  11.623  87.326  1.00  0.00     0.046 A 
ATOM     42  C   UNL     1      14.613  10.795  86.886  1.00  0.00     0.115 A 
BRANCH  42  43
ATOM     43  O   UNL     1      13.655  10.319  87.781  1.00  0.00    -0.508 OA
ATOM     44  H   UNL     1      12.665  10.496  87.641  1.00  0.00     0.293 HD
ENDBRANCH  42  43
ENDBRANCH  32  37
ENDBRANCH  23  24
ENDBRANCH   6  23
BRANCH   3  45
ATOM     45  O   UNL     1      26.203  15.492  85.798  1.00  0.00    -0.387 OA
ATOM     46  H   UNL     1      27.126  15.535  85.434  1.00  0.00     0.211 HD
ENDBRANCH   3  45
BRANCH   4  47
ATOM     47  C   UNL     1      26.760  13.861  88.125  1.00  0.00     0.191 C 
BRANCH  47  48
ATOM     48  O   UNL     1      27.962  13.758  87.408  1.00  0.00    -0.394 OA
ATOM     49  H   UNL     1      28.012  12.822  87.077  1.00  0.00     0.210 HD
ENDBRANCH  47  48
ENDBRANCH   4  47
TORSDOF 14
ENDMDL
MODEL 2
REMARK VINA RESULT:    -5.638      0.814      1.283
REMARK INTER + INTRA:         -10.285
REMARK INTER:                  -8.533
REMARK INTRA:                  -1.752
REMARK UNBOUND:                -1.351
REMARK SMILES C[C@H]1O[C@@H](O[C@@H]2[C@@H](Oc3cc(O)c4c(c3)O[C@H](c3ccc(O)cc3)CC4=O)O[C@H](CO)[C@H](O)[C@@H]2O)[C@@H](O)[C@@H](O)[C@H]1O
REMARK SMILES IDX 6 1 34 2 32 3 29 4 28 5 7 6 5 7 4 8 1 9 2 10 40 11 3 12
REMARK SMILES IDX 38 13 36 14 41 15 39 17 37 19 35 21 8 23 9 24 10 25 15 26
REMARK SMILES IDX 11 27 14 28 13 29 16 30 26 31 17 32 27 33 25 34 12 35 18 37
REMARK SMILES IDX 19 38 24 39 20 40 23 41 21 42 22 43 33 45 30 47 31 48
REMARK H PARENT 41 16 39 18 37 20 35 22 12 36 22 44 33 46 31 49
REMARK Flexibility Score: inf
ROOT
ATOM      1  C   UNL     1      23.320  14.741  85.589  1.00  0.00     0.221 C 
ATOM      2  C   UNL     1      24.485  13.975  84.936  1.00  0.00     0.181 C 
ATOM      3  C   UNL     1      25.780  14.120  85.762  1.00  0.00     0.177 C 
ATOM      4  C   UNL     1      25.484  13.766  87.238  1.00  0.00     0.179 C 
ATOM      5  O   UNL     1      24.437  14.574  87.756  1.00  0.00    -0.332 OA
ATOM      6  C   UNL     1      23.211  14.339  87.074  1.00  0.00     0.339 C 
ENDROOT
BRANCH   1   7
ATOM      7  O   UNL     1      23.567  16.139  85.507  1.00  0.00    -0.337 OA
BRANCH   7   8
ATOM      8  C   UNL     1      22.403  16.900  85.200  1.00  0.00     0.282 C 
ATOM      9  C   UNL     1      24.857  17.785  83.457  1.00  0.00     0.041 C 
ATOM     10  C   UNL     1      23.446  18.374  83.619  1.00  0.00     0.150 C 
ATOM     11  C   UNL     1      23.360  19.572  84.602  1.00  0.00     0.174 C 
ATOM     12  O   UNL     1      22.459  17.370  83.857  1.00  0.00    -0.344 OA
ATOM     13  C   UNL     1      23.301  19.119  86.069  1.00  0.00     0.179 C 
ATOM     14  C   UNL     1      22.199  18.055  86.205  1.00  0.00     0.202 C 
BRANCH  11  15
ATOM     15  O   UNL     1      24.440  20.453  84.403  1.00  0.00    -0.388 OA
ATOM     16  H   UNL     1      25.010  20.047  83.695  1.00  0.00     0.211 HD
ENDBRANCH  11  15
BRANCH  13  17
ATOM     17  O   UNL     1      24.584  18.706  86.500  1.00  0.00    -0.387 OA
ATOM     18  H   UNL     1      24.522  17.805  86.923  1.00  0.00     0.211 HD
ENDBRANCH  13  17
BRANCH  14  19
ATOM     19  O   UNL     1      22.133  17.582  87.527  1.00  0.00    -0.385 OA
ATOM     20  H   UNL     1      22.146  18.382  88.120  1.00  0.00     0.211 HD
ENDBRANCH  14  19
ENDBRANCH   7   8
ENDBRANCH   1   7
BRANCH   2  21
ATOM     21  O   UNL     1      24.680  14.435  83.626  1.00  0.00    -0.387 OA
ATOM     22  H   UNL     1      25.272  13.769  83.186  1.00  0.00     0.211 HD
ENDBRANCH   2  21
BRANCH   6  23
ATOM     23  O   UNL     1      22.776  12.982  87.219  1.00  0.00    -0.462 OA
BRANCH  23  24
ATOM     24  C   UNL     1      21.866  12.346  86.357  1.00  0.00     0.130 A 
ATOM     25  C   UNL     1      22.093  11.059  85.839  1.00  0.00     0.093 A 
ATOM     26  C   UNL     1      20.699  13.027  86.003  1.00  0.00     0.094 A 
ATOM     27  C   UNL     1      21.168  10.451  84.982  1.00  0.00     0.133 A 
ATOM     28  C   UNL     1      19.748  12.427  85.173  1.00  0.00     0.138 A 
ATOM     29  C   UNL     1      19.961  11.129  84.667  1.00  0.00     0.102 A 
ATOM     30  O   UNL     1      18.575  13.136  84.866  1.00  0.00    -0.484 OA
ATOM     31  C   UNL     1      18.890  10.565  83.811  1.00  0.00     0.174 C 
ATOM     32  C   UNL     1      17.457  12.560  84.176  1.00  0.00     0.211 C 
ATOM     33  O   UNL     1      18.743   9.320  83.655  1.00  0.00    -0.294 OA
ATOM     34  C   UNL     1      17.928  11.511  83.158  1.00  0.00     0.131 C 
BRANCH  27  35
ATOM     35  O   UNL     1      21.513   9.205  84.461  1.00  0.00    -0.507 OA
ATOM     36  H   UNL     1      20.864   8.573  83.996  1.00  0.00     0.293 HD
ENDBRANCH  27  35
BRANCH  32  37
ATOM     37  C   UNL     1      16.434  11.976  85.141  1.00  0.00    -0.007 A 
ATOM     38  C   UNL     1      16.548  12.133  86.535  1.00  0.00     0.011 A 
ATOM     39  C   UNL     1      15.376  11.195  84.630  1.00  0.00     0.011 A 
ATOM     40  C   UNL     1      15.617  11.535  87.394  1.00  0.00     0.046 A 
ATOM     41  C   UNL     1      14.449  10.595  85.491  1.00  0.00     0.046 A 
ATOM     42  C   UNL     1      14.566  10.768  86.879  1.00  0.00     0.115 A 
BRANCH  42  43
ATOM     43  O   UNL     1      13.648  10.183  87.751  1.00  0.00    -0.508 OA
ATOM     44  H   UNL     1      13.011  10.746  88.305  1.00  0.00     0.293 HD
ENDBRANCH  42  43
ENDBRANCH  32  37
ENDBRANCH  23  24
ENDBRANCH   6  23
BRANCH   3  45
ATOM     45  O   UNL     1      26.281  15.429  85.674  1.00  0.00    -0.387 OA
ATOM     46  H   UNL     1      27.081  15.393  85.088  1.00  0.00     0.211 HD
ENDBRANCH   3  45
BRANCH   4  47
ATOM     47  C   UNL     1      26.729  13.952  88.124  1.00  0.00     0.191 C 
BRANCH  47  48
ATOM     48  O   UNL     1      27.910  13.767  87.390  1.00  0.00    -0.394 OA
ATOM     49  H   UNL     1      27.662  13.849  86.432  1.00  0.00     0.210 HD
ENDBRANCH  47  48
ENDBRANCH   4  47
TORSDOF 14
ENDMDL
MODEL 3
REMARK VINA RESULT:    -5.503      2.336      3.002
REMARK INTER + INTRA:         -10.071
REMARK INTER:                  -8.093
REMARK INTRA:                  -1.979
REMARK UNBOUND:                -1.351
REMARK SMILES C[C@H]1O[C@@H](O[C@@H]2[C@@H](Oc3cc(O)c4c(c3)O[C@H](c3ccc(O)cc3)CC4=O)O[C@H](CO)[C@H](O)[C@@H]2O)[C@@H](O)[C@@H](O)[C@H]1O
REMARK SMILES IDX 6 1 34 2 32 3 29 4 28 5 7 6 5 7 4 8 1 9 2 10 40 11 3 12
REMARK SMILES IDX 38 13 36 14 41 15 39 17 37 19 35 21 8 23 9 24 10 25 15 26
REMARK SMILES IDX 11 27 14 28 13 29 16 30 26 31 17 32 27 33 25 34 12 35 18 37
REMARK SMILES IDX 19 38 24 39 20 40 23 41 21 42 22 43 33 45 30 47 31 48
REMARK H PARENT 41 16 39 18 37 20 35 22 12 36 22 44 33 46 31 49
REMARK Flexibility Score: inf
ROOT
ATOM      1  C   UNL     1      23.151  15.390  84.730  1.00  0.00     0.221 C 
ATOM      2  C   UNL     1      24.383  14.763  84.052  1.00  0.00     0.181 C 
ATOM      3  C   UNL     1      25.575  14.680  85.028  1.00  0.00     0.177 C 
ATOM      4  C   UNL     1      25.112  14.006  86.340  1.00  0.00     0.179 C 
ATOM      5  O   UNL     1      24.013  14.700  86.910  1.00  0.00    -0.332 OA
ATOM      6  C   UNL     1      22.873  14.661  86.061  1.00  0.00     0.339 C 
ENDROOT
BRANCH   1   7
ATOM      7  O   UNL     1      23.406  16.762  85.000  1.00  0.00    -0.337 OA
BRANCH   7   8
ATOM      8  C   UNL     1      22.238  17.575  84.942  1.00  0.00     0.282 C 
ATOM      9  C   UNL     1      24.601  18.822  83.297  1.00  0.00     0.041 C 
ATOM     10  C   UNL     1      23.211  19.363  83.669  1.00  0.00     0.150 C 
ATOM     11  C   UNL     1      23.200  20.311  84.899  1.00  0.00     0.174 C 
ATOM     12  O   UNL     1      22.224  18.334  83.736  1.00  0.00    -0.344 OA
ATOM     13  C   UNL     1      23.219  19.541  86.229  1.00  0.00     0.179 C 
ATOM     14  C   UNL     1      22.111  18.476  86.189  1.00  0.00     0.202 C 
BRANCH  11  15
ATOM     15  O   UNL     1      24.280  21.212  84.837  1.00  0.00    -0.388 OA
ATOM     16  H   UNL     1      23.889  22.126  84.870  1.00  0.00     0.211 HD
ENDBRANCH  11  15
BRANCH  13  17
ATOM     17  O   UNL     1      24.518  19.039  86.479  1.00  0.00    -0.387 OA
ATOM     18  H   UNL     1      24.590  18.106  86.137  1.00  0.00     0.211 HD
ENDBRANCH  13  17
BRANCH  14  19
ATOM     19  O   UNL     1      22.113  17.720  87.374  1.00  0.00    -0.385 OA
ATOM     20  H   UNL     1      21.589  16.893  87.190  1.00  0.00     0.211 HD
ENDBRANCH  14  19
ENDBRANCH   7   8
ENDBRANCH   1   7
BRANCH   2  21
ATOM     21  O   UNL     1      24.726  15.505  82.913  1.00  0.00    -0.387 OA
ATOM     22  H   UNL     1      23.887  15.939  82.604  1.00  0.00     0.211 HD
ENDBRANCH   2  21
BRANCH   6  23
ATOM     23  O   UNL     1      22.424  13.319  85.839  1.00  0.00    -0.462 OA
BRANCH  23  24
ATOM     24  C   UNL     1      21.078  12.916  85.887  1.00  0.00     0.130 A 
ATOM     25  C   UNL     1      20.531  12.247  86.996  1.00  0.00     0.093 A 
ATOM     26  C   UNL     1      20.262  13.191  84.786  1.00  0.00     0.094 A 
ATOM     27  C   UNL     1      19.187  11.858  87.015  1.00  0.00     0.133 A 
ATOM     28  C   UNL     1      18.911  12.838  84.796  1.00  0.00     0.138 A 
ATOM     29  C   UNL     1      18.352  12.184  85.913  1.00  0.00     0.102 A 
ATOM     30  O   UNL     1      18.120  13.159  83.680  1.00  0.00    -0.484 OA
ATOM     31  C   UNL     1      16.906  11.866  85.843  1.00  0.00     0.174 C 
ATOM     32  C   UNL     1      16.693  13.008  83.647  1.00  0.00     0.211 C 
ATOM     33  O   UNL     1      16.207  11.690  86.881  1.00  0.00    -0.294 OA
ATOM     34  C   UNL     1      16.255  11.804  84.494  1.00  0.00     0.131 C 
BRANCH  27  35
ATOM     35  O   UNL     1      18.753  11.135  88.125  1.00  0.00    -0.507 OA
ATOM     36  H   UNL     1      18.284  11.542  88.932  1.00  0.00     0.293 HD
ENDBRANCH  27  35
BRANCH  32  37
ATOM     37  C   UNL     1      15.979  14.280  84.082  1.00  0.00    -0.007 A 
ATOM     38  C   UNL     1      14.784  14.250  84.825  1.00  0.00     0.011 A 
ATOM     39  C   UNL     1      16.491  15.529  83.670  1.00  0.00     0.011 A 
ATOM     40  C   UNL     1      14.128  15.440  85.160  1.00  0.00     0.046 A 
ATOM     41  C   UNL     1      15.830  16.718  84.003  1.00  0.00     0.046 A 
ATOM     42  C   UNL     1      14.646  16.676  84.754  1.00  0.00     0.115 A 
BRANCH  42  43
ATOM     43  O   UNL     1      13.978  17.851  85.100  1.00  0.00    -0.508 OA
ATOM     44  H   UNL     1      12.967  17.878  85.191  1.00  0.00     0.293 HD
ENDBRANCH  42  43
ENDBRANCH  32  37
ENDBRANCH  23  24
ENDBRANCH   6  23
BRANCH   3  45
ATOM     45  O   UNL     1      26.083  15.961  85.301  1.00  0.00    -0.387 OA
ATOM     46  H   UNL     1      25.365  16.463  85.767  1.00  0.00     0.211 HD
ENDBRANCH   3  45
BRANCH   4  47
ATOM     47  C   UNL     1      26.247  13.950  87.378  1.00  0.00     0.191 C 
BRANCH  47  48
ATOM     48  O   UNL     1      26.315  15.137  88.123  1.00  0.00    -0.394 OA
ATOM     49  H   UNL     1      26.099  14.894  89.062  1.00  0.00     0.210 HD
ENDBRANCH  47  48
ENDBRANCH   4  47
TORSDOF 14
ENDMDL
MODEL 4
REMARK VINA RESULT:    -5.462      2.516      3.576
REMARK INTER + INTRA:         -10.007
REMARK INTER:                  -7.539
REMARK INTRA:                  -2.468
REMARK UNBOUND:                -1.351
REMARK SMILES C[C@H]1O[C@@H](O[C@@H]2[C@@H](Oc3cc(O)c4c(c3)O[C@H](c3ccc(O)cc3)CC4=O)O[C@H](CO)[C@H](O)[C@@H]2O)[C@@H](O)[C@@H](O)[C@H]1O
REMARK SMILES IDX 6 1 34 2 32 3 29 4 28 5 7 6 5 7 4 8 1 9 2 10 40 11 3 12
REMARK SMILES IDX 38 13 36 14 41 15 39 17 37 19 35 21 8 23 9 24 10 25 15 26
REMARK SMILES IDX 11 27 14 28 13 29 16 30 26 31 17 32 27 33 25 34 12 35 18 37
REMARK SMILES IDX 19 38 24 39 20 40 23 41 21 42 22 43 33 45 30 47 31 48
REMARK H PARENT 41 16 39 18 37 20 35 22 12 36 22 44 33 46 31 49
REMARK Flexibility Score: inf
ROOT
ATOM      1  C   UNL     1      21.877  15.871  83.837  1.00  0.00     0.221 C 
ATOM      2  C   UNL     1      23.207  15.150  83.554  1.00  0.00     0.181 C 
ATOM      3  C   UNL     1      24.025  14.959  84.849  1.00  0.00     0.177 C 
ATOM      4  C   UNL     1      23.125  14.313  85.927  1.00  0.00     0.179 C 
ATOM      5  O   UNL     1      21.959  15.091  86.152  1.00  0.00    -0.332 OA
ATOM      6  C   UNL     1      21.142  15.155  84.989  1.00  0.00     0.339 C 
ENDROOT
BRANCH   1   7
ATOM      7  O   UNL     1      22.138  17.215  84.222  1.00  0.00    -0.337 OA
BRANCH   7   8
ATOM      8  C   UNL     1      21.046  17.832  84.895  1.00  0.00     0.282 C 
ATOM      9  C   UNL     1      22.150  19.641  82.582  1.00  0.00     0.041 C 
ATOM     10  C   UNL     1      21.106  19.901  83.680  1.00  0.00     0.150 C 
ATOM     11  C   UNL     1      21.650  20.669  84.914  1.00  0.00     0.174 C 
ATOM     12  O   UNL     1      20.367  18.727  84.020  1.00  0.00    -0.344 OA
ATOM     13  C   UNL     1      22.396  19.747  85.892  1.00  0.00     0.179 C 
ATOM     14  C   UNL     1      21.502  18.533  86.193  1.00  0.00     0.202 C 
BRANCH  11  15
ATOM     15  O   UNL     1      22.480  21.731  84.508  1.00  0.00    -0.388 OA
ATOM     16  H   UNL     1      23.068  21.372  83.790  1.00  0.00     0.211 HD
ENDBRANCH  11  15
BRANCH  13  17
ATOM     17  O   UNL     1      23.676  19.431  85.377  1.00  0.00    -0.387 OA
ATOM     18  H   UNL     1      23.735  19.716  84.424  1.00  0.00     0.211 HD
ENDBRANCH  13  17
BRANCH  14  19
ATOM     19  O   UNL     1      22.161  17.641  87.058  1.00  0.00    -0.385 OA
ATOM     20  H   UNL     1      21.994  17.962  87.985  1.00  0.00     0.211 HD
ENDBRANCH  14  19
ENDBRANCH   7   8
ENDBRANCH   1   7
BRANCH   2  21
ATOM     21  O   UNL     1      23.945  15.872  82.605  1.00  0.00    -0.387 OA
ATOM     22  H   UNL     1      24.066  16.783  82.986  1.00  0.00     0.211 HD
ENDBRANCH   2  21
BRANCH   6  23
ATOM     23  O   UNL     1      20.684  13.858  84.592  1.00  0.00    -0.462 OA
BRANCH  23  24
ATOM     24  C   UNL     1      19.514  13.248  85.078  1.00  0.00     0.130 A 
ATOM     25  C   UNL     1      19.483  12.534  86.288  1.00  0.00     0.093 A 
ATOM     26  C   UNL     1      18.345  13.357  84.321  1.00  0.00     0.094 A 
ATOM     27  C   UNL     1      18.303  11.937  86.746  1.00  0.00     0.133 A 
ATOM     28  C   UNL     1      17.149  12.794  84.773  1.00  0.00     0.138 A 
ATOM     29  C   UNL     1      17.108  12.093  85.996  1.00  0.00     0.102 A 
ATOM     30  O   UNL     1      15.990  12.952  83.996  1.00  0.00    -0.484 OA
ATOM     31  C   UNL     1      15.792  11.547  86.406  1.00  0.00     0.174 C 
ATOM     32  C   UNL     1      14.678  12.575  84.438  1.00  0.00     0.211 C 
ATOM     33  O   UNL     1      15.518  11.295  87.613  1.00  0.00    -0.294 OA
ATOM     34  C   UNL     1      14.746  11.343  85.353  1.00  0.00     0.131 C 
BRANCH  27  35
ATOM     35  O   UNL     1      18.387  11.188  87.919  1.00  0.00    -0.507 OA
ATOM     36  H   UNL     1      18.076  10.223  88.012  1.00  0.00     0.293 HD
ENDBRANCH  27  35
BRANCH  32  37
ATOM     37  C   UNL     1      13.957  13.731  85.119  1.00  0.00    -0.007 A 
ATOM     38  C   UNL     1      14.456  15.046  85.089  1.00  0.00     0.011 A 
ATOM     39  C   UNL     1      12.785  13.466  85.861  1.00  0.00     0.011 A 
ATOM     40  C   UNL     1      13.793  16.072  85.773  1.00  0.00     0.046 A 
ATOM     41  C   UNL     1      12.126  14.494  86.547  1.00  0.00     0.046 A 
ATOM     42  C   UNL     1      12.628  15.803  86.500  1.00  0.00     0.115 A 
BRANCH  42  43
ATOM     43  O   UNL     1      11.980  16.840  87.172  1.00  0.00    -0.508 OA
ATOM     44  H   UNL     1      12.486  17.470  87.788  1.00  0.00     0.293 HD
ENDBRANCH  42  43
ENDBRANCH  32  37
ENDBRANCH  23  24
ENDBRANCH   6  23
BRANCH   3  45
ATOM     45  O   UNL     1      24.518  16.190  85.311  1.00  0.00    -0.387 OA
ATOM     46  H   UNL     1      25.319  15.991  85.863  1.00  0.00     0.211 HD
ENDBRANCH   3  45
BRANCH   4  47
ATOM     47  C   UNL     1      23.870  14.153  87.264  1.00  0.00     0.191 C 
BRANCH  47  48
ATOM     48  O   UNL     1      23.612  15.231  88.125  1.00  0.00    -0.394 OA
ATOM     49  H   UNL     1      24.124  16.005  87.769  1.00  0.00     0.210 HD
ENDBRANCH  47  48
ENDBRANCH   4  47
TORSDOF 14
ENDMDL
MODEL 5
REMARK VINA RESULT:    -5.438      1.701      2.958
REMARK INTER + INTRA:          -9.969
REMARK INTER:                  -7.915
REMARK INTRA:                  -2.054
REMARK UNBOUND:                -1.351
REMARK SMILES C[C@H]1O[C@@H](O[C@@H]2[C@@H](Oc3cc(O)c4c(c3)O[C@H](c3ccc(O)cc3)CC4=O)O[C@H](CO)[C@H](O)[C@@H]2O)[C@@H](O)[C@@H](O)[C@H]1O
REMARK SMILES IDX 6 1 34 2 32 3 29 4 28 5 7 6 5 7 4 8 1 9 2 10 40 11 3 12
REMARK SMILES IDX 38 13 36 14 41 15 39 17 37 19 35 21 8 23 9 24 10 25 15 26
REMARK SMILES IDX 11 27 14 28 13 29 16 30 26 31 17 32 27 33 25 34 12 35 18 37
REMARK SMILES IDX 19 38 24 39 20 40 23 41 21 42 22 43 33 45 30 47 31 48
REMARK H PARENT 41 16 39 18 37 20 35 22 12 36 22 44 33 46 31 49
REMARK Flexibility Score: inf
ROOT
ATOM      1  C   UNL     1      23.377  13.930  84.795  1.00  0.00     0.221 C 
ATOM      2  C   UNL     1      24.185  13.096  85.805  1.00  0.00     0.181 C 
ATOM      3  C   UNL     1      23.309  12.658  86.996  1.00  0.00     0.177 C 
ATOM      4  C   UNL     1      22.015  12.000  86.461  1.00  0.00     0.179 C 
ATOM      5  O   UNL     1      21.319  12.879  85.590  1.00  0.00    -0.332 OA
ATOM      6  C   UNL     1      22.082  13.176  84.428  1.00  0.00     0.339 C 
ENDROOT
BRANCH   1   7
ATOM      7  O   UNL     1      23.032  15.179  85.381  1.00  0.00    -0.337 OA
BRANCH   7   8
ATOM      8  C   UNL     1      22.389  16.070  84.475  1.00  0.00     0.282 C 
ATOM      9  C   UNL     1      24.947  17.363  85.752  1.00  0.00     0.041 C 
ATOM     10  C   UNL     1      23.843  17.942  84.851  1.00  0.00     0.150 C 
ATOM     11  C   UNL     1      22.733  18.715  85.613  1.00  0.00     0.174 C 
ATOM     12  O   UNL     1      23.334  16.982  83.924  1.00  0.00    -0.344 OA
ATOM     13  C   UNL     1      21.687  17.775  86.230  1.00  0.00     0.179 C 
ATOM     14  C   UNL     1      21.205  16.802  85.141  1.00  0.00     0.202 C 
BRANCH  11  15
ATOM     15  O   UNL     1      23.297  19.541  86.603  1.00  0.00    -0.388 OA
ATOM     16  H   UNL     1      24.255  19.661  86.360  1.00  0.00     0.211 HD
ENDBRANCH  11  15
BRANCH  13  17
ATOM     17  O   UNL     1      22.215  17.157  87.389  1.00  0.00    -0.387 OA
ATOM     18  H   UNL     1      21.522  16.572  87.804  1.00  0.00     0.211 HD
ENDBRANCH  13  17
BRANCH  14  19
ATOM     19  O   UNL     1      20.270  15.895  85.671  1.00  0.00    -0.385 OA
ATOM     20  H   UNL     1      20.275  16.020  86.659  1.00  0.00     0.211 HD
ENDBRANCH  14  19
ENDBRANCH   7   8
ENDBRANCH   1   7
BRANCH   2  21
ATOM     21  O   UNL     1      25.293  13.832  86.250  1.00  0.00    -0.387 OA
ATOM     22  H   UNL     1      26.093  13.384  85.867  1.00  0.00     0.211 HD
ENDBRANCH   2  21
BRANCH   6  23
ATOM     23  O   UNL     1      22.362  11.998  83.663  1.00  0.00    -0.462 OA
BRANCH  23  24
ATOM     24  C   UNL     1      21.434  10.970  83.424  1.00  0.00     0.130 A 
ATOM     25  C   UNL     1      21.656   9.643  83.833  1.00  0.00     0.093 A 
ATOM     26  C   UNL     1      20.251  11.286  82.750  1.00  0.00     0.094 A 
ATOM     27  C   UNL     1      20.713   8.640  83.580  1.00  0.00     0.133 A 
ATOM     28  C   UNL     1      19.283  10.307  82.514  1.00  0.00     0.138 A 
ATOM     29  C   UNL     1      19.493   8.979  82.939  1.00  0.00     0.102 A 
ATOM     30  O   UNL     1      18.096  10.674  81.858  1.00  0.00    -0.484 OA
ATOM     31  C   UNL     1      18.403   8.012  82.662  1.00  0.00     0.174 C 
ATOM     32  C   UNL     1      16.964   9.804  81.719  1.00  0.00     0.211 C 
ATOM     33  O   UNL     1      18.262   6.952  83.334  1.00  0.00    -0.294 OA
ATOM     34  C   UNL     1      17.415   8.342  81.584  1.00  0.00     0.131 C 
BRANCH  27  35
ATOM     35  O   UNL     1      21.053   7.342  83.957  1.00  0.00    -0.507 OA
ATOM     36  H   UNL     1      20.635   6.500  83.570  1.00  0.00     0.293 HD
ENDBRANCH  27  35
BRANCH  32  37
ATOM     37  C   UNL     1      15.973   9.975  82.863  1.00  0.00    -0.007 A 
ATOM     38  C   UNL     1      16.168  10.922  83.885  1.00  0.00     0.011 A 
ATOM     39  C   UNL     1      14.859   9.111  82.941  1.00  0.00     0.011 A 
ATOM     40  C   UNL     1      15.263  11.013  84.949  1.00  0.00     0.046 A 
ATOM     41  C   UNL     1      13.958   9.201  84.008  1.00  0.00     0.046 A 
ATOM     42  C   UNL     1      14.156  10.159  85.015  1.00  0.00     0.115 A 
BRANCH  42  43
ATOM     43  O   UNL     1      13.265  10.267  86.083  1.00  0.00    -0.508 OA
ATOM     44  H   UNL     1      13.373   9.705  86.922  1.00  0.00     0.293 HD
ENDBRANCH  42  43
ENDBRANCH  32  37
ENDBRANCH  23  24
ENDBRANCH   6  23
BRANCH   3  45
ATOM     45  O   UNL     1      22.986  13.759  87.806  1.00  0.00    -0.387 OA
ATOM     46  H   UNL     1      22.723  14.498  87.198  1.00  0.00     0.211 HD
ENDBRANCH   3  45
BRANCH   4  47
ATOM     47  C   UNL     1      21.071  11.597  87.607  1.00  0.00     0.191 C 
BRANCH  47  48
ATOM     48  O   UNL     1      20.100  12.584  87.839  1.00  0.00    -0.394 OA
ATOM     49  H   UNL     1      19.813  12.912  86.946  1.00  0.00     0.210 HD
ENDBRANCH  47  48
ENDBRANCH   4  47
TORSDOF 14
ENDMDL
MODEL 6
REMARK VINA RESULT:    -5.384      1.750      2.875
REMARK INTER + INTRA:          -9.883
REMARK INTER:                  -7.630
REMARK INTRA:                  -2.254
REMARK UNBOUND:                -1.351
REMARK SMILES C[C@H]1O[C@@H](O[C@@H]2[C@@H](Oc3cc(O)c4c(c3)O[C@H](c3ccc(O)cc3)CC4=O)O[C@H](CO)[C@H](O)[C@@H]2O)[C@@H](O)[C@@H](O)[C@H]1O
REMARK SMILES IDX 6 1 34 2 32 3 29 4 28 5 7 6 5 7 4 8 1 9 2 10 40 11 3 12
REMARK SMILES IDX 38 13 36 14 41 15 39 17 37 19 35 21 8 23 9 24 10 25 15 26
REMARK SMILES IDX 11 27 14 28 13 29 16 30 26 31 17 32 27 33 25 34 12 35 18 37
REMARK SMILES IDX 19 38 24 39 20 40 23 41 21 42 22 43 33 45 30 47 31 48
REMARK H PARENT 41 16 39 18 37 20 35 22 12 36 22 44 33 46 31 49
REMARK Flexibility Score: inf
ROOT
ATOM      1  C   UNL     1      23.801  14.482  84.814  1.00  0.00     0.221 C 
ATOM      2  C   UNL     1      24.563  13.734  85.923  1.00  0.00     0.181 C 
ATOM      3  C   UNL     1      23.601  13.219  87.012  1.00  0.00     0.177 C 
ATOM      4  C   UNL     1      22.446  12.437  86.343  1.00  0.00     0.179 C 
ATOM      5  O   UNL     1      21.774  13.241  85.385  1.00  0.00    -0.332 OA
ATOM      6  C   UNL     1      22.635  13.605  84.313  1.00  0.00     0.339 C 
ENDROOT
BRANCH   1   7
ATOM      7  O   UNL     1      23.273  15.694  85.338  1.00  0.00    -0.337 OA
BRANCH   7   8
ATOM      8  C   UNL     1      22.351  16.333  84.462  1.00  0.00     0.282 C 
ATOM      9  C   UNL     1      24.504  18.343  85.541  1.00  0.00     0.041 C 
ATOM     10  C   UNL     1      23.230  18.553  84.707  1.00  0.00     0.150 C 
ATOM     11  C   UNL     1      21.993  19.007  85.528  1.00  0.00     0.174 C 
ATOM     12  O   UNL     1      22.961  17.456  83.833  1.00  0.00    -0.344 OA
ATOM     13  C   UNL     1      21.297  17.831  86.231  1.00  0.00     0.179 C 
ATOM     14  C   UNL     1      21.049  16.723  85.194  1.00  0.00     0.202 C 
BRANCH  11  15
ATOM     15  O   UNL     1      22.356  19.994  86.463  1.00  0.00    -0.388 OA
ATOM     16  H   UNL     1      22.829  20.706  85.954  1.00  0.00     0.211 HD
ENDBRANCH  11  15
BRANCH  13  17
ATOM     17  O   UNL     1      22.047  17.430  87.361  1.00  0.00    -0.387 OA
ATOM     18  H   UNL     1      21.482  17.493  88.180  1.00  0.00     0.211 HD
ENDBRANCH  13  17
BRANCH  14  19
ATOM     19  O   UNL     1      20.444  15.608  85.801  1.00  0.00    -0.385 OA
ATOM     20  H   UNL     1      21.179  15.055  86.185  1.00  0.00     0.211 HD
ENDBRANCH  14  19
ENDBRANCH   7   8
ENDBRANCH   1   7
BRANCH   2  21
ATOM     21  O   UNL     1      25.537  14.575  86.480  1.00  0.00    -0.387 OA
ATOM     22  H   UNL     1      26.344  14.011  86.614  1.00  0.00     0.211 HD
ENDBRANCH   2  21
BRANCH   6  23
ATOM     23  O   UNL     1      23.112  12.456  83.604  1.00  0.00    -0.462 OA
BRANCH  23  24
ATOM     24  C   UNL     1      22.315  11.351  83.257  1.00  0.00     0.130 A 
ATOM     25  C   UNL     1      22.676  10.031  83.576  1.00  0.00     0.093 A 
ATOM     26  C   UNL     1      21.123  11.584  82.565  1.00  0.00     0.094 A 
ATOM     27  C   UNL     1      21.861   8.951  83.217  1.00  0.00     0.133 A 
ATOM     28  C   UNL     1      20.281  10.523  82.222  1.00  0.00     0.138 A 
ATOM     29  C   UNL     1      20.629   9.199  82.558  1.00  0.00     0.102 A 
ATOM     30  O   UNL     1      19.078  10.804  81.552  1.00  0.00    -0.484 OA
ATOM     31  C   UNL     1      19.664   8.140  82.172  1.00  0.00     0.174 C 
ATOM     32  C   UNL     1      18.057   9.826  81.309  1.00  0.00     0.211 C 
ATOM     33  O   UNL     1      19.627   7.022  82.760  1.00  0.00    -0.294 OA
ATOM     34  C   UNL     1      18.677   8.438  81.085  1.00  0.00     0.131 C 
BRANCH  27  35
ATOM     35  O   UNL     1      22.337   7.674  83.512  1.00  0.00    -0.507 OA
ATOM     36  H   UNL     1      22.666   7.378  84.428  1.00  0.00     0.293 HD
ENDBRANCH  27  35
BRANCH  32  37
ATOM     37  C   UNL     1      17.022   9.797  82.425  1.00  0.00    -0.007 A 
ATOM     38  C   UNL     1      16.113   8.733  82.575  1.00  0.00     0.011 A 
ATOM     39  C   UNL     1      16.924  10.902  83.298  1.00  0.00     0.011 A 
ATOM     40  C   UNL     1      15.141   8.768  83.581  1.00  0.00     0.046 A 
ATOM     41  C   UNL     1      15.947  10.936  84.301  1.00  0.00     0.046 A 
ATOM     42  C   UNL     1      15.054   9.863  84.448  1.00  0.00     0.115 A 
BRANCH  42  43
ATOM     43  O   UNL     1      14.079   9.878  85.446  1.00  0.00    -0.508 OA
ATOM     44  H   UNL     1      14.322  10.021  86.421  1.00  0.00     0.293 HD
ENDBRANCH  42  43
ENDBRANCH  32  37
ENDBRANCH  23  24
ENDBRANCH   6  23
BRANCH   3  45
ATOM     45  O   UNL     1      23.084  14.287  87.763  1.00  0.00    -0.387 OA
ATOM     46  H   UNL     1      22.771  13.909  88.626  1.00  0.00     0.211 HD
ENDBRANCH   3  45
BRANCH   4  47
ATOM     47  C   UNL     1      21.418  11.950  87.379  1.00  0.00     0.191 C 
BRANCH  47  48
ATOM     48  O   UNL     1      20.413  12.906  87.589  1.00  0.00    -0.394 OA
ATOM     49  H   UNL     1      20.399  13.482  86.779  1.00  0.00     0.210 HD
ENDBRANCH  47  48
ENDBRANCH   4  47
TORSDOF 14
ENDMDL
MODEL 7
REMARK VINA RESULT:    -5.311      2.385      3.646
REMARK INTER + INTRA:          -9.768
REMARK INTER:                  -7.604
REMARK INTRA:                  -2.164
REMARK UNBOUND:                -1.351
REMARK SMILES C[C@H]1O[C@@H](O[C@@H]2[C@@H](Oc3cc(O)c4c(c3)O[C@H](c3ccc(O)cc3)CC4=O)O[C@H](CO)[C@H](O)[C@@H]2O)[C@@H](O)[C@@H](O)[C@H]1O
REMARK SMILES IDX 6 1 34 2 32 3 29 4 28 5 7 6 5 7 4 8 1 9 2 10 40 11 3 12
REMARK SMILES IDX 38 13 36 14 41 15 39 17 37 19 35 21 8 23 9 24 10 25 15 26
REMARK SMILES IDX 11 27 14 28 13 29 16 30 26 31 17 32 27 33 25 34 12 35 18 37
REMARK SMILES IDX 19 38 24 39 20 40 23 41 21 42 22 43 33 45 30 47 31 48
REMARK H PARENT 41 16 39 18 37 20 35 22 12 36 22 44 33 46 31 49
REMARK Flexibility Score: inf
ROOT
ATOM      1  C   UNL     1      24.463  15.257  85.352  1.00  0.00     0.221 C 
ATOM      2  C   UNL     1      25.104  14.662  86.619  1.00  0.00     0.181 C 
ATOM      3  C   UNL     1      24.053  13.953  87.497  1.00  0.00     0.177 C 
ATOM      4  C   UNL     1      23.245  12.964  86.624  1.00  0.00     0.179 C 
ATOM      5  O   UNL     1      22.647  13.629  85.521  1.00  0.00    -0.332 OA
ATOM      6  C   UNL     1      23.627  14.170  84.644  1.00  0.00     0.339 C 
ENDROOT
BRANCH   1   7
ATOM      7  O   UNL     1      23.607  16.333  85.715  1.00  0.00    -0.337 OA
BRANCH   7   8
ATOM      8  C   UNL     1      22.663  16.669  84.703  1.00  0.00     0.282 C 
ATOM      9  C   UNL     1      24.157  19.208  85.782  1.00  0.00     0.041 C 
ATOM     10  C   UNL     1      22.968  19.047  84.820  1.00  0.00     0.150 C 
ATOM     11  C   UNL     1      21.577  19.244  85.480  1.00  0.00     0.174 C 
ATOM     12  O   UNL     1      23.061  17.860  84.031  1.00  0.00    -0.344 OA
ATOM     13  C   UNL     1      21.101  17.985  86.223  1.00  0.00     0.179 C 
ATOM     14  C   UNL     1      21.234  16.782  85.275  1.00  0.00     0.202 C 
BRANCH  11  15
ATOM     15  O   UNL     1      21.595  20.351  86.349  1.00  0.00    -0.388 OA
ATOM     16  H   UNL     1      20.708  20.794  86.262  1.00  0.00     0.211 HD
ENDBRANCH  11  15
BRANCH  13  17
ATOM     17  O   UNL     1      21.795  17.856  87.449  1.00  0.00    -0.387 OA
ATOM     18  H   UNL     1      22.754  17.647  87.273  1.00  0.00     0.211 HD
ENDBRANCH  13  17
BRANCH  14  19
ATOM     19  O   UNL     1      20.843  15.598  85.926  1.00  0.00    -0.385 OA
ATOM     20  H   UNL     1      20.832  14.880  85.237  1.00  0.00     0.211 HD
ENDBRANCH  14  19
ENDBRANCH   7   8
ENDBRANCH   1   7
BRANCH   2  21
ATOM     21  O   UNL     1      25.751  15.675  87.343  1.00  0.00    -0.387 OA
ATOM     22  H   UNL     1      26.444  15.221  87.893  1.00  0.00     0.211 HD
ENDBRANCH   2  21
BRANCH   6  23
ATOM     23  O   UNL     1      24.462  13.148  84.087  1.00  0.00    -0.462 OA
BRANCH  23  24
ATOM     24  C   UNL     1      24.023  11.850  83.775  1.00  0.00     0.130 A 
ATOM     25  C   UNL     1      24.467  10.715  84.475  1.00  0.00     0.093 A 
ATOM     26  C   UNL     1      23.116  11.691  82.724  1.00  0.00     0.094 A 
ATOM     27  C   UNL     1      24.012   9.435  84.141  1.00  0.00     0.133 A 
ATOM     28  C   UNL     1      22.626  10.425  82.392  1.00  0.00     0.138 A 
ATOM     29  C   UNL     1      23.053   9.286  83.104  1.00  0.00     0.102 A 
ATOM     30  O   UNL     1      21.693  10.313  81.348  1.00  0.00    -0.484 OA
ATOM     31  C   UNL     1      22.465   7.987  82.696  1.00  0.00     0.174 C 
ATOM     32  C   UNL     1      20.991   9.101  81.036  1.00  0.00     0.211 C 
ATOM     33  O   UNL     1      22.415   6.998  83.481  1.00  0.00    -0.294 OA
ATOM     34  C   UNL     1      21.870   7.875  81.326  1.00  0.00     0.131 C 
BRANCH  27  35
ATOM     35  O   UNL     1      24.563   8.364  84.843  1.00  0.00    -0.507 OA
ATOM     36  H   UNL     1      25.391   7.848  84.553  1.00  0.00     0.293 HD
ENDBRANCH  27  35
BRANCH  32  37
ATOM     37  C   UNL     1      19.659   9.014  81.767  1.00  0.00    -0.007 A 
ATOM     38  C   UNL     1      18.999   7.788  81.976  1.00  0.00     0.011 A 
ATOM     39  C   UNL     1      19.030  10.204  82.192  1.00  0.00     0.011 A 
ATOM     40  C   UNL     1      17.749   7.753  82.605  1.00  0.00     0.046 A 
ATOM     41  C   UNL     1      17.778  10.167  82.818  1.00  0.00     0.046 A 
ATOM     42  C   UNL     1      17.136   8.937  83.031  1.00  0.00     0.115 A 
BRANCH  42  43
ATOM     43  O   UNL     1      15.891   8.881  83.658  1.00  0.00    -0.508 OA
ATOM     44  H   UNL     1      15.526   8.011  84.033  1.00  0.00     0.293 HD
ENDBRANCH  42  43
ENDBRANCH  32  37
ENDBRANCH  23  24
ENDBRANCH   6  23
BRANCH   3  45
ATOM     45  O   UNL     1      23.187  14.887  88.088  1.00  0.00    -0.387 OA
ATOM     46  H   UNL     1      23.417  15.774  87.708  1.00  0.00     0.211 HD
ENDBRANCH   3  45
BRANCH   4  47
ATOM     47  C   UNL     1      22.137  12.269  87.435  1.00  0.00     0.191 C 
BRANCH  47  48
ATOM     48  O   UNL     1      20.954  13.024  87.434  1.00  0.00    -0.394 OA
ATOM     49  H   UNL     1      21.005  13.627  88.222  1.00  0.00     0.210 HD
ENDBRANCH  47  48
ENDBRANCH   4  47
TORSDOF 14
ENDMDL
MODEL 8
REMARK VINA RESULT:    -5.122      3.259      5.813
REMARK INTER + INTRA:          -9.467
REMARK INTER:                  -7.344
REMARK INTRA:                  -2.122
REMARK UNBOUND:                -1.351
REMARK SMILES C[C@H]1O[C@@H](O[C@@H]2[C@@H](Oc3cc(O)c4c(c3)O[C@H](c3ccc(O)cc3)CC4=O)O[C@H](CO)[C@H](O)[C@@H]2O)[C@@H](O)[C@@H](O)[C@H]1O
REMARK SMILES IDX 6 1 34 2 32 3 29 4 28 5 7 6 5 7 4 8 1 9 2 10 40 11 3 12
REMARK SMILES IDX 38 13 36 14 41 15 39 17 37 19 35 21 8 23 9 24 10 25 15 26
REMARK SMILES IDX 11 27 14 28 13 29 16 30 26 31 17 32 27 33 25 34 12 35 18 37
REMARK SMILES IDX 19 38 24 39 20 40 23 41 21 42 22 43 33 45 30 47 31 48
REMARK H PARENT 41 16 39 18 37 20 35 22 12 36 22 44 33 46 31 49
REMARK Flexibility Score: inf
ROOT
ATOM      1  C   UNL     1      21.286  12.703  84.017  1.00  0.00     0.221 C 
ATOM      2  C   UNL     1      21.587  11.495  83.111  1.00  0.00     0.181 C 
ATOM      3  C   UNL     1      21.831  10.221  83.944  1.00  0.00     0.177 C 
ATOM      4  C   UNL     1      20.669  10.037  84.947  1.00  0.00     0.179 C 
ATOM      5  O   UNL     1      20.521  11.184  85.772  1.00  0.00    -0.332 OA
ATOM      6  C   UNL     1      20.166  12.332  85.011  1.00  0.00     0.339 C 
ENDROOT
BRANCH   1   7
ATOM      7  O   UNL     1      22.455  13.050  84.749  1.00  0.00    -0.337 OA
BRANCH   7   8
ATOM      8  C   UNL     1      22.181  13.790  85.934  1.00  0.00     0.282 C 
ATOM      9  C   UNL     1      24.419  15.153  84.209  1.00  0.00     0.041 C 
ATOM     10  C   UNL     1      23.876  15.459  85.615  1.00  0.00     0.150 C 
ATOM     11  C   UNL     1      24.733  14.882  86.773  1.00  0.00     0.174 C 
ATOM     12  O   UNL     1      22.483  15.167  85.738  1.00  0.00    -0.344 OA
ATOM     13  C   UNL     1      24.447  13.393  87.025  1.00  0.00     0.179 C 
ATOM     14  C   UNL     1      22.927  13.206  87.153  1.00  0.00     0.202 C 
BRANCH  11  15
ATOM     15  O   UNL     1      26.103  15.084  86.521  1.00  0.00    -0.388 OA
ATOM     16  H   UNL     1      26.359  15.918  87.001  1.00  0.00     0.211 HD
ENDBRANCH  11  15
BRANCH  13  17
ATOM     17  O   UNL     1      25.061  12.607  86.022  1.00  0.00    -0.387 OA
ATOM     18  H   UNL     1      25.987  12.365  86.303  1.00  0.00     0.211 HD
ENDBRANCH  13  17
BRANCH  14  19
ATOM     19  O   UNL     1      22.614  11.849  87.348  1.00  0.00    -0.385 OA
ATOM     20  H   UNL     1      23.181  11.528  88.101  1.00  0.00     0.211 HD
ENDBRANCH  14  19
ENDBRANCH   7   8
ENDBRANCH   1   7
BRANCH   2  21
ATOM     21  O   UNL     1      22.695  11.776  82.299  1.00  0.00    -0.387 OA
ATOM     22  H   UNL     1      22.329  12.165  81.460  1.00  0.00     0.211 HD
ENDBRANCH   2  21
BRANCH   6  23
ATOM     23  O   UNL     1      18.911  12.157  84.344  1.00  0.00    -0.462 OA
BRANCH  23  24
ATOM     24  C   UNL     1      17.659  12.402  84.935  1.00  0.00     0.130 A 
ATOM     25  C   UNL     1      17.240  11.752  86.109  1.00  0.00     0.093 A 
ATOM     26  C   UNL     1      16.804  13.323  84.323  1.00  0.00     0.094 A 
ATOM     27  C   UNL     1      15.988  12.016  86.675  1.00  0.00     0.133 A 
ATOM     28  C   UNL     1      15.562  13.623  84.887  1.00  0.00     0.138 A 
ATOM     29  C   UNL     1      15.145  12.989  86.075  1.00  0.00     0.102 A 
ATOM     30  O   UNL     1      14.745  14.576  84.256  1.00  0.00    -0.484 OA
ATOM     31  C   UNL     1      13.820  13.385  86.611  1.00  0.00     0.174 C 
ATOM     32  C   UNL     1      13.537  15.094  84.830  1.00  0.00     0.211 C 
ATOM     33  O   UNL     1      13.521  13.241  87.830  1.00  0.00    -0.294 OA
ATOM     34  C   UNL     1      12.836  14.021  85.677  1.00  0.00     0.131 C 
BRANCH  27  35
ATOM     35  O   UNL     1      15.630  11.271  87.797  1.00  0.00    -0.507 OA
ATOM     36  H   UNL     1      16.269  10.681  88.326  1.00  0.00     0.293 HD
ENDBRANCH  27  35
BRANCH  32  37
ATOM     37  C   UNL     1      13.791  16.359  85.639  1.00  0.00    -0.007 A 
ATOM     38  C   UNL     1      12.970  16.733  86.719  1.00  0.00     0.011 A 
ATOM     39  C   UNL     1      14.840  17.221  85.253  1.00  0.00     0.011 A 
ATOM     40  C   UNL     1      13.203  17.931  87.404  1.00  0.00     0.046 A 
ATOM     41  C   UNL     1      15.068  18.421  85.937  1.00  0.00     0.046 A 
ATOM     42  C   UNL     1      14.250  18.777  87.021  1.00  0.00     0.115 A 
BRANCH  42  43
ATOM     43  O   UNL     1      14.466  19.966  87.718  1.00  0.00    -0.508 OA
ATOM     44  H   UNL     1      14.983  19.981  88.592  1.00  0.00     0.293 HD
ENDBRANCH  42  43
ENDBRANCH  32  37
ENDBRANCH  23  24
ENDBRANCH   6  23
BRANCH   3  45
ATOM     45  O   UNL     1      23.051  10.305  84.635  1.00  0.00    -0.387 OA
ATOM     46  H   UNL     1      23.754   9.967  84.022  1.00  0.00     0.211 HD
ENDBRANCH   3  45
BRANCH   4  47
ATOM     47  C   UNL     1      20.889   8.811  85.851  1.00  0.00     0.191 C 
BRANCH  47  48
ATOM     48  O   UNL     1      21.403   7.727  85.122  1.00  0.00    -0.394 OA
ATOM     49  H   UNL     1      20.671   7.057  85.061  1.00  0.00     0.210 HD
ENDBRANCH  47  48
ENDBRANCH   4  47
TORSDOF 14
ENDMDL
MODEL 9
REMARK VINA RESULT:    -5.121      2.178      5.563
REMARK INTER + INTRA:          -9.466
REMARK INTER:                  -7.853
REMARK INTRA:                  -1.613
REMARK UNBOUND:                -1.351
REMARK SMILES C[C@H]1O[C@@H](O[C@@H]2[C@@H](Oc3cc(O)c4c(c3)O[C@H](c3ccc(O)cc3)CC4=O)O[C@H](CO)[C@H](O)[C@@H]2O)[C@@H](O)[C@@H](O)[C@H]1O
REMARK SMILES IDX 6 1 34 2 32 3 29 4 28 5 7 6 5 7 4 8 1 9 2 10 40 11 3 12
REMARK SMILES IDX 38 13 36 14 41 15 39 17 37 19 35 21 8 23 9 24 10 25 15 26
REMARK SMILES IDX 11 27 14 28 13 29 16 30 26 31 17 32 27 33 25 34 12 35 18 37
REMARK SMILES IDX 19 38 24 39 20 40 23 41 21 42 22 43 33 45 30 47 31 48
REMARK H PARENT 41 16 39 18 37 20 35 22 12 36 22 44 33 46 31 49
REMARK Flexibility Score: inf
ROOT
ATOM      1  C   UNL     1      22.563  16.799  85.528  1.00  0.00     0.221 C 
ATOM      2  C   UNL     1      21.775  17.846  86.336  1.00  0.00     0.181 C 
ATOM      3  C   UNL     1      22.071  19.275  85.835  1.00  0.00     0.177 C 
ATOM      4  C   UNL     1      21.880  19.325  84.301  1.00  0.00     0.179 C 
ATOM      5  O   UNL     1      22.697  18.362  83.654  1.00  0.00    -0.332 OA
ATOM      6  C   UNL     1      22.333  17.037  84.021  1.00  0.00     0.339 C 
ENDROOT
BRANCH   1   7
ATOM      7  O   UNL     1      23.951  16.929  85.809  1.00  0.00    -0.337 OA
BRANCH   7   8
ATOM      8  C   UNL     1      24.785  16.506  84.735  1.00  0.00     0.282 C 
ATOM      9  C   UNL     1      25.354  14.876  87.355  1.00  0.00     0.041 C 
ATOM     10  C   UNL     1      26.067  14.914  85.994  1.00  0.00     0.150 C 
ATOM     11  C   UNL     1      27.327  15.821  85.954  1.00  0.00     0.174 C 
ATOM     12  O   UNL     1      25.165  15.145  84.910  1.00  0.00    -0.344 OA
ATOM     13  C   UNL     1      26.971  17.304  85.769  1.00  0.00     0.179 C 
ATOM     14  C   UNL     1      26.012  17.429  84.574  1.00  0.00     0.202 C 
BRANCH  11  15
ATOM     15  O   UNL     1      28.101  15.641  87.115  1.00  0.00    -0.388 OA
ATOM     16  H   UNL     1      27.463  15.435  87.851  1.00  0.00     0.211 HD
ENDBRANCH  11  15
BRANCH  13  17
ATOM     17  O   UNL     1      26.480  17.839  86.984  1.00  0.00    -0.387 OA
ATOM     18  H   UNL     1      27.237  17.990  87.615  1.00  0.00     0.211 HD
ENDBRANCH  13  17
BRANCH  14  19
ATOM     19  O   UNL     1      25.629  18.769  84.389  1.00  0.00    -0.385 OA
ATOM     20  H   UNL     1      25.764  18.977  83.424  1.00  0.00     0.211 HD
ENDBRANCH  14  19
ENDBRANCH   7   8
ENDBRANCH   1   7
BRANCH   2  21
ATOM     21  O   UNL     1      22.086  17.725  87.698  1.00  0.00    -0.387 OA
ATOM     22  H   UNL     1      22.152  18.653  88.049  1.00  0.00     0.211 HD
ENDBRANCH   2  21
BRANCH   6  23
ATOM     23  O   UNL     1      20.985  16.734  83.643  1.00  0.00    -0.462 OA
BRANCH  23  24
ATOM     24  C   UNL     1      20.299  15.568  84.023  1.00  0.00     0.130 A 
ATOM     25  C   UNL     1      19.171  15.097  83.328  1.00  0.00     0.093 A 
ATOM     26  C   UNL     1      20.757  14.861  85.137  1.00  0.00     0.094 A 
ATOM     27  C   UNL     1      18.507  13.933  83.731  1.00  0.00     0.133 A 
ATOM     28  C   UNL     1      20.128  13.680  85.539  1.00  0.00     0.138 A 
ATOM     29  C   UNL     1      19.008  13.192  84.834  1.00  0.00     0.102 A 
ATOM     30  O   UNL     1      20.639  12.983  86.647  1.00  0.00    -0.484 OA
ATOM     31  C   UNL     1      18.418  11.922  85.320  1.00  0.00     0.174 C 
ATOM     32  C   UNL     1      20.191  11.679  87.042  1.00  0.00     0.211 C 
ATOM     33  O   UNL     1      17.729  11.174  84.570  1.00  0.00    -0.294 OA
ATOM     34  C   UNL     1      18.698  11.500  86.730  1.00  0.00     0.131 C 
BRANCH  27  35
ATOM     35  O   UNL     1      17.356  13.584  83.026  1.00  0.00    -0.507 OA
ATOM     36  H   UNL     1      17.086  12.630  82.797  1.00  0.00     0.293 HD
ENDBRANCH  27  35
BRANCH  32  37
ATOM     37  C   UNL     1      21.026  10.576  86.405  1.00  0.00    -0.007 A 
ATOM     38  C   UNL     1      22.277  10.833  85.812  1.00  0.00     0.011 A 
ATOM     39  C   UNL     1      20.502   9.267  86.345  1.00  0.00     0.011 A 
ATOM     40  C   UNL     1      22.991   9.802  85.189  1.00  0.00     0.046 A 
ATOM     41  C   UNL     1      21.217   8.239  85.717  1.00  0.00     0.046 A 
ATOM     42  C   UNL     1      22.468   8.505  85.140  1.00  0.00     0.115 A 
BRANCH  42  43
ATOM     43  O   UNL     1      23.196   7.492  84.516  1.00  0.00    -0.508 OA
ATOM     44  H   UNL     1      23.360   6.599  84.973  1.00  0.00     0.293 HD
ENDBRANCH  42  43
ENDBRANCH  32  37
ENDBRANCH  23  24
ENDBRANCH   6  23
BRANCH   3  45
ATOM     45  O   UNL     1      23.380  19.657  86.168  1.00  0.00    -0.387 OA
ATOM     46  H   UNL     1      23.882  18.824  86.367  1.00  0.00     0.211 HD
ENDBRANCH   3  45
BRANCH   4  47
ATOM     47  C   UNL     1      22.221  20.715  83.735  1.00  0.00     0.191 C 
BRANCH  47  48
ATOM     48  O   UNL     1      23.604  20.869  83.558  1.00  0.00    -0.394 OA
ATOM     49  H   UNL     1      24.031  20.073  83.972  1.00  0.00     0.210 HD
ENDBRANCH  47  48
ENDBRANCH   4  47
TORSDOF 14
ENDMDL
