MODEL 1
REMARK VINA RESULT:    -3.423      0.000      0.000
REMARK INTER + INTRA:          -4.075
REMARK INTER:                  -4.023
REMARK INTRA:                  -0.051
REMARK UNBOUND:                -0.051
REMARK SMILES CCCCC(=O)[O-]
REMARK SMILES IDX 4 1 5 2 6 3 7 4 3 5 2 6 1 7
REMARK H PARENT
REMARK Flexibility Score: inf
ROOT
ATOM      1  C   UNL     1       1.807  24.388  24.535  1.00  0.00     0.053 C 
ENDROOT
BRANCH   1   2
ATOM      2  C   UNL     1       0.699  24.857  25.426  1.00  0.00     0.041 C 
ATOM      3  O   UNL     1       0.077  24.035  26.150  1.00  0.00    -0.550 OA
ATOM      4  O   UNL     1       0.330  26.197  25.432  1.00  0.00    -0.550 OA
ENDBRANCH   1   2
BRANCH   1   5
ATOM      5  C   UNL     1       1.476  23.044  23.871  1.00  0.00     0.006 C 
BRANCH   5   6
ATOM      6  C   UNL     1       1.853  23.023  22.383  1.00  0.00    -0.003 C 
ATOM      7  C   UNL     1       2.235  24.417  21.893  1.00  0.00     0.004 C 
ENDBRANCH   5   6
ENDBRANCH   1   5
TORSDOF 3
ENDMDL
MODEL 2
REMARK VINA RESULT:    -3.385      1.193      1.304
REMARK INTER + INTRA:          -4.030
REMARK INTER:                  -3.938
REMARK INTRA:                  -0.092
REMARK UNBOUND:                -0.051
REMARK SMILES CCCCC(=O)[O-]
REMARK SMILES IDX 4 1 5 2 6 3 7 4 3 5 2 6 1 7
REMARK H PARENT
REMARK Flexibility Score: inf
ROOT
ATOM      1  C   UNL     1       2.027  22.873  24.298  1.00  0.00     0.053 C 
ENDROOT
BRANCH   1   2
ATOM      2  C   UNL     1       0.976  23.349  25.252  1.00  0.00     0.041 C 
ATOM      3  O   UNL     1       0.388  22.530  26.008  1.00  0.00    -0.550 OA
ATOM      4  O   UNL     1       0.619  24.692  25.284  1.00  0.00    -0.550 OA
ENDBRANCH   1   2
BRANCH   1   5
ATOM      5  C   UNL     1       1.488  22.761  22.866  1.00  0.00     0.006 C 
BRANCH   5   6
ATOM      6  C   UNL     1       2.327  23.569  21.865  1.00  0.00    -0.003 C 
ATOM      7  C   UNL     1       2.261  25.062  22.171  1.00  0.00     0.004 C 
ENDBRANCH   5   6
ENDBRANCH   1   5
TORSDOF 3
ENDMDL
MODEL 3
REMARK VINA RESULT:    -3.169      2.597      3.819
REMARK INTER + INTRA:          -3.776
REMARK INTER:                  -3.752
REMARK INTRA:                  -0.024
REMARK UNBOUND:                -0.051
REMARK SMILES CCCCC(=O)[O-]
REMARK SMILES IDX 4 1 5 2 6 3 7 4 3 5 2 6 1 7
REMARK H PARENT
REMARK Flexibility Score: inf
ROOT
ATOM      1  C   UNL     1       1.646  23.819  23.537  1.00  0.00     0.053 C 
ENDROOT
BRANCH   1   2
ATOM      2  C   UNL     1       2.249  24.372  22.283  1.00  0.00     0.041 C 
ATOM      3  O   UNL     1       2.851  23.610  21.480  1.00  0.00    -0.550 OA
ATOM      4  O   UNL     1       2.177  25.734  22.016  1.00  0.00    -0.550 OA
ENDBRANCH   1   2
BRANCH   1   5
ATOM      5  C   UNL     1       1.852  24.760  24.731  1.00  0.00     0.006 C 
BRANCH   5   6
ATOM      6  C   UNL     1       0.744  24.614  25.784  1.00  0.00    -0.003 C 
ATOM      7  C   UNL     1       0.005  25.933  25.991  1.00  0.00     0.004 C 
ENDBRANCH   5   6
ENDBRANCH   1   5
TORSDOF 3
ENDMDL
MODEL 4
REMARK VINA RESULT:    -3.115     17.450     17.983
REMARK INTER + INTRA:          -3.712
REMARK INTER:                  -3.627
REMARK INTRA:                  -0.085
REMARK UNBOUND:                -0.051
REMARK SMILES CCCCC(=O)[O-]
REMARK SMILES IDX 4 1 5 2 6 3 7 4 3 5 2 6 1 7
REMARK H PARENT
REMARK Flexibility Score: inf
ROOT
ATOM      1  C   UNL     1     -10.916  23.581  12.133  1.00  0.00     0.053 C 
ENDROOT
BRANCH   1   2
ATOM      2  C   UNL     1     -11.729  24.008  10.951  1.00  0.00     0.041 C 
ATOM      3  O   UNL     1     -12.901  24.442  11.110  1.00  0.00    -0.550 OA
ATOM      4  O   UNL     1     -11.207  23.896   9.667  1.00  0.00    -0.550 OA
ENDBRANCH   1   2
BRANCH   1   5
ATOM      5  C   UNL     1     -11.576  22.420  12.889  1.00  0.00     0.006 C 
BRANCH   5   6
ATOM      6  C   UNL     1     -12.302  22.891  14.157  1.00  0.00    -0.003 C 
ATOM      7  C   UNL     1     -11.584  24.078  14.793  1.00  0.00     0.004 C 
ENDBRANCH   5   6
ENDBRANCH   1   5
TORSDOF 3
ENDMDL
MODEL 5
REMARK VINA RESULT:    -3.052      2.093      2.482
REMARK INTER + INTRA:          -3.638
REMARK INTER:                  -3.651
REMARK INTRA:                   0.012
REMARK UNBOUND:                -0.051
REMARK SMILES CCCCC(=O)[O-]
REMARK SMILES IDX 4 1 5 2 6 3 7 4 3 5 2 6 1 7
REMARK H PARENT
REMARK Flexibility Score: inf
ROOT
ATOM      1  C   UNL     1       1.846  24.451  24.238  1.00  0.00     0.053 C 
ENDROOT
BRANCH   1   2
ATOM      2  C   UNL     1       2.979  24.033  25.123  1.00  0.00     0.041 C 
ATOM      3  O   UNL     1       2.760  23.321  26.139  1.00  0.00    -0.550 OA
ATOM      4  O   UNL     1       4.273  24.458  24.847  1.00  0.00    -0.550 OA
ENDBRANCH   1   2
BRANCH   1   5
ATOM      5  C   UNL     1       2.333  24.844  22.836  1.00  0.00     0.006 C 
BRANCH   5   6
ATOM      6  C   UNL     1       2.390  23.641  21.883  1.00  0.00    -0.003 C 
ATOM      7  C   UNL     1       1.539  22.486  22.405  1.00  0.00     0.004 C 
ENDBRANCH   5   6
ENDBRANCH   1   5
TORSDOF 3
ENDMDL
MODEL 6
REMARK VINA RESULT:    -3.016      2.491      3.550
REMARK INTER + INTRA:          -3.596
REMARK INTER:                  -3.532
REMARK INTRA:                  -0.064
REMARK UNBOUND:                -0.051
REMARK SMILES CCCCC(=O)[O-]
REMARK SMILES IDX 4 1 5 2 6 3 7 4 3 5 2 6 1 7
REMARK H PARENT
REMARK Flexibility Score: inf
ROOT
ATOM      1  C   UNL     1       1.818  23.151  22.653  1.00  0.00     0.053 C 
ENDROOT
BRANCH   1   2
ATOM      2  C   UNL     1       2.713  24.343  22.517  1.00  0.00     0.041 C 
ATOM      3  O   UNL     1       3.895  24.302  22.953  1.00  0.00    -0.550 OA
ATOM      4  O   UNL     1       2.234  25.512  21.938  1.00  0.00    -0.550 OA
ENDBRANCH   1   2
BRANCH   1   5
ATOM      5  C   UNL     1       1.491  22.848  24.122  1.00  0.00     0.006 C 
BRANCH   5   6
ATOM      6  C   UNL     1       1.075  24.108  24.896  1.00  0.00    -0.003 C 
ATOM      7  C   UNL     1       1.413  23.979  26.378  1.00  0.00     0.004 C 
ENDBRANCH   5   6
ENDBRANCH   1   5
TORSDOF 3
ENDMDL
MODEL 7
REMARK VINA RESULT:    -3.013      2.954      3.825
REMARK INTER + INTRA:          -3.593
REMARK INTER:                  -3.517
REMARK INTRA:                  -0.076
REMARK UNBOUND:                -0.051
REMARK SMILES CCCCC(=O)[O-]
REMARK SMILES IDX 4 1 5 2 6 3 7 4 3 5 2 6 1 7
REMARK H PARENT
REMARK Flexibility Score: inf
ROOT
ATOM      1  C   UNL     1       1.988  24.919  23.530  1.00  0.00     0.053 C 
ENDROOT
BRANCH   1   2
ATOM      2  C   UNL     1       3.068  24.199  22.785  1.00  0.00     0.041 C 
ATOM      3  O   UNL     1       2.834  23.706  21.649  1.00  0.00    -0.550 OA
ATOM      4  O   UNL     1       4.325  24.042  23.357  1.00  0.00    -0.550 OA
ENDBRANCH   1   2
BRANCH   1   5
ATOM      5  C   UNL     1       1.806  24.362  24.949  1.00  0.00     0.006 C 
BRANCH   5   6
ATOM      6  C   UNL     1       1.120  22.989  24.949  1.00  0.00    -0.003 C 
ATOM      7  C   UNL     1       0.281  22.794  26.209  1.00  0.00     0.004 C 
ENDBRANCH   5   6
ENDBRANCH   1   5
TORSDOF 3
ENDMDL
MODEL 8
REMARK VINA RESULT:    -3.012     16.911     17.384
REMARK INTER + INTRA:          -3.591
REMARK INTER:                  -3.515
REMARK INTRA:                  -0.076
REMARK UNBOUND:                -0.051
REMARK SMILES CCCCC(=O)[O-]
REMARK SMILES IDX 4 1 5 2 6 3 7 4 3 5 2 6 1 7
REMARK H PARENT
REMARK Flexibility Score: inf
ROOT
ATOM      1  C   UNL     1     -11.638  22.520  12.833  1.00  0.00     0.053 C 
ENDROOT
BRANCH   1   2
ATOM      2  C   UNL     1     -12.136  22.928  14.184  1.00  0.00     0.041 C 
ATOM      3  O   UNL     1     -11.758  24.014  14.698  1.00  0.00    -0.550 OA
ATOM      4  O   UNL     1     -12.992  22.093  14.893  1.00  0.00    -0.550 OA
ENDBRANCH   1   2
BRANCH   1   5
ATOM      5  C   UNL     1     -10.636  23.534  12.264  1.00  0.00     0.006 C 
BRANCH   5   6
ATOM      6  C   UNL     1     -10.970  23.933  10.820  1.00  0.00    -0.003 C 
ATOM      7  C   UNL     1     -12.461  24.216  10.659  1.00  0.00     0.004 C 
ENDBRANCH   5   6
ENDBRANCH   1   5
TORSDOF 3
ENDMDL
MODEL 9
REMARK VINA RESULT:    -2.123     16.966     17.542
REMARK INTER + INTRA:          -2.546
REMARK INTER:                  -2.529
REMARK INTRA:                  -0.017
REMARK UNBOUND:                -0.051
REMARK SMILES CCCCC(=O)[O-]
REMARK SMILES IDX 4 1 5 2 6 3 7 4 3 5 2 6 1 7
REMARK H PARENT
REMARK Flexibility Score: inf
ROOT
ATOM      1  C   UNL     1     -11.198  22.862  12.427  1.00  0.00     0.053 C 
ENDROOT
BRANCH   1   2
ATOM      2  C   UNL     1     -10.512  23.758  11.443  1.00  0.00     0.041 C 
ATOM      3  O   UNL     1     -11.043  23.997  10.326  1.00  0.00    -0.550 OA
ATOM      4  O   UNL     1      -9.269  24.303  11.744  1.00  0.00    -0.550 OA
ENDBRANCH   1   2
BRANCH   1   5
ATOM      5  C   UNL     1     -12.249  23.619  13.250  1.00  0.00     0.006 C 
BRANCH   5   6
ATOM      6  C   UNL     1     -12.351  23.093  14.689  1.00  0.00    -0.003 C 
ATOM      7  C   UNL     1     -13.125  21.779  14.740  1.00  0.00     0.004 C 
ENDBRANCH   5   6
ENDBRANCH   1   5
TORSDOF 3
ENDMDL
