MODEL 1
REMARK VINA RESULT:    -4.777      0.000      0.000
REMARK INTER + INTRA:          -9.781
REMARK INTER:                  -8.966
REMARK INTRA:                  -0.815
REMARK UNBOUND:                -0.815
REMARK SMILES O=C([O-])CCCCCCCCCCCCCCC(=O)[O-]
REMARK SMILES IDX 10 1 9 2 8 3 7 4 6 5 5 6 4 7 2 8 1 9 3 10 11 11 12 12 13 13
REMARK SMILES IDX 14 14 15 15 16 16 17 17 18 18 19 19 20 20
REMARK H PARENT
REMARK Flexibility Score: inf
ROOT
ATOM      1  C   UNL     1       1.583   0.174   6.584  1.00  0.00     0.000 C 
ENDROOT
BRANCH   1   2
ATOM      2  C   UNL     1       2.244   1.273   7.441  1.00  0.00     0.000 C 
BRANCH   2   3
ATOM      3  C   UNL     1       1.582   2.662   7.351  1.00  0.00     0.000 C 
BRANCH   3   4
ATOM      4  C   UNL     1       0.666   3.028   8.532  1.00  0.00     0.000 C 
BRANCH   4   5
ATOM      5  C   UNL     1      -0.043   4.381   8.340  1.00  0.00     0.000 C 
BRANCH   5   6
ATOM      6  C   UNL     1       0.304   5.043   6.998  1.00  0.00     0.006 C 
BRANCH   6   7
ATOM      7  C   UNL     1      -0.834   5.920   6.457  1.00  0.00     0.053 C 
BRANCH   7   8
ATOM      8  C   UNL     1      -0.641   6.180   4.996  1.00  0.00     0.041 C 
ATOM      9  O   UNL     1      -1.077   7.241   4.479  1.00  0.00    -0.550 OA
ATOM     10  O   UNL     1      -0.022   5.227   4.196  1.00  0.00    -0.550 OA
ENDBRANCH   7   8
ENDBRANCH   6   7
ENDBRANCH   5   6
ENDBRANCH   4   5
ENDBRANCH   3   4
ENDBRANCH   2   3
ENDBRANCH   1   2
BRANCH   1  11
ATOM     11  C   UNL     1       2.545  -0.910   6.064  1.00  0.00     0.000 C 
BRANCH  11  12
ATOM     12  C   UNL     1       1.819  -2.065   5.360  1.00  0.00     0.000 C 
BRANCH  12  13
ATOM     13  C   UNL     1       0.320  -1.762   5.215  1.00  0.00     0.000 C 
BRANCH  13  14
ATOM     14  C   UNL     1      -0.565  -2.821   5.890  1.00  0.00     0.000 C 
BRANCH  14  15
ATOM     15  C   UNL     1      -2.009  -2.811   5.357  1.00  0.00     0.000 C 
BRANCH  15  16
ATOM     16  C   UNL     1      -2.271  -1.652   4.383  1.00  0.00     0.006 C 
BRANCH  16  17
ATOM     17  C   UNL     1      -3.551  -1.853   3.561  1.00  0.00     0.053 C 
BRANCH  17  18
ATOM     18  C   UNL     1      -4.754  -1.493   4.374  1.00  0.00     0.041 C 
ATOM     19  O   UNL     1      -5.866  -2.032   4.134  1.00  0.00    -0.550 OA
ATOM     20  O   UNL     1      -4.659  -0.523   5.366  1.00  0.00    -0.550 OA
ENDBRANCH  17  18
ENDBRANCH  16  17
ENDBRANCH  15  16
ENDBRANCH  14  15
ENDBRANCH  13  14
ENDBRANCH  12  13
ENDBRANCH  11  12
ENDBRANCH   1  11
TORSDOF 15
ENDMDL
MODEL 2
REMARK VINA RESULT:    -4.594      5.196      6.775
REMARK INTER + INTRA:          -9.437
REMARK INTER:                  -7.368
REMARK INTRA:                  -2.070
REMARK UNBOUND:                -0.815
REMARK SMILES O=C([O-])CCCCCCCCCCCCCCC(=O)[O-]
REMARK SMILES IDX 10 1 9 2 8 3 7 4 6 5 5 6 4 7 2 8 1 9 3 10 11 11 12 12 13 13
REMARK SMILES IDX 14 14 15 15 16 16 17 17 18 18 19 19 20 20
REMARK H PARENT
REMARK Flexibility Score: inf
ROOT
ATOM      1  C   UNL     1      -4.501  -2.230   7.599  1.00  0.00     0.000 C 
ENDROOT
BRANCH   1   2
ATOM      2  C   UNL     1      -2.997  -2.568   7.627  1.00  0.00     0.000 C 
BRANCH   2   3
ATOM      3  C   UNL     1      -2.583  -3.791   6.786  1.00  0.00     0.000 C 
BRANCH   3   4
ATOM      4  C   UNL     1      -1.114  -3.804   6.329  1.00  0.00     0.000 C 
BRANCH   4   5
ATOM      5  C   UNL     1      -0.410  -2.453   6.547  1.00  0.00     0.000 C 
BRANCH   5   6
ATOM      6  C   UNL     1       0.294  -1.944   5.279  1.00  0.00     0.006 C 
BRANCH   6   7
ATOM      7  C   UNL     1       1.668  -1.325   5.572  1.00  0.00     0.053 C 
BRANCH   7   8
ATOM      8  C   UNL     1       2.753  -2.326   5.327  1.00  0.00     0.041 C 
ATOM      9  O   UNL     1       3.459  -2.254   4.288  1.00  0.00    -0.550 OA
ATOM     10  O   UNL     1       2.953  -3.368   6.225  1.00  0.00    -0.550 OA
ENDBRANCH   7   8
ENDBRANCH   6   7
ENDBRANCH   5   6
ENDBRANCH   4   5
ENDBRANCH   3   4
ENDBRANCH   2   3
ENDBRANCH   1   2
BRANCH   1  11
ATOM     11  C   UNL     1      -5.132  -2.193   6.196  1.00  0.00     0.000 C 
BRANCH  11  12
ATOM     12  C   UNL     1      -4.810  -0.901   5.430  1.00  0.00     0.000 C 
BRANCH  12  13
ATOM     13  C   UNL     1      -4.369  -1.213   3.992  1.00  0.00     0.000 C 
BRANCH  13  14
ATOM     14  C   UNL     1      -2.870  -1.533   3.889  1.00  0.00     0.000 C 
BRANCH  14  15
ATOM     15  C   UNL     1      -2.597  -2.841   3.125  1.00  0.00     0.000 C 
BRANCH  15  16
ATOM     16  C   UNL     1      -3.738  -3.860   3.270  1.00  0.00     0.006 C 
BRANCH  16  17
ATOM     17  C   UNL     1      -4.139  -4.489   1.930  1.00  0.00     0.053 C 
BRANCH  17  18
ATOM     18  C   UNL     1      -3.003  -5.281   1.364  1.00  0.00     0.041 C 
ATOM     19  O   UNL     1      -2.610  -6.327   1.944  1.00  0.00    -0.550 OA
ATOM     20  O   UNL     1      -2.346  -4.837   0.223  1.00  0.00    -0.550 OA
ENDBRANCH  17  18
ENDBRANCH  16  17
ENDBRANCH  15  16
ENDBRANCH  14  15
ENDBRANCH  13  14
ENDBRANCH  12  13
ENDBRANCH  11  12
ENDBRANCH   1  11
TORSDOF 15
ENDMDL
MODEL 3
REMARK VINA RESULT:    -4.591      5.576      9.750
REMARK INTER + INTRA:          -9.431
REMARK INTER:                  -8.422
REMARK INTRA:                  -1.010
REMARK UNBOUND:                -0.815
REMARK SMILES O=C([O-])CCCCCCCCCCCCCCC(=O)[O-]
REMARK SMILES IDX 10 1 9 2 8 3 7 4 6 5 5 6 4 7 2 8 1 9 3 10 11 11 12 12 13 13
REMARK SMILES IDX 14 14 15 15 16 16 17 17 18 18 19 19 20 20
REMARK H PARENT
REMARK Flexibility Score: inf
ROOT
ATOM      1  C   UNL     1      -3.529  -4.304   2.733  1.00  0.00     0.000 C 
ENDROOT
BRANCH   1   2
ATOM      2  C   UNL     1      -3.108  -5.782   2.608  1.00  0.00     0.000 C 
BRANCH   2   3
ATOM      3  C   UNL     1      -2.976  -6.307   1.165  1.00  0.00     0.000 C 
BRANCH   3   4
ATOM      4  C   UNL     1      -3.305  -5.284   0.064  1.00  0.00     0.000 C 
BRANCH   4   5
ATOM      5  C   UNL     1      -2.324  -5.345  -1.120  1.00  0.00     0.000 C 
BRANCH   5   6
ATOM      6  C   UNL     1      -1.272  -4.226  -1.073  1.00  0.00     0.006 C 
BRANCH   6   7
ATOM      7  C   UNL     1      -0.764  -3.831  -2.466  1.00  0.00     0.053 C 
BRANCH   7   8
ATOM      8  C   UNL     1       0.363  -4.724  -2.882  1.00  0.00     0.041 C 
ATOM      9  O   UNL     1       0.454  -5.115  -4.075  1.00  0.00    -0.550 OA
ATOM     10  O   UNL     1       1.286  -5.163  -1.941  1.00  0.00    -0.550 OA
ENDBRANCH   7   8
ENDBRANCH   6   7
ENDBRANCH   5   6
ENDBRANCH   4   5
ENDBRANCH   3   4
ENDBRANCH   2   3
ENDBRANCH   1   2
BRANCH   1  11
ATOM     11  C   UNL     1      -2.371  -3.316   2.963  1.00  0.00     0.000 C 
BRANCH  11  12
ATOM     12  C   UNL     1      -2.811  -2.040   3.696  1.00  0.00     0.000 C 
BRANCH  12  13
ATOM     13  C   UNL     1      -1.758  -1.609   4.727  1.00  0.00     0.000 C 
BRANCH  13  14
ATOM     14  C   UNL     1      -1.343  -2.755   5.662  1.00  0.00     0.000 C 
BRANCH  14  15
ATOM     15  C   UNL     1       0.119  -2.637   6.129  1.00  0.00     0.000 C 
BRANCH  15  16
ATOM     16  C   UNL     1       0.968  -1.760   5.195  1.00  0.00     0.006 C 
BRANCH  16  17
ATOM     17  C   UNL     1       2.187  -1.155   5.904  1.00  0.00     0.053 C 
BRANCH  17  18
ATOM     18  C   UNL     1       3.447  -1.790   5.406  1.00  0.00     0.041 C 
ATOM     19  O   UNL     1       3.458  -2.398   4.304  1.00  0.00    -0.550 OA
ATOM     20  O   UNL     1       4.599  -1.751   6.184  1.00  0.00    -0.550 OA
ENDBRANCH  17  18
ENDBRANCH  16  17
ENDBRANCH  15  16
ENDBRANCH  14  15
ENDBRANCH  13  14
ENDBRANCH  12  13
ENDBRANCH  11  12
ENDBRANCH   1  11
TORSDOF 15
ENDMDL
MODEL 4
REMARK VINA RESULT:    -4.490      1.064      1.980
REMARK INTER + INTRA:          -9.241
REMARK INTER:                  -8.140
REMARK INTRA:                  -1.101
REMARK UNBOUND:                -0.815
REMARK SMILES O=C([O-])CCCCCCCCCCCCCCC(=O)[O-]
REMARK SMILES IDX 10 1 9 2 8 3 7 4 6 5 5 6 4 7 2 8 1 9 3 10 11 11 12 12 13 13
REMARK SMILES IDX 14 14 15 15 16 16 17 17 18 18 19 19 20 20
REMARK H PARENT
REMARK Flexibility Score: inf
ROOT
ATOM      1  C   UNL     1       1.568   2.137   6.830  1.00  0.00     0.000 C 
ENDROOT
BRANCH   1   2
ATOM      2  C   UNL     1       1.006   3.517   7.227  1.00  0.00     0.000 C 
BRANCH   2   3
ATOM      3  C   UNL     1       0.224   3.551   8.555  1.00  0.00     0.000 C 
BRANCH   3   4
ATOM      4  C   UNL     1      -0.440   4.898   8.889  1.00  0.00     0.000 C 
BRANCH   4   5
ATOM      5  C   UNL     1       0.017   6.035   7.959  1.00  0.00     0.000 C 
BRANCH   5   6
ATOM      6  C   UNL     1      -1.162   6.776   7.310  1.00  0.00     0.006 C 
BRANCH   6   7
ATOM      7  C   UNL     1      -1.666   6.087   6.035  1.00  0.00     0.053 C 
BRANCH   7   8
ATOM      8  C   UNL     1      -0.735   6.355   4.894  1.00  0.00     0.041 C 
ATOM      9  O   UNL     1      -0.610   7.522   4.440  1.00  0.00    -0.550 OA
ATOM     10  O   UNL     1      -0.043   5.307   4.301  1.00  0.00    -0.550 OA
ENDBRANCH   7   8
ENDBRANCH   6   7
ENDBRANCH   5   6
ENDBRANCH   4   5
ENDBRANCH   3   4
ENDBRANCH   2   3
ENDBRANCH   1   2
BRANCH   1  11
ATOM     11  C   UNL     1       1.566   1.087   7.956  1.00  0.00     0.000 C 
BRANCH  11  12
ATOM     12  C   UNL     1       1.350  -0.342   7.439  1.00  0.00     0.000 C 
BRANCH  12  13
ATOM     13  C   UNL     1       1.599  -0.420   5.925  1.00  0.00     0.000 C 
BRANCH  13  14
ATOM     14  C   UNL     1       1.556  -1.861   5.392  1.00  0.00     0.000 C 
BRANCH  14  15
ATOM     15  C   UNL     1       0.219  -2.562   5.693  1.00  0.00     0.000 C 
BRANCH  15  16
ATOM     16  C   UNL     1      -0.979  -1.853   5.042  1.00  0.00     0.006 C 
BRANCH  16  17
ATOM     17  C   UNL     1      -2.324  -2.418   5.516  1.00  0.00     0.053 C 
BRANCH  17  18
ATOM     18  C   UNL     1      -3.446  -1.834   4.717  1.00  0.00     0.041 C 
ATOM     19  O   UNL     1      -4.623  -1.864   5.161  1.00  0.00    -0.550 OA
ATOM     20  O   UNL     1      -3.198  -1.300   3.457  1.00  0.00    -0.550 OA
ENDBRANCH  17  18
ENDBRANCH  16  17
ENDBRANCH  15  16
ENDBRANCH  14  15
ENDBRANCH  13  14
ENDBRANCH  12  13
ENDBRANCH  11  12
ENDBRANCH   1  11
TORSDOF 15
ENDMDL
MODEL 5
REMARK VINA RESULT:    -4.434      0.938      7.445
REMARK INTER + INTRA:          -9.136
REMARK INTER:                  -8.317
REMARK INTRA:                  -0.819
REMARK UNBOUND:                -0.815
REMARK SMILES O=C([O-])CCCCCCCCCCCCCCC(=O)[O-]
REMARK SMILES IDX 10 1 9 2 8 3 7 4 6 5 5 6 4 7 2 8 1 9 3 10 11 11 12 12 13 13
REMARK SMILES IDX 14 14 15 15 16 16 17 17 18 18 19 19 20 20
REMARK H PARENT
REMARK Flexibility Score: inf
ROOT
ATOM      1  C   UNL     1       2.000  -1.596   5.885  1.00  0.00     0.000 C 
ENDROOT
BRANCH   1   2
ATOM      2  C   UNL     1       0.549  -1.514   5.369  1.00  0.00     0.000 C 
BRANCH   2   3
ATOM      3  C   UNL     1      -0.454  -2.445   6.079  1.00  0.00     0.000 C 
BRANCH   3   4
ATOM      4  C   UNL     1      -1.603  -2.962   5.195  1.00  0.00     0.000 C 
BRANCH   4   5
ATOM      5  C   UNL     1      -1.959  -1.995   4.053  1.00  0.00     0.000 C 
BRANCH   5   6
ATOM      6  C   UNL     1      -3.351  -1.369   4.222  1.00  0.00     0.006 C 
BRANCH   6   7
ATOM      7  C   UNL     1      -4.482  -2.308   3.780  1.00  0.00     0.053 C 
BRANCH   7   8
ATOM      8  C   UNL     1      -5.399  -2.595   4.928  1.00  0.00     0.041 C 
ATOM      9  O   UNL     1      -6.444  -1.912   5.089  1.00  0.00    -0.550 OA
ATOM     10  O   UNL     1      -5.074  -3.585   5.846  1.00  0.00    -0.550 OA
ENDBRANCH   7   8
ENDBRANCH   6   7
ENDBRANCH   5   6
ENDBRANCH   4   5
ENDBRANCH   3   4
ENDBRANCH   2   3
ENDBRANCH   1   2
BRANCH   1  11
ATOM     11  C   UNL     1       2.448  -0.408   6.755  1.00  0.00     0.000 C 
BRANCH  11  12
ATOM     12  C   UNL     1       1.443   0.753   6.743  1.00  0.00     0.000 C 
BRANCH  12  13
ATOM     13  C   UNL     1       2.079   2.034   7.304  1.00  0.00     0.000 C 
BRANCH  13  14
ATOM     14  C   UNL     1       1.292   2.614   8.489  1.00  0.00     0.000 C 
BRANCH  14  15
ATOM     15  C   UNL     1       0.271   3.681   8.055  1.00  0.00     0.000 C 
BRANCH  15  16
ATOM     16  C   UNL     1       0.671   4.383   6.747  1.00  0.00     0.006 C 
BRANCH  16  17
ATOM     17  C   UNL     1      -0.058   5.718   6.550  1.00  0.00     0.053 C 
BRANCH  17  18
ATOM     18  C   UNL     1      -0.588   5.822   5.155  1.00  0.00     0.041 C 
ATOM     19  O   UNL     1      -0.049   5.173   4.222  1.00  0.00    -0.550 OA
ATOM     20  O   UNL     1      -1.649   6.676   4.877  1.00  0.00    -0.550 OA
ENDBRANCH  17  18
ENDBRANCH  16  17
ENDBRANCH  15  16
ENDBRANCH  14  15
ENDBRANCH  13  14
ENDBRANCH  12  13
ENDBRANCH  11  12
ENDBRANCH   1  11
TORSDOF 15
ENDMDL
MODEL 6
REMARK VINA RESULT:    -4.410      5.457      7.899
REMARK INTER + INTRA:          -9.092
REMARK INTER:                  -8.332
REMARK INTRA:                  -0.759
REMARK UNBOUND:                -0.815
REMARK SMILES O=C([O-])CCCCCCCCCCCCCCC(=O)[O-]
REMARK SMILES IDX 10 1 9 2 8 3 7 4 6 5 5 6 4 7 2 8 1 9 3 10 11 11 12 12 13 13
REMARK SMILES IDX 14 14 15 15 16 16 17 17 18 18 19 19 20 20
REMARK H PARENT
REMARK Flexibility Score: inf
ROOT
ATOM      1  C   UNL     1      -3.182  -2.820   3.391  1.00  0.00     0.000 C 
ENDROOT
BRANCH   1   2
ATOM      2  C   UNL     1      -2.220  -2.000   4.275  1.00  0.00     0.000 C 
BRANCH   2   3
ATOM      3  C   UNL     1      -1.992  -2.562   5.692  1.00  0.00     0.000 C 
BRANCH   3   4
ATOM      4  C   UNL     1      -0.553  -2.431   6.223  1.00  0.00     0.000 C 
BRANCH   4   5
ATOM      5  C   UNL     1       0.425  -1.885   5.168  1.00  0.00     0.000 C 
BRANCH   5   6
ATOM      6  C   UNL     1       1.246  -0.695   5.686  1.00  0.00     0.006 C 
BRANCH   6   7
ATOM      7  C   UNL     1       2.623  -1.113   6.222  1.00  0.00     0.053 C 
BRANCH   7   8
ATOM      8  C   UNL     1       3.105  -2.342   5.517  1.00  0.00     0.041 C 
ATOM      9  O   UNL     1       3.044  -3.463   6.086  1.00  0.00    -0.550 OA
ATOM     10  O   UNL     1       3.667  -2.241   4.250  1.00  0.00    -0.550 OA
ENDBRANCH   7   8
ENDBRANCH   6   7
ENDBRANCH   5   6
ENDBRANCH   4   5
ENDBRANCH   3   4
ENDBRANCH   2   3
ENDBRANCH   1   2
BRANCH   1  11
ATOM     11  C   UNL     1      -2.715  -4.253   3.079  1.00  0.00     0.000 C 
BRANCH  11  12
ATOM     12  C   UNL     1      -2.658  -4.548   1.573  1.00  0.00     0.000 C 
BRANCH  12  13
ATOM     13  C   UNL     1      -4.000  -5.104   1.074  1.00  0.00     0.000 C 
BRANCH  13  14
ATOM     14  C   UNL     1      -4.085  -5.156  -0.460  1.00  0.00     0.000 C 
BRANCH  14  15
ATOM     15  C   UNL     1      -2.833  -5.781  -1.100  1.00  0.00     0.000 C 
BRANCH  15  16
ATOM     16  C   UNL     1      -2.163  -4.848  -2.121  1.00  0.00     0.006 C 
BRANCH  16  17
ATOM     17  C   UNL     1      -0.808  -4.319  -1.634  1.00  0.00     0.053 C 
BRANCH  17  18
ATOM     18  C   UNL     1       0.304  -4.911  -2.441  1.00  0.00     0.041 C 
ATOM     19  O   UNL     1       1.422  -5.138  -1.909  1.00  0.00    -0.550 OA
ATOM     20  O   UNL     1       0.121  -5.167  -3.795  1.00  0.00    -0.550 OA
ENDBRANCH  17  18
ENDBRANCH  16  17
ENDBRANCH  15  16
ENDBRANCH  14  15
ENDBRANCH  13  14
ENDBRANCH  12  13
ENDBRANCH  11  12
ENDBRANCH   1  11
TORSDOF 15
ENDMDL
MODEL 7
REMARK VINA RESULT:    -4.386      4.647      7.342
REMARK INTER + INTRA:          -9.046
REMARK INTER:                  -6.820
REMARK INTRA:                  -2.227
REMARK UNBOUND:                -0.815
REMARK SMILES O=C([O-])CCCCCCCCCCCCCCC(=O)[O-]
REMARK SMILES IDX 10 1 9 2 8 3 7 4 6 5 5 6 4 7 2 8 1 9 3 10 11 11 12 12 13 13
REMARK SMILES IDX 14 14 15 15 16 16 17 17 18 18 19 19 20 20
REMARK H PARENT
REMARK Flexibility Score: inf
ROOT
ATOM      1  C   UNL     1      -2.492  -4.428   3.886  1.00  0.00     0.000 C 
ENDROOT
BRANCH   1   2
ATOM      2  C   UNL     1      -3.196  -3.302   3.101  1.00  0.00     0.000 C 
BRANCH   2   3
ATOM      3  C   UNL     1      -2.863  -1.870   3.567  1.00  0.00     0.000 C 
BRANCH   3   4
ATOM      4  C   UNL     1      -4.053  -1.073   4.131  1.00  0.00     0.000 C 
BRANCH   4   5
ATOM      5  C   UNL     1      -5.351  -1.899   4.186  1.00  0.00     0.000 C 
BRANCH   5   6
ATOM      6  C   UNL     1      -5.738  -2.293   5.620  1.00  0.00     0.006 C 
BRANCH   6   7
ATOM      7  C   UNL     1      -4.979  -1.486   6.682  1.00  0.00     0.053 C 
BRANCH   7   8
ATOM      8  C   UNL     1      -5.891  -0.492   7.331  1.00  0.00     0.041 C 
ATOM      9  O   UNL     1      -6.583  -0.824   8.328  1.00  0.00    -0.550 OA
ATOM     10  O   UNL     1      -6.011   0.788   6.804  1.00  0.00    -0.550 OA
ENDBRANCH   7   8
ENDBRANCH   6   7
ENDBRANCH   5   6
ENDBRANCH   4   5
ENDBRANCH   3   4
ENDBRANCH   2   3
ENDBRANCH   1   2
BRANCH   1  11
ATOM     11  C   UNL     1      -3.249  -4.921   5.132  1.00  0.00     0.000 C 
BRANCH  11  12
ATOM     12  C   UNL     1      -2.634  -4.413   6.444  1.00  0.00     0.000 C 
BRANCH  12  13
ATOM     13  C   UNL     1      -1.152  -4.805   6.542  1.00  0.00     0.000 C 
BRANCH  13  14
ATOM     14  C   UNL     1      -0.278  -3.675   7.106  1.00  0.00     0.000 C 
BRANCH  14  15
ATOM     15  C   UNL     1      -0.562  -2.318   6.437  1.00  0.00     0.000 C 
BRANCH  15  16
ATOM     16  C   UNL     1       0.314  -2.076   5.197  1.00  0.00     0.006 C 
BRANCH  16  17
ATOM     17  C   UNL     1       1.598  -1.305   5.526  1.00  0.00     0.053 C 
BRANCH  17  18
ATOM     18  C   UNL     1       2.785  -2.213   5.455  1.00  0.00     0.041 C 
ATOM     19  O   UNL     1       3.143  -2.868   6.468  1.00  0.00    -0.550 OA
ATOM     20  O   UNL     1       3.525  -2.298   4.281  1.00  0.00    -0.550 OA
ENDBRANCH  17  18
ENDBRANCH  16  17
ENDBRANCH  15  16
ENDBRANCH  14  15
ENDBRANCH  13  14
ENDBRANCH  12  13
ENDBRANCH  11  12
ENDBRANCH   1  11
TORSDOF 15
ENDMDL
MODEL 8
REMARK VINA RESULT:    -4.370      5.129      8.379
REMARK INTER + INTRA:          -9.017
REMARK INTER:                  -7.081
REMARK INTRA:                  -1.935
REMARK UNBOUND:                -0.815
REMARK SMILES O=C([O-])CCCCCCCCCCCCCCC(=O)[O-]
REMARK SMILES IDX 10 1 9 2 8 3 7 4 6 5 5 6 4 7 2 8 1 9 3 10 11 11 12 12 13 13
REMARK SMILES IDX 14 14 15 15 16 16 17 17 18 18 19 19 20 20
REMARK H PARENT
REMARK Flexibility Score: inf
ROOT
ATOM      1  C   UNL     1      -3.351  -2.616   7.080  1.00  0.00     0.000 C 
ENDROOT
BRANCH   1   2
ATOM      2  C   UNL     1      -4.626  -2.252   6.293  1.00  0.00     0.000 C 
BRANCH   2   3
ATOM      3  C   UNL     1      -4.470  -1.090   5.291  1.00  0.00     0.000 C 
BRANCH   3   4
ATOM      4  C   UNL     1      -3.529  -1.371   4.106  1.00  0.00     0.000 C 
BRANCH   4   5
ATOM      5  C   UNL     1      -3.808  -2.726   3.431  1.00  0.00     0.000 C 
BRANCH   5   6
ATOM      6  C   UNL     1      -2.540  -3.361   2.841  1.00  0.00     0.006 C 
BRANCH   6   7
ATOM      7  C   UNL     1      -2.743  -4.830   2.445  1.00  0.00     0.053 C 
BRANCH   7   8
ATOM      8  C   UNL     1      -3.140  -4.932   1.005  1.00  0.00     0.041 C 
ATOM      9  O   UNL     1      -2.261  -4.955   0.106  1.00  0.00    -0.550 OA
ATOM     10  O   UNL     1      -4.485  -4.952   0.656  1.00  0.00    -0.550 OA
ENDBRANCH   7   8
ENDBRANCH   6   7
ENDBRANCH   5   6
ENDBRANCH   4   5
ENDBRANCH   3   4
ENDBRANCH   2   3
ENDBRANCH   1   2
BRANCH   1  11
ATOM     11  C   UNL     1      -2.728  -3.975   6.713  1.00  0.00     0.000 C 
BRANCH  11  12
ATOM     12  C   UNL     1      -1.268  -3.857   6.251  1.00  0.00     0.000 C 
BRANCH  12  13
ATOM     13  C   UNL     1      -0.744  -2.427   6.453  1.00  0.00     0.000 C 
BRANCH  13  14
ATOM     14  C   UNL     1      -0.005  -1.889   5.218  1.00  0.00     0.000 C 
BRANCH  14  15
ATOM     15  C   UNL     1       1.370  -1.293   5.565  1.00  0.00     0.000 C 
BRANCH  15  16
ATOM     16  C   UNL     1       2.534  -2.196   5.123  1.00  0.00     0.006 C 
BRANCH  16  17
ATOM     17  C   UNL     1       2.900  -3.243   6.183  1.00  0.00     0.053 C 
BRANCH  17  18
ATOM     18  C   UNL     1       3.798  -2.645   7.219  1.00  0.00     0.041 C 
ATOM     19  O   UNL     1       3.825  -3.120   8.385  1.00  0.00    -0.550 OA
ATOM     20  O   UNL     1       4.569  -1.530   6.911  1.00  0.00    -0.550 OA
ENDBRANCH  17  18
ENDBRANCH  16  17
ENDBRANCH  15  16
ENDBRANCH  14  15
ENDBRANCH  13  14
ENDBRANCH  12  13
ENDBRANCH  11  12
ENDBRANCH   1  11
TORSDOF 15
ENDMDL
MODEL 9
REMARK VINA RESULT:    -4.319      5.004      8.474
REMARK INTER + INTRA:          -8.921
REMARK INTER:                  -6.764
REMARK INTRA:                  -2.157
REMARK UNBOUND:                -0.815
REMARK SMILES O=C([O-])CCCCCCCCCCCCCCC(=O)[O-]
REMARK SMILES IDX 10 1 9 2 8 3 7 4 6 5 5 6 4 7 2 8 1 9 3 10 11 11 12 12 13 13
REMARK SMILES IDX 14 14 15 15 16 16 17 17 18 18 19 19 20 20
REMARK H PARENT
REMARK Flexibility Score: inf
ROOT
ATOM      1  C   UNL     1      -5.325  -1.571   5.965  1.00  0.00     0.000 C 
ENDROOT
BRANCH   1   2
ATOM      2  C   UNL     1      -4.513  -0.703   4.982  1.00  0.00     0.000 C 
BRANCH   2   3
ATOM      3  C   UNL     1      -3.985  -1.440   3.736  1.00  0.00     0.000 C 
BRANCH   3   4
ATOM      4  C   UNL     1      -2.507  -1.863   3.804  1.00  0.00     0.000 C 
BRANCH   4   5
ATOM      5  C   UNL     1      -2.249  -3.237   3.161  1.00  0.00     0.000 C 
BRANCH   5   6
ATOM      6  C   UNL     1      -3.495  -4.137   3.174  1.00  0.00     0.006 C 
BRANCH   6   7
ATOM      7  C   UNL     1      -3.429  -5.256   2.126  1.00  0.00     0.053 C 
BRANCH   7   8
ATOM      8  C   UNL     1      -4.751  -5.402   1.437  1.00  0.00     0.041 C 
ATOM      9  O   UNL     1      -4.997  -4.745   0.393  1.00  0.00    -0.550 OA
ATOM     10  O   UNL     1      -5.728  -6.229   1.978  1.00  0.00    -0.550 OA
ENDBRANCH   7   8
ENDBRANCH   6   7
ENDBRANCH   5   6
ENDBRANCH   4   5
ENDBRANCH   3   4
ENDBRANCH   2   3
ENDBRANCH   1   2
BRANCH   1  11
ATOM     11  C   UNL     1      -4.490  -2.287   7.041  1.00  0.00     0.000 C 
BRANCH  11  12
ATOM     12  C   UNL     1      -4.401  -3.804   6.815  1.00  0.00     0.000 C 
BRANCH  12  13
ATOM     13  C   UNL     1      -2.940  -4.278   6.855  1.00  0.00     0.000 C 
BRANCH  13  14
ATOM     14  C   UNL     1      -1.961  -3.149   7.211  1.00  0.00     0.000 C 
BRANCH  14  15
ATOM     15  C   UNL     1      -0.587  -3.326   6.543  1.00  0.00     0.000 C 
BRANCH  15  16
ATOM     16  C   UNL     1       0.274  -2.055   6.615  1.00  0.00     0.006 C 
BRANCH  16  17
ATOM     17  C   UNL     1       0.905  -1.695   5.264  1.00  0.00     0.053 C 
BRANCH  17  18
ATOM     18  C   UNL     1       2.397  -1.686   5.371  1.00  0.00     0.041 C 
ATOM     19  O   UNL     1       3.096  -2.341   4.554  1.00  0.00    -0.550 OA
ATOM     20  O   UNL     1       3.016  -0.992   6.405  1.00  0.00    -0.550 OA
ENDBRANCH  17  18
ENDBRANCH  16  17
ENDBRANCH  15  16
ENDBRANCH  14  15
ENDBRANCH  13  14
ENDBRANCH  12  13
ENDBRANCH  11  12
ENDBRANCH   1  11
TORSDOF 15
ENDMDL
