MODEL 1
REMARK VINA RESULT:    87.275      0.000      0.000
REMARK INTER + INTRA:         186.553
REMARK INTER:                 184.215
REMARK INTRA:                   2.338
REMARK UNBOUND:                 2.338
REMARK SMILES CCC(=O)CCCCC[C@@H]1NC(=O)[C@H]2CCCCN2C(=O)[C@@H]([C@H](C)CC)NC(=O)[C@H](Cc2cn(OC)c3ccccc23)NC1=O
REMARK SMILES IDX 9 1 10 2 44 3 43 4 45 6 30 7 28 8 27 9 29 11 22 12 23 14
REMARK SMILES IDX 24 15 25 16 26 17 31 18 32 19 33 20 42 21 34 22 37 23 41 24
REMARK SMILES IDX 38 25 40 26 39 27 35 28 36 29 11 30 12 31 13 33 14 34 19 35
REMARK SMILES IDX 15 36 18 37 16 38 17 39 20 40 21 41 8 43 7 44 6 45 5 46 3 47
REMARK SMILES IDX 4 48 2 49 1 50
REMARK H PARENT 43 5 27 10 11 32
REMARK Flexibility Score: 80.00
ROOT
ATOM      1  C   UNL     1     -19.070 -18.693  -9.193  1.00  0.00     0.035 C 
ENDROOT
BRANCH   1   2
ATOM      2  C   UNL     1     -20.504 -18.105  -9.228  1.00  0.00     0.171 C 
BRANCH   2   3
ATOM      3  C   UNL     1     -21.533 -18.817 -10.075  1.00  0.00     0.243 C 
ATOM      4  N   UNL     1     -22.246 -18.068 -11.074  1.00  0.00    -0.342 N 
ATOM      5  H   UNL     1     -22.038 -17.047 -11.169  1.00  0.00     0.164 HD
ATOM      6  O   UNL     1     -21.768 -20.044  -9.915  1.00  0.00    -0.273 OA
BRANCH   4   7
ATOM      7  C   UNL     1     -23.326 -18.606 -11.903  1.00  0.00     0.175 C 
BRANCH   7   8
ATOM      8  C   UNL     1     -24.257 -19.420 -11.042  1.00  0.00     0.243 C 
ATOM      9  N   UNL     1     -24.918 -18.781  -9.945  1.00  0.00    -0.342 N 
ATOM     10  H   UNL     1     -24.823 -17.743  -9.853  1.00  0.00     0.164 HD
ATOM     11  O   UNL     1     -24.397 -20.656 -11.239  1.00  0.00    -0.273 OA
BRANCH   9  12
ATOM     12  C   UNL     1     -25.387 -19.523  -8.780  1.00  0.00     0.174 CG0
ATOM     13  G   UNL     1     -24.333 -19.386  -7.685  1.00  0.00     0.000 G0
BRANCH  12  14
ATOM     14  C   UNL     1     -26.792 -19.015  -8.339  1.00  0.00     0.018 C 
ATOM     15  C   UNL     1     -26.690 -17.761  -7.444  1.00  0.00     0.010 C 
BRANCH  14  16
ATOM     16  C   UNL     1     -27.647 -20.114  -7.654  1.00  0.00     0.002 C 
ATOM     17  C   UNL     1     -29.124 -19.748  -7.487  1.00  0.00     0.004 C 
ENDBRANCH  14  16
ENDBRANCH  12  14
ENDBRANCH   9  12
ENDBRANCH   7   8
BRANCH   7  18
ATOM     18  C   UNL     1     -22.755 -19.369 -13.123  1.00  0.00     0.073 C 
BRANCH  18  19
ATOM     19  C   UNL     1     -22.124 -18.431 -14.116  1.00  0.00    -0.016 A 
ATOM     20  C   UNL     1     -21.047 -18.721 -14.949  1.00  0.00     0.134 A 
ATOM     21  C   UNL     1     -22.461 -17.112 -14.381  1.00  0.00     0.006 A 
ATOM     22  N   UNL     1     -20.724 -17.634 -15.688  1.00  0.00    -0.191 N 
ATOM     23  C   UNL     1     -21.588 -16.661 -15.346  1.00  0.00     0.087 A 
ATOM     24  C   UNL     1     -23.446 -16.275 -13.846  1.00  0.00     0.011 A 
ATOM     25  C   UNL     1     -21.641 -15.360 -15.840  1.00  0.00     0.030 A 
ATOM     26  C   UNL     1     -23.530 -14.961 -14.338  1.00  0.00     0.001 A 
ATOM     27  C   UNL     1     -22.634 -14.505 -15.328  1.00  0.00     0.002 A 
BRANCH  22  28
ATOM     28  O   UNL     1     -19.683 -17.501 -16.591  1.00  0.00    -0.417 OA
ATOM     29  C   UNL     1     -18.526 -16.723 -16.311  1.00  0.00     0.313 C 
ENDBRANCH  22  28
ENDBRANCH  18  19
ENDBRANCH   7  18
ENDBRANCH   4   7
ENDBRANCH   2   3
BRANCH   2  30
ATOM     30  N   UNL     1     -20.993 -17.648  -7.920  1.00  0.00    -0.343 N 
ATOM     31  C   UNL     1     -21.650 -18.350  -6.844  1.00  0.00     0.243 C 
ATOM     32  H   UNL     1     -20.856 -16.626  -7.740  1.00  0.00     0.164 HD
ATOM     33  O   UNL     1     -21.971 -17.674  -5.831  1.00  0.00    -0.273 OA
BRANCH  31  34
ATOM     34  C   UNL     1     -21.921 -19.847  -6.823  1.00  0.00     0.174 C 
ATOM     35  N   UNL     1     -23.134 -20.268  -7.559  1.00  0.00    -0.329 N 
ATOM     36  C   UNL     1     -21.999 -20.389  -5.381  1.00  0.00     0.035 C 
ATOM     37  C   UNL     1     -23.250 -21.732  -7.674  1.00  0.00     0.120 C 
ATOM     38  C   UNL     1     -22.186 -21.912  -5.391  1.00  0.00     0.004 C 
ATOM     39  C   UNL     1     -23.379 -22.335  -6.273  1.00  0.00     0.022 C 
BRANCH  35  40
ATOM     40  C   UNL     1     -24.333 -19.448  -7.617  1.00  0.00     0.246 CG0
ATOM     41  O   UNL     1     -24.518 -18.548  -6.753  1.00  0.00    -0.272 OA
ATOM     42  G   UNL     1     -25.319 -19.557  -8.777  1.00  0.00     0.000 G0
ENDBRANCH  35  40
ENDBRANCH  31  34
ENDBRANCH   2  30
ENDBRANCH   1   2
BRANCH   1  43
ATOM     43  C   UNL     1     -18.027 -18.175 -10.201  1.00  0.00     0.003 C 
BRANCH  43  44
ATOM     44  C   UNL     1     -16.561 -18.490  -9.826  1.00  0.00     0.001 C 
BRANCH  44  45
ATOM     45  C   UNL     1     -15.669 -17.261  -9.556  1.00  0.00     0.008 C 
BRANCH  45  46
ATOM     46  C   UNL     1     -16.442 -15.929  -9.503  1.00  0.00     0.075 C 
BRANCH  46  47
ATOM     47  C   UNL     1     -16.257 -15.102 -10.748  1.00  0.00     0.132 C 
ATOM     48  O   UNL     1     -17.229 -14.608 -11.306  1.00  0.00    -0.300 OA
BRANCH  47  49
ATOM     49  C   UNL     1     -14.888 -14.974 -11.371  1.00  0.00     0.072 C 
ATOM     50  C   UNL     1     -14.827 -15.619 -12.755  1.00  0.00     0.012 C 
ENDBRANCH  47  49
ENDBRANCH  46  47
ENDBRANCH  45  46
ENDBRANCH  44  45
ENDBRANCH  43  44
ENDBRANCH   1  43
TORSDOF 12
ENDMDL
MODEL 2
REMARK VINA RESULT:    87.365      4.806      8.613
REMARK INTER + INTRA:         186.743
REMARK INTER:                 188.063
REMARK INTRA:                  -1.320
REMARK UNBOUND:                 2.338
REMARK SMILES CCC(=O)CCCCC[C@@H]1NC(=O)[C@H]2CCCCN2C(=O)[C@@H]([C@H](C)CC)NC(=O)[C@H](Cc2cn(OC)c3ccccc23)NC1=O
REMARK SMILES IDX 9 1 10 2 44 3 43 4 45 6 30 7 28 8 27 9 29 11 22 12 23 14
REMARK SMILES IDX 24 15 25 16 26 17 31 18 32 19 33 20 42 21 34 22 37 23 41 24
REMARK SMILES IDX 38 25 40 26 39 27 35 28 36 29 11 30 12 31 13 33 14 34 19 35
REMARK SMILES IDX 15 36 18 37 16 38 17 39 20 40 21 41 8 43 7 44 6 45 5 46 3 47
REMARK SMILES IDX 4 48 2 49 1 50
REMARK H PARENT 43 5 27 10 11 32
REMARK Flexibility Score: 80.00
ROOT
ATOM      1  C   UNL     1     -19.007 -18.432  -9.202  1.00  0.00     0.035 C 
ENDROOT
BRANCH   1   2
ATOM      2  C   UNL     1     -17.771 -18.636 -10.114  1.00  0.00     0.171 C 
BRANCH   2   3
ATOM      3  C   UNL     1     -17.220 -17.426 -10.830  1.00  0.00     0.243 C 
ATOM      4  N   UNL     1     -16.764 -17.571 -12.187  1.00  0.00    -0.342 N 
ATOM      5  H   UNL     1     -16.815 -18.519 -12.626  1.00  0.00     0.164 HD
ATOM      6  O   UNL     1     -17.157 -16.307 -10.257  1.00  0.00    -0.273 OA
BRANCH   4   7
ATOM      7  C   UNL     1     -16.130 -16.509 -12.969  1.00  0.00     0.175 C 
BRANCH   7   8
ATOM      8  C   UNL     1     -15.130 -15.784 -12.105  1.00  0.00     0.243 C 
ATOM      9  N   UNL     1     -14.181 -16.551 -11.357  1.00  0.00    -0.342 N 
ATOM     10  H   UNL     1     -14.140 -17.583 -11.528  1.00  0.00     0.164 HD
ATOM     11  O   UNL     1     -15.171 -14.531 -11.989  1.00  0.00    -0.273 OA
BRANCH   9  12
ATOM     12  C   UNL     1     -13.556 -16.042 -10.141  1.00  0.00     0.174 CG0
ATOM     13  G   UNL     1     -13.864 -17.021  -9.012  1.00  0.00     0.000 G0
BRANCH  12  14
ATOM     14  C   UNL     1     -12.027 -15.830 -10.361  1.00  0.00     0.018 C 
ATOM     15  C   UNL     1     -11.400 -14.984  -9.232  1.00  0.00     0.010 C 
BRANCH  14  16
ATOM     16  C   UNL     1     -11.693 -15.229 -11.753  1.00  0.00     0.002 C 
ATOM     17  C   UNL     1     -12.039 -13.745 -11.895  1.00  0.00     0.004 C 
ENDBRANCH  14  16
ENDBRANCH  12  14
ENDBRANCH   9  12
ENDBRANCH   7   8
BRANCH   7  18
ATOM     18  C   UNL     1     -17.196 -15.591 -13.616  1.00  0.00     0.073 C 
BRANCH  18  19
ATOM     19  C   UNL     1     -17.558 -16.056 -15.000  1.00  0.00    -0.016 A 
ATOM     20  C   UNL     1     -16.840 -15.802 -16.166  1.00  0.00     0.134 A 
ATOM     21  C   UNL     1     -18.664 -16.795 -15.394  1.00  0.00     0.006 A 
ATOM     22  N   UNL     1     -17.473 -16.345 -17.231  1.00  0.00    -0.191 N 
ATOM     23  C   UNL     1     -18.576 -16.952 -16.759  1.00  0.00     0.087 A 
ATOM     24  C   UNL     1     -19.739 -17.322 -14.670  1.00  0.00     0.011 A 
ATOM     25  C   UNL     1     -19.543 -17.644 -17.486  1.00  0.00     0.030 A 
ATOM     26  C   UNL     1     -20.721 -18.036 -15.378  1.00  0.00     0.001 A 
ATOM     27  C   UNL     1     -20.624 -18.197 -16.777  1.00  0.00     0.002 A 
BRANCH  22  28
ATOM     28  O   UNL     1     -17.110 -16.267 -18.565  1.00  0.00    -0.417 OA
ATOM     29  C   UNL     1     -17.621 -15.267 -19.437  1.00  0.00     0.313 C 
ENDBRANCH  22  28
ENDBRANCH  18  19
ENDBRANCH   7  18
ENDBRANCH   4   7
ENDBRANCH   2   3
BRANCH   2  30
ATOM     30  N   UNL     1     -16.754 -19.532  -9.546  1.00  0.00    -0.343 N 
ATOM     31  C   UNL     1     -15.824 -19.359  -8.457  1.00  0.00     0.243 C 
ATOM     32  H   UNL     1     -16.677 -20.458 -10.028  1.00  0.00     0.164 HD
ATOM     33  O   UNL     1     -15.047 -20.317  -8.208  1.00  0.00    -0.273 OA
BRANCH  31  34
ATOM     34  C   UNL     1     -15.761 -18.132  -7.558  1.00  0.00     0.174 C 
ATOM     35  N   UNL     1     -15.061 -16.968  -8.145  1.00  0.00    -0.329 N 
ATOM     36  C   UNL     1     -15.123 -18.463  -6.193  1.00  0.00     0.035 C 
ATOM     37  C   UNL     1     -15.192 -15.752  -7.324  1.00  0.00     0.120 C 
ATOM     38  C   UNL     1     -15.152 -17.231  -5.277  1.00  0.00     0.004 C 
ATOM     39  C   UNL     1     -14.534 -15.995  -5.963  1.00  0.00     0.022 C 
BRANCH  35  40
ATOM     40  C   UNL     1     -13.919 -17.113  -9.033  1.00  0.00     0.246 CG0
ATOM     41  O   UNL     1     -13.221 -18.162  -8.988  1.00  0.00    -0.272 OA
ATOM     42  G   UNL     1     -13.613 -16.082 -10.116  1.00  0.00     0.000 G0
ENDBRANCH  35  40
ENDBRANCH  31  34
ENDBRANCH   2  30
ENDBRANCH   1   2
BRANCH   1  43
ATOM     43  C   UNL     1     -20.402 -18.326  -9.848  1.00  0.00     0.003 C 
BRANCH  43  44
ATOM     44  C   UNL     1     -20.980 -16.894  -9.896  1.00  0.00     0.001 C 
BRANCH  44  45
ATOM     45  C   UNL     1     -21.975 -16.620 -11.043  1.00  0.00     0.008 C 
BRANCH  45  46
ATOM     46  C   UNL     1     -22.126 -15.127 -11.394  1.00  0.00     0.075 C 
BRANCH  46  47
ATOM     47  C   UNL     1     -23.315 -14.858 -12.279  1.00  0.00     0.132 C 
ATOM     48  O   UNL     1     -24.348 -14.410 -11.798  1.00  0.00    -0.300 OA
BRANCH  47  49
ATOM     49  C   UNL     1     -23.271 -15.244 -13.738  1.00  0.00     0.072 C 
ATOM     50  C   UNL     1     -24.653 -15.625 -14.270  1.00  0.00     0.012 C 
ENDBRANCH  47  49
ENDBRANCH  46  47
ENDBRANCH  45  46
ENDBRANCH  44  45
ENDBRANCH  43  44
ENDBRANCH   1  43
TORSDOF 12
ENDMDL
MODEL 3
REMARK VINA RESULT:    88.462      4.856      8.683
REMARK INTER + INTRA:         189.058
REMARK INTER:                 189.720
REMARK INTRA:                  -0.662
REMARK UNBOUND:                 2.338
REMARK SMILES CCC(=O)CCCCC[C@@H]1NC(=O)[C@H]2CCCCN2C(=O)[C@@H]([C@H](C)CC)NC(=O)[C@H](Cc2cn(OC)c3ccccc23)NC1=O
REMARK SMILES IDX 9 1 10 2 44 3 43 4 45 6 30 7 28 8 27 9 29 11 22 12 23 14
REMARK SMILES IDX 24 15 25 16 26 17 31 18 32 19 33 20 42 21 34 22 37 23 41 24
REMARK SMILES IDX 38 25 40 26 39 27 35 28 36 29 11 30 12 31 13 33 14 34 19 35
REMARK SMILES IDX 15 36 18 37 16 38 17 39 20 40 21 41 8 43 7 44 6 45 5 46 3 47
REMARK SMILES IDX 4 48 2 49 1 50
REMARK H PARENT 43 5 27 10 11 32
REMARK Flexibility Score: 80.00
ROOT
ATOM      1  C   UNL     1     -19.017 -18.556  -9.452  1.00  0.00     0.035 C 
ENDROOT
BRANCH   1   2
ATOM      2  C   UNL     1     -17.732 -18.637 -10.314  1.00  0.00     0.171 C 
BRANCH   2   3
ATOM      3  C   UNL     1     -17.177 -17.345 -10.868  1.00  0.00     0.243 C 
ATOM      4  N   UNL     1     -16.756 -17.305 -12.243  1.00  0.00    -0.342 N 
ATOM      5  H   UNL     1     -16.833 -18.181 -12.810  1.00  0.00     0.164 HD
ATOM      6  O   UNL     1     -17.081 -16.318 -10.146  1.00  0.00    -0.273 OA
BRANCH   4   7
ATOM      7  C   UNL     1     -16.122 -16.153 -12.885  1.00  0.00     0.175 C 
BRANCH   7   8
ATOM      8  C   UNL     1     -15.134 -15.531 -11.931  1.00  0.00     0.243 C 
ATOM      9  N   UNL     1     -14.154 -16.370 -11.310  1.00  0.00    -0.342 N 
ATOM     10  H   UNL     1     -14.084 -17.363 -11.632  1.00  0.00     0.164 HD
ATOM     11  O   UNL     1     -15.213 -14.311 -11.631  1.00  0.00    -0.273 OA
BRANCH   9  12
ATOM     12  C   UNL     1     -13.531 -16.026 -10.036  1.00  0.00     0.174 CG0
ATOM     13  G   UNL     1     -13.872 -17.128  -9.038  1.00  0.00     0.000 G0
BRANCH  12  14
ATOM     14  C   UNL     1     -11.997 -15.821 -10.217  1.00  0.00     0.018 C 
ATOM     15  C   UNL     1     -11.414 -14.887  -9.135  1.00  0.00     0.010 C 
BRANCH  14  16
ATOM     16  C   UNL     1     -11.614 -15.328 -11.638  1.00  0.00     0.002 C 
ATOM     17  C   UNL     1     -11.968 -13.864 -11.911  1.00  0.00     0.004 C 
ENDBRANCH  14  16
ENDBRANCH  12  14
ENDBRANCH   9  12
ENDBRANCH   7   8
BRANCH   7  18
ATOM     18  C   UNL     1     -17.188 -15.170 -13.428  1.00  0.00     0.073 C 
BRANCH  18  19
ATOM     19  C   UNL     1     -17.947 -15.762 -14.583  1.00  0.00    -0.016 A 
ATOM     20  C   UNL     1     -19.211 -16.345 -14.524  1.00  0.00     0.134 A 
ATOM     21  C   UNL     1     -17.546 -15.870 -15.907  1.00  0.00     0.006 A 
ATOM     22  N   UNL     1     -19.572 -16.800 -15.746  1.00  0.00    -0.191 N 
ATOM     23  C   UNL     1     -18.563 -16.504 -16.584  1.00  0.00     0.087 A 
ATOM     24  C   UNL     1     -16.373 -15.477 -16.560  1.00  0.00     0.011 A 
ATOM     25  C   UNL     1     -18.481 -16.783 -17.947  1.00  0.00     0.030 A 
ATOM     26  C   UNL     1     -16.271 -15.735 -17.938  1.00  0.00     0.001 A 
ATOM     27  C   UNL     1     -17.318 -16.384 -18.628  1.00  0.00     0.002 A 
BRANCH  22  28
ATOM     28  O   UNL     1     -20.726 -17.484 -16.089  1.00  0.00    -0.417 OA
ATOM     29  C   UNL     1     -20.939 -18.844 -15.737  1.00  0.00     0.313 C 
ENDBRANCH  22  28
ENDBRANCH  18  19
ENDBRANCH   7  18
ENDBRANCH   4   7
ENDBRANCH   2   3
BRANCH   2  30
ATOM     30  N   UNL     1     -16.722 -19.567  -9.793  1.00  0.00    -0.343 N 
ATOM     31  C   UNL     1     -15.815 -19.470  -8.675  1.00  0.00     0.243 C 
ATOM     32  H   UNL     1     -16.629 -20.456 -10.339  1.00  0.00     0.164 HD
ATOM     33  O   UNL     1     -15.039 -20.442  -8.480  1.00  0.00    -0.273 OA
BRANCH  31  34
ATOM     34  C   UNL     1     -15.778 -18.313  -7.687  1.00  0.00     0.174 C 
ATOM     35  N   UNL     1     -15.070 -17.106  -8.172  1.00  0.00    -0.329 N 
ATOM     36  C   UNL     1     -15.168 -18.740  -6.337  1.00  0.00     0.035 C 
ATOM     37  C   UNL     1     -15.225 -15.954  -7.268  1.00  0.00     0.120 C 
ATOM     38  C   UNL     1     -15.223 -17.579  -5.334  1.00  0.00     0.004 C 
ATOM     39  C   UNL     1     -14.595 -16.294  -5.914  1.00  0.00     0.022 C 
BRANCH  35  40
ATOM     40  C   UNL     1     -13.909 -17.182  -9.043  1.00  0.00     0.246 CG0
ATOM     41  O   UNL     1     -13.224 -18.240  -9.080  1.00  0.00    -0.272 OA
ATOM     42  G   UNL     1     -13.566 -16.059 -10.017  1.00  0.00     0.000 G0
ENDBRANCH  35  40
ENDBRANCH  31  34
ENDBRANCH   2  30
ENDBRANCH   1   2
BRANCH   1  43
ATOM     43  C   UNL     1     -20.298 -17.972 -10.075  1.00  0.00     0.003 C 
BRANCH  43  44
ATOM     44  C   UNL     1     -20.345 -16.427 -10.118  1.00  0.00     0.001 C 
BRANCH  44  45
ATOM     45  C   UNL     1     -21.748 -15.812 -10.301  1.00  0.00     0.008 C 
BRANCH  45  46
ATOM     46  C   UNL     1     -21.860 -14.863 -11.510  1.00  0.00     0.075 C 
BRANCH  46  47
ATOM     47  C   UNL     1     -23.238 -14.861 -12.119  1.00  0.00     0.132 C 
ATOM     48  O   UNL     1     -24.115 -14.148 -11.648  1.00  0.00    -0.300 OA
BRANCH  47  49
ATOM     49  C   UNL     1     -23.569 -15.819 -13.237  1.00  0.00     0.072 C 
ATOM     50  C   UNL     1     -23.470 -15.153 -14.609  1.00  0.00     0.012 C 
ENDBRANCH  47  49
ENDBRANCH  46  47
ENDBRANCH  45  46
ENDBRANCH  44  45
ENDBRANCH  43  44
ENDBRANCH   1  43
TORSDOF 12
ENDMDL
MODEL 4
REMARK VINA RESULT:    88.639      4.077      9.087
REMARK INTER + INTRA:         189.432
REMARK INTER:                 190.156
REMARK INTRA:                  -0.725
REMARK UNBOUND:                 2.338
REMARK SMILES CCC(=O)CCCCC[C@@H]1NC(=O)[C@H]2CCCCN2C(=O)[C@@H]([C@H](C)CC)NC(=O)[C@H](Cc2cn(OC)c3ccccc23)NC1=O
REMARK SMILES IDX 9 1 10 2 44 3 43 4 45 6 30 7 28 8 27 9 29 11 22 12 23 14
REMARK SMILES IDX 24 15 25 16 26 17 31 18 32 19 33 20 42 21 34 22 37 23 41 24
REMARK SMILES IDX 38 25 40 26 39 27 35 28 36 29 11 30 12 31 13 33 14 34 19 35
REMARK SMILES IDX 15 36 18 37 16 38 17 39 20 40 21 41 8 43 7 44 6 45 5 46 3 47
REMARK SMILES IDX 4 48 2 49 1 50
REMARK H PARENT 43 5 27 10 11 32
REMARK Flexibility Score: 80.00
ROOT
ATOM      1  C   UNL     1     -18.476 -18.895  -9.568  1.00  0.00     0.035 C 
ENDROOT
BRANCH   1   2
ATOM      2  C   UNL     1     -17.220 -18.812 -10.472  1.00  0.00     0.171 C 
BRANCH   2   3
ATOM      3  C   UNL     1     -16.895 -17.475 -11.097  1.00  0.00     0.243 C 
ATOM      4  N   UNL     1     -16.481 -17.436 -12.474  1.00  0.00    -0.342 N 
ATOM      5  H   UNL     1     -16.404 -18.342 -12.993  1.00  0.00     0.164 HD
ATOM      6  O   UNL     1     -16.980 -16.410 -10.431  1.00  0.00    -0.273 OA
BRANCH   4   7
ATOM      7  C   UNL     1     -16.053 -16.228 -13.180  1.00  0.00     0.175 C 
BRANCH   7   8
ATOM      8  C   UNL     1     -15.079 -15.466 -12.318  1.00  0.00     0.243 C 
ATOM      9  N   UNL     1     -14.177 -16.200 -11.483  1.00  0.00    -0.342 N 
ATOM     10  H   UNL     1     -14.147 -17.241 -11.589  1.00  0.00     0.164 HD
ATOM     11  O   UNL     1     -15.103 -14.208 -12.281  1.00  0.00    -0.273 OA
BRANCH   9  12
ATOM     12  C   UNL     1     -13.597 -15.626 -10.273  1.00  0.00     0.174 CG0
ATOM     13  G   UNL     1     -13.729 -16.659  -9.158  1.00  0.00     0.000 G0
BRANCH  12  14
ATOM     14  C   UNL     1     -12.122 -15.192 -10.529  1.00  0.00     0.018 C 
ATOM     15  C   UNL     1     -12.024 -13.697 -10.900  1.00  0.00     0.010 C 
BRANCH  14  16
ATOM     16  C   UNL     1     -11.406 -16.072 -11.588  1.00  0.00     0.002 C 
ATOM     17  C   UNL     1     -11.485 -15.525 -13.016  1.00  0.00     0.004 C 
ENDBRANCH  14  16
ENDBRANCH  12  14
ENDBRANCH   9  12
ENDBRANCH   7   8
BRANCH   7  18
ATOM     18  C   UNL     1     -17.276 -15.400 -13.644  1.00  0.00     0.073 C 
BRANCH  18  19
ATOM     19  C   UNL     1     -17.927 -16.007 -14.856  1.00  0.00    -0.016 A 
ATOM     20  C   UNL     1     -19.069 -16.804 -14.863  1.00  0.00     0.134 A 
ATOM     21  C   UNL     1     -17.521 -15.922 -16.180  1.00  0.00     0.006 A 
ATOM     22  N   UNL     1     -19.352 -17.202 -16.125  1.00  0.00    -0.191 N 
ATOM     23  C   UNL     1     -18.415 -16.659 -16.923  1.00  0.00     0.087 A 
ATOM     24  C   UNL     1     -16.437 -15.273 -16.783  1.00  0.00     0.011 A 
ATOM     25  C   UNL     1     -18.293 -16.794 -18.304  1.00  0.00     0.030 A 
ATOM     26  C   UNL     1     -16.300 -15.382 -18.177  1.00  0.00     0.001 A 
ATOM     27  C   UNL     1     -17.221 -16.138 -18.934  1.00  0.00     0.002 A 
BRANCH  22  28
ATOM     28  O   UNL     1     -20.371 -18.042 -16.542  1.00  0.00    -0.417 OA
ATOM     29  C   UNL     1     -21.294 -18.627 -15.633  1.00  0.00     0.313 C 
ENDBRANCH  22  28
ENDBRANCH  18  19
ENDBRANCH   7  18
ENDBRANCH   4   7
ENDBRANCH   2   3
BRANCH   2  30
ATOM     30  N   UNL     1     -16.060 -19.546  -9.950  1.00  0.00    -0.343 N 
ATOM     31  C   UNL     1     -15.192 -19.294  -8.826  1.00  0.00     0.243 C 
ATOM     32  H   UNL     1     -15.805 -20.399 -10.501  1.00  0.00     0.164 HD
ATOM     33  O   UNL     1     -14.252 -20.109  -8.632  1.00  0.00    -0.273 OA
BRANCH  31  34
ATOM     34  C   UNL     1     -15.371 -18.156  -7.830  1.00  0.00     0.174 C 
ATOM     35  N   UNL     1     -14.878 -16.841  -8.297  1.00  0.00    -0.329 N 
ATOM     36  C   UNL     1     -14.715 -18.483  -6.473  1.00  0.00     0.035 C 
ATOM     37  C   UNL     1     -15.244 -15.742  -7.388  1.00  0.00     0.120 C 
ATOM     38  C   UNL     1     -14.986 -17.358  -5.464  1.00  0.00     0.004 C 
ATOM     39  C   UNL     1     -14.585 -15.979  -6.026  1.00  0.00     0.022 C 
BRANCH  35  40
ATOM     40  C   UNL     1     -13.709 -16.706  -9.150  1.00  0.00     0.246 CG0
ATOM     41  O   UNL     1     -12.757 -17.526  -9.041  1.00  0.00    -0.272 OA
ATOM     42  G   UNL     1     -13.654 -15.671 -10.271  1.00  0.00     0.000 G0
ENDBRANCH  35  40
ENDBRANCH  31  34
ENDBRANCH   2  30
ENDBRANCH   1   2
BRANCH   1  43
ATOM     43  C   UNL     1     -19.638 -17.914  -9.811  1.00  0.00     0.003 C 
BRANCH  43  44
ATOM     44  C   UNL     1     -20.998 -18.376  -9.242  1.00  0.00     0.001 C 
BRANCH  44  45
ATOM     45  C   UNL     1     -22.099 -18.641 -10.292  1.00  0.00     0.008 C 
BRANCH  45  46
ATOM     46  C   UNL     1     -23.132 -19.699  -9.858  1.00  0.00     0.075 C 
BRANCH  46  47
ATOM     47  C   UNL     1     -24.246 -19.864 -10.858  1.00  0.00     0.132 C 
ATOM     48  O   UNL     1     -23.990 -20.165 -12.017  1.00  0.00    -0.300 OA
BRANCH  47  49
ATOM     49  C   UNL     1     -25.668 -19.549 -10.461  1.00  0.00     0.072 C 
ATOM     50  C   UNL     1     -25.751 -18.955  -9.055  1.00  0.00     0.012 C 
ENDBRANCH  47  49
ENDBRANCH  46  47
ENDBRANCH  45  46
ENDBRANCH  44  45
ENDBRANCH  43  44
ENDBRANCH   1  43
TORSDOF 12
ENDMDL
MODEL 5
REMARK VINA RESULT:    89.117      3.461      8.272
REMARK INTER + INTRA:         190.441
REMARK INTER:                 187.664
REMARK INTRA:                   2.777
REMARK UNBOUND:                 2.338
REMARK SMILES CCC(=O)CCCCC[C@@H]1NC(=O)[C@H]2CCCCN2C(=O)[C@@H]([C@H](C)CC)NC(=O)[C@H](Cc2cn(OC)c3ccccc23)NC1=O
REMARK SMILES IDX 9 1 10 2 44 3 43 4 45 6 30 7 28 8 27 9 29 11 22 12 23 14
REMARK SMILES IDX 24 15 25 16 26 17 31 18 32 19 33 20 42 21 34 22 37 23 41 24
REMARK SMILES IDX 38 25 40 26 39 27 35 28 36 29 11 30 12 31 13 33 14 34 19 35
REMARK SMILES IDX 15 36 18 37 16 38 17 39 20 40 21 41 8 43 7 44 6 45 5 46 3 47
REMARK SMILES IDX 4 48 2 49 1 50
REMARK H PARENT 43 5 27 10 11 32
REMARK Flexibility Score: 80.00
ROOT
ATOM      1  C   UNL     1     -18.047 -15.666 -16.209  1.00  0.00     0.035 C 
ENDROOT
BRANCH   1   2
ATOM      2  C   UNL     1     -18.419 -16.664 -15.083  1.00  0.00     0.171 C 
BRANCH   2   3
ATOM      3  C   UNL     1     -18.467 -16.138 -13.668  1.00  0.00     0.243 C 
ATOM      4  N   UNL     1     -18.316 -17.065 -12.578  1.00  0.00    -0.342 N 
ATOM      5  H   UNL     1     -18.194 -18.079 -12.806  1.00  0.00     0.164 HD
ATOM      6  O   UNL     1     -18.637 -14.912 -13.437  1.00  0.00    -0.273 OA
BRANCH   4   7
ATOM      7  C   UNL     1     -18.428 -16.710 -11.163  1.00  0.00     0.175 C 
BRANCH   7   8
ATOM      8  C   UNL     1     -19.874 -16.784 -10.744  1.00  0.00     0.243 C 
ATOM      9  N   UNL     1     -20.588 -18.009 -10.942  1.00  0.00    -0.342 N 
ATOM     10  H   UNL     1     -20.047 -18.845 -11.262  1.00  0.00     0.164 HD
ATOM     11  O   UNL     1     -20.463 -15.767 -10.292  1.00  0.00    -0.273 OA
BRANCH   9  12
ATOM     12  C   UNL     1     -22.040 -18.048 -11.080  1.00  0.00     0.174 CG0
ATOM     13  G   UNL     1     -22.377 -17.766 -12.541  1.00  0.00     0.000 G0
BRANCH  12  14
ATOM     14  C   UNL     1     -22.598 -19.415 -10.579  1.00  0.00     0.018 C 
ATOM     15  C   UNL     1     -23.885 -19.814 -11.331  1.00  0.00     0.010 C 
BRANCH  14  16
ATOM     16  C   UNL     1     -22.819 -19.453  -9.044  1.00  0.00     0.002 C 
ATOM     17  C   UNL     1     -22.141 -20.632  -8.341  1.00  0.00     0.004 C 
ENDBRANCH  14  16
ENDBRANCH  12  14
ENDBRANCH   9  12
ENDBRANCH   7   8
BRANCH   7  18
ATOM     18  C   UNL     1     -17.751 -15.346 -10.883  1.00  0.00     0.073 C 
BRANCH  18  19
ATOM     19  C   UNL     1     -16.252 -15.456 -10.919  1.00  0.00    -0.016 A 
ATOM     20  C   UNL     1     -15.403 -14.822 -11.823  1.00  0.00     0.134 A 
ATOM     21  C   UNL     1     -15.427 -16.210 -10.095  1.00  0.00     0.006 A 
ATOM     22  N   UNL     1     -14.119 -15.172 -11.581  1.00  0.00    -0.191 N 
ATOM     23  C   UNL     1     -14.136 -16.008 -10.528  1.00  0.00     0.087 A 
ATOM     24  C   UNL     1     -15.710 -17.060  -9.021  1.00  0.00     0.011 A 
ATOM     25  C   UNL     1     -13.048 -16.632  -9.920  1.00  0.00     0.030 A 
ATOM     26  C   UNL     1     -14.628 -17.691  -8.382  1.00  0.00     0.001 A 
ATOM     27  C   UNL     1     -13.306 -17.479  -8.828  1.00  0.00     0.002 A 
BRANCH  22  28
ATOM     28  O   UNL     1     -12.990 -14.798 -12.289  1.00  0.00    -0.417 OA
ATOM     29  C   UNL     1     -11.814 -15.597 -12.325  1.00  0.00     0.313 C 
ENDBRANCH  22  28
ENDBRANCH  18  19
ENDBRANCH   7  18
ENDBRANCH   4   7
ENDBRANCH   2   3
BRANCH   2  30
ATOM     30  N   UNL     1     -19.511 -17.581 -15.437  1.00  0.00    -0.343 N 
ATOM     31  C   UNL     1     -20.936 -17.503 -15.221  1.00  0.00     0.243 C 
ATOM     32  H   UNL     1     -19.202 -18.457 -15.918  1.00  0.00     0.164 HD
ATOM     33  O   UNL     1     -21.631 -18.469 -15.631  1.00  0.00    -0.273 OA
BRANCH  31  34
ATOM     34  C   UNL     1     -21.654 -16.316 -14.596  1.00  0.00     0.174 C 
ATOM     35  N   UNL     1     -21.974 -16.472 -13.159  1.00  0.00    -0.329 N 
ATOM     36  C   UNL     1     -22.948 -15.970 -15.361  1.00  0.00     0.035 C 
ATOM     37  C   UNL     1     -22.492 -15.233 -12.554  1.00  0.00     0.120 C 
ATOM     38  C   UNL     1     -23.605 -14.718 -14.762  1.00  0.00     0.004 C 
ATOM     39  C   UNL     1     -23.808 -14.854 -13.239  1.00  0.00     0.022 C 
BRANCH  35  40
ATOM     40  C   UNL     1     -22.327 -17.756 -12.575  1.00  0.00     0.246 CG0
ATOM     41  O   UNL     1     -22.742 -18.687 -13.317  1.00  0.00    -0.272 OA
ATOM     42  G   UNL     1     -22.086 -18.054 -11.098  1.00  0.00     0.000 G0
ENDBRANCH  35  40
ENDBRANCH  31  34
ENDBRANCH   2  30
ENDBRANCH   1   2
BRANCH   1  43
ATOM     43  C   UNL     1     -17.651 -16.215 -17.592  1.00  0.00     0.003 C 
BRANCH  43  44
ATOM     44  C   UNL     1     -16.639 -15.339 -18.365  1.00  0.00     0.001 C 
BRANCH  44  45
ATOM     45  C   UNL     1     -16.973 -15.097 -19.852  1.00  0.00     0.008 C 
BRANCH  45  46
ATOM     46  C   UNL     1     -15.762 -14.663 -20.700  1.00  0.00     0.075 C 
BRANCH  46  47
ATOM     47  C   UNL     1     -16.131 -13.670 -21.771  1.00  0.00     0.132 C 
ATOM     48  O   UNL     1     -15.586 -12.573 -21.803  1.00  0.00    -0.300 OA
BRANCH  47  49
ATOM     49  C   UNL     1     -17.249 -13.982 -22.735  1.00  0.00     0.072 C 
ATOM     50  C   UNL     1     -16.832 -13.753 -24.188  1.00  0.00     0.012 C 
ENDBRANCH  47  49
ENDBRANCH  46  47
ENDBRANCH  45  46
ENDBRANCH  44  45
ENDBRANCH  43  44
ENDBRANCH   1  43
TORSDOF 12
ENDMDL
MODEL 6
REMARK VINA RESULT:    89.219      4.792      9.776
REMARK INTER + INTRA:         190.657
REMARK INTER:                 188.039
REMARK INTRA:                   2.618
REMARK UNBOUND:                 2.338
REMARK SMILES CCC(=O)CCCCC[C@@H]1NC(=O)[C@H]2CCCCN2C(=O)[C@@H]([C@H](C)CC)NC(=O)[C@H](Cc2cn(OC)c3ccccc23)NC1=O
REMARK SMILES IDX 9 1 10 2 44 3 43 4 45 6 30 7 28 8 27 9 29 11 22 12 23 14
REMARK SMILES IDX 24 15 25 16 26 17 31 18 32 19 33 20 42 21 34 22 37 23 41 24
REMARK SMILES IDX 38 25 40 26 39 27 35 28 36 29 11 30 12 31 13 33 14 34 19 35
REMARK SMILES IDX 15 36 18 37 16 38 17 39 20 40 21 41 8 43 7 44 6 45 5 46 3 47
REMARK SMILES IDX 4 48 2 49 1 50
REMARK H PARENT 43 5 27 10 11 32
REMARK Flexibility Score: 80.00
ROOT
ATOM      1  C   UNL     1     -17.277 -16.251 -18.723  1.00  0.00     0.035 C 
ENDROOT
BRANCH   1   2
ATOM      2  C   UNL     1     -17.136 -15.487 -17.382  1.00  0.00     0.171 C 
BRANCH   2   3
ATOM      3  C   UNL     1     -18.184 -15.732 -16.323  1.00  0.00     0.243 C 
ATOM      4  N   UNL     1     -18.717 -14.607 -15.601  1.00  0.00    -0.342 N 
ATOM      5  H   UNL     1     -18.346 -13.655 -15.826  1.00  0.00     0.164 HD
ATOM      6  O   UNL     1     -18.589 -16.896 -16.068  1.00  0.00    -0.273 OA
BRANCH   4   7
ATOM      7  C   UNL     1     -19.670 -14.704 -14.494  1.00  0.00     0.175 C 
BRANCH   7   8
ATOM      8  C   UNL     1     -18.920 -14.974 -13.215  1.00  0.00     0.243 C 
ATOM      9  N   UNL     1     -17.489 -15.006 -13.248  1.00  0.00    -0.342 N 
ATOM     10  H   UNL     1     -17.012 -14.723 -14.136  1.00  0.00     0.164 HD
ATOM     11  O   UNL     1     -19.540 -15.236 -12.151  1.00  0.00    -0.273 OA
BRANCH   9  12
ATOM     12  C   UNL     1     -16.705 -15.747 -12.265  1.00  0.00     0.174 CG0
ATOM     13  G   UNL     1     -15.673 -16.577 -13.022  1.00  0.00     0.000 G0
BRANCH  12  14
ATOM     14  C   UNL     1     -16.063 -14.772 -11.232  1.00  0.00     0.018 C 
ATOM     15  C   UNL     1     -14.581 -14.491 -11.559  1.00  0.00     0.010 C 
BRANCH  14  16
ATOM     16  C   UNL     1     -16.225 -15.250  -9.765  1.00  0.00     0.002 C 
ATOM     17  C   UNL     1     -15.577 -16.605  -9.471  1.00  0.00     0.004 C 
ENDBRANCH  14  16
ENDBRANCH  12  14
ENDBRANCH   9  12
ENDBRANCH   7   8
BRANCH   7  18
ATOM     18  C   UNL     1     -20.779 -15.736 -14.812  1.00  0.00     0.073 C 
BRANCH  18  19
ATOM     19  C   UNL     1     -21.943 -15.604 -13.869  1.00  0.00    -0.016 A 
ATOM     20  C   UNL     1     -22.697 -14.454 -13.651  1.00  0.00     0.134 A 
ATOM     21  C   UNL     1     -22.476 -16.568 -13.026  1.00  0.00     0.006 A 
ATOM     22  N   UNL     1     -23.644 -14.688 -12.713  1.00  0.00    -0.191 N 
ATOM     23  C   UNL     1     -23.511 -15.974 -12.340  1.00  0.00     0.087 A 
ATOM     24  C   UNL     1     -22.126 -17.904 -12.798  1.00  0.00     0.011 A 
ATOM     25  C   UNL     1     -24.264 -16.666 -11.394  1.00  0.00     0.030 A 
ATOM     26  C   UNL     1     -22.879 -18.628 -11.858  1.00  0.00     0.001 A 
ATOM     27  C   UNL     1     -23.941 -18.014 -11.159  1.00  0.00     0.002 A 
BRANCH  22  28
ATOM     28  O   UNL     1     -24.554 -13.789 -12.183  1.00  0.00    -0.417 OA
ATOM     29  C   UNL     1     -25.552 -14.178 -11.248  1.00  0.00     0.313 C 
ENDBRANCH  22  28
ENDBRANCH  18  19
ENDBRANCH   7  18
ENDBRANCH   4   7
ENDBRANCH   2   3
BRANCH   2  30
ATOM     30  N   UNL     1     -15.757 -15.415 -16.879  1.00  0.00    -0.343 N 
ATOM     31  C   UNL     1     -15.012 -16.281 -15.999  1.00  0.00     0.243 C 
ATOM     32  H   UNL     1     -15.222 -14.576 -17.203  1.00  0.00     0.164 HD
ATOM     33  O   UNL     1     -13.828 -15.945 -15.731  1.00  0.00    -0.273 OA
BRANCH  31  34
ATOM     34  C   UNL     1     -15.531 -17.594 -15.430  1.00  0.00     0.174 C 
ATOM     35  N   UNL     1     -16.160 -17.484 -14.094  1.00  0.00    -0.329 N 
ATOM     36  C   UNL     1     -14.423 -18.665 -15.374  1.00  0.00     0.035 C 
ATOM     37  C   UNL     1     -16.816 -18.733 -13.671  1.00  0.00     0.120 C 
ATOM     38  C   UNL     1     -14.995 -20.000 -14.878  1.00  0.00     0.004 C 
ATOM     39  C   UNL     1     -15.760 -19.835 -13.548  1.00  0.00     0.022 C 
BRANCH  35  40
ATOM     40  C   UNL     1     -15.694 -16.543 -13.089  1.00  0.00     0.246 CG0
ATOM     41  O   UNL     1     -14.461 -16.299 -12.985  1.00  0.00    -0.272 OA
ATOM     42  G   UNL     1     -16.670 -15.738 -12.236  1.00  0.00     0.000 G0
ENDBRANCH  35  40
ENDBRANCH  31  34
ENDBRANCH   2  30
ENDBRANCH   1   2
BRANCH   1  43
ATOM     43  C   UNL     1     -16.334 -15.893 -19.888  1.00  0.00     0.003 C 
BRANCH  43  44
ATOM     44  C   UNL     1     -16.844 -14.755 -20.800  1.00  0.00     0.001 C 
BRANCH  44  45
ATOM     45  C   UNL     1     -15.756 -13.808 -21.348  1.00  0.00     0.008 C 
BRANCH  45  46
ATOM     46  C   UNL     1     -16.267 -12.827 -22.421  1.00  0.00     0.075 C 
BRANCH  46  47
ATOM     47  C   UNL     1     -15.817 -13.201 -23.809  1.00  0.00     0.132 C 
ATOM     48  O   UNL     1     -16.363 -14.123 -24.402  1.00  0.00    -0.300 OA
BRANCH  47  49
ATOM     49  C   UNL     1     -14.622 -12.515 -24.425  1.00  0.00     0.072 C 
ATOM     50  C   UNL     1     -14.061 -11.419 -23.519  1.00  0.00     0.012 C 
ENDBRANCH  47  49
ENDBRANCH  46  47
ENDBRANCH  45  46
ENDBRANCH  44  45
ENDBRANCH  43  44
ENDBRANCH   1  43
TORSDOF 12
ENDMDL
MODEL 7
REMARK VINA RESULT:    89.531      5.045      9.446
REMARK INTER + INTRA:         191.314
REMARK INTER:                 186.217
REMARK INTRA:                   5.097
REMARK UNBOUND:                 2.338
REMARK SMILES CCC(=O)CCCCC[C@@H]1NC(=O)[C@H]2CCCCN2C(=O)[C@@H]([C@H](C)CC)NC(=O)[C@H](Cc2cn(OC)c3ccccc23)NC1=O
REMARK SMILES IDX 9 1 10 2 44 3 43 4 45 6 30 7 28 8 27 9 29 11 22 12 23 14
REMARK SMILES IDX 24 15 25 16 26 17 31 18 32 19 33 20 42 21 34 22 37 23 41 24
REMARK SMILES IDX 38 25 40 26 39 27 35 28 36 29 11 30 12 31 13 33 14 34 19 35
REMARK SMILES IDX 15 36 18 37 16 38 17 39 20 40 21 41 8 43 7 44 6 45 5 46 3 47
REMARK SMILES IDX 4 48 2 49 1 50
REMARK H PARENT 43 5 27 10 11 32
REMARK Flexibility Score: 80.00
ROOT
ATOM      1  C   UNL     1     -17.305 -16.608 -18.386  1.00  0.00     0.035 C 
ENDROOT
BRANCH   1   2
ATOM      2  C   UNL     1     -16.879 -15.563 -17.324  1.00  0.00     0.171 C 
BRANCH   2   3
ATOM      3  C   UNL     1     -17.824 -15.306 -16.174  1.00  0.00     0.243 C 
ATOM      4  N   UNL     1     -18.313 -13.970 -15.964  1.00  0.00    -0.342 N 
ATOM      5  H   UNL     1     -17.982 -13.215 -16.609  1.00  0.00     0.164 HD
ATOM      6  O   UNL     1     -18.181 -16.239 -15.408  1.00  0.00    -0.273 OA
BRANCH   4   7
ATOM      7  C   UNL     1     -19.161 -13.562 -14.843  1.00  0.00     0.175 C 
BRANCH   7   8
ATOM      8  C   UNL     1     -18.669 -14.220 -13.580  1.00  0.00     0.243 C 
ATOM      9  N   UNL     1     -17.283 -14.566 -13.478  1.00  0.00    -0.342 N 
ATOM     10  H   UNL     1     -16.640 -14.243 -14.237  1.00  0.00     0.164 HD
ATOM     11  O   UNL     1     -19.472 -14.524 -12.660  1.00  0.00    -0.273 OA
BRANCH   9  12
ATOM     12  C   UNL     1     -16.811 -15.631 -12.598  1.00  0.00     0.174 CG0
ATOM     13  G   UNL     1     -15.730 -16.407 -13.345  1.00  0.00     0.000 G0
BRANCH  12  14
ATOM     14  C   UNL     1     -16.310 -15.038 -11.246  1.00  0.00     0.018 C 
ATOM     15  C   UNL     1     -14.787 -14.788 -11.262  1.00  0.00     0.010 C 
BRANCH  14  16
ATOM     16  C   UNL     1     -16.717 -15.898 -10.020  1.00  0.00     0.002 C 
ATOM     17  C   UNL     1     -15.962 -17.225  -9.906  1.00  0.00     0.004 C 
ENDBRANCH  14  16
ENDBRANCH  12  14
ENDBRANCH   9  12
ENDBRANCH   7   8
BRANCH   7  18
ATOM     18  C   UNL     1     -20.654 -13.824 -15.158  1.00  0.00     0.073 C 
BRANCH  18  19
ATOM     19  C   UNL     1     -21.031 -15.256 -14.891  1.00  0.00    -0.016 A 
ATOM     20  C   UNL     1     -20.599 -16.367 -15.610  1.00  0.00     0.134 A 
ATOM     21  C   UNL     1     -21.884 -15.749 -13.914  1.00  0.00     0.006 A 
ATOM     22  N   UNL     1     -21.163 -17.492 -15.112  1.00  0.00    -0.191 N 
ATOM     23  C   UNL     1     -21.936 -17.114 -14.079  1.00  0.00     0.087 A 
ATOM     24  C   UNL     1     -22.623 -15.109 -12.912  1.00  0.00     0.011 A 
ATOM     25  C   UNL     1     -22.718 -17.927 -13.261  1.00  0.00     0.030 A 
ATOM     26  C   UNL     1     -23.408 -15.909 -12.065  1.00  0.00     0.001 A 
ATOM     27  C   UNL     1     -23.457 -17.309 -12.237  1.00  0.00     0.002 A 
BRANCH  22  28
ATOM     28  O   UNL     1     -21.029 -18.788 -15.582  1.00  0.00    -0.417 OA
ATOM     29  C   UNL     1     -20.173 -19.119 -16.668  1.00  0.00     0.313 C 
ENDBRANCH  22  28
ENDBRANCH  18  19
ENDBRANCH   7  18
ENDBRANCH   4   7
ENDBRANCH   2   3
BRANCH   2  30
ATOM     30  N   UNL     1     -15.460 -15.638 -16.950  1.00  0.00    -0.343 N 
ATOM     31  C   UNL     1     -14.739 -16.559 -16.106  1.00  0.00     0.243 C 
ATOM     32  H   UNL     1     -14.865 -14.878 -17.355  1.00  0.00     0.164 HD
ATOM     33  O   UNL     1     -13.505 -16.357 -15.959  1.00  0.00    -0.273 OA
BRANCH  31  34
ATOM     34  C   UNL     1     -15.349 -17.784 -15.440  1.00  0.00     0.174 C 
ATOM     35  N   UNL     1     -16.122 -17.500 -14.211  1.00  0.00    -0.329 N 
ATOM     36  C   UNL     1     -14.278 -18.848 -15.122  1.00  0.00     0.035 C 
ATOM     37  C   UNL     1     -16.850 -18.680 -13.711  1.00  0.00     0.120 C 
ATOM     38  C   UNL     1     -14.933 -20.105 -14.531  1.00  0.00     0.004 C 
ATOM     39  C   UNL     1     -15.840 -19.765 -13.330  1.00  0.00     0.022 C 
BRANCH  35  40
ATOM     40  C   UNL     1     -15.752 -16.442 -13.285  1.00  0.00     0.246 CG0
ATOM     41  O   UNL     1     -14.540 -16.125 -13.150  1.00  0.00    -0.272 OA
ATOM     42  G   UNL     1     -16.807 -15.610 -12.561  1.00  0.00     0.000 G0
ENDBRANCH  35  40
ENDBRANCH  31  34
ENDBRANCH   2  30
ENDBRANCH   1   2
BRANCH   1  43
ATOM     43  C   UNL     1     -16.425 -16.805 -19.635  1.00  0.00     0.003 C 
BRANCH  43  44
ATOM     44  C   UNL     1     -15.848 -15.498 -20.225  1.00  0.00     0.001 C 
BRANCH  44  45
ATOM     45  C   UNL     1     -16.826 -14.674 -21.089  1.00  0.00     0.008 C 
BRANCH  45  46
ATOM     46  C   UNL     1     -16.353 -13.233 -21.363  1.00  0.00     0.075 C 
BRANCH  46  47
ATOM     47  C   UNL     1     -15.818 -13.055 -22.759  1.00  0.00     0.132 C 
ATOM     48  O   UNL     1     -16.248 -13.747 -23.673  1.00  0.00    -0.300 OA
BRANCH  47  49
ATOM     49  C   UNL     1     -14.674 -12.103 -23.012  1.00  0.00     0.072 C 
ATOM     50  C   UNL     1     -14.198 -12.154 -24.463  1.00  0.00     0.012 C 
ENDBRANCH  47  49
ENDBRANCH  46  47
ENDBRANCH  45  46
ENDBRANCH  44  45
ENDBRANCH  43  44
ENDBRANCH   1  43
TORSDOF 12
ENDMDL
MODEL 8
REMARK VINA RESULT:    89.736      4.626      9.881
REMARK INTER + INTRA:         191.749
REMARK INTER:                 188.710
REMARK INTRA:                   3.038
REMARK UNBOUND:                 2.338
REMARK SMILES CCC(=O)CCCCC[C@@H]1NC(=O)[C@H]2CCCCN2C(=O)[C@@H]([C@H](C)CC)NC(=O)[C@H](Cc2cn(OC)c3ccccc23)NC1=O
REMARK SMILES IDX 9 1 10 2 44 3 43 4 45 6 30 7 28 8 27 9 29 11 22 12 23 14
REMARK SMILES IDX 24 15 25 16 26 17 31 18 32 19 33 20 42 21 34 22 37 23 41 24
REMARK SMILES IDX 38 25 40 26 39 27 35 28 36 29 11 30 12 31 13 33 14 34 19 35
REMARK SMILES IDX 15 36 18 37 16 38 17 39 20 40 21 41 8 43 7 44 6 45 5 46 3 47
REMARK SMILES IDX 4 48 2 49 1 50
REMARK H PARENT 43 5 27 10 11 32
REMARK Flexibility Score: 80.00
ROOT
ATOM      1  C   UNL     1     -17.205 -16.337 -19.032  1.00  0.00     0.035 C 
ENDROOT
BRANCH   1   2
ATOM      2  C   UNL     1     -17.149 -15.520 -17.717  1.00  0.00     0.171 C 
BRANCH   2   3
ATOM      3  C   UNL     1     -18.185 -15.822 -16.659  1.00  0.00     0.243 C 
ATOM      4  N   UNL     1     -18.792 -14.728 -15.950  1.00  0.00    -0.342 N 
ATOM      5  H   UNL     1     -18.482 -13.756 -16.182  1.00  0.00     0.164 HD
ATOM      6  O   UNL     1     -18.515 -17.008 -16.396  1.00  0.00    -0.273 OA
BRANCH   4   7
ATOM      7  C   UNL     1     -19.742 -14.876 -14.846  1.00  0.00     0.175 C 
BRANCH   7   8
ATOM      8  C   UNL     1     -18.986 -15.173 -13.576  1.00  0.00     0.243 C 
ATOM      9  N   UNL     1     -17.569 -14.970 -13.554  1.00  0.00    -0.342 N 
ATOM     10  H   UNL     1     -17.126 -14.512 -14.384  1.00  0.00     0.164 HD
ATOM     11  O   UNL     1     -19.577 -15.654 -12.575  1.00  0.00    -0.273 OA
BRANCH   9  12
ATOM     12  C   UNL     1     -16.695 -15.688 -12.631  1.00  0.00     0.174 CG0
ATOM     13  G   UNL     1     -15.612 -16.378 -13.455  1.00  0.00     0.000 G0
BRANCH  12  14
ATOM     14  C   UNL     1     -16.118 -14.715 -11.559  1.00  0.00     0.018 C 
ATOM     15  C   UNL     1     -14.574 -14.726 -11.552  1.00  0.00     0.010 C 
BRANCH  14  16
ATOM     16  C   UNL     1     -16.679 -14.977 -10.137  1.00  0.00     0.002 C 
ATOM     17  C   UNL     1     -15.934 -16.065  -9.358  1.00  0.00     0.004 C 
ENDBRANCH  14  16
ENDBRANCH  12  14
ENDBRANCH   9  12
ENDBRANCH   7   8
BRANCH   7  18
ATOM     18  C   UNL     1     -20.833 -15.917 -15.195  1.00  0.00     0.073 C 
BRANCH  18  19
ATOM     19  C   UNL     1     -21.715 -16.210 -14.013  1.00  0.00    -0.016 A 
ATOM     20  C   UNL     1     -21.624 -17.319 -13.175  1.00  0.00     0.134 A 
ATOM     21  C   UNL     1     -22.789 -15.469 -13.541  1.00  0.00     0.006 A 
ATOM     22  N   UNL     1     -22.597 -17.274 -12.236  1.00  0.00    -0.191 N 
ATOM     23  C   UNL     1     -23.298 -16.148 -12.457  1.00  0.00     0.087 A 
ATOM     24  C   UNL     1     -23.362 -14.272 -13.984  1.00  0.00     0.011 A 
ATOM     25  C   UNL     1     -24.401 -15.680 -11.744  1.00  0.00     0.030 A 
ATOM     26  C   UNL     1     -24.467 -13.772 -13.273  1.00  0.00     0.001 A 
ATOM     27  C   UNL     1     -24.984 -14.470 -12.161  1.00  0.00     0.002 A 
BRANCH  22  28
ATOM     28  O   UNL     1     -22.875 -18.213 -11.257  1.00  0.00    -0.417 OA
ATOM     29  C   UNL     1     -23.235 -19.553 -11.566  1.00  0.00     0.313 C 
ENDBRANCH  22  28
ENDBRANCH  18  19
ENDBRANCH   7  18
ENDBRANCH   4   7
ENDBRANCH   2   3
BRANCH   2  30
ATOM     30  N   UNL     1     -15.789 -15.308 -17.204  1.00  0.00    -0.343 N 
ATOM     31  C   UNL     1     -14.965 -16.094 -16.319  1.00  0.00     0.243 C 
ATOM     32  H   UNL     1     -15.340 -14.417 -17.523  1.00  0.00     0.164 HD
ATOM     33  O   UNL     1     -13.824 -15.640 -16.042  1.00  0.00    -0.273 OA
BRANCH  31  34
ATOM     34  C   UNL     1     -15.351 -17.454 -15.755  1.00  0.00     0.174 C 
ATOM     35  N   UNL     1     -16.006 -17.412 -14.428  1.00  0.00    -0.329 N 
ATOM     36  C   UNL     1     -14.137 -18.403 -15.683  1.00  0.00     0.035 C 
ATOM     37  C   UNL     1     -16.532 -18.723 -14.011  1.00  0.00     0.120 C 
ATOM     38  C   UNL     1     -14.572 -19.791 -15.193  1.00  0.00     0.004 C 
ATOM     39  C   UNL     1     -15.368 -19.708 -13.874  1.00  0.00     0.022 C 
BRANCH  35  40
ATOM     40  C   UNL     1     -15.655 -16.427 -13.418  1.00  0.00     0.246 CG0
ATOM     41  O   UNL     1     -14.452 -16.075 -13.279  1.00  0.00    -0.272 OA
ATOM     42  G   UNL     1     -16.723 -15.705 -12.602  1.00  0.00     0.000 G0
ENDBRANCH  35  40
ENDBRANCH  31  34
ENDBRANCH   2  30
ENDBRANCH   1   2
BRANCH   1  43
ATOM     43  C   UNL     1     -16.375 -15.864 -20.240  1.00  0.00     0.003 C 
BRANCH  43  44
ATOM     44  C   UNL     1     -16.585 -14.380 -20.620  1.00  0.00     0.001 C 
BRANCH  44  45
ATOM     45  C   UNL     1     -16.132 -13.992 -22.044  1.00  0.00     0.008 C 
BRANCH  45  46
ATOM     46  C   UNL     1     -17.184 -13.191 -22.836  1.00  0.00     0.075 C 
BRANCH  46  47
ATOM     47  C   UNL     1     -17.330 -13.671 -24.255  1.00  0.00     0.132 C 
ATOM     48  O   UNL     1     -16.370 -14.162 -24.838  1.00  0.00    -0.300 OA
BRANCH  47  49
ATOM     49  C   UNL     1     -18.625 -13.448 -24.998  1.00  0.00     0.072 C 
ATOM     50  C   UNL     1     -19.788 -13.169 -24.047  1.00  0.00     0.012 C 
ENDBRANCH  47  49
ENDBRANCH  46  47
ENDBRANCH  45  46
ENDBRANCH  44  45
ENDBRANCH  43  44
ENDBRANCH   1  43
TORSDOF 12
ENDMDL
