MODEL 1
REMARK VINA RESULT:    -3.004      0.000      0.000
REMARK INTER + INTRA:          -3.507
REMARK INTER:                  -3.444
REMARK INTRA:                  -0.063
REMARK UNBOUND:                -0.063
REMARK SMILES CC(C)[C@@H]([NH3+])C(=O)[O-]
REMARK SMILES IDX 4 1 5 2 6 6 7 7 8 8 2 9 1 10 3 11
REMARK H PARENT 5 3 5 4 5 5
REMARK Flexibility Score: inf
ROOT
ATOM      1  C   UNL     1      -4.342   4.355   0.926  1.00  0.00     0.230 C 
ENDROOT
BRANCH   1   2
ATOM      2  N   UNL     1      -5.319   3.571   1.698  1.00  0.00    -0.350 N 
ATOM      3  H   UNL     1      -4.901   2.664   2.011  1.00  0.00     0.345 HD
ATOM      4  H   UNL     1      -5.629   4.111   2.539  1.00  0.00     0.345 HD
ATOM      5  H   UNL     1      -6.170   3.385   1.121  1.00  0.00     0.345 HD
ENDBRANCH   1   2
BRANCH   1   6
ATOM      6  C   UNL     1      -3.504   3.424   0.084  1.00  0.00     0.099 C 
ATOM      7  O   UNL     1      -4.053   2.556  -0.644  1.00  0.00    -0.544 OA
ATOM      8  O   UNL     1      -2.119   3.528   0.103  1.00  0.00    -0.544 OA
ENDBRANCH   1   6
BRANCH   1   9
ATOM      9  C   UNL     1      -5.034   5.435   0.040  1.00  0.00     0.047 C 
ATOM     10  C   UNL     1      -6.246   6.066   0.746  1.00  0.00     0.014 C 
ATOM     11  C   UNL     1      -4.046   6.548  -0.355  1.00  0.00     0.014 C 
ENDBRANCH   1   9
TORSDOF 3
ENDMDL
MODEL 2
REMARK VINA RESULT:    -2.902      1.203      1.894
REMARK INTER + INTRA:          -3.389
REMARK INTER:                  -3.330
REMARK INTRA:                  -0.060
REMARK UNBOUND:                -0.063
REMARK SMILES CC(C)[C@@H]([NH3+])C(=O)[O-]
REMARK SMILES IDX 4 1 5 2 6 6 7 7 8 8 2 9 1 10 3 11
REMARK H PARENT 5 3 5 4 5 5
REMARK Flexibility Score: inf
ROOT
ATOM      1  C   UNL     1      -4.484   3.951   0.407  1.00  0.00     0.230 C 
ENDROOT
BRANCH   1   2
ATOM      2  N   UNL     1      -5.563   3.832  -0.585  1.00  0.00    -0.350 N 
ATOM      3  H   UNL     1      -6.491   4.041  -0.150  1.00  0.00     0.345 HD
ATOM      4  H   UNL     1      -5.401   4.499  -1.376  1.00  0.00     0.345 HD
ATOM      5  H   UNL     1      -5.576   2.870  -0.992  1.00  0.00     0.345 HD
ENDBRANCH   1   2
BRANCH   1   6
ATOM      6  C   UNL     1      -3.284   3.163  -0.060  1.00  0.00     0.099 C 
ATOM      7  O   UNL     1      -2.122   3.630   0.077  1.00  0.00    -0.544 OA
ATOM      8  O   UNL     1      -3.457   1.911  -0.637  1.00  0.00    -0.544 OA
ENDBRANCH   1   6
BRANCH   1   9
ATOM      9  C   UNL     1      -4.101   5.439   0.674  1.00  0.00     0.047 C 
ATOM     10  C   UNL     1      -4.419   6.338  -0.532  1.00  0.00     0.014 C 
ATOM     11  C   UNL     1      -4.828   5.987   1.915  1.00  0.00     0.014 C 
ENDBRANCH   1   9
TORSDOF 3
ENDMDL
MODEL 3
REMARK VINA RESULT:    -2.722      2.160      2.294
REMARK INTER + INTRA:          -3.183
REMARK INTER:                  -3.115
REMARK INTRA:                  -0.068
REMARK UNBOUND:                -0.063
REMARK SMILES CC(C)[C@@H]([NH3+])C(=O)[O-]
REMARK SMILES IDX 4 1 5 2 6 6 7 7 8 8 2 9 1 10 3 11
REMARK H PARENT 5 3 5 4 5 5
REMARK Flexibility Score: inf
ROOT
ATOM      1  C   UNL     1      -5.004   4.131  -0.144  1.00  0.00     0.230 C 
ENDROOT
BRANCH   1   2
ATOM      2  N   UNL     1      -4.251   3.938   1.105  1.00  0.00    -0.350 N 
ATOM      3  H   UNL     1      -3.221   3.978   0.926  1.00  0.00     0.345 HD
ATOM      4  H   UNL     1      -4.505   4.682   1.797  1.00  0.00     0.345 HD
ATOM      5  H   UNL     1      -4.496   3.019   1.537  1.00  0.00     0.345 HD
ENDBRANCH   1   2
BRANCH   1   6
ATOM      6  C   UNL     1      -6.242   3.268  -0.121  1.00  0.00     0.099 C 
ATOM      7  O   UNL     1      -6.914   3.089  -1.172  1.00  0.00    -0.544 OA
ATOM      8  O   UNL     1      -6.643   2.658   1.062  1.00  0.00    -0.544 OA
ENDBRANCH   1   6
BRANCH   1   9
ATOM      9  C   UNL     1      -5.375   5.628  -0.375  1.00  0.00     0.047 C 
ATOM     10  C   UNL     1      -6.406   6.127   0.652  1.00  0.00     0.014 C 
ATOM     11  C   UNL     1      -4.127   6.527  -0.312  1.00  0.00     0.014 C 
ENDBRANCH   1   9
TORSDOF 3
ENDMDL
MODEL 4
REMARK VINA RESULT:    -2.696      1.448      1.792
REMARK INTER + INTRA:          -3.153
REMARK INTER:                  -3.093
REMARK INTRA:                  -0.060
REMARK UNBOUND:                -0.063
REMARK SMILES CC(C)[C@@H]([NH3+])C(=O)[O-]
REMARK SMILES IDX 4 1 5 2 6 6 7 7 8 8 2 9 1 10 3 11
REMARK H PARENT 5 3 5 4 5 5
REMARK Flexibility Score: inf
ROOT
ATOM      1  C   UNL     1      -4.768   4.165   0.400  1.00  0.00     0.230 C 
ENDROOT
BRANCH   1   2
ATOM      2  N   UNL     1      -5.094   3.960   1.820  1.00  0.00    -0.350 N 
ATOM      3  H   UNL     1      -6.032   4.365   2.047  1.00  0.00     0.345 HD
ATOM      4  H   UNL     1      -5.103   2.937   2.043  1.00  0.00     0.345 HD
ATOM      5  H   UNL     1      -4.366   4.401   2.426  1.00  0.00     0.345 HD
ENDBRANCH   1   2
BRANCH   1   6
ATOM      6  C   UNL     1      -5.357   3.042  -0.418  1.00  0.00     0.099 C 
ATOM      7  O   UNL     1      -5.106   1.842  -0.127  1.00  0.00    -0.544 OA
ATOM      8  O   UNL     1      -6.187   3.328  -1.494  1.00  0.00    -0.544 OA
ENDBRANCH   1   6
BRANCH   1   9
ATOM      9  C   UNL     1      -5.266   5.549  -0.117  1.00  0.00     0.047 C 
ATOM     10  C   UNL     1      -6.291   6.183   0.840  1.00  0.00     0.014 C 
ATOM     11  C   UNL     1      -4.093   6.525  -0.315  1.00  0.00     0.014 C 
ENDBRANCH   1   9
TORSDOF 3
ENDMDL
MODEL 5
REMARK VINA RESULT:    -2.667      1.990      2.422
REMARK INTER + INTRA:          -3.120
REMARK INTER:                  -3.046
REMARK INTRA:                  -0.074
REMARK UNBOUND:                -0.063
REMARK SMILES CC(C)[C@@H]([NH3+])C(=O)[O-]
REMARK SMILES IDX 4 1 5 2 6 6 7 7 8 8 2 9 1 10 3 11
REMARK H PARENT 5 3 5 4 5 5
REMARK Flexibility Score: inf
ROOT
ATOM      1  C   UNL     1      -4.587   4.256   0.381  1.00  0.00     0.230 C 
ENDROOT
BRANCH   1   2
ATOM      2  N   UNL     1      -3.165   3.951   0.159  1.00  0.00    -0.350 N 
ATOM      3  H   UNL     1      -2.619   4.064   1.044  1.00  0.00     0.345 HD
ATOM      4  H   UNL     1      -3.057   2.969  -0.186  1.00  0.00     0.345 HD
ATOM      5  H   UNL     1      -2.772   4.580  -0.578  1.00  0.00     0.345 HD
ENDBRANCH   1   2
BRANCH   1   6
ATOM      6  C   UNL     1      -5.098   3.441   1.544  1.00  0.00     0.099 C 
ATOM      7  O   UNL     1      -5.835   2.439   1.345  1.00  0.00    -0.544 OA
ATOM      8  O   UNL     1      -4.750   3.790   2.844  1.00  0.00    -0.544 OA
ENDBRANCH   1   6
BRANCH   1   9
ATOM      9  C   UNL     1      -4.825   5.778   0.622  1.00  0.00     0.047 C 
ATOM     10  C   UNL     1      -4.070   6.645  -0.400  1.00  0.00     0.014 C 
ATOM     11  C   UNL     1      -6.324   6.124   0.564  1.00  0.00     0.014 C 
ENDBRANCH   1   9
TORSDOF 3
ENDMDL
MODEL 6
REMARK VINA RESULT:    -2.576      2.053      2.478
REMARK INTER + INTRA:          -3.016
REMARK INTER:                  -3.101
REMARK INTRA:                   0.085
REMARK UNBOUND:                -0.063
REMARK SMILES CC(C)[C@@H]([NH3+])C(=O)[O-]
REMARK SMILES IDX 4 1 5 2 6 6 7 7 8 8 2 9 1 10 3 11
REMARK H PARENT 5 3 5 4 5 5
REMARK Flexibility Score: inf
ROOT
ATOM      1  C   UNL     1      -5.503   5.810  -0.419  1.00  0.00     0.230 C 
ENDROOT
BRANCH   1   2
ATOM      2  N   UNL     1      -4.130   6.339  -0.455  1.00  0.00    -0.350 N 
ATOM      3  H   UNL     1      -4.093   7.233  -0.998  1.00  0.00     0.345 HD
ATOM      4  H   UNL     1      -3.788   6.517   0.517  1.00  0.00     0.345 HD
ATOM      5  H   UNL     1      -3.485   5.640  -0.886  1.00  0.00     0.345 HD
ENDBRANCH   1   2
BRANCH   1   6
ATOM      6  C   UNL     1      -5.461   4.302  -0.478  1.00  0.00     0.099 C 
ATOM      7  O   UNL     1      -6.204   3.675  -1.278  1.00  0.00    -0.544 OA
ATOM      8  O   UNL     1      -4.592   3.598   0.347  1.00  0.00    -0.544 OA
ENDBRANCH   1   6
BRANCH   1   9
ATOM      9  C   UNL     1      -6.280   6.295   0.843  1.00  0.00     0.047 C 
ATOM     10  C   UNL     1      -7.485   5.392   1.155  1.00  0.00     0.014 C 
ATOM     11  C   UNL     1      -5.361   6.350   2.076  1.00  0.00     0.014 C 
ENDBRANCH   1   9
TORSDOF 3
ENDMDL
MODEL 7
REMARK VINA RESULT:    -2.519      2.950      3.376
REMARK INTER + INTRA:          -2.951
REMARK INTER:                  -2.895
REMARK INTRA:                  -0.056
REMARK UNBOUND:                -0.063
REMARK SMILES CC(C)[C@@H]([NH3+])C(=O)[O-]
REMARK SMILES IDX 4 1 5 2 6 6 7 7 8 8 2 9 1 10 3 11
REMARK H PARENT 5 3 5 4 5 5
REMARK Flexibility Score: inf
ROOT
ATOM      1  C   UNL     1      -5.465   5.130   1.746  1.00  0.00     0.230 C 
ENDROOT
BRANCH   1   2
ATOM      2  N   UNL     1      -5.068   3.714   1.711  1.00  0.00    -0.350 N 
ATOM      3  H   UNL     1      -4.249   3.544   2.340  1.00  0.00     0.345 HD
ATOM      4  H   UNL     1      -5.865   3.110   2.019  1.00  0.00     0.345 HD
ATOM      5  H   UNL     1      -4.826   3.431   0.735  1.00  0.00     0.345 HD
ENDBRANCH   1   2
BRANCH   1   6
ATOM      6  C   UNL     1      -5.095   5.723   3.084  1.00  0.00     0.099 C 
ATOM      7  O   UNL     1      -4.931   4.978   4.087  1.00  0.00    -0.544 OA
ATOM      8  O   UNL     1      -4.926   7.096   3.213  1.00  0.00    -0.544 OA
ENDBRANCH   1   6
BRANCH   1   9
ATOM      9  C   UNL     1      -4.821   5.944   0.582  1.00  0.00     0.047 C 
ATOM     10  C   UNL     1      -3.485   5.331   0.126  1.00  0.00     0.014 C 
ATOM     11  C   UNL     1      -5.770   6.035  -0.626  1.00  0.00     0.014 C 
ENDBRANCH   1   9
TORSDOF 3
ENDMDL
MODEL 8
REMARK VINA RESULT:    -2.424     11.477     13.021
REMARK INTER + INTRA:          -2.841
REMARK INTER:                  -2.789
REMARK INTRA:                  -0.052
REMARK UNBOUND:                -0.063
REMARK SMILES CC(C)[C@@H]([NH3+])C(=O)[O-]
REMARK SMILES IDX 4 1 5 2 6 6 7 7 8 8 2 9 1 10 3 11
REMARK H PARENT 5 3 5 4 5 5
REMARK Flexibility Score: inf
ROOT
ATOM      1  C   UNL     1       4.956  -3.653  -0.937  1.00  0.00     0.230 C 
ENDROOT
BRANCH   1   2
ATOM      2  N   UNL     1       3.990  -4.325  -0.054  1.00  0.00    -0.350 N 
ATOM      3  H   UNL     1       4.115  -5.363  -0.089  1.00  0.00     0.345 HD
ATOM      4  H   UNL     1       4.117  -3.999   0.932  1.00  0.00     0.345 HD
ATOM      5  H   UNL     1       3.013  -4.080  -0.335  1.00  0.00     0.345 HD
ENDBRANCH   1   2
BRANCH   1   6
ATOM      6  C   UNL     1       5.024  -2.187  -0.584  1.00  0.00     0.099 C 
ATOM      7  O   UNL     1       4.059  -1.423  -0.849  1.00  0.00    -0.544 OA
ATOM      8  O   UNL     1       6.153  -1.675   0.044  1.00  0.00    -0.544 OA
ENDBRANCH   1   6
BRANCH   1   9
ATOM      9  C   UNL     1       6.369  -4.309  -0.858  1.00  0.00     0.047 C 
ATOM     10  C   UNL     1       6.293  -5.783  -0.422  1.00  0.00     0.014 C 
ATOM     11  C   UNL     1       7.099  -4.223  -2.210  1.00  0.00     0.014 C 
ENDBRANCH   1   9
TORSDOF 3
ENDMDL
MODEL 9
REMARK VINA RESULT:    -2.423      2.153      3.093
REMARK INTER + INTRA:          -2.840
REMARK INTER:                  -2.797
REMARK INTRA:                  -0.043
REMARK UNBOUND:                -0.063
REMARK SMILES CC(C)[C@@H]([NH3+])C(=O)[O-]
REMARK SMILES IDX 4 1 5 2 6 6 7 7 8 8 2 9 1 10 3 11
REMARK H PARENT 5 3 5 4 5 5
REMARK Flexibility Score: inf
ROOT
ATOM      1  C   UNL     1      -5.479   6.302   1.136  1.00  0.00     0.230 C 
ENDROOT
BRANCH   1   2
ATOM      2  N   UNL     1      -4.835   5.684   2.306  1.00  0.00    -0.350 N 
ATOM      3  H   UNL     1      -5.426   5.806   3.161  1.00  0.00     0.345 HD
ATOM      4  H   UNL     1      -4.688   4.662   2.138  1.00  0.00     0.345 HD
ATOM      5  H   UNL     1      -3.894   6.108   2.467  1.00  0.00     0.345 HD
ENDBRANCH   1   2
BRANCH   1   6
ATOM      6  C   UNL     1      -4.636   6.052  -0.090  1.00  0.00     0.099 C 
ATOM      7  O   UNL     1      -3.458   5.618   0.023  1.00  0.00    -0.544 OA
ATOM      8  O   UNL     1      -5.160   6.292  -1.355  1.00  0.00    -0.544 OA
ENDBRANCH   1   6
BRANCH   1   9
ATOM      9  C   UNL     1      -6.932   5.778   0.927  1.00  0.00     0.047 C 
ATOM     10  C   UNL     1      -6.968   4.253   0.722  1.00  0.00     0.014 C 
ATOM     11  C   UNL     1      -7.834   6.145   2.119  1.00  0.00     0.014 C 
ENDBRANCH   1   9
TORSDOF 3
ENDMDL
