MODEL 1
REMARK VINA RESULT:    -2.761      0.000      0.000
REMARK INTER + INTRA:          -3.279
REMARK INTER:                  -3.245
REMARK INTRA:                  -0.034
REMARK UNBOUND:                -0.034
REMARK SMILES O=C([O-])CCC(=O)[O-]
REMARK SMILES IDX 4 1 2 2 1 3 3 4 5 5 6 6 7 7 8 8
REMARK H PARENT
REMARK Flexibility Score: inf
ROOT
ATOM      1  C   UNL     1      63.329  49.283  14.225  1.00  0.00     0.059 C 
ENDROOT
BRANCH   1   2
ATOM      2  C   UNL     1      64.694  49.387  14.832  1.00  0.00     0.042 C 
ATOM      3  O   UNL     1      64.926  50.244  15.726  1.00  0.00    -0.550 OA
ATOM      4  O   UNL     1      65.721  48.567  14.381  1.00  0.00    -0.550 OA
ENDBRANCH   1   2
BRANCH   1   5
ATOM      5  C   UNL     1      63.336  49.676  12.745  1.00  0.00     0.059 C 
BRANCH   5   6
ATOM      6  C   UNL     1      62.283  50.697  12.439  1.00  0.00     0.042 C 
ATOM      7  O   UNL     1      62.567  51.715  11.755  1.00  0.00    -0.550 OA
ATOM      8  O   UNL     1      60.979  50.502  12.876  1.00  0.00    -0.550 OA
ENDBRANCH   5   6
ENDBRANCH   1   5
TORSDOF 3
ENDMDL
MODEL 2
REMARK VINA RESULT:    -2.725      0.113      4.092
REMARK INTER + INTRA:          -3.236
REMARK INTER:                  -3.205
REMARK INTRA:                  -0.032
REMARK UNBOUND:                -0.034
REMARK SMILES O=C([O-])CCC(=O)[O-]
REMARK SMILES IDX 4 1 2 2 1 3 3 4 5 5 6 6 7 7 8 8
REMARK H PARENT
REMARK Flexibility Score: inf
ROOT
ATOM      1  C   UNL     1      63.315  49.669  12.746  1.00  0.00     0.059 C 
ENDROOT
BRANCH   1   2
ATOM      2  C   UNL     1      62.246  50.684  12.480  1.00  0.00     0.042 C 
ATOM      3  O   UNL     1      62.534  51.777  11.923  1.00  0.00    -0.550 OA
ATOM      4  O   UNL     1      60.939  50.442  12.884  1.00  0.00    -0.550 OA
ENDBRANCH   1   2
BRANCH   1   5
ATOM      5  C   UNL     1      63.341  49.247  14.218  1.00  0.00     0.059 C 
BRANCH   5   6
ATOM      6  C   UNL     1      64.729  49.288  14.780  1.00  0.00     0.042 C 
ATOM      7  O   UNL     1      65.600  48.473  14.376  1.00  0.00    -0.550 OA
ATOM      8  O   UNL     1      65.071  50.252  15.720  1.00  0.00    -0.550 OA
ENDBRANCH   5   6
ENDBRANCH   1   5
TORSDOF 3
ENDMDL
MODEL 3
REMARK VINA RESULT:    -2.668      0.516      1.248
REMARK INTER + INTRA:          -3.169
REMARK INTER:                  -3.110
REMARK INTRA:                  -0.059
REMARK UNBOUND:                -0.034
REMARK SMILES O=C([O-])CCC(=O)[O-]
REMARK SMILES IDX 4 1 2 2 1 3 3 4 5 5 6 6 7 7 8 8
REMARK H PARENT
REMARK Flexibility Score: inf
ROOT
ATOM      1  C   UNL     1      63.644  48.845  14.386  1.00  0.00     0.059 C 
ENDROOT
BRANCH   1   2
ATOM      2  C   UNL     1      64.881  49.263  15.120  1.00  0.00     0.042 C 
ATOM      3  O   UNL     1      64.908  50.359  15.742  1.00  0.00    -0.550 OA
ATOM      4  O   UNL     1      66.017  48.465  15.082  1.00  0.00    -0.550 OA
ENDBRANCH   1   2
BRANCH   1   5
ATOM      5  C   UNL     1      63.615  49.404  12.961  1.00  0.00     0.059 C 
BRANCH   5   6
ATOM      6  C   UNL     1      62.444  50.314  12.748  1.00  0.00     0.042 C 
ATOM      7  O   UNL     1      61.308  49.999  13.188  1.00  0.00    -0.550 OA
ATOM      8  O   UNL     1      62.618  51.530  12.098  1.00  0.00    -0.550 OA
ENDBRANCH   5   6
ENDBRANCH   1   5
TORSDOF 3
ENDMDL
MODEL 4
REMARK VINA RESULT:    -2.627      0.605      4.110
REMARK INTER + INTRA:          -3.122
REMARK INTER:                  -3.077
REMARK INTRA:                  -0.045
REMARK UNBOUND:                -0.034
REMARK SMILES O=C([O-])CCC(=O)[O-]
REMARK SMILES IDX 4 1 2 2 1 3 3 4 5 5 6 6 7 7 8 8
REMARK H PARENT
REMARK Flexibility Score: inf
ROOT
ATOM      1  C   UNL     1      63.560  49.611  13.091  1.00  0.00     0.059 C 
ENDROOT
BRANCH   1   2
ATOM      2  C   UNL     1      62.386  50.445  12.680  1.00  0.00     0.042 C 
ATOM      3  O   UNL     1      61.224  50.127  13.049  1.00  0.00    -0.550 OA
ATOM      4  O   UNL     1      62.569  51.548  11.856  1.00  0.00    -0.550 OA
ENDBRANCH   1   2
BRANCH   1   5
ATOM      5  C   UNL     1      63.389  49.052  14.507  1.00  0.00     0.059 C 
BRANCH   5   6
ATOM      6  C   UNL     1      64.652  49.169  15.303  1.00  0.00     0.042 C 
ATOM      7  O   UNL     1      65.037  50.292  15.721  1.00  0.00    -0.550 OA
ATOM      8  O   UNL     1      65.384  48.030  15.617  1.00  0.00    -0.550 OA
ENDBRANCH   5   6
ENDBRANCH   1   5
TORSDOF 3
ENDMDL
MODEL 5
REMARK VINA RESULT:    -2.570     21.340     22.303
REMARK INTER + INTRA:          -3.054
REMARK INTER:                  -2.978
REMARK INTRA:                  -0.077
REMARK UNBOUND:                -0.034
REMARK SMILES O=C([O-])CCC(=O)[O-]
REMARK SMILES IDX 4 1 2 2 1 3 3 4 5 5 6 6 7 7 8 8
REMARK H PARENT
REMARK Flexibility Score: inf
ROOT
ATOM      1  C   UNL     1      48.666  36.780  22.978  1.00  0.00     0.059 C 
ENDROOT
BRANCH   1   2
ATOM      2  C   UNL     1      47.910  35.689  23.671  1.00  0.00     0.042 C 
ATOM      3  O   UNL     1      47.318  35.922  24.759  1.00  0.00    -0.550 OA
ATOM      4  O   UNL     1      47.893  34.406  23.139  1.00  0.00    -0.550 OA
ENDBRANCH   1   2
BRANCH   1   5
ATOM      5  C   UNL     1      49.618  37.505  23.935  1.00  0.00     0.059 C 
BRANCH   5   6
ATOM      6  C   UNL     1      51.015  36.975  23.831  1.00  0.00     0.042 C 
ATOM      7  O   UNL     1      51.264  35.985  23.095  1.00  0.00    -0.550 OA
ATOM      8  O   UNL     1      52.049  37.601  24.517  1.00  0.00    -0.550 OA
ENDBRANCH   5   6
ENDBRANCH   1   5
TORSDOF 3
ENDMDL
MODEL 6
REMARK VINA RESULT:    -2.407      1.948      2.303
REMARK INTER + INTRA:          -2.863
REMARK INTER:                  -2.766
REMARK INTRA:                  -0.097
REMARK UNBOUND:                -0.034
REMARK SMILES O=C([O-])CCC(=O)[O-]
REMARK SMILES IDX 4 1 2 2 1 3 3 4 5 5 6 6 7 7 8 8
REMARK H PARENT
REMARK Flexibility Score: inf
ROOT
ATOM      1  C   UNL     1      62.153  50.313  12.783  1.00  0.00     0.059 C 
ENDROOT
BRANCH   1   2
ATOM      2  C   UNL     1      63.412  49.624  13.212  1.00  0.00     0.042 C 
ATOM      3  O   UNL     1      63.936  49.899  14.325  1.00  0.00    -0.550 OA
ATOM      4  O   UNL     1      64.029  48.711  12.367  1.00  0.00    -0.550 OA
ENDBRANCH   1   2
BRANCH   1   5
ATOM      5  C   UNL     1      62.419  51.338  11.677  1.00  0.00     0.059 C 
BRANCH   5   6
ATOM      6  C   UNL     1      62.053  50.801  10.327  1.00  0.00     0.042 C 
ATOM      7  O   UNL     1      62.906  50.778   9.401  1.00  0.00    -0.550 OA
ATOM      8  O   UNL     1      60.780  50.290  10.104  1.00  0.00    -0.550 OA
ENDBRANCH   5   6
ENDBRANCH   1   5
TORSDOF 3
ENDMDL
MODEL 7
REMARK VINA RESULT:    -2.371      3.196      4.032
REMARK INTER + INTRA:          -2.820
REMARK INTER:                  -2.700
REMARK INTRA:                  -0.120
REMARK UNBOUND:                -0.034
REMARK SMILES O=C([O-])CCC(=O)[O-]
REMARK SMILES IDX 4 1 2 2 1 3 3 4 5 5 6 6 7 7 8 8
REMARK H PARENT
REMARK Flexibility Score: inf
ROOT
ATOM      1  C   UNL     1      66.304  47.498  13.991  1.00  0.00     0.059 C 
ENDROOT
BRANCH   1   2
ATOM      2  C   UNL     1      66.058  47.734  12.532  1.00  0.00     0.042 C 
ATOM      3  O   UNL     1      64.882  47.881  12.105  1.00  0.00    -0.550 OA
ATOM      4  O   UNL     1      67.122  47.749  11.640  1.00  0.00    -0.550 OA
ENDBRANCH   1   2
BRANCH   1   5
ATOM      5  C   UNL     1      66.404  48.815  14.767  1.00  0.00     0.059 C 
BRANCH   5   6
ATOM      6  C   UNL     1      65.102  49.173  15.416  1.00  0.00     0.042 C 
ATOM      7  O   UNL     1      64.874  50.360  15.766  1.00  0.00    -0.550 OA
ATOM      8  O   UNL     1      64.125  48.201  15.597  1.00  0.00    -0.550 OA
ENDBRANCH   5   6
ENDBRANCH   1   5
TORSDOF 3
ENDMDL
MODEL 8
REMARK VINA RESULT:    -2.344      1.761      4.284
REMARK INTER + INTRA:          -2.789
REMARK INTER:                  -2.676
REMARK INTRA:                  -0.113
REMARK UNBOUND:                -0.034
REMARK SMILES O=C([O-])CCC(=O)[O-]
REMARK SMILES IDX 4 1 2 2 1 3 3 4 5 5 6 6 7 7 8 8
REMARK H PARENT
REMARK Flexibility Score: inf
ROOT
ATOM      1  C   UNL     1      62.503  51.108  11.960  1.00  0.00     0.059 C 
ENDROOT
BRANCH   1   2
ATOM      2  C   UNL     1      62.031  50.646  10.615  1.00  0.00     0.042 C 
ATOM      3  O   UNL     1      60.817  50.756  10.298  1.00  0.00    -0.550 OA
ATOM      4  O   UNL     1      62.923  50.058   9.727  1.00  0.00    -0.550 OA
ENDBRANCH   1   2
BRANCH   1   5
ATOM      5  C   UNL     1      62.365  50.006  13.015  1.00  0.00     0.059 C 
BRANCH   5   6
ATOM      6  C   UNL     1      63.702  49.491  13.454  1.00  0.00     0.042 C 
ATOM      7  O   UNL     1      64.365  48.729  12.703  1.00  0.00    -0.550 OA
ATOM      8  O   UNL     1      64.231  49.886  14.677  1.00  0.00    -0.550 OA
ENDBRANCH   5   6
ENDBRANCH   1   5
TORSDOF 3
ENDMDL
MODEL 9
REMARK VINA RESULT:    -2.307      7.579      8.295
REMARK INTER + INTRA:          -2.746
REMARK INTER:                  -2.654
REMARK INTRA:                  -0.092
REMARK UNBOUND:                -0.034
REMARK SMILES O=C([O-])CCC(=O)[O-]
REMARK SMILES IDX 4 1 2 2 1 3 3 4 5 5 6 6 7 7 8 8
REMARK H PARENT
REMARK Flexibility Score: inf
ROOT
ATOM      1  C   UNL     1      61.344  52.093  20.956  1.00  0.00     0.059 C 
ENDROOT
BRANCH   1   2
ATOM      2  C   UNL     1      62.361  53.004  20.340  1.00  0.00     0.042 C 
ATOM      3  O   UNL     1      62.216  53.405  19.154  1.00  0.00    -0.550 OA
ATOM      4  O   UNL     1      63.489  53.377  21.060  1.00  0.00    -0.550 OA
ENDBRANCH   1   2
BRANCH   1   5
ATOM      5  C   UNL     1      60.172  52.877  21.554  1.00  0.00     0.059 C 
BRANCH   5   6
ATOM      6  C   UNL     1      58.997  52.909  20.625  1.00  0.00     0.042 C 
ATOM      7  O   UNL     1      58.495  51.835  20.201  1.00  0.00    -0.550 OA
ATOM      8  O   UNL     1      58.433  54.125  20.259  1.00  0.00    -0.550 OA
ENDBRANCH   5   6
ENDBRANCH   1   5
TORSDOF 3
ENDMDL
