MODEL 1
REMARK VINA RESULT:    -4.246      0.000      0.000
REMARK INTER + INTRA:          -5.939
REMARK INTER:                  -6.480
REMARK INTRA:                   0.541
REMARK UNBOUND:                 0.541
REMARK SMILES CC1=CCC[C@H](C)C(=O)C[C@@H](C(C)C)C(=O)C1
REMARK SMILES IDX 8 1 9 2 6 3 7 4 5 5 4 6 3 7 2 8 1 9 10 11 11 12 15 13 16 14
REMARK SMILES IDX 17 15 12 17 13 18 14 19
REMARK H PARENT
REMARK Flexibility Score: 70.00
ROOT
ATOM      1  C   UNL     1     -11.333 -16.501  28.691  1.00  0.00     0.136 C 
ATOM      2  O   UNL     1     -10.319 -15.870  28.953  1.00  0.00    -0.299 OA
ENDROOT
BRANCH   1   3
ATOM      3  C   UNL     1     -12.223 -15.976  27.571  1.00  0.00     0.053 C 
ATOM      4  C   UNL     1     -12.335 -17.008  26.435  1.00  0.00     0.016 C 
BRANCH   3   5
ATOM      5  C   UNL     1     -13.594 -15.342  27.955  1.00  0.00     0.015 C 
BRANCH   5   6
ATOM      6  C   UNL     1     -13.639 -13.975  28.675  1.00  0.00     0.028 C 
BRANCH   6   7
ATOM      7  C   UNL     1     -14.526 -13.932  29.891  1.00  0.00    -0.028 C 
ATOM      8  C   UNL     1     -14.296 -14.587  31.054  1.00  0.00    -0.070 CG0
ATOM      9  C   UNL     1     -15.305 -14.429  32.163  1.00  0.00     0.039 C 
ATOM     10  G   UNL     1     -13.102 -15.498  31.282  1.00  0.00     0.000 G0
ENDBRANCH   6   7
ENDBRANCH   5   6
ENDBRANCH   3   5
ENDBRANCH   1   3
BRANCH   1  11
ATOM     11  C   UNL     1     -11.637 -17.706  29.554  1.00  0.00     0.087 C 
BRANCH  11  12
ATOM     12  C   UNL     1     -13.140 -17.803  29.925  1.00  0.00     0.066 C 
BRANCH  12  13
ATOM     13  C   UNL     1     -13.470 -16.952  31.149  1.00  0.00     0.140 C 
ATOM     14  O   UNL     1     -14.048 -17.483  32.086  1.00  0.00    -0.299 OA
BRANCH  13  15
ATOM     15  C   UNL     1     -13.099 -15.492  31.270  1.00  0.00     0.106 CG0
ATOM     16  G   UNL     1     -14.304 -14.594  31.049  1.00  0.00     0.000 G0
ENDBRANCH  13  15
ENDBRANCH  12  13
BRANCH  12  17
ATOM     17  C   UNL     1     -13.636 -19.279  30.066  1.00  0.00    -0.006 C 
ATOM     18  C   UNL     1     -13.945 -19.900  28.692  1.00  0.00     0.008 C 
ATOM     19  C   UNL     1     -12.605 -20.165  30.790  1.00  0.00     0.008 C 
ENDBRANCH  12  17
ENDBRANCH  11  12
ENDBRANCH   1  11
TORSDOF 1
ENDMDL
MODEL 2
REMARK VINA RESULT:    -3.984      1.616      4.049
REMARK INTER + INTRA:          -5.539
REMARK INTER:                  -6.166
REMARK INTRA:                   0.627
REMARK UNBOUND:                 0.541
REMARK SMILES CC1=CCC[C@H](C)C(=O)C[C@@H](C(C)C)C(=O)C1
REMARK SMILES IDX 8 1 9 2 6 3 7 4 5 5 4 6 3 7 2 8 1 9 10 11 11 12 15 13 16 14
REMARK SMILES IDX 17 15 12 17 13 18 14 19
REMARK H PARENT
REMARK Flexibility Score: 70.00
ROOT
ATOM      1  C   UNL     1     -12.074 -16.100  28.323  1.00  0.00     0.136 C 
ATOM      2  O   UNL     1     -11.018 -16.492  27.848  1.00  0.00    -0.299 OA
ENDROOT
BRANCH   1   3
ATOM      3  C   UNL     1     -13.363 -16.691  27.766  1.00  0.00     0.053 C 
ATOM      4  C   UNL     1     -13.843 -15.895  26.540  1.00  0.00     0.016 C 
BRANCH   3   5
ATOM      5  C   UNL     1     -13.436 -18.234  27.557  1.00  0.00     0.015 C 
BRANCH   5   6
ATOM      6  C   UNL     1     -14.242 -19.111  28.543  1.00  0.00     0.028 C 
BRANCH   6   7
ATOM      7  C   UNL     1     -13.410 -19.836  29.567  1.00  0.00    -0.028 C 
ATOM      8  C   UNL     1     -13.042 -19.341  30.773  1.00  0.00    -0.070 CG0
ATOM      9  C   UNL     1     -12.198 -20.215  31.665  1.00  0.00     0.039 C 
ATOM     10  G   UNL     1     -13.401 -17.945  31.252  1.00  0.00     0.000 G0
ENDBRANCH   6   7
ENDBRANCH   5   6
ENDBRANCH   3   5
ENDBRANCH   1   3
BRANCH   1  11
ATOM     11  C   UNL     1     -11.996 -15.013  29.373  1.00  0.00     0.087 C 
BRANCH  11  12
ATOM     12  C   UNL     1     -12.563 -15.472  30.741  1.00  0.00     0.066 C 
BRANCH  12  13
ATOM     13  C   UNL     1     -12.304 -16.958  30.985  1.00  0.00     0.140 C 
ATOM     14  O   UNL     1     -11.147 -17.355  30.969  1.00  0.00    -0.299 OA
BRANCH  13  15
ATOM     15  C   UNL     1     -13.401 -17.956  31.268  1.00  0.00     0.106 CG0
ATOM     16  G   UNL     1     -13.027 -19.345  30.778  1.00  0.00     0.000 G0
ENDBRANCH  13  15
ENDBRANCH  12  13
BRANCH  12  17
ATOM     17  C   UNL     1     -14.064 -15.083  30.936  1.00  0.00    -0.006 C 
ATOM     18  C   UNL     1     -14.372 -14.755  32.409  1.00  0.00     0.008 C 
ATOM     19  C   UNL     1     -14.464 -13.877  30.066  1.00  0.00     0.008 C 
ENDBRANCH  12  17
ENDBRANCH  11  12
ENDBRANCH   1  11
TORSDOF 1
ENDMDL
MODEL 3
REMARK VINA RESULT:    -3.981      1.859      3.765
REMARK INTER + INTRA:          -5.535
REMARK INTER:                  -5.663
REMARK INTRA:                   0.129
REMARK UNBOUND:                 0.541
REMARK SMILES CC1=CCC[C@H](C)C(=O)C[C@@H](C(C)C)C(=O)C1
REMARK SMILES IDX 8 1 9 2 6 3 7 4 5 5 4 6 3 7 2 8 1 9 10 11 11 12 15 13 16 14
REMARK SMILES IDX 17 15 12 17 13 18 14 19
REMARK H PARENT
REMARK Flexibility Score: 70.00
ROOT
ATOM      1  C   UNL     1     -13.346 -15.711  31.229  1.00  0.00     0.136 C 
ATOM      2  O   UNL     1     -12.287 -15.221  31.596  1.00  0.00    -0.299 OA
ENDROOT
BRANCH   1   3
ATOM      3  C   UNL     1     -14.598 -14.850  31.337  1.00  0.00     0.053 C 
ATOM      4  C   UNL     1     -14.822 -14.391  32.789  1.00  0.00     0.016 C 
BRANCH   3   5
ATOM      5  C   UNL     1     -14.796 -13.704  30.299  1.00  0.00     0.015 C 
BRANCH   5   6
ATOM      6  C   UNL     1     -13.919 -13.654  29.026  1.00  0.00     0.028 C 
BRANCH   6   7
ATOM      7  C   UNL     1     -14.352 -14.587  27.926  1.00  0.00    -0.028 C 
ATOM      8  C   UNL     1     -13.609 -15.597  27.417  1.00  0.00    -0.070 CG0
ATOM      9  C   UNL     1     -14.209 -16.425  26.309  1.00  0.00     0.039 C 
ATOM     10  G   UNL     1     -12.195 -15.913  27.875  1.00  0.00     0.000 G0
ENDBRANCH   6   7
ENDBRANCH   5   6
ENDBRANCH   3   5
ENDBRANCH   1   3
BRANCH   1  11
ATOM     11  C   UNL     1     -13.316 -17.152  30.768  1.00  0.00     0.087 C 
BRANCH  11  12
ATOM     12  C   UNL     1     -11.997 -17.510  30.036  1.00  0.00     0.066 C 
BRANCH  12  13
ATOM     13  C   UNL     1     -12.118 -17.295  28.528  1.00  0.00     0.140 C 
ATOM     14  O   UNL     1     -12.172 -18.279  27.804  1.00  0.00    -0.299 OA
BRANCH  13  15
ATOM     15  C   UNL     1     -12.196 -15.929  27.888  1.00  0.00     0.106 CG0
ATOM     16  G   UNL     1     -13.609 -15.612  27.430  1.00  0.00     0.000 G0
ENDBRANCH  13  15
ENDBRANCH  12  13
BRANCH  12  17
ATOM     17  C   UNL     1     -11.470 -18.936  30.400  1.00  0.00    -0.006 C 
ATOM     18  C   UNL     1     -10.193 -18.859  31.257  1.00  0.00     0.008 C 
ATOM     19  C   UNL     1     -12.525 -19.764  31.156  1.00  0.00     0.008 C 
ENDBRANCH  12  17
ENDBRANCH  11  12
ENDBRANCH   1  11
TORSDOF 1
ENDMDL
MODEL 4
REMARK VINA RESULT:    -3.711      2.112      4.704
REMARK INTER + INTRA:          -5.123
REMARK INTER:                  -5.786
REMARK INTRA:                   0.664
REMARK UNBOUND:                 0.541
REMARK SMILES CC1=CCC[C@H](C)C(=O)C[C@@H](C(C)C)C(=O)C1
REMARK SMILES IDX 8 1 9 2 6 3 7 4 5 5 4 6 3 7 2 8 1 9 10 11 11 12 15 13 16 14
REMARK SMILES IDX 17 15 12 17 13 18 14 19
REMARK H PARENT
REMARK Flexibility Score: 70.00
ROOT
ATOM      1  C   UNL     1     -10.282 -16.761  29.160  1.00  0.00     0.136 C 
ATOM      2  O   UNL     1      -9.983 -17.489  28.225  1.00  0.00    -0.299 OA
ENDROOT
BRANCH   1   3
ATOM      3  C   UNL     1      -9.875 -17.205  30.560  1.00  0.00     0.053 C 
ATOM      4  C   UNL     1     -10.159 -16.094  31.588  1.00  0.00     0.016 C 
BRANCH   3   5
ATOM      5  C   UNL     1     -10.327 -18.614  31.047  1.00  0.00     0.015 C 
BRANCH   5   6
ATOM      6  C   UNL     1     -11.830 -18.918  31.250  1.00  0.00     0.028 C 
BRANCH   6   7
ATOM      7  C   UNL     1     -12.451 -19.770  30.175  1.00  0.00    -0.028 C 
ATOM      8  C   UNL     1     -13.400 -19.360  29.300  1.00  0.00    -0.070 CG0
ATOM      9  C   UNL     1     -13.910 -20.361  28.294  1.00  0.00     0.039 C 
ATOM     10  G   UNL     1     -14.000 -17.965  29.304  1.00  0.00     0.000 G0
ENDBRANCH   6   7
ENDBRANCH   5   6
ENDBRANCH   3   5
ENDBRANCH   1   3
BRANCH   1  11
ATOM     11  C   UNL     1     -11.088 -15.522  28.839  1.00  0.00     0.087 C 
BRANCH  11  12
ATOM     12  C   UNL     1     -12.593 -15.693  29.173  1.00  0.00     0.066 C 
BRANCH  12  13
ATOM     13  C   UNL     1     -13.165 -16.963  28.547  1.00  0.00     0.140 C 
ATOM     14  O   UNL     1     -12.917 -17.193  27.372  1.00  0.00    -0.299 OA
BRANCH  13  15
ATOM     15  C   UNL     1     -14.001 -17.962  29.312  1.00  0.00     0.106 CG0
ATOM     16  G   UNL     1     -13.382 -19.349  29.273  1.00  0.00     0.000 G0
ENDBRANCH  13  15
ENDBRANCH  12  13
BRANCH  12  17
ATOM     17  C   UNL     1     -13.437 -14.422  28.834  1.00  0.00    -0.006 C 
ATOM     18  C   UNL     1     -14.292 -14.637  27.572  1.00  0.00     0.008 C 
ATOM     19  C   UNL     1     -14.363 -14.018  29.996  1.00  0.00     0.008 C 
ENDBRANCH  12  17
ENDBRANCH  11  12
ENDBRANCH   1  11
TORSDOF 1
ENDMDL
MODEL 5
REMARK VINA RESULT:    -3.622      1.784      3.704
REMARK INTER + INTRA:          -4.987
REMARK INTER:                  -6.115
REMARK INTRA:                   1.128
REMARK UNBOUND:                 0.541
REMARK SMILES CC1=CCC[C@H](C)C(=O)C[C@@H](C(C)C)C(=O)C1
REMARK SMILES IDX 8 1 9 2 6 3 7 4 5 5 4 6 3 7 2 8 1 9 10 11 11 12 15 13 16 14
REMARK SMILES IDX 17 15 12 17 13 18 14 19
REMARK H PARENT
REMARK Flexibility Score: 70.00
ROOT
ATOM      1  C   UNL     1     -13.597 -19.176  29.400  1.00  0.00     0.136 C 
ATOM      2  O   UNL     1     -13.988 -20.318  29.205  1.00  0.00    -0.299 OA
ENDROOT
BRANCH   1   3
ATOM      3  C   UNL     1     -13.092 -18.830  30.795  1.00  0.00     0.053 C 
ATOM      4  C   UNL     1     -11.560 -18.956  30.867  1.00  0.00     0.016 C 
BRANCH   3   5
ATOM      5  C   UNL     1     -13.629 -17.533  31.473  1.00  0.00     0.015 C 
BRANCH   5   6
ATOM      6  C   UNL     1     -12.975 -16.168  31.155  1.00  0.00     0.028 C 
BRANCH   6   7
ATOM      7  C   UNL     1     -13.949 -15.043  30.922  1.00  0.00    -0.028 C 
ATOM      8  C   UNL     1     -14.007 -14.274  29.809  1.00  0.00    -0.070 CG0
ATOM      9  C   UNL     1     -15.048 -13.185  29.757  1.00  0.00     0.039 C 
ATOM     10  G   UNL     1     -13.056 -14.426  28.633  1.00  0.00     0.000 G0
ENDBRANCH   6   7
ENDBRANCH   5   6
ENDBRANCH   3   5
ENDBRANCH   1   3
BRANCH   1  11
ATOM     11  C   UNL     1     -13.720 -18.200  28.250  1.00  0.00     0.087 C 
BRANCH  11  12
ATOM     12  C   UNL     1     -12.680 -17.054  28.336  1.00  0.00     0.066 C 
BRANCH  12  13
ATOM     13  C   UNL     1     -13.276 -15.722  27.884  1.00  0.00     0.140 C 
ATOM     14  O   UNL     1     -13.988 -15.713  26.890  1.00  0.00    -0.299 OA
BRANCH  13  15
ATOM     15  C   UNL     1     -13.048 -14.420  28.615  1.00  0.00     0.106 CG0
ATOM     16  G   UNL     1     -14.006 -14.266  29.784  1.00  0.00     0.000 G0
ENDBRANCH  13  15
ENDBRANCH  12  13
BRANCH  12  17
ATOM     17  C   UNL     1     -11.341 -17.394  27.604  1.00  0.00    -0.006 C 
ATOM     18  C   UNL     1     -11.376 -16.943  26.133  1.00  0.00     0.008 C 
ATOM     19  C   UNL     1     -10.127 -16.743  28.293  1.00  0.00     0.008 C 
ENDBRANCH  12  17
ENDBRANCH  11  12
ENDBRANCH   1  11
TORSDOF 1
ENDMDL
MODEL 6
REMARK VINA RESULT:    -3.587      1.775      4.657
REMARK INTER + INTRA:          -4.933
REMARK INTER:                  -5.783
REMARK INTRA:                   0.850
REMARK UNBOUND:                 0.541
REMARK SMILES CC1=CCC[C@H](C)C(=O)C[C@@H](C(C)C)C(=O)C1
REMARK SMILES IDX 8 1 9 2 6 3 7 4 5 5 4 6 3 7 2 8 1 9 10 11 11 12 15 13 16 14
REMARK SMILES IDX 17 15 12 17 13 18 14 19
REMARK H PARENT
REMARK Flexibility Score: 70.00
ROOT
ATOM      1  C   UNL     1     -13.169 -18.134  30.746  1.00  0.00     0.136 C 
ATOM      2  O   UNL     1     -13.700 -18.494  29.705  1.00  0.00    -0.299 OA
ENDROOT
BRANCH   1   3
ATOM      3  C   UNL     1     -12.025 -18.983  31.287  1.00  0.00     0.053 C 
ATOM      4  C   UNL     1     -12.517 -20.396  31.648  1.00  0.00     0.016 C 
BRANCH   3   5
ATOM      5  C   UNL     1     -10.678 -18.990  30.503  1.00  0.00     0.015 C 
BRANCH   5   6
ATOM      6  C   UNL     1     -10.218 -17.723  29.744  1.00  0.00     0.028 C 
BRANCH   6   7
ATOM      7  C   UNL     1     -10.911 -17.491  28.427  1.00  0.00    -0.028 C 
ATOM      8  C   UNL     1     -11.489 -16.330  28.039  1.00  0.00    -0.070 CG0
ATOM      9  C   UNL     1     -12.145 -16.289  26.682  1.00  0.00     0.039 C 
ATOM     10  G   UNL     1     -11.544 -15.087  28.910  1.00  0.00     0.000 G0
ENDBRANCH   6   7
ENDBRANCH   5   6
ENDBRANCH   3   5
ENDBRANCH   1   3
BRANCH   1  11
ATOM     11  C   UNL     1     -13.749 -16.916  31.430  1.00  0.00     0.087 C 
BRANCH  11  12
ATOM     12  C   UNL     1     -13.557 -15.623  30.596  1.00  0.00     0.066 C 
BRANCH  12  13
ATOM     13  C   UNL     1     -12.081 -15.361  30.301  1.00  0.00     0.140 C 
ATOM     14  O   UNL     1     -11.286 -15.416  31.228  1.00  0.00    -0.299 OA
BRANCH  13  15
ATOM     15  C   UNL     1     -11.552 -15.061  28.919  1.00  0.00     0.106 CG0
ATOM     16  G   UNL     1     -11.509 -16.312  28.057  1.00  0.00     0.000 G0
ENDBRANCH  13  15
ENDBRANCH  12  13
BRANCH  12  17
ATOM     17  C   UNL     1     -14.274 -14.384  31.225  1.00  0.00    -0.006 C 
ATOM     18  C   UNL     1     -15.105 -13.625  30.174  1.00  0.00     0.008 C 
ATOM     19  C   UNL     1     -15.196 -14.784  32.391  1.00  0.00     0.008 C 
ENDBRANCH  12  17
ENDBRANCH  11  12
ENDBRANCH   1  11
TORSDOF 1
ENDMDL
MODEL 7
REMARK VINA RESULT:    -3.436      2.016      4.597
REMARK INTER + INTRA:          -4.702
REMARK INTER:                  -5.679
REMARK INTRA:                   0.977
REMARK UNBOUND:                 0.541
REMARK SMILES CC1=CCC[C@H](C)C(=O)C[C@@H](C(C)C)C(=O)C1
REMARK SMILES IDX 8 1 9 2 6 3 7 4 5 5 4 6 3 7 2 8 1 9 10 11 11 12 15 13 16 14
REMARK SMILES IDX 17 15 12 17 13 18 14 19
REMARK H PARENT
REMARK Flexibility Score: 70.00
ROOT
ATOM      1  C   UNL     1     -12.546 -15.452  30.646  1.00  0.00     0.136 C 
ATOM      2  O   UNL     1     -11.411 -15.591  31.077  1.00  0.00    -0.299 OA
ENDROOT
BRANCH   1   3
ATOM      3  C   UNL     1     -13.692 -15.476  31.650  1.00  0.00     0.053 C 
ATOM      4  C   UNL     1     -14.708 -14.361  31.344  1.00  0.00     0.016 C 
BRANCH   3   5
ATOM      5  C   UNL     1     -14.367 -16.844  31.966  1.00  0.00     0.015 C 
BRANCH   5   6
ATOM      6  C   UNL     1     -13.550 -18.153  31.860  1.00  0.00     0.028 C 
BRANCH   6   7
ATOM      7  C   UNL     1     -13.948 -19.054  30.721  1.00  0.00    -0.028 C 
ATOM      8  C   UNL     1     -13.156 -19.398  29.678  1.00  0.00    -0.070 CG0
ATOM      9  C   UNL     1     -13.734 -20.309  28.625  1.00  0.00     0.039 C 
ATOM     10  G   UNL     1     -11.738 -18.884  29.496  1.00  0.00     0.000 G0
ENDBRANCH   6   7
ENDBRANCH   5   6
ENDBRANCH   3   5
ENDBRANCH   1   3
BRANCH   1  11
ATOM     11  C   UNL     1     -12.705 -15.338  29.145  1.00  0.00     0.087 C 
BRANCH  11  12
ATOM     12  C   UNL     1     -12.887 -16.719  28.464  1.00  0.00     0.066 C 
BRANCH  12  13
ATOM     13  C   UNL     1     -11.676 -17.621  28.694  1.00  0.00     0.140 C 
ATOM     14  O   UNL     1     -10.602 -17.283  28.217  1.00  0.00    -0.299 OA
BRANCH  13  15
ATOM     15  C   UNL     1     -11.733 -18.898  29.498  1.00  0.00     0.106 CG0
ATOM     16  G   UNL     1     -13.162 -19.387  29.662  1.00  0.00     0.000 G0
ENDBRANCH  13  15
ENDBRANCH  12  13
BRANCH  12  17
ATOM     17  C   UNL     1     -13.275 -16.603  26.954  1.00  0.00    -0.006 C 
ATOM     18  C   UNL     1     -14.193 -15.394  26.702  1.00  0.00     0.008 C 
ATOM     19  C   UNL     1     -12.035 -16.480  26.050  1.00  0.00     0.008 C 
ENDBRANCH  12  17
ENDBRANCH  11  12
ENDBRANCH   1  11
TORSDOF 1
ENDMDL
MODEL 8
REMARK VINA RESULT:    -3.228      1.892      4.633
REMARK INTER + INTRA:          -4.385
REMARK INTER:                  -5.846
REMARK INTRA:                   1.462
REMARK UNBOUND:                 0.541
REMARK SMILES CC1=CCC[C@H](C)C(=O)C[C@@H](C(C)C)C(=O)C1
REMARK SMILES IDX 8 1 9 2 6 3 7 4 5 5 4 6 3 7 2 8 1 9 10 11 11 12 15 13 16 14
REMARK SMILES IDX 17 15 12 17 13 18 14 19
REMARK H PARENT
REMARK Flexibility Score: 70.00
ROOT
ATOM      1  C   UNL     1     -14.065 -14.498  30.215  1.00  0.00     0.136 C 
ATOM      2  O   UNL     1     -15.160 -14.020  29.955  1.00  0.00    -0.299 OA
ENDROOT
BRANCH   1   3
ATOM      3  C   UNL     1     -13.883 -15.148  31.581  1.00  0.00     0.053 C 
ATOM      4  C   UNL     1     -14.732 -14.429  32.644  1.00  0.00     0.016 C 
BRANCH   3   5
ATOM      5  C   UNL     1     -13.974 -16.701  31.677  1.00  0.00     0.015 C 
BRANCH   5   6
ATOM      6  C   UNL     1     -13.519 -17.577  30.486  1.00  0.00     0.028 C 
BRANCH   6   7
ATOM      7  C   UNL     1     -12.266 -18.375  30.734  1.00  0.00    -0.028 C 
ATOM      8  C   UNL     1     -11.038 -17.854  30.969  1.00  0.00    -0.070 CG0
ATOM      9  C   UNL     1      -9.896 -18.813  31.188  1.00  0.00     0.039 C 
ATOM     10  G   UNL     1     -10.747 -16.363  30.983  1.00  0.00     0.000 G0
ENDBRANCH   6   7
ENDBRANCH   5   6
ENDBRANCH   3   5
ENDBRANCH   1   3
BRANCH   1  11
ATOM     11  C   UNL     1     -12.978 -14.336  29.175  1.00  0.00     0.087 C 
BRANCH  11  12
ATOM     12  C   UNL     1     -12.229 -15.663  28.892  1.00  0.00     0.066 C 
BRANCH  12  13
ATOM     13  C   UNL     1     -10.895 -15.722  29.634  1.00  0.00     0.140 C 
ATOM     14  O   UNL     1      -9.917 -15.207  29.111  1.00  0.00    -0.299 OA
BRANCH  13  15
ATOM     15  C   UNL     1     -10.727 -16.364  30.991  1.00  0.00     0.106 CG0
ATOM     16  G   UNL     1     -11.023 -17.853  30.940  1.00  0.00     0.000 G0
ENDBRANCH  13  15
ENDBRANCH  12  13
BRANCH  12  17
ATOM     17  C   UNL     1     -12.082 -15.962  27.364  1.00  0.00    -0.006 C 
ATOM     18  C   UNL     1     -11.356 -17.298  27.122  1.00  0.00     0.008 C 
ATOM     19  C   UNL     1     -13.446 -16.003  26.652  1.00  0.00     0.008 C 
ENDBRANCH  12  17
ENDBRANCH  11  12
ENDBRANCH   1  11
TORSDOF 1
ENDMDL
MODEL 9
REMARK VINA RESULT:    -2.984      1.795      4.219
REMARK INTER + INTRA:          -4.013
REMARK INTER:                  -5.275
REMARK INTRA:                   1.262
REMARK UNBOUND:                 0.541
REMARK SMILES CC1=CCC[C@H](C)C(=O)C[C@@H](C(C)C)C(=O)C1
REMARK SMILES IDX 8 1 9 2 6 3 7 4 5 5 4 6 3 7 2 8 1 9 10 11 11 12 15 13 16 14
REMARK SMILES IDX 17 15 12 17 13 18 14 19
REMARK H PARENT
REMARK Flexibility Score: 70.00
ROOT
ATOM      1  C   UNL     1     -12.310 -15.929  27.877  1.00  0.00     0.136 C 
ATOM      2  O   UNL     1     -13.302 -15.819  27.170  1.00  0.00    -0.299 OA
ENDROOT
BRANCH   1   3
ATOM      3  C   UNL     1     -11.352 -17.075  27.579  1.00  0.00     0.053 C 
ATOM      4  C   UNL     1     -11.154 -17.239  26.061  1.00  0.00     0.016 C 
BRANCH   3   5
ATOM      5  C   UNL     1     -10.016 -17.146  28.378  1.00  0.00     0.015 C 
BRANCH   5   6
ATOM      6  C   UNL     1     -10.034 -17.478  29.888  1.00  0.00     0.028 C 
BRANCH   6   7
ATOM      7  C   UNL     1     -10.758 -18.750  30.245  1.00  0.00    -0.028 C 
ATOM      8  C   UNL     1     -11.929 -18.823  30.921  1.00  0.00    -0.070 CG0
ATOM      9  C   UNL     1     -12.501 -20.191  31.194  1.00  0.00     0.039 C 
ATOM     10  G   UNL     1     -12.670 -17.607  31.450  1.00  0.00     0.000 G0
ENDBRANCH   6   7
ENDBRANCH   5   6
ENDBRANCH   3   5
ENDBRANCH   1   3
BRANCH   1  11
ATOM     11  C   UNL     1     -12.170 -14.951  29.024  1.00  0.00     0.087 C 
BRANCH  11  12
ATOM     12  C   UNL     1     -13.109 -15.293  30.209  1.00  0.00     0.066 C 
BRANCH  12  13
ATOM     13  C   UNL     1     -13.311 -16.801  30.347  1.00  0.00     0.140 C 
ATOM     14  O   UNL     1     -13.988 -17.375  29.505  1.00  0.00    -0.299 OA
BRANCH  13  15
ATOM     15  C   UNL     1     -12.699 -17.623  31.456  1.00  0.00     0.106 CG0
ATOM     16  G   UNL     1     -11.925 -18.808  30.906  1.00  0.00     0.000 G0
ENDBRANCH  13  15
ENDBRANCH  12  13
BRANCH  12  17
ATOM     17  C   UNL     1     -14.459 -14.507  30.159  1.00  0.00    -0.006 C 
ATOM     18  C   UNL     1     -14.896 -14.052  31.563  1.00  0.00     0.008 C 
ATOM     19  C   UNL     1     -14.372 -13.272  29.243  1.00  0.00     0.008 C 
ENDBRANCH  12  17
ENDBRANCH  11  12
ENDBRANCH   1  11
TORSDOF 1
ENDMDL
