MODEL 1
REMARK VINA RESULT:    -6.021      0.000      0.000
REMARK INTER + INTRA:          -7.203
REMARK INTER:                  -6.901
REMARK INTRA:                  -0.301
REMARK UNBOUND:                -0.301
REMARK SMILES COc1ccc(C(C)=O)c(O)c1
REMARK SMILES IDX 6 1 10 2 12 3 3 4 4 5 5 6 7 7 8 8 9 9 11 10 2 12 1 13
REMARK H PARENT 11 11
REMARK Flexibility Score: inf
ROOT
ATOM      1  C   UNL     1     -13.260   2.023  -9.219  1.00  0.00     0.059 A 
ATOM      2  C   UNL     1     -12.428   0.890  -9.396  1.00  0.00     0.130 A 
ATOM      3  C   UNL     1     -12.941  -0.257 -10.013  1.00  0.00     0.093 A 
ATOM      4  C   UNL     1     -14.273  -0.318 -10.431  1.00  0.00     0.122 A 
ATOM      5  C   UNL     1     -15.106   0.794 -10.227  1.00  0.00     0.047 A 
ATOM      6  C   UNL     1     -14.603   1.951  -9.629  1.00  0.00     0.019 A 
ENDROOT
BRANCH   1   7
ATOM      7  C   UNL     1     -12.748   3.292  -8.649  1.00  0.00     0.163 C 
ATOM      8  C   UNL     1     -13.683   4.358  -8.166  1.00  0.00     0.093 C 
ATOM      9  O   UNL     1     -11.509   3.523  -8.641  1.00  0.00    -0.294 OA
ENDBRANCH   1   7
BRANCH   2  10
ATOM     10  O   UNL     1     -11.106   0.855  -8.948  1.00  0.00    -0.507 OA
ATOM     11  H   UNL     1     -10.708   1.550  -8.332  1.00  0.00     0.293 HD
ENDBRANCH   2  10
BRANCH   4  12
ATOM     12  O   UNL     1     -14.728  -1.500 -11.035  1.00  0.00    -0.497 OA
ATOM     13  C   UNL     1     -14.915  -2.734 -10.349  1.00  0.00     0.278 C 
ENDBRANCH   4  12
TORSDOF 3
ENDMDL
MODEL 2
REMARK VINA RESULT:    -5.304      5.277      7.378
REMARK INTER + INTRA:          -6.380
REMARK INTER:                  -6.046
REMARK INTRA:                  -0.334
REMARK UNBOUND:                -0.301
REMARK SMILES COc1ccc(C(C)=O)c(O)c1
REMARK SMILES IDX 6 1 10 2 12 3 3 4 4 5 5 6 7 7 8 8 9 9 11 10 2 12 1 13
REMARK H PARENT 11 11
REMARK Flexibility Score: inf
ROOT
ATOM      1  C   UNL     1     -10.775  -4.927  -7.548  1.00  0.00     0.059 A 
ATOM      2  C   UNL     1     -10.824  -5.062  -8.957  1.00  0.00     0.130 A 
ATOM      3  C   UNL     1     -10.640  -3.937  -9.769  1.00  0.00     0.093 A 
ATOM      4  C   UNL     1     -10.441  -2.670  -9.213  1.00  0.00     0.122 A 
ATOM      5  C   UNL     1     -10.422  -2.532  -7.815  1.00  0.00     0.047 A 
ATOM      6  C   UNL     1     -10.586  -3.649  -6.994  1.00  0.00     0.019 A 
ENDROOT
BRANCH   1   7
ATOM      7  C   UNL     1     -10.878  -6.097  -6.643  1.00  0.00     0.163 C 
ATOM      8  C   UNL     1     -11.544  -5.985  -5.306  1.00  0.00     0.093 C 
ATOM      9  O   UNL     1     -10.329  -7.186  -6.958  1.00  0.00    -0.294 OA
ENDBRANCH   1   7
BRANCH   2  10
ATOM     10  O   UNL     1     -11.082  -6.284  -9.584  1.00  0.00    -0.507 OA
ATOM     11  H   UNL     1     -10.792  -7.175  -9.207  1.00  0.00     0.293 HD
ENDBRANCH   2  10
BRANCH   4  12
ATOM     12  O   UNL     1     -10.272  -1.580 -10.080  1.00  0.00    -0.497 OA
ATOM     13  C   UNL     1     -11.291  -0.636 -10.393  1.00  0.00     0.278 C 
ENDBRANCH   4  12
TORSDOF 3
ENDMDL
MODEL 3
REMARK VINA RESULT:    -5.045      1.476      2.198
REMARK INTER + INTRA:          -6.083
REMARK INTER:                  -5.809
REMARK INTRA:                  -0.274
REMARK UNBOUND:                -0.301
REMARK SMILES COc1ccc(C(C)=O)c(O)c1
REMARK SMILES IDX 6 1 10 2 12 3 3 4 4 5 5 6 7 7 8 8 9 9 11 10 2 12 1 13
REMARK H PARENT 11 11
REMARK Flexibility Score: inf
ROOT
ATOM      1  C   UNL     1     -12.769   2.069  -9.329  1.00  0.00     0.059 A 
ATOM      2  C   UNL     1     -14.136   1.809  -9.595  1.00  0.00     0.130 A 
ATOM      3  C   UNL     1     -14.529   0.537 -10.027  1.00  0.00     0.093 A 
ATOM      4  C   UNL     1     -13.590  -0.478 -10.233  1.00  0.00     0.122 A 
ATOM      5  C   UNL     1     -12.231  -0.211  -9.999  1.00  0.00     0.047 A 
ATOM      6  C   UNL     1     -11.828   1.048  -9.550  1.00  0.00     0.019 A 
ENDROOT
BRANCH   1   7
ATOM      7  C   UNL     1     -12.308   3.370  -8.790  1.00  0.00     0.163 C 
ATOM      8  C   UNL     1     -10.997   3.492  -8.076  1.00  0.00     0.093 C 
ATOM      9  O   UNL     1     -13.060   4.379  -8.854  1.00  0.00    -0.294 OA
ENDBRANCH   1   7
BRANCH   2  10
ATOM     10  O   UNL     1     -15.122   2.790  -9.473  1.00  0.00    -0.507 OA
ATOM     11  H   UNL     1     -15.700   2.899  -8.651  1.00  0.00     0.293 HD
ENDBRANCH   2  10
BRANCH   4  12
ATOM     12  O   UNL     1     -14.046  -1.729 -10.676  1.00  0.00    -0.497 OA
ATOM     13  C   UNL     1     -15.122  -2.448 -10.082  1.00  0.00     0.278 C 
ENDBRANCH   4  12
TORSDOF 3
ENDMDL
MODEL 4
REMARK VINA RESULT:    -5.039      6.099      7.830
REMARK INTER + INTRA:          -6.076
REMARK INTER:                  -5.743
REMARK INTRA:                  -0.334
REMARK UNBOUND:                -0.301
REMARK SMILES COc1ccc(C(C)=O)c(O)c1
REMARK SMILES IDX 6 1 10 2 12 3 3 4 4 5 5 6 7 7 8 8 9 9 11 10 2 12 1 13
REMARK H PARENT 11 11
REMARK Flexibility Score: inf
ROOT
ATOM      1  C   UNL     1     -10.739  -5.018  -7.510  1.00  0.00     0.059 A 
ATOM      2  C   UNL     1     -11.305  -6.069  -8.273  1.00  0.00     0.130 A 
ATOM      3  C   UNL     1     -12.137  -7.008  -7.652  1.00  0.00     0.093 A 
ATOM      4  C   UNL     1     -12.395  -6.947  -6.279  1.00  0.00     0.122 A 
ATOM      5  C   UNL     1     -11.810  -5.922  -5.517  1.00  0.00     0.047 A 
ATOM      6  C   UNL     1     -10.993  -4.970  -6.128  1.00  0.00     0.019 A 
ENDROOT
BRANCH   1   7
ATOM      7  C   UNL     1      -9.921  -3.950  -8.131  1.00  0.00     0.163 C 
ATOM      8  C   UNL     1     -10.338  -2.513  -8.058  1.00  0.00     0.093 C 
ATOM      9  O   UNL     1      -8.899  -4.252  -8.804  1.00  0.00    -0.294 OA
ENDBRANCH   1   7
BRANCH   2  10
ATOM     10  O   UNL     1     -11.041  -6.232  -9.635  1.00  0.00    -0.507 OA
ATOM     11  H   UNL     1     -11.098  -7.122 -10.111  1.00  0.00     0.293 HD
ENDBRANCH   2  10
BRANCH   4  12
ATOM     12  O   UNL     1     -13.231  -7.923  -5.714  1.00  0.00    -0.497 OA
ATOM     13  C   UNL     1     -14.614  -7.733  -5.434  1.00  0.00     0.278 C 
ENDBRANCH   4  12
TORSDOF 3
ENDMDL
MODEL 5
REMARK VINA RESULT:    -4.946      2.239      3.200
REMARK INTER + INTRA:          -5.970
REMARK INTER:                  -5.658
REMARK INTRA:                  -0.312
REMARK UNBOUND:                -0.301
REMARK SMILES COc1ccc(C(C)=O)c(O)c1
REMARK SMILES IDX 6 1 10 2 12 3 3 4 4 5 5 6 7 7 8 8 9 9 11 10 2 12 1 13
REMARK H PARENT 11 11
REMARK Flexibility Score: inf
ROOT
ATOM      1  C   UNL     1     -12.883   0.883  -9.633  1.00  0.00     0.059 A 
ATOM      2  C   UNL     1     -13.645  -0.181 -10.173  1.00  0.00     0.130 A 
ATOM      3  C   UNL     1     -13.083  -1.460 -10.266  1.00  0.00     0.093 A 
ATOM      4  C   UNL     1     -11.767  -1.701  -9.864  1.00  0.00     0.122 A 
ATOM      5  C   UNL     1     -11.001  -0.638  -9.356  1.00  0.00     0.047 A 
ATOM      6  C   UNL     1     -11.555   0.638  -9.241  1.00  0.00     0.019 A 
ENDROOT
BRANCH   1   7
ATOM      7  C   UNL     1     -13.454   2.236  -9.433  1.00  0.00     0.163 C 
ATOM      8  C   UNL     1     -12.571   3.428  -9.225  1.00  0.00     0.093 C 
ATOM      9  O   UNL     1     -14.703   2.386  -9.354  1.00  0.00    -0.294 OA
ENDBRANCH   1   7
BRANCH   2  10
ATOM     10  O   UNL     1     -14.944  -0.003 -10.655  1.00  0.00    -0.507 OA
ATOM     11  H   UNL     1     -15.431   0.883 -10.629  1.00  0.00     0.293 HD
ENDBRANCH   2  10
BRANCH   4  12
ATOM     12  O   UNL     1     -11.259  -3.003  -9.990  1.00  0.00    -0.497 OA
ATOM     13  C   UNL     1      -9.873  -3.330  -9.981  1.00  0.00     0.278 C 
ENDBRANCH   4  12
TORSDOF 3
ENDMDL
MODEL 6
REMARK VINA RESULT:    -4.742      5.655      8.126
REMARK INTER + INTRA:          -5.736
REMARK INTER:                  -5.417
REMARK INTRA:                  -0.319
REMARK UNBOUND:                -0.301
REMARK SMILES COc1ccc(C(C)=O)c(O)c1
REMARK SMILES IDX 6 1 10 2 12 3 3 4 4 5 5 6 7 7 8 8 9 9 11 10 2 12 1 13
REMARK H PARENT 11 11
REMARK Flexibility Score: inf
ROOT
ATOM      1  C   UNL     1     -10.783  -5.905  -7.929  1.00  0.00     0.059 A 
ATOM      2  C   UNL     1     -10.692  -5.014  -6.831  1.00  0.00     0.130 A 
ATOM      3  C   UNL     1     -10.535  -3.643  -7.061  1.00  0.00     0.093 A 
ATOM      4  C   UNL     1     -10.433  -3.135  -8.359  1.00  0.00     0.122 A 
ATOM      5  C   UNL     1     -10.494  -4.022  -9.447  1.00  0.00     0.047 A 
ATOM      6  C   UNL     1     -10.668  -5.390  -9.232  1.00  0.00     0.019 A 
ENDROOT
BRANCH   1   7
ATOM      7  C   UNL     1     -11.034  -7.354  -7.746  1.00  0.00     0.163 C 
ATOM      8  C   UNL     1     -11.869  -8.125  -8.723  1.00  0.00     0.093 C 
ATOM      9  O   UNL     1     -10.613  -7.940  -6.713  1.00  0.00    -0.294 OA
ENDBRANCH   1   7
BRANCH   2  10
ATOM     10  O   UNL     1     -10.721  -5.455  -5.506  1.00  0.00    -0.507 OA
ATOM     11  H   UNL     1      -9.895  -5.544  -4.931  1.00  0.00     0.293 HD
ENDBRANCH   2  10
BRANCH   4  12
ATOM     12  O   UNL     1     -10.268  -1.751  -8.523  1.00  0.00    -0.497 OA
ATOM     13  C   UNL     1     -11.013  -0.955  -9.439  1.00  0.00     0.278 C 
ENDBRANCH   4  12
TORSDOF 3
ENDMDL
MODEL 7
REMARK VINA RESULT:    -4.489      6.044      8.706
REMARK INTER + INTRA:          -5.446
REMARK INTER:                  -5.118
REMARK INTRA:                  -0.328
REMARK UNBOUND:                -0.301
REMARK SMILES COc1ccc(C(C)=O)c(O)c1
REMARK SMILES IDX 6 1 10 2 12 3 3 4 4 5 5 6 7 7 8 8 9 9 11 10 2 12 1 13
REMARK H PARENT 11 11
REMARK Flexibility Score: inf
ROOT
ATOM      1  C   UNL     1     -11.971  -6.533  -7.127  1.00  0.00     0.059 A 
ATOM      2  C   UNL     1     -11.669  -6.553  -8.511  1.00  0.00     0.130 A 
ATOM      3  C   UNL     1     -10.832  -5.571  -9.054  1.00  0.00     0.093 A 
ATOM      4  C   UNL     1     -10.312  -4.547  -8.258  1.00  0.00     0.122 A 
ATOM      5  C   UNL     1     -10.636  -4.509  -6.891  1.00  0.00     0.047 A 
ATOM      6  C   UNL     1     -11.455  -5.493  -6.335  1.00  0.00     0.019 A 
ENDROOT
BRANCH   1   7
ATOM      7  C   UNL     1     -12.782  -7.594  -6.485  1.00  0.00     0.163 C 
ATOM      8  C   UNL     1     -12.429  -8.125  -5.129  1.00  0.00     0.093 C 
ATOM      9  O   UNL     1     -13.736  -8.124  -7.115  1.00  0.00    -0.294 OA
ENDBRANCH   1   7
BRANCH   2  10
ATOM     10  O   UNL     1     -12.203  -7.508  -9.380  1.00  0.00    -0.507 OA
ATOM     11  H   UNL     1     -12.523  -8.418  -9.079  1.00  0.00     0.293 HD
ENDBRANCH   2  10
BRANCH   4  12
ATOM     12  O   UNL     1      -9.486  -3.587  -8.863  1.00  0.00    -0.497 OA
ATOM     13  C   UNL     1      -9.864  -2.792  -9.982  1.00  0.00     0.278 C 
ENDBRANCH   4  12
TORSDOF 3
ENDMDL
