MODEL 1
REMARK VINA RESULT:     2.553      0.000      0.000
REMARK INTER + INTRA:           2.766
REMARK INTER:                   2.852
REMARK INTRA:                  -0.085
REMARK UNBOUND:                -0.085
REMARK SMILES CCc1ccc(O)cc1O
REMARK SMILES IDX 3 1 9 2 8 3 6 4 5 5 4 6 2 7 1 8 10 9 7 11
REMARK H PARENT 10 10 7 12
REMARK Flexibility Score: inf
ROOT
ATOM      1  C   UNL     1       7.489  42.215  23.984  1.00  0.00    -0.006 A 
ATOM      2  C   UNL     1       6.578  43.287  23.899  1.00  0.00     0.122 A 
ATOM      3  C   UNL     1       5.279  43.142  24.406  1.00  0.00     0.092 A 
ATOM      4  C   UNL     1       4.883  41.943  25.007  1.00  0.00     0.119 A 
ATOM      5  C   UNL     1       5.791  40.882  25.104  1.00  0.00     0.047 A 
ATOM      6  C   UNL     1       7.087  41.018  24.601  1.00  0.00     0.011 A 
ENDROOT
BRANCH   1   7
ATOM      7  C   UNL     1       8.901  42.354  23.474  1.00  0.00     0.036 C 
ATOM      8  C   UNL     1       9.482  40.990  23.112  1.00  0.00     0.009 C 
ENDBRANCH   1   7
BRANCH   2   9
ATOM      9  O   UNL     1       6.966  44.493  23.315  1.00  0.00    -0.508 OA
ATOM     10  H   UNL     1       6.285  45.167  22.985  1.00  0.00     0.293 HD
ENDBRANCH   2   9
BRANCH   4  11
ATOM     11  O   UNL     1       3.588  41.817  25.505  1.00  0.00    -0.508 OA
ATOM     12  H   UNL     1       2.851  41.386  24.960  1.00  0.00     0.293 HD
ENDBRANCH   4  11
TORSDOF 3
ENDMDL
MODEL 2
REMARK VINA RESULT:     3.187      1.594      3.683
REMARK INTER + INTRA:           3.474
REMARK INTER:                   3.389
REMARK INTRA:                   0.085
REMARK UNBOUND:                -0.085
REMARK SMILES CCc1ccc(O)cc1O
REMARK SMILES IDX 3 1 9 2 8 3 6 4 5 5 4 6 2 7 1 8 10 9 7 11
REMARK H PARENT 10 10 7 12
REMARK Flexibility Score: inf
ROOT
ATOM      1  C   UNL     1       5.870  42.272  24.668  1.00  0.00    -0.006 A 
ATOM      2  C   UNL     1       6.540  43.235  23.886  1.00  0.00     0.122 A 
ATOM      3  C   UNL     1       7.867  43.014  23.491  1.00  0.00     0.092 A 
ATOM      4  C   UNL     1       8.529  41.838  23.858  1.00  0.00     0.119 A 
ATOM      5  C   UNL     1       7.860  40.875  24.624  1.00  0.00     0.047 A 
ATOM      6  C   UNL     1       6.538  41.088  25.021  1.00  0.00     0.011 A 
ENDROOT
BRANCH   1   7
ATOM      7  C   UNL     1       4.434  42.471  25.080  1.00  0.00     0.036 C 
ATOM      8  C   UNL     1       3.507  42.383  23.872  1.00  0.00     0.009 C 
ENDBRANCH   1   7
BRANCH   2   9
ATOM      9  O   UNL     1       5.886  44.405  23.501  1.00  0.00    -0.508 OA
ATOM     10  H   UNL     1       6.390  45.272  23.355  1.00  0.00     0.293 HD
ENDBRANCH   2   9
BRANCH   4  11
ATOM     11  O   UNL     1       9.848  41.636  23.458  1.00  0.00    -0.508 OA
ATOM     12  H   UNL     1      10.587  41.474  24.131  1.00  0.00     0.293 HD
ENDBRANCH   4  11
TORSDOF 3
ENDMDL
MODEL 3
REMARK VINA RESULT:     4.003      1.637      1.747
REMARK INTER + INTRA:           4.386
REMARK INTER:                   4.481
REMARK INTRA:                  -0.095
REMARK UNBOUND:                -0.085
REMARK SMILES CCc1ccc(O)cc1O
REMARK SMILES IDX 3 1 9 2 8 3 6 4 5 5 4 6 2 7 1 8 10 9 7 11
REMARK H PARENT 10 10 7 12
REMARK Flexibility Score: inf
ROOT
ATOM      1  C   UNL     1       7.269  41.419  24.713  1.00  0.00    -0.006 A 
ATOM      2  C   UNL     1       6.780  42.373  25.626  1.00  0.00     0.122 A 
ATOM      3  C   UNL     1       5.443  42.791  25.551  1.00  0.00     0.092 A 
ATOM      4  C   UNL     1       4.588  42.257  24.583  1.00  0.00     0.119 A 
ATOM      5  C   UNL     1       5.069  41.299  23.683  1.00  0.00     0.047 A 
ATOM      6  C   UNL     1       6.400  40.878  23.751  1.00  0.00     0.011 A 
ENDROOT
BRANCH   1   7
ATOM      7  C   UNL     1       8.693  40.930  24.790  1.00  0.00     0.036 C 
ATOM      8  C   UNL     1       9.460  41.296  23.522  1.00  0.00     0.009 C 
ENDBRANCH   1   7
BRANCH   2   9
ATOM      9  O   UNL     1       7.619  42.903  26.606  1.00  0.00    -0.508 OA
ATOM     10  H   UNL     1       8.324  43.596  26.385  1.00  0.00     0.293 HD
ENDBRANCH   2   9
BRANCH   4  11
ATOM     11  O   UNL     1       3.263  42.685  24.523  1.00  0.00    -0.508 OA
ATOM     12  H   UNL     1       2.524  42.075  24.193  1.00  0.00     0.293 HD
ENDBRANCH   4  11
TORSDOF 3
ENDMDL
MODEL 4
REMARK VINA RESULT:     4.367      2.082      4.321
REMARK INTER + INTRA:           4.792
REMARK INTER:                   4.618
REMARK INTRA:                   0.174
REMARK UNBOUND:                -0.085
REMARK SMILES CCc1ccc(O)cc1O
REMARK SMILES IDX 3 1 9 2 8 3 6 4 5 5 4 6 2 7 1 8 10 9 7 11
REMARK H PARENT 10 10 7 12
REMARK Flexibility Score: inf
ROOT
ATOM      1  C   UNL     1       6.954  42.644  24.234  1.00  0.00    -0.006 A 
ATOM      2  C   UNL     1       7.384  41.465  24.874  1.00  0.00     0.122 A 
ATOM      3  C   UNL     1       8.609  40.883  24.518  1.00  0.00     0.092 A 
ATOM      4  C   UNL     1       9.415  41.472  23.540  1.00  0.00     0.119 A 
ATOM      5  C   UNL     1       8.996  42.651  22.912  1.00  0.00     0.047 A 
ATOM      6  C   UNL     1       7.776  43.237  23.261  1.00  0.00     0.011 A 
ENDROOT
BRANCH   1   7
ATOM      7  C   UNL     1       5.656  43.307  24.618  1.00  0.00     0.036 C 
ATOM      8  C   UNL     1       4.471  42.401  24.298  1.00  0.00     0.009 C 
ENDBRANCH   1   7
BRANCH   2   9
ATOM      9  O   UNL     1       6.595  40.875  25.862  1.00  0.00    -0.508 OA
ATOM     10  H   UNL     1       6.443  41.323  26.758  1.00  0.00     0.293 HD
ENDBRANCH   2   9
BRANCH   4  11
ATOM     11  O   UNL     1      10.629  40.880  23.199  1.00  0.00    -0.508 OA
ATOM     12  H   UNL     1      10.668  39.982  22.732  1.00  0.00     0.293 HD
ENDBRANCH   4  11
TORSDOF 3
ENDMDL
