MODEL 1
REMARK VINA RESULT:    -4.031      0.000      0.000
REMARK INTER + INTRA:          -5.230
REMARK INTER:                  -4.973
REMARK INTRA:                  -0.257
REMARK UNBOUND:                -0.257
REMARK SMILES C=CCc1ccc(OC)c(OC)c1
REMARK SMILES IDX 7 1 10 2 13 3 4 4 5 5 6 6 8 7 9 8 11 9 12 10 3 11 2 12 1 13
REMARK H PARENT
REMARK Flexibility Score: inf
ROOT
ATOM      1  C   UNL     1       1.804 -24.817 -46.042  1.00  0.00     0.160 A 
ATOM      2  C   UNL     1       0.681 -24.098 -45.603  1.00  0.00     0.160 A 
ATOM      3  C   UNL     1      -0.606 -24.498 -46.013  1.00  0.00     0.054 A 
ATOM      4  C   UNL     1      -0.775 -25.609 -46.853  1.00  0.00    -0.040 A 
ATOM      5  C   UNL     1       0.352 -26.315 -47.295  1.00  0.00     0.008 A 
ATOM      6  C   UNL     1       1.631 -25.927 -46.891  1.00  0.00     0.051 A 
ENDROOT
BRANCH   1   7
ATOM      7  O   UNL     1       3.073 -24.398 -45.615  1.00  0.00    -0.493 OA
ATOM      8  C   UNL     1       3.828 -25.028 -44.585  1.00  0.00     0.278 C 
ENDBRANCH   1   7
BRANCH   2   9
ATOM      9  O   UNL     1       0.885 -22.994 -44.761  1.00  0.00    -0.493 OA
ATOM     10  C   UNL     1      -0.073 -21.965 -44.534  1.00  0.00     0.278 C 
ENDBRANCH   2   9
BRANCH   4  11
ATOM     11  C   UNL     1      -2.150 -26.015 -47.316  1.00  0.00     0.062 C 
BRANCH  11  12
ATOM     12  C   UNL     1      -2.927 -26.642 -46.192  1.00  0.00    -0.030 C 
ATOM     13  C   UNL     1      -4.122 -26.177 -45.819  1.00  0.00     0.004 C 
ENDBRANCH  11  12
ENDBRANCH   4  11
TORSDOF 4
ENDMDL
MODEL 2
REMARK VINA RESULT:    -4.012     13.204     15.655
REMARK INTER + INTRA:          -5.208
REMARK INTER:                  -4.944
REMARK INTRA:                  -0.263
REMARK UNBOUND:                -0.257
REMARK SMILES C=CCc1ccc(OC)c(OC)c1
REMARK SMILES IDX 7 1 10 2 13 3 4 4 5 5 6 6 8 7 9 8 11 9 12 10 3 11 2 12 1 13
REMARK H PARENT
REMARK Flexibility Score: inf
ROOT
ATOM      1  C   UNL     1      -3.206 -10.579 -42.365  1.00  0.00     0.160 A 
ATOM      2  C   UNL     1      -2.204 -11.541 -42.162  1.00  0.00     0.160 A 
ATOM      3  C   UNL     1      -0.851 -11.151 -42.177  1.00  0.00     0.054 A 
ATOM      4  C   UNL     1      -0.495  -9.811 -42.388  1.00  0.00    -0.040 A 
ATOM      5  C   UNL     1      -1.501  -8.859 -42.600  1.00  0.00     0.008 A 
ATOM      6  C   UNL     1      -2.845  -9.235 -42.585  1.00  0.00     0.051 A 
ENDROOT
BRANCH   1   7
ATOM      7  O   UNL     1      -4.546 -10.995 -42.343  1.00  0.00    -0.493 OA
ATOM      8  C   UNL     1      -5.308 -11.328 -43.498  1.00  0.00     0.278 C 
ENDBRANCH   1   7
BRANCH   2   9
ATOM      9  O   UNL     1      -2.594 -12.873 -41.950  1.00  0.00    -0.493 OA
ATOM     10  C   UNL     1      -2.616 -13.515 -40.679  1.00  0.00     0.278 C 
ENDBRANCH   2   9
BRANCH   4  11
ATOM     11  C   UNL     1       0.954  -9.403 -42.435  1.00  0.00     0.062 C 
BRANCH  11  12
ATOM     12  C   UNL     1       1.784 -10.287 -41.546  1.00  0.00    -0.030 C 
ATOM     13  C   UNL     1       2.935 -10.820 -41.964  1.00  0.00     0.004 C 
ENDBRANCH  11  12
ENDBRANCH   4  11
TORSDOF 4
ENDMDL
MODEL 3
REMARK VINA RESULT:    -3.940     14.332     16.094
REMARK INTER + INTRA:          -5.118
REMARK INTER:                  -4.795
REMARK INTRA:                  -0.323
REMARK UNBOUND:                -0.257
REMARK SMILES C=CCc1ccc(OC)c(OC)c1
REMARK SMILES IDX 7 1 10 2 13 3 4 4 5 5 6 6 8 7 9 8 11 9 12 10 3 11 2 12 1 13
REMARK H PARENT
REMARK Flexibility Score: inf
ROOT
ATOM      1  C   UNL     1      -3.082 -10.781 -42.351  1.00  0.00     0.160 A 
ATOM      2  C   UNL     1      -2.807  -9.406 -42.420  1.00  0.00     0.160 A 
ATOM      3  C   UNL     1      -1.471  -8.966 -42.495  1.00  0.00     0.054 A 
ATOM      4  C   UNL     1      -0.414  -9.888 -42.505  1.00  0.00    -0.040 A 
ATOM      5  C   UNL     1      -0.697 -11.258 -42.425  1.00  0.00     0.008 A 
ATOM      6  C   UNL     1      -2.018 -11.704 -42.353  1.00  0.00     0.051 A 
ENDROOT
BRANCH   1   7
ATOM      7  O   UNL     1      -4.422 -11.192 -42.280  1.00  0.00    -0.493 OA
ATOM      8  C   UNL     1      -5.186 -11.652 -43.390  1.00  0.00     0.278 C 
ENDBRANCH   1   7
BRANCH   2   9
ATOM      9  O   UNL     1      -3.888  -8.511 -42.412  1.00  0.00    -0.493 OA
ATOM     10  C   UNL     1      -4.371  -7.818 -43.559  1.00  0.00     0.278 C 
ENDBRANCH   2   9
BRANCH   4  11
ATOM     11  C   UNL     1       1.014  -9.413 -42.553  1.00  0.00     0.062 C 
BRANCH  11  12
ATOM     12  C   UNL     1       1.867 -10.196 -41.594  1.00  0.00    -0.030 C 
ATOM     13  C   UNL     1       3.001 -10.786 -41.983  1.00  0.00     0.004 C 
ENDBRANCH  11  12
ENDBRANCH   4  11
TORSDOF 4
ENDMDL
MODEL 4
REMARK VINA RESULT:    -3.938     16.140     18.372
REMARK INTER + INTRA:          -5.116
REMARK INTER:                  -4.845
REMARK INTRA:                  -0.271
REMARK UNBOUND:                -0.257
REMARK SMILES C=CCc1ccc(OC)c(OC)c1
REMARK SMILES IDX 7 1 10 2 13 3 4 4 5 5 6 6 8 7 9 8 11 9 12 10 3 11 2 12 1 13
REMARK H PARENT
REMARK Flexibility Score: inf
ROOT
ATOM      1  C   UNL     1      -0.905  -7.946 -36.906  1.00  0.00     0.160 A 
ATOM      2  C   UNL     1      -0.635  -9.305 -37.129  1.00  0.00     0.160 A 
ATOM      3  C   UNL     1      -0.626  -9.807 -38.445  1.00  0.00     0.054 A 
ATOM      4  C   UNL     1      -0.880  -8.961 -39.534  1.00  0.00    -0.040 A 
ATOM      5  C   UNL     1      -1.160  -7.608 -39.302  1.00  0.00     0.008 A 
ATOM      6  C   UNL     1      -1.169  -7.100 -38.001  1.00  0.00     0.051 A 
ENDROOT
BRANCH   1   7
ATOM      7  O   UNL     1      -0.905  -7.473 -35.584  1.00  0.00    -0.493 OA
ATOM      8  C   UNL     1      -2.025  -6.878 -34.939  1.00  0.00     0.278 C 
ENDBRANCH   1   7
BRANCH   2   9
ATOM      9  O   UNL     1      -0.381 -10.124 -36.017  1.00  0.00    -0.493 OA
ATOM     10  C   UNL     1      -1.385 -10.792 -35.260  1.00  0.00     0.278 C 
ENDBRANCH   2   9
BRANCH   4  11
ATOM     11  C   UNL     1      -0.902  -9.507 -40.937  1.00  0.00     0.062 C 
BRANCH  11  12
ATOM     12  C   UNL     1       0.423 -10.125 -41.288  1.00  0.00    -0.030 C 
ATOM     13  C   UNL     1       1.282  -9.523 -42.115  1.00  0.00     0.004 C 
ENDBRANCH  11  12
ENDBRANCH   4  11
TORSDOF 4
ENDMDL
MODEL 5
REMARK VINA RESULT:    -3.922     13.949     17.210
REMARK INTER + INTRA:          -5.096
REMARK INTER:                  -4.797
REMARK INTRA:                  -0.299
REMARK UNBOUND:                -0.257
REMARK SMILES C=CCc1ccc(OC)c(OC)c1
REMARK SMILES IDX 7 1 10 2 13 3 4 4 5 5 6 6 8 7 9 8 11 9 12 10 3 11 2 12 1 13
REMARK H PARENT
REMARK Flexibility Score: inf
ROOT
ATOM      1  C   UNL     1      -1.521 -10.101 -41.424  1.00  0.00     0.160 A 
ATOM      2  C   UNL     1      -0.354 -10.100 -40.643  1.00  0.00     0.160 A 
ATOM      3  C   UNL     1      -0.194  -9.133 -39.632  1.00  0.00     0.054 A 
ATOM      4  C   UNL     1      -1.190  -8.174 -39.396  1.00  0.00    -0.040 A 
ATOM      5  C   UNL     1      -2.346  -8.175 -40.187  1.00  0.00     0.008 A 
ATOM      6  C   UNL     1      -2.515  -9.131 -41.190  1.00  0.00     0.051 A 
ENDROOT
BRANCH   1   7
ATOM      7  O   UNL     1      -1.655 -11.078 -42.423  1.00  0.00    -0.493 OA
ATOM      8  C   UNL     1      -2.615 -12.129 -42.400  1.00  0.00     0.278 C 
ENDBRANCH   1   7
BRANCH   2   9
ATOM      9  O   UNL     1       0.621 -11.076 -40.903  1.00  0.00    -0.493 OA
ATOM     10  C   UNL     1       1.831 -10.838 -41.616  1.00  0.00     0.278 C 
ENDBRANCH   2   9
BRANCH   4  11
ATOM     11  C   UNL     1      -1.001  -7.121 -38.335  1.00  0.00     0.062 C 
BRANCH  11  12
ATOM     12  C   UNL     1      -0.370  -7.713 -37.105  1.00  0.00    -0.030 C 
ATOM     13  C   UNL     1      -1.102  -8.297 -36.152  1.00  0.00     0.004 C 
ENDBRANCH  11  12
ENDBRANCH   4  11
TORSDOF 4
ENDMDL
MODEL 6
REMARK VINA RESULT:    -3.902     13.098     15.719
REMARK INTER + INTRA:          -5.072
REMARK INTER:                  -4.826
REMARK INTRA:                  -0.246
REMARK UNBOUND:                -0.257
REMARK SMILES C=CCc1ccc(OC)c(OC)c1
REMARK SMILES IDX 7 1 10 2 13 3 4 4 5 5 6 6 8 7 9 8 11 9 12 10 3 11 2 12 1 13
REMARK H PARENT
REMARK Flexibility Score: inf
ROOT
ATOM      1  C   UNL     1       1.159 -11.301 -42.121  1.00  0.00     0.160 A 
ATOM      2  C   UNL     1       0.525 -11.678 -40.927  1.00  0.00     0.160 A 
ATOM      3  C   UNL     1      -0.336 -10.770 -40.279  1.00  0.00     0.054 A 
ATOM      4  C   UNL     1      -0.568  -9.497 -40.819  1.00  0.00    -0.040 A 
ATOM      5  C   UNL     1       0.077  -9.125 -42.006  1.00  0.00     0.008 A 
ATOM      6  C   UNL     1       0.931 -10.018 -42.656  1.00  0.00     0.051 A 
ENDROOT
BRANCH   1   7
ATOM      7  O   UNL     1       2.010 -12.227 -42.746  1.00  0.00    -0.493 OA
ATOM      8  C   UNL     1       2.272 -12.266 -44.144  1.00  0.00     0.278 C 
ENDBRANCH   1   7
BRANCH   2   9
ATOM      9  O   UNL     1       0.776 -12.961 -40.415  1.00  0.00    -0.493 OA
ATOM     10  C   UNL     1      -0.167 -13.736 -39.682  1.00  0.00     0.278 C 
ENDBRANCH   2   9
BRANCH   4  11
ATOM     11  C   UNL     1      -1.464  -8.517 -40.107  1.00  0.00     0.062 C 
BRANCH  11  12
ATOM     12  C   UNL     1      -0.973  -8.267 -38.708  1.00  0.00    -0.030 C 
ATOM     13  C   UNL     1      -0.784  -7.030 -38.241  1.00  0.00     0.004 C 
ENDBRANCH  11  12
ENDBRANCH   4  11
TORSDOF 4
ENDMDL
MODEL 7
REMARK VINA RESULT:    -3.876     15.474     16.831
REMARK INTER + INTRA:          -5.040
REMARK INTER:                  -4.714
REMARK INTRA:                  -0.325
REMARK UNBOUND:                -0.257
REMARK SMILES C=CCc1ccc(OC)c(OC)c1
REMARK SMILES IDX 7 1 10 2 13 3 4 4 5 5 6 6 8 7 9 8 11 9 12 10 3 11 2 12 1 13
REMARK H PARENT
REMARK Flexibility Score: inf
ROOT
ATOM      1  C   UNL     1      -1.030  -8.915 -39.945  1.00  0.00     0.160 A 
ATOM      2  C   UNL     1      -0.521  -9.454 -41.137  1.00  0.00     0.160 A 
ATOM      3  C   UNL     1      -1.256  -9.321 -42.331  1.00  0.00     0.054 A 
ATOM      4  C   UNL     1      -2.489  -8.652 -42.341  1.00  0.00    -0.040 A 
ATOM      5  C   UNL     1      -2.995  -8.126 -41.145  1.00  0.00     0.008 A 
ATOM      6  C   UNL     1      -2.272  -8.251 -39.956  1.00  0.00     0.051 A 
ENDROOT
BRANCH   1   7
ATOM      7  O   UNL     1      -0.275  -9.060 -38.771  1.00  0.00    -0.493 OA
ATOM      8  C   UNL     1      -0.822  -9.356 -37.491  1.00  0.00     0.278 C 
ENDBRANCH   1   7
BRANCH   2   9
ATOM      9  O   UNL     1       0.717 -10.115 -41.094  1.00  0.00    -0.493 OA
ATOM     10  C   UNL     1       1.784  -9.889 -42.009  1.00  0.00     0.278 C 
ENDBRANCH   2   9
BRANCH   4  11
ATOM     11  C   UNL     1      -3.288  -8.540 -43.612  1.00  0.00     0.062 C 
BRANCH  11  12
ATOM     12  C   UNL     1      -4.659  -9.131 -43.434  1.00  0.00    -0.030 C 
ATOM     13  C   UNL     1      -4.843 -10.446 -43.286  1.00  0.00     0.004 C 
ENDBRANCH  11  12
ENDBRANCH   4  11
TORSDOF 4
ENDMDL
MODEL 8
REMARK VINA RESULT:    -3.855     14.337     16.549
REMARK INTER + INTRA:          -5.014
REMARK INTER:                  -4.695
REMARK INTRA:                  -0.319
REMARK UNBOUND:                -0.257
REMARK SMILES C=CCc1ccc(OC)c(OC)c1
REMARK SMILES IDX 7 1 10 2 13 3 4 4 5 5 6 6 8 7 9 8 11 9 12 10 3 11 2 12 1 13
REMARK H PARENT
REMARK Flexibility Score: inf
ROOT
ATOM      1  C   UNL     1      -2.300  -9.315 -40.909  1.00  0.00     0.160 A 
ATOM      2  C   UNL     1      -1.339  -9.701 -39.961  1.00  0.00     0.160 A 
ATOM      3  C   UNL     1      -0.001  -9.886 -40.360  1.00  0.00     0.054 A 
ATOM      4  C   UNL     1       0.381  -9.684 -41.694  1.00  0.00    -0.040 A 
ATOM      5  C   UNL     1      -0.586  -9.309 -42.637  1.00  0.00     0.008 A 
ATOM      6  C   UNL     1      -1.914  -9.122 -42.250  1.00  0.00     0.051 A 
ENDROOT
BRANCH   1   7
ATOM      7  O   UNL     1      -3.625  -9.136 -40.483  1.00  0.00    -0.493 OA
ATOM      8  C   UNL     1      -4.664 -10.095 -40.650  1.00  0.00     0.278 C 
ENDBRANCH   1   7
BRANCH   2   9
ATOM      9  O   UNL     1      -1.755  -9.892 -38.633  1.00  0.00    -0.493 OA
ATOM     10  C   UNL     1      -0.974  -9.562 -37.489  1.00  0.00     0.278 C 
ENDBRANCH   2   9
BRANCH   4  11
ATOM     11  C   UNL     1       1.806  -9.914 -42.124  1.00  0.00     0.062 C 
BRANCH  11  12
ATOM     12  C   UNL     1       1.857 -10.483 -43.515  1.00  0.00    -0.030 C 
ATOM     13  C   UNL     1       2.052 -11.786 -43.734  1.00  0.00     0.004 C 
ENDBRANCH  11  12
ENDBRANCH   4  11
TORSDOF 4
ENDMDL
MODEL 9
REMARK VINA RESULT:    -3.833     16.064     17.596
REMARK INTER + INTRA:          -4.986
REMARK INTER:                  -4.640
REMARK INTRA:                  -0.346
REMARK UNBOUND:                -0.257
REMARK SMILES C=CCc1ccc(OC)c(OC)c1
REMARK SMILES IDX 7 1 10 2 13 3 4 4 5 5 6 6 8 7 9 8 11 9 12 10 3 11 2 12 1 13
REMARK H PARENT
REMARK Flexibility Score: inf
ROOT
ATOM      1  C   UNL     1      -1.205 -10.193 -36.839  1.00  0.00     0.160 A 
ATOM      2  C   UNL     1      -0.701  -8.925 -37.170  1.00  0.00     0.160 A 
ATOM      3  C   UNL     1      -0.534  -8.573 -38.524  1.00  0.00     0.054 A 
ATOM      4  C   UNL     1      -0.870  -9.477 -39.543  1.00  0.00    -0.040 A 
ATOM      5  C   UNL     1      -1.362 -10.744 -39.204  1.00  0.00     0.008 A 
ATOM      6  C   UNL     1      -1.533 -11.100 -37.864  1.00  0.00     0.051 A 
ENDROOT
BRANCH   1   7
ATOM      7  O   UNL     1      -1.363 -10.514 -35.482  1.00  0.00    -0.493 OA
ATOM      8  C   UNL     1      -0.450 -11.304 -34.727  1.00  0.00     0.278 C 
ENDBRANCH   1   7
BRANCH   2   9
ATOM      9  O   UNL     1      -0.378  -8.044 -36.126  1.00  0.00    -0.493 OA
ATOM     10  C   UNL     1      -1.135  -6.888 -35.781  1.00  0.00     0.278 C 
ENDBRANCH   2   9
BRANCH   4  11
ATOM     11  C   UNL     1      -0.660  -9.110 -40.988  1.00  0.00     0.062 C 
BRANCH  11  12
ATOM     12  C   UNL     1       0.241 -10.106 -41.664  1.00  0.00    -0.030 C 
ATOM     13  C   UNL     1       1.566  -9.945 -41.699  1.00  0.00     0.004 C 
ENDBRANCH  11  12
ENDBRANCH   4  11
TORSDOF 4
ENDMDL
