MODEL 1
REMARK VINA RESULT:    -4.259      0.000      0.000
REMARK INTER + INTRA:          -5.374
REMARK INTER:                  -5.255
REMARK INTRA:                  -0.119
REMARK UNBOUND:                -0.119
REMARK SMILES CCCCCC(=O)[O-]
REMARK SMILES IDX 4 1 5 2 6 3 7 4 8 5 3 6 2 7 1 8
REMARK H PARENT
REMARK Flexibility Score: inf
ROOT
ATOM      1  C   UNL     1       9.976   1.433 -34.224  1.00  0.00     0.006 C 
ENDROOT
BRANCH   1   2
ATOM      2  C   UNL     1       9.698   1.562 -35.727  1.00  0.00     0.053 C 
BRANCH   2   3
ATOM      3  C   UNL     1       8.285   1.997 -35.960  1.00  0.00     0.041 C 
ATOM      4  O   UNL     1       7.444   1.943 -35.026  1.00  0.00    -0.550 OA
ATOM      5  O   UNL     1       7.910   2.507 -37.197  1.00  0.00    -0.550 OA
ENDBRANCH   2   3
ENDBRANCH   1   2
BRANCH   1   6
ATOM      6  C   UNL     1      11.459   1.636 -33.878  1.00  0.00     0.000 C 
BRANCH   6   7
ATOM      7  C   UNL     1      12.238   2.338 -35.001  1.00  0.00    -0.003 C 
ATOM      8  C   UNL     1      13.708   1.930 -34.988  1.00  0.00     0.004 C 
ENDBRANCH   6   7
ENDBRANCH   1   6
TORSDOF 4
ENDMDL
MODEL 2
REMARK VINA RESULT:    -4.117      1.189      1.315
REMARK INTER + INTRA:          -5.198
REMARK INTER:                  -5.122
REMARK INTRA:                  -0.076
REMARK UNBOUND:                -0.119
REMARK SMILES CCCCCC(=O)[O-]
REMARK SMILES IDX 4 1 5 2 6 3 7 4 8 5 3 6 2 7 1 8
REMARK H PARENT
REMARK Flexibility Score: inf
ROOT
ATOM      1  C   UNL     1      10.877   1.813 -35.034  1.00  0.00     0.006 C 
ENDROOT
BRANCH   1   2
ATOM      2  C   UNL     1       9.428   1.378 -34.777  1.00  0.00     0.053 C 
BRANCH   2   3
ATOM      3  C   UNL     1       8.686   1.249 -36.070  1.00  0.00     0.041 C 
ATOM      4  O   UNL     1       8.542   0.121 -36.609  1.00  0.00    -0.550 OA
ATOM      5  O   UNL     1       8.110   2.370 -36.656  1.00  0.00    -0.550 OA
ENDBRANCH   2   3
ENDBRANCH   1   2
BRANCH   1   6
ATOM      6  C   UNL     1      11.823   1.421 -33.889  1.00  0.00     0.000 C 
BRANCH   6   7
ATOM      7  C   UNL     1      13.303   1.488 -34.294  1.00  0.00    -0.003 C 
ATOM      8  C   UNL     1      13.528   2.532 -35.385  1.00  0.00     0.004 C 
ENDBRANCH   6   7
ENDBRANCH   1   6
TORSDOF 4
ENDMDL
MODEL 3
REMARK VINA RESULT:    -4.116      2.627      4.309
REMARK INTER + INTRA:          -5.197
REMARK INTER:                  -5.097
REMARK INTRA:                  -0.100
REMARK UNBOUND:                -0.119
REMARK SMILES CCCCCC(=O)[O-]
REMARK SMILES IDX 4 1 5 2 6 3 7 4 8 5 3 6 2 7 1 8
REMARK H PARENT
REMARK Flexibility Score: inf
ROOT
ATOM      1  C   UNL     1       9.211   1.437 -35.487  1.00  0.00     0.006 C 
ENDROOT
BRANCH   1   2
ATOM      2  C   UNL     1      10.667   1.903 -35.352  1.00  0.00     0.053 C 
BRANCH   2   3
ATOM      3  C   UNL     1      11.233   1.467 -34.037  1.00  0.00     0.041 C 
ATOM      4  O   UNL     1      12.458   1.197 -33.933  1.00  0.00    -0.550 OA
ATOM      5  O   UNL     1      10.416   1.407 -32.914  1.00  0.00    -0.550 OA
ENDBRANCH   2   3
ENDBRANCH   1   2
BRANCH   1   6
ATOM      6  C   UNL     1       8.476   2.127 -36.646  1.00  0.00     0.000 C 
BRANCH   6   7
ATOM      7  C   UNL     1       7.911   1.129 -37.667  1.00  0.00    -0.003 C 
ATOM      8  C   UNL     1       9.029   0.343 -38.344  1.00  0.00     0.004 C 
ENDBRANCH   6   7
ENDBRANCH   1   6
TORSDOF 4
ENDMDL
MODEL 4
REMARK VINA RESULT:    -4.079      3.481      3.861
REMARK INTER + INTRA:          -5.152
REMARK INTER:                  -4.963
REMARK INTRA:                  -0.189
REMARK UNBOUND:                -0.119
REMARK SMILES CCCCCC(=O)[O-]
REMARK SMILES IDX 4 1 5 2 6 3 7 4 8 5 3 6 2 7 1 8
REMARK H PARENT
REMARK Flexibility Score: inf
ROOT
ATOM      1  C   UNL     1      11.555   1.265 -33.713  1.00  0.00     0.006 C 
ENDROOT
BRANCH   1   2
ATOM      2  C   UNL     1      10.393   1.617 -32.775  1.00  0.00     0.053 C 
BRANCH   2   3
ATOM      3  C   UNL     1      10.906   2.292 -31.541  1.00  0.00     0.041 C 
ATOM      4  O   UNL     1      10.783   1.737 -30.418  1.00  0.00    -0.550 OA
ATOM      5  O   UNL     1      11.563   3.512 -31.639  1.00  0.00    -0.550 OA
ENDBRANCH   2   3
ENDBRANCH   1   2
BRANCH   1   6
ATOM      6  C   UNL     1      11.630   2.194 -34.933  1.00  0.00     0.000 C 
BRANCH   6   7
ATOM      7  C   UNL     1      13.075   2.502 -35.354  1.00  0.00    -0.003 C 
ATOM      8  C   UNL     1      14.046   2.265 -34.201  1.00  0.00     0.004 C 
ENDBRANCH   6   7
ENDBRANCH   1   6
TORSDOF 4
ENDMDL
MODEL 5
REMARK VINA RESULT:    -4.045      1.464      1.944
REMARK INTER + INTRA:          -5.110
REMARK INTER:                  -4.925
REMARK INTRA:                  -0.185
REMARK UNBOUND:                -0.119
REMARK SMILES CCCCCC(=O)[O-]
REMARK SMILES IDX 4 1 5 2 6 3 7 4 8 5 3 6 2 7 1 8
REMARK H PARENT
REMARK Flexibility Score: inf
ROOT
ATOM      1  C   UNL     1      11.704   2.177 -33.597  1.00  0.00     0.006 C 
ENDROOT
BRANCH   1   2
ATOM      2  C   UNL     1      10.428   1.387 -33.276  1.00  0.00     0.053 C 
BRANCH   2   3
ATOM      3  C   UNL     1       9.477   1.441 -34.430  1.00  0.00     0.041 C 
ATOM      4  O   UNL     1       8.238   1.335 -34.236  1.00  0.00    -0.550 OA
ATOM      5  O   UNL     1       9.957   1.658 -35.716  1.00  0.00    -0.550 OA
ENDBRANCH   2   3
ENDBRANCH   1   2
BRANCH   1   6
ATOM      6  C   UNL     1      12.907   1.266 -33.880  1.00  0.00     0.000 C 
BRANCH   6   7
ATOM      7  C   UNL     1      13.810   1.808 -34.999  1.00  0.00    -0.003 C 
ATOM      8  C   UNL     1      13.199   3.048 -35.645  1.00  0.00     0.004 C 
ENDBRANCH   6   7
ENDBRANCH   1   6
TORSDOF 4
ENDMDL
MODEL 6
REMARK VINA RESULT:    -3.835      3.144      4.513
REMARK INTER + INTRA:          -4.850
REMARK INTER:                  -4.778
REMARK INTRA:                  -0.072
REMARK UNBOUND:                -0.119
REMARK SMILES CCCCCC(=O)[O-]
REMARK SMILES IDX 4 1 5 2 6 3 7 4 8 5 3 6 2 7 1 8
REMARK H PARENT
REMARK Flexibility Score: inf
ROOT
ATOM      1  C   UNL     1      10.635   1.507 -34.148  1.00  0.00     0.006 C 
ENDROOT
BRANCH   1   2
ATOM      2  C   UNL     1      11.813   2.346 -33.633  1.00  0.00     0.053 C 
BRANCH   2   3
ATOM      3  C   UNL     1      13.055   2.028 -34.405  1.00  0.00     0.041 C 
ATOM      4  O   UNL     1      13.676   0.955 -34.191  1.00  0.00    -0.550 OA
ATOM      5  O   UNL     1      13.500   2.896 -35.395  1.00  0.00    -0.550 OA
ENDBRANCH   2   3
ENDBRANCH   1   2
BRANCH   1   6
ATOM      6  C   UNL     1      10.271   1.832 -35.604  1.00  0.00     0.000 C 
BRANCH   6   7
ATOM      7  C   UNL     1       8.931   1.215 -36.031  1.00  0.00    -0.003 C 
ATOM      8  C   UNL     1       8.083   2.222 -36.801  1.00  0.00     0.004 C 
ENDBRANCH   6   7
ENDBRANCH   1   6
TORSDOF 4
ENDMDL
MODEL 7
REMARK VINA RESULT:    -3.817      0.863      1.481
REMARK INTER + INTRA:          -4.828
REMARK INTER:                  -4.782
REMARK INTRA:                  -0.047
REMARK UNBOUND:                -0.119
REMARK SMILES CCCCCC(=O)[O-]
REMARK SMILES IDX 4 1 5 2 6 3 7 4 8 5 3 6 2 7 1 8
REMARK H PARENT
REMARK Flexibility Score: inf
ROOT
ATOM      1  C   UNL     1      10.079   1.551 -34.760  1.00  0.00     0.006 C 
ENDROOT
BRANCH   1   2
ATOM      2  C   UNL     1       9.423   1.574 -36.147  1.00  0.00     0.053 C 
BRANCH   2   3
ATOM      3  C   UNL     1       7.940   1.721 -36.020  1.00  0.00     0.041 C 
ATOM      4  O   UNL     1       7.209   1.686 -37.044  1.00  0.00    -0.550 OA
ATOM      5  O   UNL     1       7.359   1.847 -34.764  1.00  0.00    -0.550 OA
ENDBRANCH   2   3
ENDBRANCH   1   2
BRANCH   1   6
ATOM      6  C   UNL     1      11.567   1.931 -34.804  1.00  0.00     0.000 C 
BRANCH   6   7
ATOM      7  C   UNL     1      12.189   2.051 -33.405  1.00  0.00    -0.003 C 
ATOM      8  C   UNL     1      13.701   2.237 -33.490  1.00  0.00     0.004 C 
ENDBRANCH   6   7
ENDBRANCH   1   6
TORSDOF 4
ENDMDL
MODEL 8
REMARK VINA RESULT:    -3.681      3.325      4.107
REMARK INTER + INTRA:          -4.660
REMARK INTER:                  -4.547
REMARK INTRA:                  -0.113
REMARK UNBOUND:                -0.119
REMARK SMILES CCCCCC(=O)[O-]
REMARK SMILES IDX 4 1 5 2 6 3 7 4 8 5 3 6 2 7 1 8
REMARK H PARENT
REMARK Flexibility Score: inf
ROOT
ATOM      1  C   UNL     1       7.763   1.874 -35.458  1.00  0.00     0.006 C 
ENDROOT
BRANCH   1   2
ATOM      2  C   UNL     1       7.471   1.141 -34.142  1.00  0.00     0.053 C 
BRANCH   2   3
ATOM      3  C   UNL     1       6.168   0.409 -34.231  1.00  0.00     0.041 C 
ATOM      4  O   UNL     1       6.059  -0.601 -34.973  1.00  0.00    -0.550 OA
ATOM      5  O   UNL     1       5.089   0.815 -33.456  1.00  0.00    -0.550 OA
ENDBRANCH   2   3
ENDBRANCH   1   2
BRANCH   1   6
ATOM      6  C   UNL     1       8.814   1.152 -36.315  1.00  0.00     0.000 C 
BRANCH   6   7
ATOM      7  C   UNL     1       8.378   0.997 -37.779  1.00  0.00    -0.003 C 
ATOM      8  C   UNL     1       8.872  -0.324 -38.363  1.00  0.00     0.004 C 
ENDBRANCH   6   7
ENDBRANCH   1   6
TORSDOF 4
ENDMDL
MODEL 9
REMARK VINA RESULT:    -3.647      3.599      4.259
REMARK INTER + INTRA:          -4.619
REMARK INTER:                  -4.533
REMARK INTRA:                  -0.086
REMARK UNBOUND:                -0.119
REMARK SMILES CCCCCC(=O)[O-]
REMARK SMILES IDX 4 1 5 2 6 3 7 4 8 5 3 6 2 7 1 8
REMARK H PARENT
REMARK Flexibility Score: inf
ROOT
ATOM      1  C   UNL     1       8.025   1.146 -35.100  1.00  0.00     0.006 C 
ENDROOT
BRANCH   1   2
ATOM      2  C   UNL     1       6.919   1.546 -34.115  1.00  0.00     0.053 C 
BRANCH   2   3
ATOM      3  C   UNL     1       7.442   1.542 -32.713  1.00  0.00     0.041 C 
ATOM      4  O   UNL     1       8.677   1.436 -32.498  1.00  0.00    -0.550 OA
ATOM      5  O   UNL     1       6.568   1.702 -31.644  1.00  0.00    -0.550 OA
ENDBRANCH   2   3
ENDBRANCH   1   2
BRANCH   1   6
ATOM      6  C   UNL     1       8.175   2.144 -36.257  1.00  0.00     0.000 C 
BRANCH   6   7
ATOM      7  C   UNL     1       7.866   1.516 -37.624  1.00  0.00    -0.003 C 
ATOM      8  C   UNL     1       8.952   0.524 -38.031  1.00  0.00     0.004 C 
ENDBRANCH   6   7
ENDBRANCH   1   6
TORSDOF 4
ENDMDL
