MODEL 1
REMARK VINA RESULT:    -5.436      0.000      0.000
REMARK INTER + INTRA:          -6.110
REMARK INTER:                  -6.072
REMARK INTRA:                  -0.038
REMARK UNBOUND:                -0.038
REMARK SMILES O=C([O-])c1ccc(O)c(O)c1
REMARK SMILES IDX 4 1 11 2 5 3 9 4 6 5 7 6 2 7 1 8 3 9 10 10 8 12
REMARK H PARENT 10 11 8 13
REMARK Flexibility Score: inf
ROOT
ATOM      1  C   UNL     1      -0.097  -0.524  23.627  1.00  0.00     0.001 A 
ATOM      2  C   UNL     1      -0.257   0.861  23.809  1.00  0.00     0.060 A 
ATOM      3  C   UNL     1       1.190  -1.080  23.722  1.00  0.00     0.014 A 
ATOM      4  C   UNL     1       0.846   1.679  24.080  1.00  0.00     0.158 A 
ATOM      5  C   UNL     1       2.293  -0.266  23.994  1.00  0.00     0.051 A 
ATOM      6  C   UNL     1       2.129   1.113  24.174  1.00  0.00     0.157 A 
ENDROOT
BRANCH   1   7
ATOM      7  C   UNL     1      -1.263  -1.388  23.340  1.00  0.00     0.072 C 
ATOM      8  O   UNL     1      -1.279  -2.125  22.319  1.00  0.00    -0.545 OA
ATOM      9  O   UNL     1      -2.361  -1.398  24.194  1.00  0.00    -0.545 OA
ENDBRANCH   1   7
BRANCH   4  10
ATOM     10  O   UNL     1       0.649   3.048  24.254  1.00  0.00    -0.504 OA
ATOM     11  H   UNL     1       0.176   3.426  25.066  1.00  0.00     0.293 HD
ENDBRANCH   4  10
BRANCH   6  12
ATOM     12  O   UNL     1       3.232   1.922  24.445  1.00  0.00    -0.504 OA
ATOM     13  H   UNL     1       3.361   2.814  23.983  1.00  0.00     0.293 HD
ENDBRANCH   6  12
TORSDOF 3
ENDMDL
MODEL 2
REMARK VINA RESULT:    -4.956      1.709      4.388
REMARK INTER + INTRA:          -5.574
REMARK INTER:                  -5.538
REMARK INTRA:                  -0.036
REMARK UNBOUND:                -0.038
REMARK SMILES O=C([O-])c1ccc(O)c(O)c1
REMARK SMILES IDX 4 1 11 2 5 3 9 4 6 5 7 6 2 7 1 8 3 9 10 10 8 12
REMARK H PARENT 10 11 8 13
REMARK Flexibility Score: inf
ROOT
ATOM      1  C   UNL     1       1.088   1.317  24.043  1.00  0.00     0.001 A 
ATOM      2  C   UNL     1       1.999   0.287  23.752  1.00  0.00     0.060 A 
ATOM      3  C   UNL     1      -0.190   1.280  23.460  1.00  0.00     0.014 A 
ATOM      4  C   UNL     1       1.644  -0.762  22.897  1.00  0.00     0.158 A 
ATOM      5  C   UNL     1      -0.548   0.234  22.605  1.00  0.00     0.051 A 
ATOM      6  C   UNL     1       0.363  -0.790  22.319  1.00  0.00     0.157 A 
ENDROOT
BRANCH   1   7
ATOM      7  C   UNL     1       1.464   2.426  24.947  1.00  0.00     0.072 C 
ATOM      8  O   UNL     1       2.038   3.453  24.498  1.00  0.00    -0.545 OA
ATOM      9  O   UNL     1       1.190   2.349  26.309  1.00  0.00    -0.545 OA
ENDBRANCH   1   7
BRANCH   4  10
ATOM     10  O   UNL     1       2.574  -1.767  22.632  1.00  0.00    -0.504 OA
ATOM     11  H   UNL     1       2.331  -2.605  22.118  1.00  0.00     0.293 HD
ENDBRANCH   4  10
BRANCH   6  12
ATOM     12  O   UNL     1       0.002  -1.832  21.467  1.00  0.00    -0.504 OA
ATOM     13  H   UNL     1      -0.199  -1.670  20.487  1.00  0.00     0.293 HD
ENDBRANCH   6  12
TORSDOF 3
ENDMDL
MODEL 3
REMARK VINA RESULT:    -4.883      1.618      4.240
REMARK INTER + INTRA:          -5.492
REMARK INTER:                  -5.449
REMARK INTRA:                  -0.043
REMARK UNBOUND:                -0.038
REMARK SMILES O=C([O-])c1ccc(O)c(O)c1
REMARK SMILES IDX 4 1 11 2 5 3 9 4 6 5 7 6 2 7 1 8 3 9 10 10 8 12
REMARK H PARENT 10 11 8 13
REMARK Flexibility Score: inf
ROOT
ATOM      1  C   UNL     1       0.764   1.382  24.362  1.00  0.00     0.001 A 
ATOM      2  C   UNL     1       0.420   1.581  23.013  1.00  0.00     0.060 A 
ATOM      3  C   UNL     1       0.581   0.112  24.932  1.00  0.00     0.014 A 
ATOM      4  C   UNL     1      -0.098   0.531  22.246  1.00  0.00     0.158 A 
ATOM      5  C   UNL     1       0.065  -0.939  24.168  1.00  0.00     0.051 A 
ATOM      6  C   UNL     1      -0.276  -0.737  22.825  1.00  0.00     0.157 A 
ENDROOT
BRANCH   1   7
ATOM      7  C   UNL     1       1.311   2.493  25.173  1.00  0.00     0.072 C 
ATOM      8  O   UNL     1       1.167   2.504  26.424  1.00  0.00    -0.545 OA
ATOM      9  O   UNL     1       1.992   3.542  24.564  1.00  0.00    -0.545 OA
ENDBRANCH   1   7
BRANCH   4  10
ATOM     10  O   UNL     1      -0.428   0.765  20.911  1.00  0.00    -0.504 OA
ATOM     11  H   UNL     1       0.189   0.507  20.150  1.00  0.00     0.293 HD
ENDBRANCH   4  10
BRANCH   6  12
ATOM     12  O   UNL     1      -0.790  -1.787  22.066  1.00  0.00    -0.504 OA
ATOM     13  H   UNL     1      -0.216  -2.292  21.402  1.00  0.00     0.293 HD
ENDBRANCH   6  12
TORSDOF 3
ENDMDL
MODEL 4
REMARK VINA RESULT:    -4.781     13.743     14.355
REMARK INTER + INTRA:          -5.378
REMARK INTER:                  -5.342
REMARK INTRA:                  -0.036
REMARK UNBOUND:                -0.038
REMARK SMILES O=C([O-])c1ccc(O)c(O)c1
REMARK SMILES IDX 4 1 11 2 5 3 9 4 6 5 7 6 2 7 1 8 3 9 10 10 8 12
REMARK H PARENT 10 11 8 13
REMARK Flexibility Score: inf
ROOT
ATOM      1  C   UNL     1     -10.670   8.813  24.814  1.00  0.00     0.001 A 
ATOM      2  C   UNL     1     -10.314  10.036  25.409  1.00  0.00     0.060 A 
ATOM      3  C   UNL     1     -10.307   8.574  23.478  1.00  0.00     0.014 A 
ATOM      4  C   UNL     1      -9.608  11.004  24.686  1.00  0.00     0.158 A 
ATOM      5  C   UNL     1      -9.602   9.539  22.753  1.00  0.00     0.051 A 
ATOM      6  C   UNL     1      -9.249  10.755  23.350  1.00  0.00     0.157 A 
ENDROOT
BRANCH   1   7
ATOM      7  C   UNL     1     -11.416   7.790  25.579  1.00  0.00     0.072 C 
ATOM      8  O   UNL     1     -12.672   7.727  25.510  1.00  0.00    -0.545 OA
ATOM      9  O   UNL     1     -10.741   6.881  26.387  1.00  0.00    -0.545 OA
ENDBRANCH   1   7
BRANCH   4  10
ATOM     10  O   UNL     1      -9.272  12.205  25.309  1.00  0.00    -0.504 OA
ATOM     11  H   UNL     1      -8.582  12.838  24.923  1.00  0.00     0.293 HD
ENDBRANCH   4  10
BRANCH   6  12
ATOM     12  O   UNL     1      -8.546  11.715  22.624  1.00  0.00    -0.504 OA
ATOM     13  H   UNL     1      -8.983  12.579  22.325  1.00  0.00     0.293 HD
ENDBRANCH   6  12
TORSDOF 3
ENDMDL
MODEL 5
REMARK VINA RESULT:    -4.652     12.054     13.743
REMARK INTER + INTRA:          -5.235
REMARK INTER:                  -5.195
REMARK INTRA:                  -0.039
REMARK UNBOUND:                -0.038
REMARK SMILES O=C([O-])c1ccc(O)c(O)c1
REMARK SMILES IDX 4 1 11 2 5 3 9 4 6 5 7 6 2 7 1 8 3 9 10 10 8 12
REMARK H PARENT 10 11 8 13
REMARK Flexibility Score: inf
ROOT
ATOM      1  C   UNL     1     -11.142   3.608  19.650  1.00  0.00     0.001 A 
ATOM      2  C   UNL     1     -10.264   3.198  18.631  1.00  0.00     0.060 A 
ATOM      3  C   UNL     1     -12.463   3.948  19.315  1.00  0.00     0.014 A 
ATOM      4  C   UNL     1     -10.695   3.128  17.301  1.00  0.00     0.158 A 
ATOM      5  C   UNL     1     -12.897   3.879  17.989  1.00  0.00     0.051 A 
ATOM      6  C   UNL     1     -12.020   3.470  16.977  1.00  0.00     0.157 A 
ENDROOT
BRANCH   1   7
ATOM      7  C   UNL     1     -10.685   3.682  21.055  1.00  0.00     0.072 C 
ATOM      8  O   UNL     1     -10.043   2.729  21.572  1.00  0.00    -0.545 OA
ATOM      9  O   UNL     1     -10.958   4.806  21.827  1.00  0.00    -0.545 OA
ENDBRANCH   1   7
BRANCH   4  10
ATOM     10  O   UNL     1      -9.797   2.717  16.317  1.00  0.00    -0.504 OA
ATOM     11  H   UNL     1      -9.068   3.326  15.964  1.00  0.00     0.293 HD
ENDBRANCH   4  10
BRANCH   6  12
ATOM     12  O   UNL     1     -12.456   3.402  15.655  1.00  0.00    -0.504 OA
ATOM     13  H   UNL     1     -11.911   2.934  14.940  1.00  0.00     0.293 HD
ENDBRANCH   6  12
TORSDOF 3
ENDMDL
MODEL 6
REMARK VINA RESULT:    -4.635     13.629     14.252
REMARK INTER + INTRA:          -5.216
REMARK INTER:                  -5.176
REMARK INTRA:                  -0.039
REMARK UNBOUND:                -0.038
REMARK SMILES O=C([O-])c1ccc(O)c(O)c1
REMARK SMILES IDX 4 1 11 2 5 3 9 4 6 5 7 6 2 7 1 8 3 9 10 10 8 12
REMARK H PARENT 10 11 8 13
REMARK Flexibility Score: inf
ROOT
ATOM      1  C   UNL     1     -10.746   8.600  23.857  1.00  0.00     0.001 A 
ATOM      2  C   UNL     1      -9.875   9.335  23.034  1.00  0.00     0.060 A 
ATOM      3  C   UNL     1     -11.017   9.070  25.153  1.00  0.00     0.014 A 
ATOM      4  C   UNL     1      -9.285  10.518  23.493  1.00  0.00     0.158 A 
ATOM      5  C   UNL     1     -10.430  10.250  25.615  1.00  0.00     0.051 A 
ATOM      6  C   UNL     1      -9.563  10.980  24.792  1.00  0.00     0.157 A 
ENDROOT
BRANCH   1   7
ATOM      7  C   UNL     1     -11.369   7.349  23.370  1.00  0.00     0.072 C 
ATOM      8  O   UNL     1     -10.671   6.458  22.818  1.00  0.00    -0.545 OA
ATOM      9  O   UNL     1     -12.736   7.140  23.516  1.00  0.00    -0.545 OA
ENDBRANCH   1   7
BRANCH   4  10
ATOM     10  O   UNL     1      -8.426  11.221  22.649  1.00  0.00    -0.504 OA
ATOM     11  H   UNL     1      -8.357  11.017  21.659  1.00  0.00     0.293 HD
ENDBRANCH   4  10
BRANCH   6  12
ATOM     12  O   UNL     1      -8.980  12.157  25.255  1.00  0.00    -0.504 OA
ATOM     13  H   UNL     1      -8.656  12.876  24.618  1.00  0.00     0.293 HD
ENDBRANCH   6  12
TORSDOF 3
ENDMDL
MODEL 7
REMARK VINA RESULT:    -4.626     15.469     16.323
REMARK INTER + INTRA:          -5.205
REMARK INTER:                  -5.165
REMARK INTRA:                  -0.040
REMARK UNBOUND:                -0.038
REMARK SMILES O=C([O-])c1ccc(O)c(O)c1
REMARK SMILES IDX 4 1 11 2 5 3 9 4 6 5 7 6 2 7 1 8 3 9 10 10 8 12
REMARK H PARENT 10 11 8 13
REMARK Flexibility Score: inf
ROOT
ATOM      1  C   UNL     1      -2.113   5.591   9.181  1.00  0.00     0.001 A 
ATOM      2  C   UNL     1      -3.018   4.545   9.431  1.00  0.00     0.060 A 
ATOM      3  C   UNL     1      -1.059   5.379   8.276  1.00  0.00     0.014 A 
ATOM      4  C   UNL     1      -2.875   3.308   8.791  1.00  0.00     0.158 A 
ATOM      5  C   UNL     1      -0.914   4.146   7.635  1.00  0.00     0.051 A 
ATOM      6  C   UNL     1      -1.818   3.106   7.888  1.00  0.00     0.157 A 
ENDROOT
BRANCH   1   7
ATOM      7  C   UNL     1      -2.264   6.898   9.858  1.00  0.00     0.072 C 
ATOM      8  O   UNL     1      -2.082   7.972   9.226  1.00  0.00    -0.545 OA
ATOM      9  O   UNL     1      -2.609   6.959  11.204  1.00  0.00    -0.545 OA
ENDBRANCH   1   7
BRANCH   4  10
ATOM     10  O   UNL     1      -3.792   2.293   9.064  1.00  0.00    -0.504 OA
ATOM     11  H   UNL     1      -4.517   2.395   9.764  1.00  0.00     0.293 HD
ENDBRANCH   4  10
BRANCH   6  12
ATOM     12  O   UNL     1      -1.671   1.877   7.247  1.00  0.00    -0.504 OA
ATOM     13  H   UNL     1      -1.582   1.812   6.239  1.00  0.00     0.293 HD
ENDBRANCH   6  12
TORSDOF 3
ENDMDL
MODEL 8
REMARK VINA RESULT:    -4.542     10.160     10.822
REMARK INTER + INTRA:          -5.111
REMARK INTER:                  -5.068
REMARK INTRA:                  -0.043
REMARK UNBOUND:                -0.038
REMARK SMILES O=C([O-])c1ccc(O)c(O)c1
REMARK SMILES IDX 4 1 11 2 5 3 9 4 6 5 7 6 2 7 1 8 3 9 10 10 8 12
REMARK H PARENT 10 11 8 13
REMARK Flexibility Score: inf
ROOT
ATOM      1  C   UNL     1      -4.604   3.696  15.660  1.00  0.00     0.001 A 
ATOM      2  C   UNL     1      -4.557   2.341  15.286  1.00  0.00     0.060 A 
ATOM      3  C   UNL     1      -3.684   4.592  15.092  1.00  0.00     0.014 A 
ATOM      4  C   UNL     1      -3.610   1.887  14.362  1.00  0.00     0.158 A 
ATOM      5  C   UNL     1      -2.737   4.142  14.167  1.00  0.00     0.051 A 
ATOM      6  C   UNL     1      -2.694   2.792  13.798  1.00  0.00     0.157 A 
ENDROOT
BRANCH   1   7
ATOM      7  C   UNL     1      -5.606   4.175  16.638  1.00  0.00     0.072 C 
ATOM      8  O   UNL     1      -5.979   5.378  16.637  1.00  0.00    -0.545 OA
ATOM      9  O   UNL     1      -6.150   3.303  17.575  1.00  0.00    -0.545 OA
ENDBRANCH   1   7
BRANCH   4  10
ATOM     10  O   UNL     1      -3.593   0.537  14.014  1.00  0.00    -0.504 OA
ATOM     11  H   UNL     1      -2.802   0.110  13.548  1.00  0.00     0.293 HD
ENDBRANCH   4  10
BRANCH   6  12
ATOM     12  O   UNL     1      -1.749   2.347  12.875  1.00  0.00    -0.504 OA
ATOM     13  H   UNL     1      -0.891   1.894  13.171  1.00  0.00     0.293 HD
ENDBRANCH   6  12
TORSDOF 3
ENDMDL
MODEL 9
REMARK VINA RESULT:    -3.595      0.894      1.968
REMARK INTER + INTRA:          -4.054
REMARK INTER:                  -4.018
REMARK INTRA:                  -0.036
REMARK UNBOUND:                -0.038
REMARK SMILES O=C([O-])c1ccc(O)c(O)c1
REMARK SMILES IDX 4 1 11 2 5 3 9 4 6 5 7 6 2 7 1 8 3 9 10 10 8 12
REMARK H PARENT 10 11 8 13
REMARK Flexibility Score: inf
ROOT
ATOM      1  C   UNL     1      -0.416  -0.350  23.504  1.00  0.00     0.001 A 
ATOM      2  C   UNL     1       0.895  -0.611  23.941  1.00  0.00     0.060 A 
ATOM      3  C   UNL     1      -0.777   0.969  23.179  1.00  0.00     0.014 A 
ATOM      4  C   UNL     1       1.830   0.424  24.051  1.00  0.00     0.158 A 
ATOM      5  C   UNL     1       0.156   2.004  23.288  1.00  0.00     0.051 A 
ATOM      6  C   UNL     1       1.460   1.740  23.723  1.00  0.00     0.157 A 
ENDROOT
BRANCH   1   7
ATOM      7  C   UNL     1      -1.405  -1.444  23.388  1.00  0.00     0.072 C 
ATOM      8  O   UNL     1      -1.487  -2.125  22.332  1.00  0.00    -0.545 OA
ATOM      9  O   UNL     1      -2.261  -1.737  24.445  1.00  0.00    -0.545 OA
ENDBRANCH   1   7
BRANCH   4  10
ATOM     10  O   UNL     1       3.122   0.128  24.487  1.00  0.00    -0.504 OA
ATOM     11  H   UNL     1       3.308  -0.600  25.167  1.00  0.00     0.293 HD
ENDBRANCH   4  10
BRANCH   6  12
ATOM     12  O   UNL     1       2.388   2.774  23.830  1.00  0.00    -0.504 OA
ATOM     13  H   UNL     1       2.879   3.133  23.019  1.00  0.00     0.293 HD
ENDBRANCH   6  12
TORSDOF 3
ENDMDL
