MODEL 1
REMARK VINA RESULT:    -3.512      0.000      0.000
REMARK INTER + INTRA:          -7.254
REMARK INTER:                  -5.977
REMARK INTRA:                  -1.278
REMARK UNBOUND:                -1.278
REMARK SMILES CCCCCCCCCCCCCC(=O)[O-]
REMARK SMILES IDX 8 1 9 2 10 3 11 4 12 5 13 6 14 7 15 8 16 9 7 10 6 11 5 12
REMARK SMILES IDX 4 13 3 14 2 15 1 16
REMARK H PARENT
REMARK Flexibility Score: inf
ROOT
ATOM      1  C   UNL     1       5.206  25.096   8.310  1.00  0.00     0.000 C 
ENDROOT
BRANCH   1   2
ATOM      2  C   UNL     1       4.429  24.012   9.075  1.00  0.00     0.000 C 
BRANCH   2   3
ATOM      3  C   UNL     1       4.730  24.021  10.582  1.00  0.00     0.000 C 
BRANCH   3   4
ATOM      4  C   UNL     1       3.582  24.672  11.365  1.00  0.00     0.000 C 
BRANCH   4   5
ATOM      5  C   UNL     1       4.002  24.969  12.810  1.00  0.00     0.006 C 
BRANCH   5   6
ATOM      6  C   UNL     1       3.217  26.156  13.377  1.00  0.00     0.053 C 
BRANCH   6   7
ATOM      7  C   UNL     1       2.003  25.677  14.111  1.00  0.00     0.041 C 
ATOM      8  O   UNL     1       2.032  25.547  15.363  1.00  0.00    -0.550 OA
ATOM      9  O   UNL     1       0.858  25.328  13.408  1.00  0.00    -0.550 OA
ENDBRANCH   6   7
ENDBRANCH   5   6
ENDBRANCH   4   5
ENDBRANCH   3   4
ENDBRANCH   2   3
ENDBRANCH   1   2
BRANCH   1  10
ATOM     10  C   UNL     1       4.700  25.284   6.872  1.00  0.00     0.000 C 
BRANCH  10  11
ATOM     11  C   UNL     1       4.199  23.958   6.288  1.00  0.00    -0.000 C 
BRANCH  11  12
ATOM     12  C   UNL     1       2.738  24.073   5.827  1.00  0.00    -0.000 C 
BRANCH  12  13
ATOM     13  C   UNL     1       2.246  25.535   5.794  1.00  0.00    -0.000 C 
BRANCH  13  14
ATOM     14  C   UNL     1       0.863  25.739   6.441  1.00  0.00    -0.000 C 
BRANCH  14  15
ATOM     15  C   UNL     1       0.692  25.070   7.816  1.00  0.00    -0.003 C 
ATOM     16  C   UNL     1       1.217  25.933   8.964  1.00  0.00     0.004 C 
ENDBRANCH  14  15
ENDBRANCH  13  14
ENDBRANCH  12  13
ENDBRANCH  11  12
ENDBRANCH  10  11
ENDBRANCH   1  10
TORSDOF 12
ENDMDL
MODEL 2
REMARK VINA RESULT:    -3.403      1.048      2.076
REMARK INTER + INTRA:          -7.068
REMARK INTER:                  -5.764
REMARK INTRA:                  -1.304
REMARK UNBOUND:                -1.278
REMARK SMILES CCCCCCCCCCCCCC(=O)[O-]
REMARK SMILES IDX 8 1 9 2 10 3 11 4 12 5 13 6 14 7 15 8 16 9 7 10 6 11 5 12
REMARK SMILES IDX 4 13 3 14 2 15 1 16
REMARK H PARENT
REMARK Flexibility Score: inf
ROOT
ATOM      1  C   UNL     1       4.130  24.247  10.483  1.00  0.00     0.000 C 
ENDROOT
BRANCH   1   2
ATOM      2  C   UNL     1       2.949  25.211  10.681  1.00  0.00     0.000 C 
BRANCH   2   3
ATOM      3  C   UNL     1       3.025  25.975  12.011  1.00  0.00     0.000 C 
BRANCH   3   4
ATOM      4  C   UNL     1       3.919  25.236  13.016  1.00  0.00     0.000 C 
BRANCH   4   5
ATOM      5  C   UNL     1       3.076  24.472  14.044  1.00  0.00     0.006 C 
BRANCH   5   6
ATOM      6  C   UNL     1       2.183  25.428  14.841  1.00  0.00     0.053 C 
BRANCH   6   7
ATOM      7  C   UNL     1       0.784  24.901  14.912  1.00  0.00     0.041 C 
ATOM      8  O   UNL     1       0.258  24.648  16.028  1.00  0.00    -0.550 OA
ATOM      9  O   UNL     1       0.079  24.641  13.744  1.00  0.00    -0.550 OA
ENDBRANCH   6   7
ENDBRANCH   5   6
ENDBRANCH   4   5
ENDBRANCH   3   4
ENDBRANCH   2   3
ENDBRANCH   1   2
BRANCH   1  10
ATOM     10  C   UNL     1       4.393  23.928   9.004  1.00  0.00     0.000 C 
BRANCH  10  11
ATOM     11  C   UNL     1       5.226  25.032   8.343  1.00  0.00    -0.000 C 
BRANCH  11  12
ATOM     12  C   UNL     1       4.783  25.264   6.890  1.00  0.00    -0.000 C 
BRANCH  12  13
ATOM     13  C   UNL     1       3.456  24.548   6.560  1.00  0.00    -0.000 C 
BRANCH  13  14
ATOM     14  C   UNL     1       2.316  25.507   6.168  1.00  0.00    -0.000 C 
BRANCH  14  15
ATOM     15  C   UNL     1       1.297  25.783   7.287  1.00  0.00    -0.003 C 
ATOM     16  C   UNL     1       0.708  24.504   7.883  1.00  0.00     0.004 C 
ENDBRANCH  14  15
ENDBRANCH  13  14
ENDBRANCH  12  13
ENDBRANCH  11  12
ENDBRANCH  10  11
ENDBRANCH   1  10
TORSDOF 12
ENDMDL
MODEL 3
REMARK VINA RESULT:    -3.325      1.686      2.999
REMARK INTER + INTRA:          -6.935
REMARK INTER:                  -5.494
REMARK INTRA:                  -1.441
REMARK UNBOUND:                -1.278
REMARK SMILES CCCCCCCCCCCCCC(=O)[O-]
REMARK SMILES IDX 8 1 9 2 10 3 11 4 12 5 13 6 14 7 15 8 16 9 7 10 6 11 5 12
REMARK SMILES IDX 4 13 3 14 2 15 1 16
REMARK H PARENT
REMARK Flexibility Score: inf
ROOT
ATOM      1  C   UNL     1       2.318  24.156   9.868  1.00  0.00     0.000 C 
ENDROOT
BRANCH   1   2
ATOM      2  C   UNL     1       1.224  25.091  10.408  1.00  0.00     0.000 C 
BRANCH   2   3
ATOM      3  C   UNL     1       0.339  24.416  11.467  1.00  0.00     0.000 C 
BRANCH   3   4
ATOM      4  C   UNL     1       1.132  24.146  12.752  1.00  0.00     0.000 C 
BRANCH   4   5
ATOM      5  C   UNL     1       1.017  25.324  13.727  1.00  0.00     0.006 C 
BRANCH   5   6
ATOM      6  C   UNL     1       2.305  25.493  14.539  1.00  0.00     0.053 C 
BRANCH   6   7
ATOM      7  C   UNL     1       3.448  25.847  13.641  1.00  0.00     0.041 C 
ATOM      8  O   UNL     1       3.383  26.867  12.906  1.00  0.00    -0.550 OA
ATOM      9  O   UNL     1       4.565  25.023  13.578  1.00  0.00    -0.550 OA
ENDBRANCH   6   7
ENDBRANCH   5   6
ENDBRANCH   4   5
ENDBRANCH   3   4
ENDBRANCH   2   3
ENDBRANCH   1   2
BRANCH   1  10
ATOM     10  C   UNL     1       3.732  24.722  10.066  1.00  0.00     0.000 C 
BRANCH  10  11
ATOM     11  C   UNL     1       4.696  24.177   9.006  1.00  0.00    -0.000 C 
BRANCH  11  12
ATOM     12  C   UNL     1       4.915  25.197   7.879  1.00  0.00    -0.000 C 
BRANCH  12  13
ATOM     13  C   UNL     1       4.481  24.651   6.502  1.00  0.00    -0.000 C 
BRANCH  13  14
ATOM     14  C   UNL     1       2.962  24.431   6.373  1.00  0.00    -0.000 C 
BRANCH  14  15
ATOM     15  C   UNL     1       2.127  25.722   6.324  1.00  0.00    -0.003 C 
ATOM     16  C   UNL     1       0.653  25.488   6.655  1.00  0.00     0.004 C 
ENDBRANCH  14  15
ENDBRANCH  13  14
ENDBRANCH  12  13
ENDBRANCH  11  12
ENDBRANCH  10  11
ENDBRANCH   1  10
TORSDOF 12
ENDMDL
MODEL 4
REMARK VINA RESULT:    -3.318      2.368      6.106
REMARK INTER + INTRA:          -6.924
REMARK INTER:                  -5.994
REMARK INTRA:                  -0.930
REMARK UNBOUND:                -1.278
REMARK SMILES CCCCCCCCCCCCCC(=O)[O-]
REMARK SMILES IDX 8 1 9 2 10 3 11 4 12 5 13 6 14 7 15 8 16 9 7 10 6 11 5 12
REMARK SMILES IDX 4 13 3 14 2 15 1 16
REMARK H PARENT
REMARK Flexibility Score: inf
ROOT
ATOM      1  C   UNL     1       5.001  24.923   8.920  1.00  0.00     0.000 C 
ENDROOT
BRANCH   1   2
ATOM      2  C   UNL     1       4.845  25.202   7.416  1.00  0.00     0.000 C 
BRANCH   2   3
ATOM      3  C   UNL     1       4.506  23.937   6.613  1.00  0.00     0.000 C 
BRANCH   3   4
ATOM      4  C   UNL     1       3.195  24.116   5.835  1.00  0.00     0.000 C 
BRANCH   4   5
ATOM      5  C   UNL     1       2.618  25.521   6.049  1.00  0.00     0.006 C 
BRANCH   5   6
ATOM      6  C   UNL     1       1.096  25.521   5.871  1.00  0.00     0.053 C 
BRANCH   6   7
ATOM      7  C   UNL     1       0.429  26.116   7.072  1.00  0.00     0.041 C 
ATOM      8  O   UNL     1      -0.703  26.658   6.964  1.00  0.00    -0.550 OA
ATOM      9  O   UNL     1       1.078  26.116   8.299  1.00  0.00    -0.550 OA
ENDBRANCH   6   7
ENDBRANCH   5   6
ENDBRANCH   4   5
ENDBRANCH   3   4
ENDBRANCH   2   3
ENDBRANCH   1   2
BRANCH   1  10
ATOM     10  C   UNL     1       3.773  24.227   9.524  1.00  0.00     0.000 C 
BRANCH  10  11
ATOM     11  C   UNL     1       3.381  24.866  10.861  1.00  0.00    -0.000 C 
BRANCH  11  12
ATOM     12  C   UNL     1       4.165  24.240  12.025  1.00  0.00    -0.000 C 
BRANCH  12  13
ATOM     13  C   UNL     1       4.258  25.183  13.243  1.00  0.00    -0.000 C 
BRANCH  13  14
ATOM     14  C   UNL     1       2.959  25.960  13.526  1.00  0.00    -0.000 C 
BRANCH  14  15
ATOM     15  C   UNL     1       2.238  25.557  14.824  1.00  0.00    -0.003 C 
ATOM     16  C   UNL     1       1.976  24.053  14.914  1.00  0.00     0.004 C 
ENDBRANCH  14  15
ENDBRANCH  13  14
ENDBRANCH  12  13
ENDBRANCH  11  12
ENDBRANCH  10  11
ENDBRANCH   1  10
TORSDOF 12
ENDMDL
MODEL 5
REMARK VINA RESULT:    -3.313      1.716      3.338
REMARK INTER + INTRA:          -6.915
REMARK INTER:                  -5.604
REMARK INTRA:                  -1.311
REMARK UNBOUND:                -1.278
REMARK SMILES CCCCCCCCCCCCCC(=O)[O-]
REMARK SMILES IDX 8 1 9 2 10 3 11 4 12 5 13 6 14 7 15 8 16 9 7 10 6 11 5 12
REMARK SMILES IDX 4 13 3 14 2 15 1 16
REMARK H PARENT
REMARK Flexibility Score: inf
ROOT
ATOM      1  C   UNL     1       1.950  24.270   9.657  1.00  0.00     0.000 C 
ENDROOT
BRANCH   1   2
ATOM      2  C   UNL     1       1.784  23.875  11.134  1.00  0.00     0.000 C 
BRANCH   2   3
ATOM      3  C   UNL     1       0.454  24.362  11.729  1.00  0.00     0.000 C 
BRANCH   3   4
ATOM      4  C   UNL     1       0.481  24.290  13.261  1.00  0.00     0.000 C 
BRANCH   4   5
ATOM      5  C   UNL     1       0.961  25.615  13.865  1.00  0.00     0.006 C 
BRANCH   5   6
ATOM      6  C   UNL     1       2.272  25.425  14.635  1.00  0.00     0.053 C 
BRANCH   6   7
ATOM      7  C   UNL     1       3.443  25.757  13.764  1.00  0.00     0.041 C 
ATOM      8  O   UNL     1       3.444  26.815  13.080  1.00  0.00    -0.550 OA
ATOM      9  O   UNL     1       4.511  24.875  13.668  1.00  0.00    -0.550 OA
ENDBRANCH   6   7
ENDBRANCH   5   6
ENDBRANCH   4   5
ENDBRANCH   3   4
ENDBRANCH   2   3
ENDBRANCH   1   2
BRANCH   1  10
ATOM     10  C   UNL     1       1.575  25.735   9.390  1.00  0.00     0.000 C 
BRANCH  10  11
ATOM     11  C   UNL     1       0.874  25.885   8.035  1.00  0.00    -0.000 C 
BRANCH  11  12
ATOM     12  C   UNL     1       1.450  24.906   7.002  1.00  0.00    -0.000 C 
BRANCH  12  13
ATOM     13  C   UNL     1       2.682  25.482   6.271  1.00  0.00    -0.000 C 
BRANCH  13  14
ATOM     14  C   UNL     1       3.765  24.432   5.960  1.00  0.00    -0.000 C 
BRANCH  14  15
ATOM     15  C   UNL     1       4.654  24.052   7.157  1.00  0.00    -0.003 C 
ATOM     16  C   UNL     1       5.116  25.267   7.962  1.00  0.00     0.004 C 
ENDBRANCH  14  15
ENDBRANCH  13  14
ENDBRANCH  12  13
ENDBRANCH  11  12
ENDBRANCH  10  11
ENDBRANCH   1  10
TORSDOF 12
ENDMDL
MODEL 6
REMARK VINA RESULT:    -3.283      3.071      6.292
REMARK INTER + INTRA:          -6.863
REMARK INTER:                  -5.812
REMARK INTRA:                  -1.051
REMARK UNBOUND:                -1.278
REMARK SMILES CCCCCCCCCCCCCC(=O)[O-]
REMARK SMILES IDX 8 1 9 2 10 3 11 4 12 5 13 6 14 7 15 8 16 9 7 10 6 11 5 12
REMARK SMILES IDX 4 13 3 14 2 15 1 16
REMARK H PARENT
REMARK Flexibility Score: inf
ROOT
ATOM      1  C   UNL     1       4.706  24.606   9.105  1.00  0.00     0.000 C 
ENDROOT
BRANCH   1   2
ATOM      2  C   UNL     1       4.817  25.320   7.748  1.00  0.00     0.000 C 
BRANCH   2   3
ATOM      3  C   UNL     1       4.505  24.391   6.565  1.00  0.00     0.000 C 
BRANCH   3   4
ATOM      4  C   UNL     1       2.990  24.261   6.355  1.00  0.00     0.000 C 
BRANCH   4   5
ATOM      5  C   UNL     1       2.335  25.640   6.213  1.00  0.00     0.006 C 
BRANCH   5   6
ATOM      6  C   UNL     1       1.104  25.759   7.117  1.00  0.00     0.053 C 
BRANCH   6   7
ATOM      7  C   UNL     1      -0.103  26.127   6.311  1.00  0.00     0.041 C 
ATOM      8  O   UNL     1      -0.430  25.438   5.310  1.00  0.00    -0.550 OA
ATOM      9  O   UNL     1      -0.837  27.261   6.636  1.00  0.00    -0.550 OA
ENDBRANCH   6   7
ENDBRANCH   5   6
ENDBRANCH   4   5
ENDBRANCH   3   4
ENDBRANCH   2   3
ENDBRANCH   1   2
BRANCH   1  10
ATOM     10  C   UNL     1       3.450  25.015   9.888  1.00  0.00     0.000 C 
BRANCH  10  11
ATOM     11  C   UNL     1       3.336  24.223  11.196  1.00  0.00    -0.000 C 
BRANCH  11  12
ATOM     12  C   UNL     1       4.672  24.210  11.954  1.00  0.00    -0.000 C 
BRANCH  12  13
ATOM     13  C   UNL     1       4.552  24.828  13.364  1.00  0.00    -0.000 C 
BRANCH  13  14
ATOM     14  C   UNL     1       3.507  25.956  13.459  1.00  0.00    -0.000 C 
BRANCH  14  15
ATOM     15  C   UNL     1       2.452  25.762  14.562  1.00  0.00    -0.003 C 
ATOM     16  C   UNL     1       1.076  25.390  14.007  1.00  0.00     0.004 C 
ENDBRANCH  14  15
ENDBRANCH  13  14
ENDBRANCH  12  13
ENDBRANCH  11  12
ENDBRANCH  10  11
ENDBRANCH   1  10
TORSDOF 12
ENDMDL
MODEL 7
REMARK VINA RESULT:    -3.228      3.105      6.004
REMARK INTER + INTRA:          -6.771
REMARK INTER:                  -5.563
REMARK INTRA:                  -1.208
REMARK UNBOUND:                -1.278
REMARK SMILES CCCCCCCCCCCCCC(=O)[O-]
REMARK SMILES IDX 8 1 9 2 10 3 11 4 12 5 13 6 14 7 15 8 16 9 7 10 6 11 5 12
REMARK SMILES IDX 4 13 3 14 2 15 1 16
REMARK H PARENT
REMARK Flexibility Score: inf
ROOT
ATOM      1  C   UNL     1       5.225  25.167   8.283  1.00  0.00     0.000 C 
ENDROOT
BRANCH   1   2
ATOM      2  C   UNL     1       4.688  25.295   6.848  1.00  0.00     0.000 C 
BRANCH   2   3
ATOM      3  C   UNL     1       3.972  24.022   6.370  1.00  0.00     0.000 C 
BRANCH   3   4
ATOM      4  C   UNL     1       2.596  24.357   5.778  1.00  0.00     0.000 C 
BRANCH   4   5
ATOM      5  C   UNL     1       2.136  25.753   6.215  1.00  0.00     0.006 C 
BRANCH   5   6
ATOM      6  C   UNL     1       0.993  25.661   7.232  1.00  0.00     0.053 C 
BRANCH   6   7
ATOM      7  C   UNL     1      -0.320  25.941   6.571  1.00  0.00     0.041 C 
ATOM      8  O   UNL     1      -0.966  25.008   6.025  1.00  0.00    -0.550 OA
ATOM      9  O   UNL     1      -0.806  27.241   6.513  1.00  0.00    -0.550 OA
ENDBRANCH   6   7
ENDBRANCH   5   6
ENDBRANCH   4   5
ENDBRANCH   3   4
ENDBRANCH   2   3
ENDBRANCH   1   2
BRANCH   1  10
ATOM     10  C   UNL     1       4.363  24.245   9.158  1.00  0.00     0.000 C 
BRANCH  10  11
ATOM     11  C   UNL     1       3.385  25.057  10.015  1.00  0.00    -0.000 C 
BRANCH  11  12
ATOM     12  C   UNL     1       2.359  24.143  10.702  1.00  0.00    -0.000 C 
BRANCH  12  13
ATOM     13  C   UNL     1       2.359  24.310  12.236  1.00  0.00    -0.000 C 
BRANCH  13  14
ATOM     14  C   UNL     1       3.386  25.338  12.748  1.00  0.00    -0.000 C 
BRANCH  14  15
ATOM     15  C   UNL     1       2.987  26.050  14.052  1.00  0.00    -0.003 C 
ATOM     16  C   UNL     1       1.930  25.283  14.847  1.00  0.00     0.004 C 
ENDBRANCH  14  15
ENDBRANCH  13  14
ENDBRANCH  12  13
ENDBRANCH  11  12
ENDBRANCH  10  11
ENDBRANCH   1  10
TORSDOF 12
ENDMDL
MODEL 8
REMARK VINA RESULT:    -3.142      0.876      2.871
REMARK INTER + INTRA:          -6.623
REMARK INTER:                  -5.317
REMARK INTRA:                  -1.306
REMARK UNBOUND:                -1.278
REMARK SMILES CCCCCCCCCCCCCC(=O)[O-]
REMARK SMILES IDX 8 1 9 2 10 3 11 4 12 5 13 6 14 7 15 8 16 9 7 10 6 11 5 12
REMARK SMILES IDX 4 13 3 14 2 15 1 16
REMARK H PARENT
REMARK Flexibility Score: inf
ROOT
ATOM      1  C   UNL     1       0.256  25.777   9.031  1.00  0.00     0.000 C 
ENDROOT
BRANCH   1   2
ATOM      2  C   UNL     1       1.241  24.701   9.515  1.00  0.00     0.000 C 
BRANCH   2   3
ATOM      3  C   UNL     1       2.431  25.294  10.286  1.00  0.00     0.000 C 
BRANCH   3   4
ATOM      4  C   UNL     1       3.036  24.256  11.241  1.00  0.00     0.000 C 
BRANCH   4   5
ATOM      5  C   UNL     1       3.835  24.938  12.358  1.00  0.00     0.006 C 
BRANCH   5   6
ATOM      6  C   UNL     1       3.106  26.184  12.872  1.00  0.00     0.053 C 
BRANCH   6   7
ATOM      7  C   UNL     1       2.100  25.810  13.914  1.00  0.00     0.041 C 
ATOM      8  O   UNL     1       2.441  25.729  15.123  1.00  0.00    -0.550 OA
ATOM      9  O   UNL     1       0.797  25.500  13.544  1.00  0.00    -0.550 OA
ENDBRANCH   6   7
ENDBRANCH   5   6
ENDBRANCH   4   5
ENDBRANCH   3   4
ENDBRANCH   2   3
ENDBRANCH   1   2
BRANCH   1  10
ATOM     10  C   UNL     1      -0.110  25.620   7.547  1.00  0.00     0.000 C 
BRANCH  10  11
ATOM     11  C   UNL     1       1.107  25.874   6.651  1.00  0.00    -0.000 C 
BRANCH  11  12
ATOM     12  C   UNL     1       1.326  24.712   5.671  1.00  0.00    -0.000 C 
BRANCH  12  13
ATOM     13  C   UNL     1       2.821  24.373   5.488  1.00  0.00    -0.000 C 
BRANCH  13  14
ATOM     14  C   UNL     1       3.595  24.250   6.814  1.00  0.00    -0.000 C 
BRANCH  14  15
ATOM     15  C   UNL     1       4.810  25.185   6.938  1.00  0.00    -0.003 C 
ATOM     16  C   UNL     1       5.397  25.212   8.350  1.00  0.00     0.004 C 
ENDBRANCH  14  15
ENDBRANCH  13  14
ENDBRANCH  12  13
ENDBRANCH  11  12
ENDBRANCH  10  11
ENDBRANCH   1  10
TORSDOF 12
ENDMDL
MODEL 9
REMARK VINA RESULT:    -3.049      2.712      6.538
REMARK INTER + INTRA:          -6.465
REMARK INTER:                  -5.482
REMARK INTRA:                  -0.983
REMARK UNBOUND:                -1.278
REMARK SMILES CCCCCCCCCCCCCC(=O)[O-]
REMARK SMILES IDX 8 1 9 2 10 3 11 4 12 5 13 6 14 7 15 8 16 9 7 10 6 11 5 12
REMARK SMILES IDX 4 13 3 14 2 15 1 16
REMARK H PARENT
REMARK Flexibility Score: inf
ROOT
ATOM      1  C   UNL     1       3.160  25.225  10.601  1.00  0.00     0.000 C 
ENDROOT
BRANCH   1   2
ATOM      2  C   UNL     1       3.923  24.267   9.672  1.00  0.00     0.000 C 
BRANCH   2   3
ATOM      3  C   UNL     1       4.763  25.009   8.621  1.00  0.00     0.000 C 
BRANCH   3   4
ATOM      4  C   UNL     1       4.712  24.286   7.269  1.00  0.00     0.000 C 
BRANCH   4   5
ATOM      5  C   UNL     1       3.265  24.130   6.784  1.00  0.00     0.006 C 
BRANCH   5   6
ATOM      6  C   UNL     1       2.755  25.430   6.152  1.00  0.00     0.053 C 
BRANCH   6   7
ATOM      7  C   UNL     1       1.377  25.744   6.643  1.00  0.00     0.041 C 
ATOM      8  O   UNL     1       1.192  26.075   7.844  1.00  0.00    -0.550 OA
ATOM      9  O   UNL     1       0.289  25.624   5.787  1.00  0.00    -0.550 OA
ENDBRANCH   6   7
ENDBRANCH   5   6
ENDBRANCH   4   5
ENDBRANCH   3   4
ENDBRANCH   2   3
ENDBRANCH   1   2
BRANCH   1  10
ATOM     10  C   UNL     1       3.546  25.051  12.077  1.00  0.00     0.000 C 
BRANCH  10  11
ATOM     11  C   UNL     1       3.032  26.222  12.922  1.00  0.00    -0.000 C 
BRANCH  11  12
ATOM     12  C   UNL     1       3.012  25.862  14.415  1.00  0.00    -0.000 C 
BRANCH  12  13
ATOM     13  C   UNL     1       2.176  24.597  14.702  1.00  0.00    -0.000 C 
BRANCH  13  14
ATOM     14  C   UNL     1       0.845  24.884  15.422  1.00  0.00    -0.000 C 
BRANCH  14  15
ATOM     15  C   UNL     1      -0.410  24.427  14.658  1.00  0.00    -0.003 C 
ATOM     16  C   UNL     1      -0.179  24.313  13.151  1.00  0.00     0.004 C 
ENDBRANCH  14  15
ENDBRANCH  13  14
ENDBRANCH  12  13
ENDBRANCH  11  12
ENDBRANCH  10  11
ENDBRANCH   1  10
TORSDOF 12
ENDMDL
