MODEL 1
REMARK VINA RESULT:    -4.217      0.000      0.000
REMARK INTER + INTRA:          -6.420
REMARK INTER:                  -6.189
REMARK INTRA:                  -0.231
REMARK UNBOUND:                -0.231
REMARK SMILES O=C([O-])CCCCCCCC(=O)[O-]
REMARK SMILES IDX 7 1 6 2 5 3 4 4 2 5 1 6 3 7 8 8 9 9 10 10 11 11 12 12 13 13
REMARK H PARENT
REMARK Flexibility Score: inf
ROOT
ATOM      1  C   UNL     1    -118.397 -99.104  44.749  1.00  0.00     0.000 C 
ENDROOT
BRANCH   1   2
ATOM      2  C   UNL     1    -117.928 -99.360  46.190  1.00  0.00     0.000 C 
BRANCH   2   3
ATOM      3  C   UNL     1    -118.334 -98.234  47.154  1.00  0.00     0.006 C 
BRANCH   3   4
ATOM      4  C   UNL     1    -118.505 -96.884  46.446  1.00  0.00     0.053 C 
BRANCH   4   5
ATOM      5  C   UNL     1    -118.359 -95.760  47.423  1.00  0.00     0.041 C 
ATOM      6  O   UNL     1    -118.626 -95.941  48.641  1.00  0.00    -0.550 OA
ATOM      7  O   UNL     1    -117.977 -94.499  46.982  1.00  0.00    -0.550 OA
ENDBRANCH   4   5
ENDBRANCH   3   4
ENDBRANCH   2   3
ENDBRANCH   1   2
BRANCH   1   8
ATOM      8  C   UNL     1    -117.202 -98.990  43.796  1.00  0.00     0.000 C 
BRANCH   8   9
ATOM      9  C   UNL     1    -117.595 -99.389  42.369  1.00  0.00     0.006 C 
BRANCH   9  10
ATOM     10  C   UNL     1    -116.536 -98.935  41.359  1.00  0.00     0.053 C 
BRANCH  10  11
ATOM     11  C   UNL     1    -117.180 -98.541  40.067  1.00  0.00     0.041 C 
ATOM     12  O   UNL     1    -116.896 -99.154  39.005  1.00  0.00    -0.550 OA
ATOM     13  O   UNL     1    -118.058 -97.465  40.029  1.00  0.00    -0.550 OA
ENDBRANCH  10  11
ENDBRANCH   9  10
ENDBRANCH   8   9
ENDBRANCH   1   8
TORSDOF 8
ENDMDL
MODEL 2
REMARK VINA RESULT:    -4.187      1.380      6.537
REMARK INTER + INTRA:          -6.377
REMARK INTER:                  -6.035
REMARK INTRA:                  -0.341
REMARK UNBOUND:                -0.231
REMARK SMILES O=C([O-])CCCCCCCC(=O)[O-]
REMARK SMILES IDX 7 1 6 2 5 3 4 4 2 5 1 6 3 7 8 8 9 9 10 10 11 11 12 12 13 13
REMARK H PARENT
REMARK Flexibility Score: inf
ROOT
ATOM      1  C   UNL     1    -117.995 -99.615  46.602  1.00  0.00     0.000 C 
ENDROOT
BRANCH   1   2
ATOM      2  C   UNL     1    -118.056 -98.685  45.382  1.00  0.00     0.000 C 
BRANCH   2   3
ATOM      3  C   UNL     1    -117.806 -99.426  44.058  1.00  0.00     0.006 C 
BRANCH   3   4
ATOM      4  C   UNL     1    -116.727 -98.753  43.200  1.00  0.00     0.053 C 
BRANCH   4   5
ATOM      5  C   UNL     1    -116.809 -99.237  41.786  1.00  0.00     0.041 C 
ATOM      6  O   UNL     1    -115.835 -99.843  41.267  1.00  0.00    -0.550 OA
ATOM      7  O   UNL     1    -117.941 -98.974  41.025  1.00  0.00    -0.550 OA
ENDBRANCH   4   5
ENDBRANCH   3   4
ENDBRANCH   2   3
ENDBRANCH   1   2
BRANCH   1   8
ATOM      8  C   UNL     1    -117.718 -98.822  47.884  1.00  0.00     0.000 C 
BRANCH   8   9
ATOM      9  C   UNL     1    -118.727 -97.678  48.052  1.00  0.00     0.006 C 
BRANCH   9  10
ATOM     10  C   UNL     1    -118.041 -96.415  48.583  1.00  0.00     0.053 C 
BRANCH  10  11
ATOM     11  C   UNL     1    -118.445 -95.222  47.775  1.00  0.00     0.041 C 
ATOM     12  O   UNL     1    -118.490 -95.294  46.519  1.00  0.00    -0.550 OA
ATOM     13  O   UNL     1    -118.726 -94.018  48.408  1.00  0.00    -0.550 OA
ENDBRANCH  10  11
ENDBRANCH   9  10
ENDBRANCH   8   9
ENDBRANCH   1   8
TORSDOF 8
ENDMDL
MODEL 3
REMARK VINA RESULT:    -4.010      8.481     11.362
REMARK INTER + INTRA:          -6.116
REMARK INTER:                  -5.667
REMARK INTRA:                  -0.449
REMARK UNBOUND:                -0.231
REMARK SMILES O=C([O-])CCCCCCCC(=O)[O-]
REMARK SMILES IDX 7 1 6 2 5 3 4 4 2 5 1 6 3 7 8 8 9 9 10 10 11 11 12 12 13 13
REMARK H PARENT
REMARK Flexibility Score: inf
ROOT
ATOM      1  C   UNL     1    -115.848 -97.668  33.324  1.00  0.00     0.000 C 
ENDROOT
BRANCH   1   2
ATOM      2  C   UNL     1    -115.704 -99.158  32.979  1.00  0.00     0.000 C 
BRANCH   2   3
ATOM      3  C   UNL     1    -115.393-100.024  34.211  1.00  0.00     0.006 C 
BRANCH   3   4
ATOM      4  C   UNL     1    -115.237 -99.194  35.491  1.00  0.00     0.053 C 
BRANCH   4   5
ATOM      5  C   UNL     1    -116.453 -99.330  36.353  1.00  0.00     0.041 C 
ATOM      6  O   UNL     1    -117.549 -99.692  35.848  1.00  0.00    -0.550 OA
ATOM      7  O   UNL     1    -116.390 -99.009  37.703  1.00  0.00    -0.550 OA
ENDBRANCH   4   5
ENDBRANCH   3   4
ENDBRANCH   2   3
ENDBRANCH   1   2
BRANCH   1   8
ATOM      8  C   UNL     1    -117.304 -97.210  33.181  1.00  0.00     0.000 C 
BRANCH   8   9
ATOM      9  C   UNL     1    -117.615 -96.805  31.735  1.00  0.00     0.006 C 
BRANCH   9  10
ATOM     10  C   UNL     1    -119.025 -97.248  31.332  1.00  0.00     0.053 C 
BRANCH  10  11
ATOM     11  C   UNL     1    -118.976 -98.558  30.611  1.00  0.00     0.041 C 
ATOM     12  O   UNL     1    -119.096 -98.597  29.358  1.00  0.00    -0.550 OA
ATOM     13  O   UNL     1    -118.845 -99.741  31.327  1.00  0.00    -0.550 OA
ENDBRANCH  10  11
ENDBRANCH   9  10
ENDBRANCH   8   9
ENDBRANCH   1   8
TORSDOF 8
ENDMDL
MODEL 4
REMARK VINA RESULT:    -3.974      8.300     12.088
REMARK INTER + INTRA:          -6.064
REMARK INTER:                  -5.428
REMARK INTRA:                  -0.636
REMARK UNBOUND:                -0.231
REMARK SMILES O=C([O-])CCCCCCCC(=O)[O-]
REMARK SMILES IDX 7 1 6 2 5 3 4 4 2 5 1 6 3 7 8 8 9 9 10 10 11 11 12 12 13 13
REMARK H PARENT
REMARK Flexibility Score: inf
ROOT
ATOM      1  C   UNL     1    -115.543 -97.861  33.180  1.00  0.00     0.000 C 
ENDROOT
BRANCH   1   2
ATOM      2  C   UNL     1    -116.831 -97.032  33.065  1.00  0.00     0.000 C 
BRANCH   2   3
ATOM      3  C   UNL     1    -118.101 -97.885  33.214  1.00  0.00     0.006 C 
BRANCH   3   4
ATOM      4  C   UNL     1    -119.124 -97.617  32.103  1.00  0.00     0.053 C 
BRANCH   4   5
ATOM      5  C   UNL     1    -118.743 -98.349  30.855  1.00  0.00     0.041 C 
ATOM      6  O   UNL     1    -118.681 -97.737  29.756  1.00  0.00    -0.550 OA
ATOM      7  O   UNL     1    -118.506 -99.718  30.895  1.00  0.00    -0.550 OA
ENDBRANCH   4   5
ENDBRANCH   3   4
ENDBRANCH   2   3
ENDBRANCH   1   2
BRANCH   1   8
ATOM      8  C   UNL     1    -115.856 -99.362  33.195  1.00  0.00     0.000 C 
BRANCH   8   9
ATOM      9  C   UNL     1    -115.332-100.021  34.477  1.00  0.00     0.006 C 
BRANCH   9  10
ATOM     10  C   UNL     1    -115.372 -99.041  35.654  1.00  0.00     0.053 C 
BRANCH  10  11
ATOM     11  C   UNL     1    -116.539 -99.337  36.542  1.00  0.00     0.041 C 
ATOM     12  O   UNL     1    -117.570 -99.885  36.072  1.00  0.00    -0.550 OA
ATOM     13  O   UNL     1    -116.505 -98.965  37.880  1.00  0.00    -0.550 OA
ENDBRANCH  10  11
ENDBRANCH   9  10
ENDBRANCH   8   9
ENDBRANCH   1   8
TORSDOF 8
ENDMDL
MODEL 5
REMARK VINA RESULT:    -3.727      8.077     11.985
REMARK INTER + INTRA:          -5.702
REMARK INTER:                  -5.154
REMARK INTRA:                  -0.547
REMARK UNBOUND:                -0.231
REMARK SMILES O=C([O-])CCCCCCCC(=O)[O-]
REMARK SMILES IDX 7 1 6 2 5 3 4 4 2 5 1 6 3 7 8 8 9 9 10 10 11 11 12 12 13 13
REMARK H PARENT
REMARK Flexibility Score: inf
ROOT
ATOM      1  C   UNL     1    -116.515 -99.875  32.430  1.00  0.00     0.000 C 
ENDROOT
BRANCH   1   2
ATOM      2  C   UNL     1    -117.976-100.026  32.880  1.00  0.00     0.000 C 
BRANCH   2   3
ATOM      3  C   UNL     1    -118.867 -98.869  32.401  1.00  0.00     0.006 C 
BRANCH   3   4
ATOM      4  C   UNL     1    -118.498 -98.383  30.994  1.00  0.00     0.053 C 
BRANCH   4   5
ATOM      5  C   UNL     1    -118.188 -96.919  31.012  1.00  0.00     0.041 C 
ATOM      6  O   UNL     1    -117.648 -96.398  32.023  1.00  0.00    -0.550 OA
ATOM      7  O   UNL     1    -118.543 -96.119  29.932  1.00  0.00    -0.550 OA
ENDBRANCH   4   5
ENDBRANCH   3   4
ENDBRANCH   2   3
ENDBRANCH   1   2
BRANCH   1   8
ATOM      8  C   UNL     1    -115.724 -99.008  33.417  1.00  0.00     0.000 C 
BRANCH   8   9
ATOM      9  C   UNL     1    -115.369 -99.799  34.682  1.00  0.00     0.006 C 
BRANCH   9  10
ATOM     10  C   UNL     1    -115.438 -98.906  35.925  1.00  0.00     0.053 C 
BRANCH  10  11
ATOM     11  C   UNL     1    -116.617 -99.276  36.770  1.00  0.00     0.041 C 
ATOM     12  O   UNL     1    -117.589 -99.894  36.264  1.00  0.00    -0.550 OA
ATOM     13  O   UNL     1    -116.662 -98.894  38.105  1.00  0.00    -0.550 OA
ENDBRANCH  10  11
ENDBRANCH   9  10
ENDBRANCH   8   9
ENDBRANCH   1   8
TORSDOF 8
ENDMDL
MODEL 6
REMARK VINA RESULT:    -3.422      0.847      6.813
REMARK INTER + INTRA:          -5.253
REMARK INTER:                  -4.958
REMARK INTRA:                  -0.295
REMARK UNBOUND:                -0.231
REMARK SMILES O=C([O-])CCCCCCCC(=O)[O-]
REMARK SMILES IDX 7 1 6 2 5 3 4 4 2 5 1 6 3 7 8 8 9 9 10 10 11 11 12 12 13 13
REMARK H PARENT
REMARK Flexibility Score: inf
ROOT
ATOM      1  C   UNL     1    -117.986 -97.917  43.764  1.00  0.00     0.000 C 
ENDROOT
BRANCH   1   2
ATOM      2  C   UNL     1    -116.971 -99.000  43.366  1.00  0.00     0.000 C 
BRANCH   2   3
ATOM      3  C   UNL     1    -116.197 -98.645  42.087  1.00  0.00     0.006 C 
BRANCH   3   4
ATOM      4  C   UNL     1    -116.504 -99.601  40.927  1.00  0.00     0.053 C 
BRANCH   4   5
ATOM      5  C   UNL     1    -117.174 -98.867  39.809  1.00  0.00     0.041 C 
ATOM      6  O   UNL     1    -118.042 -97.989  40.058  1.00  0.00    -0.550 OA
ATOM      7  O   UNL     1    -116.878 -99.188  38.490  1.00  0.00    -0.550 OA
ENDBRANCH   4   5
ENDBRANCH   3   4
ENDBRANCH   2   3
ENDBRANCH   1   2
BRANCH   1   8
ATOM      8  C   UNL     1    -118.990 -98.457  44.789  1.00  0.00     0.000 C 
BRANCH   8   9
ATOM      9  C   UNL     1    -118.669 -97.942  46.198  1.00  0.00     0.006 C 
BRANCH   9  10
ATOM     10  C   UNL     1    -119.125 -96.489  46.369  1.00  0.00     0.053 C 
BRANCH  10  11
ATOM     11  C   UNL     1    -118.234 -95.771  47.332  1.00  0.00     0.041 C 
ATOM     12  O   UNL     1    -117.719 -96.390  48.300  1.00  0.00    -0.550 OA
ATOM     13  O   UNL     1    -118.011 -94.407  47.189  1.00  0.00    -0.550 OA
ENDBRANCH  10  11
ENDBRANCH   9  10
ENDBRANCH   8   9
ENDBRANCH   1   8
TORSDOF 8
ENDMDL
MODEL 7
REMARK VINA RESULT:    -3.218      5.653     10.946
REMARK INTER + INTRA:          -4.955
REMARK INTER:                  -4.674
REMARK INTRA:                  -0.281
REMARK UNBOUND:                -0.231
REMARK SMILES O=C([O-])CCCCCCCC(=O)[O-]
REMARK SMILES IDX 7 1 6 2 5 3 4 4 2 5 1 6 3 7 8 8 9 9 10 10 11 11 12 12 13 13
REMARK H PARENT
REMARK Flexibility Score: inf
ROOT
ATOM      1  C   UNL     1    -115.135 -99.170  35.321  1.00  0.00     0.000 C 
ENDROOT
BRANCH   1   2
ATOM      2  C   UNL     1    -115.774 -98.087  34.438  1.00  0.00     0.000 C 
BRANCH   2   3
ATOM      3  C   UNL     1    -115.987 -98.554  32.989  1.00  0.00     0.006 C 
BRANCH   3   4
ATOM      4  C   UNL     1    -117.469 -98.608  32.599  1.00  0.00     0.053 C 
BRANCH   4   5
ATOM      5  C   UNL     1    -117.813 -97.466  31.694  1.00  0.00     0.041 C 
ATOM      6  O   UNL     1    -118.317 -97.685  30.561  1.00  0.00    -0.550 OA
ATOM      7  O   UNL     1    -117.528 -96.162  32.081  1.00  0.00    -0.550 OA
ENDBRANCH   4   5
ENDBRANCH   3   4
ENDBRANCH   2   3
ENDBRANCH   1   2
BRANCH   1   8
ATOM      8  C   UNL     1    -116.194 -99.872  36.180  1.00  0.00     0.000 C 
BRANCH   8   9
ATOM      9  C   UNL     1    -116.576 -99.014  37.393  1.00  0.00     0.006 C 
BRANCH   9  10
ATOM     10  C   UNL     1    -117.121 -99.884  38.531  1.00  0.00     0.053 C 
BRANCH  10  11
ATOM     11  C   UNL     1    -117.147 -99.113  39.812  1.00  0.00     0.041 C 
ATOM     12  O   UNL     1    -117.910 -98.119  39.938  1.00  0.00    -0.550 OA
ATOM     13  O   UNL     1    -116.294 -99.462  40.851  1.00  0.00    -0.550 OA
ENDBRANCH  10  11
ENDBRANCH   9  10
ENDBRANCH   8   9
ENDBRANCH   1   8
TORSDOF 8
ENDMDL
MODEL 8
REMARK VINA RESULT:    -3.114      5.093      8.350
REMARK INTER + INTRA:          -4.802
REMARK INTER:                  -4.538
REMARK INTRA:                  -0.264
REMARK UNBOUND:                -0.231
REMARK SMILES O=C([O-])CCCCCCCC(=O)[O-]
REMARK SMILES IDX 7 1 6 2 5 3 4 4 2 5 1 6 3 7 8 8 9 9 10 10 11 11 12 12 13 13
REMARK H PARENT
REMARK Flexibility Score: inf
ROOT
ATOM      1  C   UNL     1    -115.734 -98.947  35.834  1.00  0.00     0.000 C 
ENDROOT
BRANCH   1   2
ATOM      2  C   UNL     1    -116.567 -99.753  36.843  1.00  0.00     0.000 C 
BRANCH   2   3
ATOM      3  C   UNL     1    -116.915 -98.945  38.103  1.00  0.00     0.006 C 
BRANCH   3   4
ATOM      4  C   UNL     1    -117.348 -99.837  39.274  1.00  0.00     0.053 C 
BRANCH   4   5
ATOM      5  C   UNL     1    -116.986 -99.197  40.578  1.00  0.00     0.041 C 
ATOM      6  O   UNL     1    -117.652 -98.219  41.011  1.00  0.00    -0.550 OA
ATOM      7  O   UNL     1    -115.882 -99.647  41.291  1.00  0.00    -0.550 OA
ENDBRANCH   4   5
ENDBRANCH   3   4
ENDBRANCH   2   3
ENDBRANCH   1   2
BRANCH   1   8
ATOM      8  C   UNL     1    -115.313 -99.822  34.648  1.00  0.00     0.000 C 
BRANCH   8   9
ATOM      9  C   UNL     1    -115.856 -99.259  33.328  1.00  0.00     0.006 C 
BRANCH   9  10
ATOM     10  C   UNL     1    -117.090 -98.384  33.572  1.00  0.00     0.053 C 
BRANCH  10  11
ATOM     11  C   UNL     1    -116.965 -97.087  32.836  1.00  0.00     0.041 C 
ATOM     12  O   UNL     1    -117.442 -96.967  31.678  1.00  0.00    -0.550 OA
ATOM     13  O   UNL     1    -116.278 -96.026  33.412  1.00  0.00    -0.550 OA
ENDBRANCH  10  11
ENDBRANCH   9  10
ENDBRANCH   8   9
ENDBRANCH   1   8
TORSDOF 8
ENDMDL
MODEL 9
REMARK VINA RESULT:    -2.936      4.952      9.810
REMARK INTER + INTRA:          -4.540
REMARK INTER:                  -4.285
REMARK INTRA:                  -0.255
REMARK UNBOUND:                -0.231
REMARK SMILES O=C([O-])CCCCCCCC(=O)[O-]
REMARK SMILES IDX 7 1 6 2 5 3 4 4 2 5 1 6 3 7 8 8 9 9 10 10 11 11 12 12 13 13
REMARK H PARENT
REMARK Flexibility Score: inf
ROOT
ATOM      1  C   UNL     1    -116.521 -99.798  36.623  1.00  0.00     0.000 C 
ENDROOT
BRANCH   1   2
ATOM      2  C   UNL     1    -115.564 -98.944  35.778  1.00  0.00     0.000 C 
BRANCH   2   3
ATOM      3  C   UNL     1    -115.852 -99.043  34.272  1.00  0.00     0.006 C 
BRANCH   3   4
ATOM      4  C   UNL     1    -117.112 -98.270  33.860  1.00  0.00     0.053 C 
BRANCH   4   5
ATOM      5  C   UNL     1    -116.739 -97.012  33.140  1.00  0.00     0.041 C 
ATOM      6  O   UNL     1    -117.489 -96.552  32.239  1.00  0.00    -0.550 OA
ATOM      7  O   UNL     1    -115.538 -96.375  33.428  1.00  0.00    -0.550 OA
ENDBRANCH   4   5
ENDBRANCH   3   4
ENDBRANCH   2   3
ENDBRANCH   1   2
BRANCH   1   8
ATOM      8  C   UNL     1    -116.879 -99.088  37.933  1.00  0.00     0.000 C 
BRANCH   8   9
ATOM      9  C   UNL     1    -117.283-100.099  39.014  1.00  0.00     0.006 C 
BRANCH   9  10
ATOM     10  C   UNL     1    -118.327 -99.500  39.962  1.00  0.00     0.053 C 
BRANCH  10  11
ATOM     11  C   UNL     1    -117.829 -98.215  40.545  1.00  0.00     0.041 C 
ATOM     12  O   UNL     1    -116.959 -98.228  41.454  1.00  0.00    -0.550 OA
ATOM     13  O   UNL     1    -118.362 -97.006  40.117  1.00  0.00    -0.550 OA
ENDBRANCH  10  11
ENDBRANCH   9  10
ENDBRANCH   8   9
ENDBRANCH   1   8
TORSDOF 8
ENDMDL
