MODEL 1
REMARK VINA RESULT:    27.813      0.000      0.000
REMARK INTER + INTRA:          34.978
REMARK INTER:                  35.130
REMARK INTRA:                  -0.152
REMARK UNBOUND:                -0.152
REMARK SMILES COc1cc(O)c2c(=O)c(OC)c(-c3ccc(O)c(O)c3)oc2c1
REMARK SMILES IDX 3 1 4 2 5 3 7 4 23 5 24 6 22 7 13 8 10 9 8 10 9 11 2 12 1 13
REMARK SMILES IDX 6 14 14 16 21 17 15 18 19 19 16 20 17 21 20 22 18 24 11 26
REMARK SMILES IDX 12 27
REMARK H PARENT 6 15 20 23 18 25
REMARK Flexibility Score: inf
ROOT
ATOM      1  C   UNL     1      10.422  -2.423  37.101  1.00  0.00     0.126 A 
ATOM      2  C   UNL     1      11.059  -2.645  38.332  1.00  0.00     0.093 A 
ATOM      3  C   UNL     1      10.330  -3.028  39.465  1.00  0.00     0.134 A 
ATOM      4  C   UNL     1       8.928  -3.271  39.355  1.00  0.00     0.111 A 
ATOM      5  C   UNL     1       8.297  -3.014  38.113  1.00  0.00     0.146 A 
ATOM      6  C   UNL     1       9.043  -2.595  37.009  1.00  0.00     0.094 A 
ATOM      7  O   UNL     1       6.989  -3.172  37.970  1.00  0.00    -0.452 OA
ATOM      8  C   UNL     1       6.191  -3.588  38.944  1.00  0.00     0.180 A 
ATOM      9  C   UNL     1       6.728  -3.947  40.195  1.00  0.00     0.210 A 
ATOM     10  C   UNL     1       8.121  -3.797  40.393  1.00  0.00     0.239 A 
ATOM     11  O   UNL     1       8.641  -4.176  41.473  1.00  0.00    -0.285 OA
ENDROOT
BRANCH   1  12
ATOM     12  O   UNL     1      11.123  -2.024  35.952  1.00  0.00    -0.496 OA
ATOM     13  C   UNL     1      11.081  -2.708  34.704  1.00  0.00     0.278 C 
ENDBRANCH   1  12
BRANCH   3  14
ATOM     14  O   UNL     1      11.043  -3.117  40.665  1.00  0.00    -0.507 OA
ATOM     15  H   UNL     1      10.669  -2.875  41.570  1.00  0.00     0.293 HD
ENDBRANCH   3  14
BRANCH   8  16
ATOM     16  C   UNL     1       4.741  -3.687  38.655  1.00  0.00     0.025 A 
ATOM     17  C   UNL     1       4.016  -2.523  38.356  1.00  0.00     0.062 A 
ATOM     18  C   UNL     1       4.062  -4.915  38.734  1.00  0.00     0.016 A 
ATOM     19  C   UNL     1       2.637  -2.587  38.103  1.00  0.00     0.158 A 
ATOM     20  C   UNL     1       2.690  -4.981  38.483  1.00  0.00     0.051 A 
ATOM     21  C   UNL     1       1.973  -3.823  38.164  1.00  0.00     0.157 A 
BRANCH  19  22
ATOM     22  O   UNL     1       1.927  -1.427  37.793  1.00  0.00    -0.504 OA
ATOM     23  H   UNL     1       1.263  -1.022  38.442  1.00  0.00     0.293 HD
ENDBRANCH  19  22
BRANCH  21  24
ATOM     24  O   UNL     1       0.604  -3.921  37.916  1.00  0.00    -0.504 OA
ATOM     25  H   UNL     1      -0.074  -3.361  38.419  1.00  0.00     0.293 HD
ENDBRANCH  21  24
ENDBRANCH   8  16
BRANCH   9  26
ATOM     26  O   UNL     1       5.853  -4.471  41.169  1.00  0.00    -0.490 OA
ATOM     27  C   UNL     1       5.032  -3.726  42.062  1.00  0.00     0.278 C 
ENDBRANCH   9  26
TORSDOF 6
ENDMDL
MODEL 2
REMARK VINA RESULT:    30.606     19.016     21.451
REMARK INTER + INTRA:          38.505
REMARK INTER:                  36.188
REMARK INTRA:                   2.317
REMARK UNBOUND:                -0.152
REMARK SMILES COc1cc(O)c2c(=O)c(OC)c(-c3ccc(O)c(O)c3)oc2c1
REMARK SMILES IDX 3 1 4 2 5 3 7 4 23 5 24 6 22 7 13 8 10 9 8 10 9 11 2 12 1 13
REMARK SMILES IDX 6 14 14 16 21 17 15 18 19 19 16 20 17 21 20 22 18 24 11 26
REMARK SMILES IDX 12 27
REMARK H PARENT 6 15 20 23 18 25
REMARK Flexibility Score: inf
ROOT
ATOM      1  C   UNL     1      10.462  11.276  26.502  1.00  0.00     0.126 A 
ATOM      2  C   UNL     1      11.088  11.584  25.285  1.00  0.00     0.093 A 
ATOM      3  C   UNL     1      10.395  12.242  24.261  1.00  0.00     0.134 A 
ATOM      4  C   UNL     1       9.054  12.675  24.480  1.00  0.00     0.111 A 
ATOM      5  C   UNL     1       8.427  12.330  25.703  1.00  0.00     0.146 A 
ATOM      6  C   UNL     1       9.130  11.638  26.692  1.00  0.00     0.094 A 
ATOM      7  O   UNL     1       7.165  12.660  25.937  1.00  0.00    -0.452 OA
ATOM      8  C   UNL     1       6.415  13.337  25.079  1.00  0.00     0.180 A 
ATOM      9  C   UNL     1       6.964  13.797  23.867  1.00  0.00     0.210 A 
ATOM     10  C   UNL     1       8.309  13.470  23.575  1.00  0.00     0.239 A 
ATOM     11  O   UNL     1       8.850  13.927  22.536  1.00  0.00    -0.285 OA
ENDROOT
BRANCH   1  12
ATOM     12  O   UNL     1      11.125  10.604  27.541  1.00  0.00    -0.496 OA
ATOM     13  C   UNL     1      10.473   9.959  28.630  1.00  0.00     0.278 C 
ENDBRANCH   1  12
BRANCH   3  14
ATOM     14  O   UNL     1      11.077  12.405  23.051  1.00  0.00    -0.507 OA
ATOM     15  H   UNL     1      11.818  13.073  22.898  1.00  0.00     0.293 HD
ENDBRANCH   3  14
BRANCH   8  16
ATOM     16  C   UNL     1       5.007  13.609  25.456  1.00  0.00     0.025 A 
ATOM     17  C   UNL     1       4.049  12.592  25.326  1.00  0.00     0.062 A 
ATOM     18  C   UNL     1       4.600  14.883  25.886  1.00  0.00     0.016 A 
ATOM     19  C   UNL     1       2.705  12.832  25.652  1.00  0.00     0.158 A 
ATOM     20  C   UNL     1       3.263  15.124  26.212  1.00  0.00     0.051 A 
ATOM     21  C   UNL     1       2.312  14.104  26.101  1.00  0.00     0.157 A 
BRANCH  19  22
ATOM     22  O   UNL     1       1.762  11.812  25.533  1.00  0.00    -0.504 OA
ATOM     23  H   UNL     1       1.254  11.657  24.670  1.00  0.00     0.293 HD
ENDBRANCH  19  22
BRANCH  21  24
ATOM     24  O   UNL     1       0.987  14.374  26.436  1.00  0.00    -0.504 OA
ATOM     25  H   UNL     1       0.402  13.694  26.908  1.00  0.00     0.293 HD
ENDBRANCH  21  24
ENDBRANCH   8  16
BRANCH   9  26
ATOM     26  O   UNL     1       6.154  14.591  23.029  1.00  0.00    -0.490 OA
ATOM     27  C   UNL     1       4.775  14.892  23.217  1.00  0.00     0.278 C 
ENDBRANCH   9  26
TORSDOF 6
ENDMDL
