MODEL 1
REMARK VINA RESULT:    -5.174      0.000      0.000
REMARK INTER + INTRA:          -8.295
REMARK INTER:                  -7.897
REMARK INTRA:                  -0.399
REMARK UNBOUND:                -0.399
REMARK SMILES O=C([O-])CCCCCCCCC(=O)[O-]
REMARK SMILES IDX 7 1 6 2 5 3 4 4 2 5 1 6 3 7 8 8 9 9 10 10 11 11 12 12 13 13
REMARK SMILES IDX 14 14
REMARK H PARENT
REMARK Flexibility Score: inf
ROOT
ATOM      1  C   UNL     1     103.509 314.596 190.692  1.00  0.00     0.000 C 
ENDROOT
BRANCH   1   2
ATOM      2  C   UNL     1     104.302 314.955 189.427  1.00  0.00     0.000 C 
BRANCH   2   3
ATOM      3  C   UNL     1     103.408 315.077 188.183  1.00  0.00     0.006 C 
BRANCH   3   4
ATOM      4  C   UNL     1     102.053 314.379 188.358  1.00  0.00     0.053 C 
BRANCH   4   5
ATOM      5  C   UNL     1     100.948 315.254 187.858  1.00  0.00     0.041 C 
ATOM      6  O   UNL     1     101.213 316.296 187.201  1.00  0.00    -0.550 OA
ATOM      7  O   UNL     1      99.623 314.896 188.073  1.00  0.00    -0.550 OA
ENDBRANCH   4   5
ENDBRANCH   3   4
ENDBRANCH   2   3
ENDBRANCH   1   2
BRANCH   1   8
ATOM      8  C   UNL     1     104.020 313.287 191.308  1.00  0.00     0.000 C 
BRANCH   8   9
ATOM      9  C   UNL     1     105.527 313.364 191.594  1.00  0.00     0.000 C 
BRANCH   9  10
ATOM     10  C   UNL     1     105.997 312.331 192.633  1.00  0.00     0.006 C 
BRANCH  10  11
ATOM     11  C   UNL     1     104.855 311.521 193.271  1.00  0.00     0.053 C 
BRANCH  11  12
ATOM     12  C   UNL     1     104.398 312.093 194.578  1.00  0.00     0.041 C 
ATOM     13  O   UNL     1     103.527 311.495 195.263  1.00  0.00    -0.550 OA
ATOM     14  O   UNL     1     104.958 313.271 195.056  1.00  0.00    -0.550 OA
ENDBRANCH  11  12
ENDBRANCH  10  11
ENDBRANCH   9  10
ENDBRANCH   8   9
ENDBRANCH   1   8
TORSDOF 9
ENDMDL
MODEL 2
REMARK VINA RESULT:    -5.124      0.858      7.025
REMARK INTER + INTRA:          -8.218
REMARK INTER:                  -7.819
REMARK INTRA:                  -0.399
REMARK UNBOUND:                -0.399
REMARK SMILES O=C([O-])CCCCCCCCC(=O)[O-]
REMARK SMILES IDX 7 1 6 2 5 3 4 4 2 5 1 6 3 7 8 8 9 9 10 10 11 11 12 12 13 13
REMARK SMILES IDX 14 14
REMARK H PARENT
REMARK Flexibility Score: inf
ROOT
ATOM      1  C   UNL     1     105.451 313.326 191.764  1.00  0.00     0.000 C 
ENDROOT
BRANCH   1   2
ATOM      2  C   UNL     1     104.237 312.480 192.176  1.00  0.00     0.000 C 
BRANCH   2   3
ATOM      3  C   UNL     1     104.599 311.378 193.184  1.00  0.00     0.006 C 
BRANCH   3   4
ATOM      4  C   UNL     1     105.289 311.928 194.440  1.00  0.00     0.053 C 
BRANCH   4   5
ATOM      5  C   UNL     1     104.270 312.337 195.456  1.00  0.00     0.041 C 
ATOM      6  O   UNL     1     103.821 311.495 196.278  1.00  0.00    -0.550 OA
ATOM      7  O   UNL     1     103.851 313.659 195.530  1.00  0.00    -0.550 OA
ENDBRANCH   4   5
ENDBRANCH   3   4
ENDBRANCH   2   3
ENDBRANCH   1   2
BRANCH   1   8
ATOM      8  C   UNL     1     105.082 314.306 190.643  1.00  0.00     0.000 C 
BRANCH   8   9
ATOM      9  C   UNL     1     103.602 314.169 190.256  1.00  0.00     0.000 C 
BRANCH   9  10
ATOM     10  C   UNL     1     103.278 314.783 188.882  1.00  0.00     0.006 C 
BRANCH  10  11
ATOM     11  C   UNL     1     101.940 314.310 188.287  1.00  0.00     0.053 C 
BRANCH  11  12
ATOM     12  C   UNL     1     101.021 315.445 187.953  1.00  0.00     0.041 C 
ATOM     13  O   UNL     1     101.357 316.304 187.095  1.00  0.00    -0.550 OA
ATOM     14  O   UNL     1      99.777 315.538 188.565  1.00  0.00    -0.550 OA
ENDBRANCH  11  12
ENDBRANCH  10  11
ENDBRANCH   9  10
ENDBRANCH   8   9
ENDBRANCH   1   8
TORSDOF 9
ENDMDL
MODEL 3
REMARK VINA RESULT:    -5.098      3.821      5.861
REMARK INTER + INTRA:          -8.179
REMARK INTER:                  -7.901
REMARK INTRA:                  -0.278
REMARK UNBOUND:                -0.399
REMARK SMILES O=C([O-])CCCCCCCCC(=O)[O-]
REMARK SMILES IDX 7 1 6 2 5 3 4 4 2 5 1 6 3 7 8 8 9 9 10 10 11 11 12 12 13 13
REMARK SMILES IDX 14 14
REMARK H PARENT
REMARK Flexibility Score: inf
ROOT
ATOM      1  C   UNL     1     104.571 312.646 195.109  1.00  0.00     0.000 C 
ENDROOT
BRANCH   1   2
ATOM      2  C   UNL     1     105.732 311.872 194.466  1.00  0.00     0.000 C 
BRANCH   2   3
ATOM      3  C   UNL     1     105.711 311.944 192.931  1.00  0.00     0.006 C 
BRANCH   3   4
ATOM      4  C   UNL     1     104.367 312.436 192.380  1.00  0.00     0.053 C 
BRANCH   4   5
ATOM      5  C   UNL     1     104.585 313.408 191.263  1.00  0.00     0.041 C 
ATOM      6  O   UNL     1     103.609 313.823 190.584  1.00  0.00    -0.550 OA
ATOM      7  O   UNL     1     105.860 313.893 191.001  1.00  0.00    -0.550 OA
ENDBRANCH   4   5
ENDBRANCH   3   4
ENDBRANCH   2   3
ENDBRANCH   1   2
BRANCH   1   8
ATOM      8  C   UNL     1     103.510 311.684 195.661  1.00  0.00     0.000 C 
BRANCH   8   9
ATOM      9  C   UNL     1     103.909 311.158 197.047  1.00  0.00     0.000 C 
BRANCH   9  10
ATOM     10  C   UNL     1     103.650 312.173 198.175  1.00  0.00     0.006 C 
BRANCH  10  11
ATOM     11  C   UNL     1     103.216 311.531 199.505  1.00  0.00     0.053 C 
BRANCH  11  12
ATOM     12  C   UNL     1     104.112 311.901 200.647  1.00  0.00     0.041 C 
ATOM     13  O   UNL     1     104.865 312.907 200.564  1.00  0.00    -0.550 OA
ATOM     14  O   UNL     1     104.093 311.154 201.818  1.00  0.00    -0.550 OA
ENDBRANCH  11  12
ENDBRANCH  10  11
ENDBRANCH   9  10
ENDBRANCH   8   9
ENDBRANCH   1   8
TORSDOF 9
ENDMDL
MODEL 4
REMARK VINA RESULT:    -5.084     16.230     18.834
REMARK INTER + INTRA:          -8.157
REMARK INTER:                  -7.740
REMARK INTRA:                  -0.417
REMARK UNBOUND:                -0.399
REMARK SMILES O=C([O-])CCCCCCCCC(=O)[O-]
REMARK SMILES IDX 7 1 6 2 5 3 4 4 2 5 1 6 3 7 8 8 9 9 10 10 11 11 12 12 13 13
REMARK SMILES IDX 14 14
REMARK H PARENT
REMARK Flexibility Score: inf
ROOT
ATOM      1  C   UNL     1      86.981 323.619 191.653  1.00  0.00     0.000 C 
ENDROOT
BRANCH   1   2
ATOM      2  C   UNL     1      88.319 324.002 191.003  1.00  0.00     0.000 C 
BRANCH   2   3
ATOM      3  C   UNL     1      88.639 323.152 189.763  1.00  0.00     0.006 C 
BRANCH   3   4
ATOM      4  C   UNL     1      89.750 323.762 188.898  1.00  0.00     0.053 C 
BRANCH   4   5
ATOM      5  C   UNL     1      90.670 322.692 188.402  1.00  0.00     0.041 C 
ATOM      6  O   UNL     1      91.884 322.692 188.742  1.00  0.00    -0.550 OA
ATOM      7  O   UNL     1      90.181 321.668 187.603  1.00  0.00    -0.550 OA
ENDBRANCH   4   5
ENDBRANCH   3   4
ENDBRANCH   2   3
ENDBRANCH   1   2
BRANCH   1   8
ATOM      8  C   UNL     1      86.652 324.555 192.823  1.00  0.00     0.000 C 
BRANCH   8   9
ATOM      9  C   UNL     1      87.827 325.495 193.125  1.00  0.00     0.000 C 
BRANCH   9  10
ATOM     10  C   UNL     1      87.426 326.706 193.986  1.00  0.00     0.006 C 
BRANCH  10  11
ATOM     11  C   UNL     1      86.853 326.330 195.364  1.00  0.00     0.053 C 
BRANCH  11  12
ATOM     12  C   UNL     1      87.878 325.723 196.272  1.00  0.00     0.041 C 
ATOM     13  O   UNL     1      88.730 326.452 196.847  1.00  0.00    -0.550 OA
ATOM     14  O   UNL     1      87.873 324.354 196.512  1.00  0.00    -0.550 OA
ENDBRANCH  11  12
ENDBRANCH  10  11
ENDBRANCH   9  10
ENDBRANCH   8   9
ENDBRANCH   1   8
TORSDOF 9
ENDMDL
MODEL 5
REMARK VINA RESULT:    -5.080      2.584      7.625
REMARK INTER + INTRA:          -8.151
REMARK INTER:                  -7.774
REMARK INTRA:                  -0.377
REMARK UNBOUND:                -0.399
REMARK SMILES O=C([O-])CCCCCCCCC(=O)[O-]
REMARK SMILES IDX 7 1 6 2 5 3 4 4 2 5 1 6 3 7 8 8 9 9 10 10 11 11 12 12 13 13
REMARK SMILES IDX 14 14
REMARK H PARENT
REMARK Flexibility Score: inf
ROOT
ATOM      1  C   UNL     1     105.617 311.888 194.152  1.00  0.00     0.000 C 
ENDROOT
BRANCH   1   2
ATOM      2  C   UNL     1     104.166 311.631 194.584  1.00  0.00     0.000 C 
BRANCH   2   3
ATOM      3  C   UNL     1     103.818 312.308 195.919  1.00  0.00     0.006 C 
BRANCH   3   4
ATOM      4  C   UNL     1     103.938 311.355 197.115  1.00  0.00     0.053 C 
BRANCH   4   5
ATOM      5  C   UNL     1     103.550 312.054 198.380  1.00  0.00     0.041 C 
ATOM      6  O   UNL     1     103.648 313.307 198.467  1.00  0.00    -0.550 OA
ATOM      7  O   UNL     1     103.034 311.329 199.446  1.00  0.00    -0.550 OA
ENDBRANCH   4   5
ENDBRANCH   3   4
ENDBRANCH   2   3
ENDBRANCH   1   2
BRANCH   1   8
ATOM      8  C   UNL     1     105.672 312.482 192.738  1.00  0.00     0.000 C 
BRANCH   8   9
ATOM      9  C   UNL     1     104.268 312.570 192.123  1.00  0.00     0.000 C 
BRANCH   9  10
ATOM     10  C   UNL     1     103.899 313.992 191.662  1.00  0.00     0.006 C 
BRANCH  10  11
ATOM     11  C   UNL     1     103.457 314.077 190.191  1.00  0.00     0.053 C 
BRANCH  11  12
ATOM     12  C   UNL     1     104.271 315.050 189.395  1.00  0.00     0.041 C 
ATOM     13  O   UNL     1     105.232 315.663 189.932  1.00  0.00    -0.550 OA
ATOM     14  O   UNL     1     103.991 315.258 188.050  1.00  0.00    -0.550 OA
ENDBRANCH  11  12
ENDBRANCH  10  11
ENDBRANCH   9  10
ENDBRANCH   8   9
ENDBRANCH   1   8
TORSDOF 9
ENDMDL
MODEL 6
REMARK VINA RESULT:    -5.060     17.795     19.108
REMARK INTER + INTRA:          -8.120
REMARK INTER:                  -7.191
REMARK INTRA:                  -0.929
REMARK UNBOUND:                -0.399
REMARK SMILES O=C([O-])CCCCCCCCC(=O)[O-]
REMARK SMILES IDX 7 1 6 2 5 3 4 4 2 5 1 6 3 7 8 8 9 9 10 10 11 11 12 12 13 13
REMARK SMILES IDX 14 14
REMARK H PARENT
REMARK Flexibility Score: inf
ROOT
ATOM      1  C   UNL     1      86.487 325.845 193.981  1.00  0.00     0.000 C 
ENDROOT
BRANCH   1   2
ATOM      2  C   UNL     1      86.538 324.867 192.798  1.00  0.00     0.000 C 
BRANCH   2   3
ATOM      3  C   UNL     1      87.924 324.811 192.136  1.00  0.00     0.006 C 
BRANCH   3   4
ATOM      4  C   UNL     1      88.310 323.395 191.690  1.00  0.00     0.053 C 
BRANCH   4   5
ATOM      5  C   UNL     1      88.371 323.317 190.197  1.00  0.00     0.041 C 
ATOM      6  O   UNL     1      87.467 322.718 189.556  1.00  0.00    -0.550 OA
ATOM      7  O   UNL     1      89.400 323.946 189.509  1.00  0.00    -0.550 OA
ENDBRANCH   4   5
ENDBRANCH   3   4
ENDBRANCH   2   3
ENDBRANCH   1   2
BRANCH   1   8
ATOM      8  C   UNL     1      87.766 326.690 194.051  1.00  0.00     0.000 C 
BRANCH   8   9
ATOM      9  C   UNL     1      88.524 326.436 195.362  1.00  0.00     0.000 C 
BRANCH   9  10
ATOM     10  C   UNL     1      87.862 325.361 196.242  1.00  0.00     0.006 C 
BRANCH  10  11
ATOM     11  C   UNL     1      88.727 324.106 196.452  1.00  0.00     0.053 C 
BRANCH  11  12
ATOM     12  C   UNL     1      88.338 322.975 195.550  1.00  0.00     0.041 C 
ATOM     13  O   UNL     1      89.218 322.335 194.916  1.00  0.00    -0.550 OA
ATOM     14  O   UNL     1      87.003 322.605 195.433  1.00  0.00    -0.550 OA
ENDBRANCH  11  12
ENDBRANCH  10  11
ENDBRANCH   9  10
ENDBRANCH   8   9
ENDBRANCH   1   8
TORSDOF 9
ENDMDL
MODEL 7
REMARK VINA RESULT:    -5.039      1.768      6.468
REMARK INTER + INTRA:          -8.089
REMARK INTER:                  -7.417
REMARK INTRA:                  -0.672
REMARK UNBOUND:                -0.399
REMARK SMILES O=C([O-])CCCCCCCCC(=O)[O-]
REMARK SMILES IDX 7 1 6 2 5 3 4 4 2 5 1 6 3 7 8 8 9 9 10 10 11 11 12 12 13 13
REMARK SMILES IDX 14 14
REMARK H PARENT
REMARK Flexibility Score: inf
ROOT
ATOM      1  C   UNL     1     105.711 312.209 192.682  1.00  0.00     0.000 C 
ENDROOT
BRANCH   1   2
ATOM      2  C   UNL     1     104.438 311.411 192.999  1.00  0.00     0.000 C 
BRANCH   2   3
ATOM      3  C   UNL     1     103.913 311.675 194.419  1.00  0.00     0.006 C 
BRANCH   3   4
ATOM      4  C   UNL     1     104.654 312.820 195.121  1.00  0.00     0.053 C 
BRANCH   4   5
ATOM      5  C   UNL     1     103.744 313.991 195.311  1.00  0.00     0.041 C 
ATOM      6  O   UNL     1     103.589 314.831 194.385  1.00  0.00    -0.550 OA
ATOM      7  O   UNL     1     103.027 314.131 196.492  1.00  0.00    -0.550 OA
ENDBRANCH   4   5
ENDBRANCH   3   4
ENDBRANCH   2   3
ENDBRANCH   1   2
BRANCH   1   8
ATOM      8  C   UNL     1     105.422 313.329 191.674  1.00  0.00     0.000 C 
BRANCH   8   9
ATOM      9  C   UNL     1     103.978 313.245 191.157  1.00  0.00     0.000 C 
BRANCH   9  10
ATOM     10  C   UNL     1     103.437 314.597 190.658  1.00  0.00     0.006 C 
BRANCH  10  11
ATOM     11  C   UNL     1     103.018 314.594 189.177  1.00  0.00     0.053 C 
BRANCH  11  12
ATOM     12  C   UNL     1     103.789 315.580 188.354  1.00  0.00     0.041 C 
ATOM     13  O   UNL     1     103.203 316.280 187.487  1.00  0.00    -0.550 OA
ATOM     14  O   UNL     1     105.151 315.752 188.569  1.00  0.00    -0.550 OA
ENDBRANCH  11  12
ENDBRANCH  10  11
ENDBRANCH   9  10
ENDBRANCH   8   9
ENDBRANCH   1   8
TORSDOF 9
ENDMDL
MODEL 8
REMARK VINA RESULT:    -5.002      2.801      4.266
REMARK INTER + INTRA:          -8.032
REMARK INTER:                  -7.452
REMARK INTRA:                  -0.580
REMARK UNBOUND:                -0.399
REMARK SMILES O=C([O-])CCCCCCCCC(=O)[O-]
REMARK SMILES IDX 7 1 6 2 5 3 4 4 2 5 1 6 3 7 8 8 9 9 10 10 11 11 12 12 13 13
REMARK SMILES IDX 14 14
REMARK H PARENT
REMARK Flexibility Score: inf
ROOT
ATOM      1  C   UNL     1     104.343 311.504 192.882  1.00  0.00     0.000 C 
ENDROOT
BRANCH   1   2
ATOM      2  C   UNL     1     105.638 312.302 192.673  1.00  0.00     0.000 C 
BRANCH   2   3
ATOM      3  C   UNL     1     105.497 313.387 191.595  1.00  0.00     0.006 C 
BRANCH   3   4
ATOM      4  C   UNL     1     104.068 313.495 191.048  1.00  0.00     0.053 C 
BRANCH   4   5
ATOM      5  C   UNL     1     103.471 314.820 191.407  1.00  0.00     0.041 C 
ATOM      6  O   UNL     1     102.983 315.559 190.511  1.00  0.00    -0.550 OA
ATOM      7  O   UNL     1     103.409 315.219 192.735  1.00  0.00    -0.550 OA
ENDBRANCH   4   5
ENDBRANCH   3   4
ENDBRANCH   2   3
ENDBRANCH   1   2
BRANCH   1   8
ATOM      8  C   UNL     1     103.915 311.529 194.356  1.00  0.00     0.000 C 
BRANCH   8   9
ATOM      9  C   UNL     1     104.361 312.830 195.037  1.00  0.00     0.000 C 
BRANCH   9  10
ATOM     10  C   UNL     1     103.741 313.024 196.433  1.00  0.00     0.006 C 
BRANCH  10  11
ATOM     11  C   UNL     1     103.810 311.773 197.327  1.00  0.00     0.053 C 
BRANCH  11  12
ATOM     12  C   UNL     1     103.509 312.071 198.764  1.00  0.00     0.041 C 
ATOM     13  O   UNL     1     103.020 311.180 199.508  1.00  0.00    -0.550 OA
ATOM     14  O   UNL     1     103.798 313.323 199.291  1.00  0.00    -0.550 OA
ENDBRANCH  11  12
ENDBRANCH  10  11
ENDBRANCH   9  10
ENDBRANCH   8   9
ENDBRANCH   1   8
TORSDOF 9
ENDMDL
MODEL 9
REMARK VINA RESULT:    -4.961      1.805      2.615
REMARK INTER + INTRA:          -7.970
REMARK INTER:                  -7.361
REMARK INTRA:                  -0.609
REMARK UNBOUND:                -0.399
REMARK SMILES O=C([O-])CCCCCCCCC(=O)[O-]
REMARK SMILES IDX 7 1 6 2 5 3 4 4 2 5 1 6 3 7 8 8 9 9 10 10 11 11 12 12 13 13
REMARK SMILES IDX 14 14
REMARK H PARENT
REMARK Flexibility Score: inf
ROOT
ATOM      1  C   UNL     1     104.233 313.288 191.606  1.00  0.00     0.000 C 
ENDROOT
BRANCH   1   2
ATOM      2  C   UNL     1     105.677 313.708 191.292  1.00  0.00     0.000 C 
BRANCH   2   3
ATOM      3  C   UNL     1     105.756 314.784 190.198  1.00  0.00     0.006 C 
BRANCH   3   4
ATOM      4  C   UNL     1     104.426 315.523 190.000  1.00  0.00     0.053 C 
BRANCH   4   5
ATOM      5  C   UNL     1     103.925 315.329 188.603  1.00  0.00     0.041 C 
ATOM      6  O   UNL     1     104.578 315.786 187.627  1.00  0.00    -0.550 OA
ATOM      7  O   UNL     1     102.764 314.603 188.375  1.00  0.00    -0.550 OA
ENDBRANCH   4   5
ENDBRANCH   3   4
ENDBRANCH   2   3
ENDBRANCH   1   2
BRANCH   1   8
ATOM      8  C   UNL     1     104.205 312.012 192.458  1.00  0.00     0.000 C 
BRANCH   8   9
ATOM      9  C   UNL     1     105.573 311.752 193.106  1.00  0.00     0.000 C 
BRANCH   9  10
ATOM     10  C   UNL     1     105.541 311.847 194.642  1.00  0.00     0.006 C 
BRANCH  10  11
ATOM     11  C   UNL     1     104.124 311.953 195.232  1.00  0.00     0.053 C 
BRANCH  11  12
ATOM     12  C   UNL     1     103.849 313.293 195.843  1.00  0.00     0.041 C 
ATOM     13  O   UNL     1     103.927 314.338 195.144  1.00  0.00    -0.550 OA
ATOM     14  O   UNL     1     103.474 313.386 197.178  1.00  0.00    -0.550 OA
ENDBRANCH  11  12
ENDBRANCH  10  11
ENDBRANCH   9  10
ENDBRANCH   8   9
ENDBRANCH   1   8
TORSDOF 9
ENDMDL
