MODEL 1
REMARK VINA RESULT:    -4.352      0.000      0.000
REMARK INTER + INTRA:          -4.909
REMARK INTER:                  -5.370
REMARK INTRA:                   0.460
REMARK UNBOUND:                 0.460
REMARK SMILES Oc1cc(O)c2cc(O)c(-c3cc(O)c(O)c(O)c3)[o+]c2c1
REMARK SMILES IDX 10 1 20 2 21 3 22 4 2 5 3 6 4 7 6 8 7 9 8 10 11 11 12 12
REMARK SMILES IDX 13 13 19 14 15 15 17 16 14 17 16 19 18 21 9 23 1 25 5 27
REMARK H PARENT 14 18 16 20 18 22 9 24 1 26 5 28
REMARK Flexibility Score: inf
ROOT
ATOM      1  C   UNL     1      23.530  22.235 -10.931  1.00  0.00     0.402 A 
ATOM      2  O   UNL     1      23.366  20.915 -10.937  1.00  0.00    -0.202 OA
ATOM      3  C   UNL     1      22.175  20.327 -10.970  1.00  0.00     0.368 A 
ATOM      4  C   UNL     1      22.105  18.931 -10.971  1.00  0.00     0.162 A 
ATOM      5  C   UNL     1      20.868  18.287 -11.001  1.00  0.00     0.128 A 
ATOM      6  C   UNL     1      19.690  19.042 -11.030  1.00  0.00     0.093 A 
ATOM      7  C   UNL     1      19.732  20.441 -11.030  1.00  0.00     0.136 A 
ATOM      8  C   UNL     1      20.989  21.100 -11.001  1.00  0.00     0.125 A 
ATOM      9  C   UNL     1      21.128  22.498 -11.012  1.00  0.00     0.078 A 
ATOM     10  C   UNL     1      22.401  23.074 -10.988  1.00  0.00     0.223 A 
ENDROOT
BRANCH   1  11
ATOM     11  C   UNL     1      24.909  22.770 -10.884  1.00  0.00     0.091 A 
ATOM     12  C   UNL     1      25.115  24.153 -10.960  1.00  0.00     0.068 A 
ATOM     13  C   UNL     1      26.408  24.685 -10.936  1.00  0.00     0.162 A 
ATOM     14  C   UNL     1      26.022  21.917 -10.822  1.00  0.00     0.068 A 
ATOM     15  C   UNL     1      27.523  23.833 -10.851  1.00  0.00     0.200 A 
ATOM     16  C   UNL     1      27.324  22.431 -10.802  1.00  0.00     0.162 A 
BRANCH  13  17
ATOM     17  O   UNL     1      26.562  26.070 -10.998  1.00  0.00    -0.504 OA
ATOM     18  H   UNL     1      27.456  26.507 -11.189  1.00  0.00     0.293 HD
ENDBRANCH  13  17
BRANCH  15  19
ATOM     19  O   UNL     1      28.797  24.405 -10.821  1.00  0.00    -0.502 OA
ATOM     20  H   UNL     1      29.374  24.463  -9.996  1.00  0.00     0.293 HD
ENDBRANCH  15  19
BRANCH  16  21
ATOM     21  O   UNL     1      28.381  21.521 -10.740  1.00  0.00    -0.504 OA
ATOM     22  H   UNL     1      28.367  20.673 -10.192  1.00  0.00     0.293 HD
ENDBRANCH  16  21
ENDBRANCH   1  11
BRANCH  10  23
ATOM     23  O   UNL     1      22.542  24.462 -11.049  1.00  0.00    -0.500 OA
ATOM     24  H   UNL     1      23.304  24.898 -11.555  1.00  0.00     0.294 HD
ENDBRANCH  10  23
BRANCH   5  25
ATOM     25  O   UNL     1      20.820  16.894 -11.001  1.00  0.00    -0.507 OA
ATOM     26  H   UNL     1      21.464  16.341 -11.554  1.00  0.00     0.293 HD
ENDBRANCH   5  25
BRANCH   7  27
ATOM     27  O   UNL     1      18.512  21.122 -11.056  1.00  0.00    -0.507 OA
ATOM     28  H   UNL     1      18.290  21.871 -11.697  1.00  0.00     0.293 HD
ENDBRANCH   7  27
TORSDOF 7
ENDMDL
MODEL 2
REMARK VINA RESULT:    -4.056      0.873      6.847
REMARK INTER + INTRA:          -4.545
REMARK INTER:                  -5.005
REMARK INTRA:                   0.460
REMARK UNBOUND:                 0.460
REMARK SMILES Oc1cc(O)c2cc(O)c(-c3cc(O)c(O)c(O)c3)[o+]c2c1
REMARK SMILES IDX 10 1 20 2 21 3 22 4 2 5 3 6 4 7 6 8 7 9 8 10 11 11 12 12
REMARK SMILES IDX 13 13 19 14 15 15 17 16 14 17 16 19 18 21 9 23 1 25 5 27
REMARK H PARENT 14 18 16 20 18 22 9 24 1 26 5 28
REMARK Flexibility Score: inf
ROOT
ATOM      1  C   UNL     1      23.108  21.758 -11.023  1.00  0.00     0.402 A 
ATOM      2  O   UNL     1      24.367  21.333 -11.060  1.00  0.00    -0.202 OA
ATOM      3  C   UNL     1      25.415  22.152 -11.036  1.00  0.00     0.368 A 
ATOM      4  C   UNL     1      26.703  21.610 -11.081  1.00  0.00     0.162 A 
ATOM      5  C   UNL     1      27.820  22.445 -11.062  1.00  0.00     0.128 A 
ATOM      6  C   UNL     1      27.651  23.833 -10.997  1.00  0.00     0.093 A 
ATOM      7  C   UNL     1      26.372  24.400 -10.950  1.00  0.00     0.136 A 
ATOM      8  C   UNL     1      25.233  23.554 -10.968  1.00  0.00     0.125 A 
ATOM      9  C   UNL     1      23.914  24.034 -10.912  1.00  0.00     0.078 A 
ATOM     10  C   UNL     1      22.842  23.136 -10.929  1.00  0.00     0.223 A 
ENDROOT
BRANCH   1  11
ATOM     11  C   UNL     1      22.027  20.747 -11.065  1.00  0.00     0.091 A 
ATOM     12  C   UNL     1      20.691  21.167 -11.077  1.00  0.00     0.068 A 
ATOM     13  C   UNL     1      19.649  20.235 -11.098  1.00  0.00     0.162 A 
ATOM     14  C   UNL     1      22.310  19.372 -11.035  1.00  0.00     0.068 A 
ATOM     15  C   UNL     1      19.932  18.857 -11.092  1.00  0.00     0.200 A 
ATOM     16  C   UNL     1      21.280  18.424 -11.051  1.00  0.00     0.162 A 
BRANCH  13  17
ATOM     17  O   UNL     1      18.335  20.701 -11.125  1.00  0.00    -0.504 OA
ATOM     18  H   UNL     1      17.827  20.938 -10.281  1.00  0.00     0.293 HD
ENDBRANCH  13  17
BRANCH  15  19
ATOM     19  O   UNL     1      18.862  17.959 -11.122  1.00  0.00    -0.502 OA
ATOM     20  H   UNL     1      18.876  17.076 -11.610  1.00  0.00     0.293 HD
ENDBRANCH  15  19
BRANCH  16  21
ATOM     21  O   UNL     1      21.639  17.075 -11.020  1.00  0.00    -0.504 OA
ATOM     22  H   UNL     1      22.195  16.653 -10.291  1.00  0.00     0.293 HD
ENDBRANCH  16  21
ENDBRANCH   1  11
BRANCH  10  23
ATOM     23  O   UNL     1      21.533  23.609 -10.822  1.00  0.00    -0.500 OA
ATOM     24  H   UNL     1      21.242  24.204 -10.055  1.00  0.00     0.294 HD
ENDBRANCH  10  23
BRANCH   5  25
ATOM     25  O   UNL     1      29.095  21.886 -11.108  1.00  0.00    -0.507 OA
ATOM     26  H   UNL     1      29.245  20.930 -11.410  1.00  0.00     0.293 HD
ENDBRANCH   5  25
BRANCH   7  27
ATOM     27  O   UNL     1      26.288  25.795 -10.890  1.00  0.00    -0.507 OA
ATOM     28  H   UNL     1      25.445  26.307 -10.673  1.00  0.00     0.293 HD
ENDBRANCH   7  27
TORSDOF 7
ENDMDL
MODEL 3
REMARK VINA RESULT:    -3.624      1.066      2.268
REMARK INTER + INTRA:          -4.011
REMARK INTER:                  -4.404
REMARK INTRA:                   0.393
REMARK UNBOUND:                 0.460
REMARK SMILES Oc1cc(O)c2cc(O)c(-c3cc(O)c(O)c(O)c3)[o+]c2c1
REMARK SMILES IDX 10 1 20 2 21 3 22 4 2 5 3 6 4 7 6 8 7 9 8 10 11 11 12 12
REMARK SMILES IDX 13 13 19 14 15 15 17 16 14 17 16 19 18 21 9 23 1 25 5 27
REMARK H PARENT 14 18 16 20 18 22 9 24 1 26 5 28
REMARK Flexibility Score: inf
ROOT
ATOM      1  C   UNL     1      23.159  23.045 -11.061  1.00  0.00     0.402 A 
ATOM      2  O   UNL     1      23.409  21.739 -11.077  1.00  0.00    -0.202 OA
ATOM      3  C   UNL     1      22.456  20.813 -11.078  1.00  0.00     0.368 A 
ATOM      4  C   UNL     1      22.819  19.463 -11.093  1.00  0.00     0.162 A 
ATOM      5  C   UNL     1      21.840  18.469 -11.091  1.00  0.00     0.128 A 
ATOM      6  C   UNL     1      20.486  18.825 -11.074  1.00  0.00     0.093 A 
ATOM      7  C   UNL     1      20.096  20.169 -11.059  1.00  0.00     0.136 A 
ATOM      8  C   UNL     1      21.089  21.183 -11.063  1.00  0.00     0.125 A 
ATOM      9  C   UNL     1      20.792  22.556 -11.063  1.00  0.00     0.078 A 
ATOM     10  C   UNL     1      21.826  23.496 -11.072  1.00  0.00     0.223 A 
ENDROOT
BRANCH   1  11
ATOM     11  C   UNL     1      24.308  23.978 -11.052  1.00  0.00     0.091 A 
ATOM     12  C   UNL     1      25.610  23.468 -10.991  1.00  0.00     0.068 A 
ATOM     13  C   UNL     1      26.713  24.326 -10.962  1.00  0.00     0.162 A 
ATOM     14  C   UNL     1      24.119  25.370 -11.044  1.00  0.00     0.068 A 
ATOM     15  C   UNL     1      26.527  25.720 -10.978  1.00  0.00     0.200 A 
ATOM     16  C   UNL     1      25.212  26.245 -11.011  1.00  0.00     0.162 A 
BRANCH  13  17
ATOM     17  O   UNL     1      27.992  23.770 -10.918  1.00  0.00    -0.504 OA
ATOM     18  H   UNL     1      28.809  24.312 -10.663  1.00  0.00     0.293 HD
ENDBRANCH  13  17
BRANCH  15  19
ATOM     19  O   UNL     1      27.656  26.542 -10.957  1.00  0.00    -0.502 OA
ATOM     20  H   UNL     1      28.508  26.325 -10.462  1.00  0.00     0.293 HD
ENDBRANCH  15  19
BRANCH  16  21
ATOM     21  O   UNL     1      24.946  27.615 -11.007  1.00  0.00    -0.504 OA
ATOM     22  H   UNL     1      25.467  28.296 -11.539  1.00  0.00     0.293 HD
ENDBRANCH  16  21
ENDBRANCH   1  11
BRANCH  10  23
ATOM     23  O   UNL     1      21.531  24.860 -11.122  1.00  0.00    -0.500 OA
ATOM     24  H   UNL     1      20.624  25.219 -10.847  1.00  0.00     0.294 HD
ENDBRANCH  10  23
BRANCH   5  25
ATOM     25  O   UNL     1      22.222  17.129 -11.105  1.00  0.00    -0.507 OA
ATOM     26  H   UNL     1      23.079  16.827 -11.553  1.00  0.00     0.293 HD
ENDBRANCH   5  25
BRANCH   7  27
ATOM     27  O   UNL     1      18.725  20.442 -11.040  1.00  0.00    -0.507 OA
ATOM     28  H   UNL     1      18.073  20.140 -11.749  1.00  0.00     0.293 HD
ENDBRANCH   7  27
TORSDOF 7
ENDMDL
MODEL 4
REMARK VINA RESULT:    -3.216     13.861     16.000
REMARK INTER + INTRA:          -3.508
REMARK INTER:                  -3.968
REMARK INTRA:                   0.460
REMARK UNBOUND:                 0.460
REMARK SMILES Oc1cc(O)c2cc(O)c(-c3cc(O)c(O)c(O)c3)[o+]c2c1
REMARK SMILES IDX 10 1 20 2 21 3 22 4 2 5 3 6 4 7 6 8 7 9 8 10 11 11 12 12
REMARK SMILES IDX 13 13 19 14 15 15 17 16 14 17 16 19 18 21 9 23 1 25 5 27
REMARK H PARENT 14 18 16 20 18 22 9 24 1 26 5 28
REMARK Flexibility Score: inf
ROOT
ATOM      1  C   UNL     1      29.102  27.516   2.264  1.00  0.00     0.402 A 
ATOM      2  O   UNL     1      29.109  27.964   1.012  1.00  0.00    -0.202 OA
ATOM      3  C   UNL     1      29.103  27.165  -0.050  1.00  0.00     0.368 A 
ATOM      4  C   UNL     1      29.115  27.732  -1.329  1.00  0.00     0.162 A 
ATOM      5  C   UNL     1      29.112  26.918  -2.461  1.00  0.00     0.128 A 
ATOM      6  C   UNL     1      29.098  25.525  -2.318  1.00  0.00     0.093 A 
ATOM      7  C   UNL     1      29.086  24.933  -1.050  1.00  0.00     0.136 A 
ATOM      8  C   UNL     1      29.087  25.758   0.105  1.00  0.00     0.125 A 
ATOM      9  C   UNL     1      29.062  25.253   1.415  1.00  0.00     0.078 A 
ATOM     10  C   UNL     1      29.059  26.130   2.504  1.00  0.00     0.223 A 
ENDROOT
BRANCH   1  11
ATOM     11  C   UNL     1      29.120  28.507   3.363  1.00  0.00     0.091 A 
ATOM     12  C   UNL     1      29.074  28.065   4.691  1.00  0.00     0.068 A 
ATOM     13  C   UNL     1      29.071  28.979   5.749  1.00  0.00     0.162 A 
ATOM     14  C   UNL     1      29.125  29.887   3.103  1.00  0.00     0.068 A 
ATOM     15  C   UNL     1      29.099  30.361   5.490  1.00  0.00     0.200 A 
ATOM     16  C   UNL     1      29.118  30.817   4.150  1.00  0.00     0.162 A 
BRANCH  13  17
ATOM     17  O   UNL     1      29.041  28.490   7.055  1.00  0.00    -0.504 OA
ATOM     18  H   UNL     1      28.408  28.857   7.755  1.00  0.00     0.293 HD
ENDBRANCH  13  17
BRANCH  15  19
ATOM     19  O   UNL     1      29.105  31.240   6.576  1.00  0.00    -0.502 OA
ATOM     20  H   UNL     1      28.621  32.126   6.592  1.00  0.00     0.293 HD
ENDBRANCH  15  19
BRANCH  16  21
ATOM     21  O   UNL     1      29.123  32.172   3.813  1.00  0.00    -0.504 OA
ATOM     22  H   UNL     1      29.181  32.522   2.868  1.00  0.00     0.293 HD
ENDBRANCH  16  21
ENDBRANCH   1  11
BRANCH  10  23
ATOM     23  O   UNL     1      28.984  25.630   3.805  1.00  0.00    -0.500 OA
ATOM     24  H   UNL     1      28.221  25.873   4.426  1.00  0.00     0.294 HD
ENDBRANCH  10  23
BRANCH   5  25
ATOM     25  O   UNL     1      29.124  27.501  -3.726  1.00  0.00    -0.507 OA
ATOM     26  H   UNL     1      28.801  28.450  -3.875  1.00  0.00     0.293 HD
ENDBRANCH   5  25
BRANCH   7  27
ATOM     27  O   UNL     1      29.076  23.536  -0.991  1.00  0.00    -0.507 OA
ATOM     28  H   UNL     1      29.793  22.943  -1.384  1.00  0.00     0.293 HD
ENDBRANCH   7  27
TORSDOF 7
ENDMDL
MODEL 5
REMARK VINA RESULT:    -3.116      1.440      7.186
REMARK INTER + INTRA:          -3.385
REMARK INTER:                  -3.768
REMARK INTRA:                   0.383
REMARK UNBOUND:                 0.460
REMARK SMILES Oc1cc(O)c2cc(O)c(-c3cc(O)c(O)c(O)c3)[o+]c2c1
REMARK SMILES IDX 10 1 20 2 21 3 22 4 2 5 3 6 4 7 6 8 7 9 8 10 11 11 12 12
REMARK SMILES IDX 13 13 19 14 15 15 17 16 14 17 16 19 18 21 9 23 1 25 5 27
REMARK H PARENT 14 18 16 20 18 22 9 24 1 26 5 28
REMARK Flexibility Score: inf
ROOT
ATOM      1  C   UNL     1      21.501  22.242 -11.057  1.00  0.00     0.402 A 
ATOM      2  O   UNL     1      22.828  22.163 -11.053  1.00  0.00    -0.202 OA
ATOM      3  C   UNL     1      23.624  23.227 -11.066  1.00  0.00     0.368 A 
ATOM      4  C   UNL     1      25.010  23.042 -11.063  1.00  0.00     0.162 A 
ATOM      5  C   UNL     1      25.868  24.140 -11.080  1.00  0.00     0.128 A 
ATOM      6  C   UNL     1      25.341  25.437 -11.099  1.00  0.00     0.093 A 
ATOM      7  C   UNL     1      23.957  25.650 -11.102  1.00  0.00     0.136 A 
ATOM      8  C   UNL     1      23.080  24.534 -11.083  1.00  0.00     0.125 A 
ATOM      9  C   UNL     1      21.681  24.653 -11.071  1.00  0.00     0.078 A 
ATOM     10  C   UNL     1      20.881  23.506 -11.047  1.00  0.00     0.223 A 
ENDROOT
BRANCH   1  11
ATOM     11  C   UNL     1      20.724  20.983 -11.052  1.00  0.00     0.091 A 
ATOM     12  C   UNL     1      21.398  19.756 -11.078  1.00  0.00     0.068 A 
ATOM     13  C   UNL     1      20.690  18.551 -11.092  1.00  0.00     0.162 A 
ATOM     14  C   UNL     1      19.320  20.990 -11.079  1.00  0.00     0.068 A 
ATOM     15  C   UNL     1      19.284  18.556 -11.096  1.00  0.00     0.200 A 
ATOM     16  C   UNL     1      18.593  19.793 -11.098  1.00  0.00     0.162 A 
BRANCH  13  17
ATOM     17  O   UNL     1      21.406  17.354 -11.102  1.00  0.00    -0.504 OA
ATOM     18  H   UNL     1      21.991  17.067 -10.326  1.00  0.00     0.293 HD
ENDBRANCH  13  17
BRANCH  15  19
ATOM     19  O   UNL     1      18.614  17.330 -11.102  1.00  0.00    -0.502 OA
ATOM     20  H   UNL     1      18.265  16.870 -10.274  1.00  0.00     0.293 HD
ENDBRANCH  15  19
BRANCH  16  21
ATOM     21  O   UNL     1      17.200  19.880 -11.125  1.00  0.00    -0.504 OA
ATOM     22  H   UNL     1      16.687  20.620 -11.580  1.00  0.00     0.293 HD
ENDBRANCH  16  21
ENDBRANCH   1  11
BRANCH  10  23
ATOM     23  O   UNL     1      19.492  23.623 -10.985  1.00  0.00    -0.500 OA
ATOM     24  H   UNL     1      18.894  22.813 -10.871  1.00  0.00     0.294 HD
ENDBRANCH  10  23
BRANCH   5  25
ATOM     25  O   UNL     1      27.246  23.935 -11.078  1.00  0.00    -0.507 OA
ATOM     26  H   UNL     1      27.898  24.710 -11.097  1.00  0.00     0.293 HD
ENDBRANCH   5  25
BRANCH   7  27
ATOM     27  O   UNL     1      23.510  26.974 -11.125  1.00  0.00    -0.507 OA
ATOM     28  H   UNL     1      23.241  27.500 -10.306  1.00  0.00     0.293 HD
ENDBRANCH   7  27
TORSDOF 7
ENDMDL
MODEL 6
REMARK VINA RESULT:    -2.828      9.321     11.178
REMARK INTER + INTRA:          -3.029
REMARK INTER:                  -3.422
REMARK INTRA:                   0.393
REMARK UNBOUND:                 0.460
REMARK SMILES Oc1cc(O)c2cc(O)c(-c3cc(O)c(O)c(O)c3)[o+]c2c1
REMARK SMILES IDX 10 1 20 2 21 3 22 4 2 5 3 6 4 7 6 8 7 9 8 10 11 11 12 12
REMARK SMILES IDX 13 13 19 14 15 15 17 16 14 17 16 19 18 21 9 23 1 25 5 27
REMARK H PARENT 14 18 16 20 18 22 9 24 1 26 5 28
REMARK Flexibility Score: inf
ROOT
ATOM      1  C   UNL     1      29.104  23.070  -2.442  1.00  0.00     0.402 A 
ATOM      2  O   UNL     1      29.125  21.995  -1.660  1.00  0.00    -0.202 OA
ATOM      3  C   UNL     1      29.101  20.751  -2.127  1.00  0.00     0.368 A 
ATOM      4  C   UNL     1      29.124  19.684  -1.224  1.00  0.00     0.162 A 
ATOM      5  C   UNL     1      29.096  18.369  -1.685  1.00  0.00     0.128 A 
ATOM      6  C   UNL     1      29.045  18.114  -3.061  1.00  0.00     0.093 A 
ATOM      7  C   UNL     1      29.022  19.164  -3.986  1.00  0.00     0.136 A 
ATOM      8  C   UNL     1      29.052  20.504  -3.520  1.00  0.00     0.125 A 
ATOM      9  C   UNL     1      29.045  21.619  -4.374  1.00  0.00     0.078 A 
ATOM     10  C   UNL     1      29.081  22.910  -3.840  1.00  0.00     0.223 A 
ENDROOT
BRANCH   1  11
ATOM     11  C   UNL     1      29.124  24.404  -1.801  1.00  0.00     0.091 A 
ATOM     12  C   UNL     1      29.115  24.498  -0.404  1.00  0.00     0.068 A 
ATOM     13  C   UNL     1      29.115  25.744   0.229  1.00  0.00     0.162 A 
ATOM     14  C   UNL     1      29.095  25.582  -2.564  1.00  0.00     0.068 A 
ATOM     15  C   UNL     1      29.110  26.925  -0.534  1.00  0.00     0.200 A 
ATOM     16  C   UNL     1      29.091  26.839  -1.948  1.00  0.00     0.162 A 
BRANCH  13  17
ATOM     17  O   UNL     1      29.122  25.786   1.623  1.00  0.00    -0.504 OA
ATOM     18  H   UNL     1      28.802  26.595   2.142  1.00  0.00     0.293 HD
ENDBRANCH  13  17
BRANCH  15  19
ATOM     19  O   UNL     1      29.119  28.150   0.137  1.00  0.00    -0.502 OA
ATOM     20  H   UNL     1      28.568  28.353   0.958  1.00  0.00     0.293 HD
ENDBRANCH  15  19
BRANCH  16  21
ATOM     21  O   UNL     1      29.062  27.966  -2.772  1.00  0.00    -0.504 OA
ATOM     22  H   UNL     1      28.581  28.008  -3.659  1.00  0.00     0.293 HD
ENDBRANCH  16  21
ENDBRANCH   1  11
BRANCH  10  23
ATOM     23  O   UNL     1      29.125  24.017  -4.689  1.00  0.00    -0.500 OA
ATOM     24  H   UNL     1      29.993  24.337  -5.103  1.00  0.00     0.294 HD
ENDBRANCH  10  23
BRANCH   5  25
ATOM     25  O   UNL     1      29.119  17.319  -0.769  1.00  0.00    -0.507 OA
ATOM     26  H   UNL     1      28.537  17.327   0.061  1.00  0.00     0.293 HD
ENDBRANCH   5  25
BRANCH   7  27
ATOM     27  O   UNL     1      28.967  18.826  -5.342  1.00  0.00    -0.507 OA
ATOM     28  H   UNL     1      28.325  18.155  -5.737  1.00  0.00     0.293 HD
ENDBRANCH   7  27
TORSDOF 7
ENDMDL
MODEL 7
REMARK VINA RESULT:    -2.793     12.972     15.498
REMARK INTER + INTRA:          -2.986
REMARK INTER:                  -3.379
REMARK INTRA:                   0.393
REMARK UNBOUND:                 0.460
REMARK SMILES Oc1cc(O)c2cc(O)c(-c3cc(O)c(O)c(O)c3)[o+]c2c1
REMARK SMILES IDX 10 1 20 2 21 3 22 4 2 5 3 6 4 7 6 8 7 9 8 10 11 11 12 12
REMARK SMILES IDX 13 13 19 14 15 15 17 16 14 17 16 19 18 21 9 23 1 25 5 27
REMARK H PARENT 14 18 16 20 18 22 9 24 1 26 5 28
REMARK Flexibility Score: inf
ROOT
ATOM      1  C   UNL     1      29.096  26.701   1.256  1.00  0.00     0.402 A 
ATOM      2  O   UNL     1      29.122  28.029   1.324  1.00  0.00    -0.202 OA
ATOM      3  C   UNL     1      29.096  28.702   2.470  1.00  0.00     0.368 A 
ATOM      4  C   UNL     1      29.125  30.099   2.440  1.00  0.00     0.162 A 
ATOM      5  C   UNL     1      29.096  30.831   3.626  1.00  0.00     0.128 A 
ATOM      6  C   UNL     1      29.038  30.164   4.856  1.00  0.00     0.093 A 
ATOM      7  C   UNL     1      29.009  28.766   4.914  1.00  0.00     0.136 A 
ATOM      8  C   UNL     1      29.040  28.017   3.708  1.00  0.00     0.125 A 
ATOM      9  C   UNL     1      29.028  26.613   3.671  1.00  0.00     0.078 A 
ATOM     10  C   UNL     1      29.066  25.946   2.443  1.00  0.00     0.223 A 
ENDROOT
BRANCH   1  11
ATOM     11  C   UNL     1      29.119  26.068  -0.082  1.00  0.00     0.091 A 
ATOM     12  C   UNL     1      29.113  26.874  -1.227  1.00  0.00     0.068 A 
ATOM     13  C   UNL     1      29.115  26.304  -2.503  1.00  0.00     0.162 A 
ATOM     14  C   UNL     1      29.089  24.672  -0.230  1.00  0.00     0.068 A 
ATOM     15  C   UNL     1      29.109  24.906  -2.653  1.00  0.00     0.200 A 
ATOM     16  C   UNL     1      29.087  24.083  -1.500  1.00  0.00     0.162 A 
BRANCH  13  17
ATOM     17  O   UNL     1      29.125  27.148  -3.613  1.00  0.00    -0.504 OA
ATOM     18  H   UNL     1      28.303  27.300  -4.185  1.00  0.00     0.293 HD
ENDBRANCH  13  17
BRANCH  15  19
ATOM     19  O   UNL     1      29.121  24.376  -3.946  1.00  0.00    -0.502 OA
ATOM     20  H   UNL     1      29.137  24.932  -4.787  1.00  0.00     0.293 HD
ENDBRANCH  15  19
BRANCH  16  21
ATOM     21  O   UNL     1      29.057  22.688  -1.569  1.00  0.00    -0.504 OA
ATOM     22  H   UNL     1      28.861  22.086  -0.783  1.00  0.00     0.293 HD
ENDBRANCH  16  21
ENDBRANCH   1  11
BRANCH  10  23
ATOM     23  O   UNL     1      29.105  24.551   2.406  1.00  0.00    -0.500 OA
ATOM     24  H   UNL     1      28.275  23.991   2.565  1.00  0.00     0.294 HD
ENDBRANCH  10  23
BRANCH   5  25
ATOM     25  O   UNL     1      29.124  32.224   3.575  1.00  0.00    -0.507 OA
ATOM     26  H   UNL     1      28.339  32.782   3.891  1.00  0.00     0.293 HD
ENDBRANCH   5  25
BRANCH   7  27
ATOM     27  O   UNL     1      28.947  28.175   6.179  1.00  0.00    -0.507 OA
ATOM     28  H   UNL     1      29.754  27.941   6.740  1.00  0.00     0.293 HD
ENDBRANCH   7  27
TORSDOF 7
ENDMDL
MODEL 8
REMARK VINA RESULT:    -2.520     10.669     12.621
REMARK INTER + INTRA:          -2.649
REMARK INTER:                  -3.042
REMARK INTRA:                   0.393
REMARK UNBOUND:                 0.460
REMARK SMILES Oc1cc(O)c2cc(O)c(-c3cc(O)c(O)c(O)c3)[o+]c2c1
REMARK SMILES IDX 10 1 20 2 21 3 22 4 2 5 3 6 4 7 6 8 7 9 8 10 11 11 12 12
REMARK SMILES IDX 13 13 19 14 15 15 17 16 14 17 16 19 18 21 9 23 1 25 5 27
REMARK H PARENT 14 18 16 20 18 22 9 24 1 26 5 28
REMARK Flexibility Score: inf
ROOT
ATOM      1  C   UNL     1      29.088  25.111  -0.976  1.00  0.00     0.402 A 
ATOM      2  O   UNL     1      29.108  23.781  -0.991  1.00  0.00    -0.202 OA
ATOM      3  C   UNL     1      29.095  23.063  -2.109  1.00  0.00     0.368 A 
ATOM      4  C   UNL     1      29.116  21.668  -2.022  1.00  0.00     0.162 A 
ATOM      5  C   UNL     1      29.100  20.889  -3.178  1.00  0.00     0.128 A 
ATOM      6  C   UNL     1      29.063  21.506  -4.434  1.00  0.00     0.093 A 
ATOM      7  C   UNL     1      29.042  22.901  -4.549  1.00  0.00     0.136 A 
ATOM      8  C   UNL     1      29.060  23.697  -3.374  1.00  0.00     0.125 A 
ATOM      9  C   UNL     1      29.055  25.102  -3.393  1.00  0.00     0.078 A 
ATOM     10  C   UNL     1      29.079  25.818  -2.193  1.00  0.00     0.223 A 
ENDROOT
BRANCH   1  11
ATOM     11  C   UNL     1      29.096  25.797   0.336  1.00  0.00     0.091 A 
ATOM     12  C   UNL     1      29.023  25.039   1.511  1.00  0.00     0.068 A 
ATOM     13  C   UNL     1      29.009  25.661   2.763  1.00  0.00     0.162 A 
ATOM     14  C   UNL     1      29.117  27.198   0.428  1.00  0.00     0.068 A 
ATOM     15  C   UNL     1      29.054  27.064   2.857  1.00  0.00     0.200 A 
ATOM     16  C   UNL     1      29.100  27.839   1.672  1.00  0.00     0.162 A 
BRANCH  13  17
ATOM     17  O   UNL     1      28.952  24.863   3.905  1.00  0.00    -0.504 OA
ATOM     18  H   UNL     1      29.735  24.299   4.212  1.00  0.00     0.293 HD
ENDBRANCH  13  17
BRANCH  15  19
ATOM     19  O   UNL     1      29.048  27.645   4.127  1.00  0.00    -0.502 OA
ATOM     20  H   UNL     1      28.977  28.637   4.297  1.00  0.00     0.293 HD
ENDBRANCH  15  19
BRANCH  16  21
ATOM     21  O   UNL     1      29.123  29.235   1.684  1.00  0.00    -0.504 OA
ATOM     22  H   UNL     1      29.817  29.786   2.166  1.00  0.00     0.293 HD
ENDBRANCH  16  21
ENDBRANCH   1  11
BRANCH  10  23
ATOM     23  O   UNL     1      29.125  27.213  -2.211  1.00  0.00    -0.500 OA
ATOM     24  H   UNL     1      28.310  27.769  -2.442  1.00  0.00     0.294 HD
ENDBRANCH  10  23
BRANCH   5  25
ATOM     25  O   UNL     1      29.120  19.499  -3.071  1.00  0.00    -0.507 OA
ATOM     26  H   UNL     1      28.307  18.980  -2.759  1.00  0.00     0.293 HD
ENDBRANCH   5  25
BRANCH   7  27
ATOM     27  O   UNL     1      29.001  23.441  -5.838  1.00  0.00    -0.507 OA
ATOM     28  H   UNL     1      28.508  24.287  -6.087  1.00  0.00     0.293 HD
ENDBRANCH   7  27
TORSDOF 7
ENDMDL
