MODEL 1
REMARK VINA RESULT:    -5.274      0.000      0.000
REMARK INTER + INTRA:          -5.274
REMARK INTER:                  -5.274
REMARK INTRA:                   0.000
REMARK UNBOUND:                 0.000
REMARK SMILES CC(C)=C1CC[C@H](C)CC1=O
REMARK SMILES IDX 8 1 7 2 6 3 5 4 4 5 2 6 1 7 3 8 10 9 11 10 9 11
REMARK H PARENT
REMARK Flexibility Score: inf
ROOT
ATOM      1  C   UNL     1      13.803 -28.918  22.776  1.00  0.00     0.008 C 
ATOM      2  C   UNL     1      12.875 -30.109  23.065  1.00  0.00    -0.006 C 
ATOM      3  C   UNL     1      12.242 -30.678  21.782  1.00  0.00     0.008 C 
ATOM      4  C   UNL     1      13.268 -31.337  20.845  1.00  0.00     0.039 C 
ATOM      5  C   UNL     1      14.183 -32.320  21.564  1.00  0.00    -0.006 C 
ATOM      6  C   UNL     1      14.708 -33.400  20.914  1.00  0.00    -0.070 C 
ATOM      7  C   UNL     1      14.416 -33.653  19.452  1.00  0.00     0.039 C 
ATOM      8  C   UNL     1      15.571 -34.416  21.626  1.00  0.00     0.039 C 
ATOM      9  C   UNL     1      14.562 -31.970  22.965  1.00  0.00     0.159 C 
ATOM     10  O   UNL     1      15.688 -32.282  23.436  1.00  0.00    -0.295 OA
ATOM     11  C   UNL     1      13.599 -31.221  23.840  1.00  0.00     0.084 C 
ENDROOT
TORSDOF 0
ENDMDL
MODEL 2
REMARK VINA RESULT:    -5.186      1.801      4.223
REMARK INTER + INTRA:          -5.186
REMARK INTER:                  -5.186
REMARK INTRA:                   0.000
REMARK UNBOUND:                 0.000
REMARK SMILES CC(C)=C1CC[C@H](C)CC1=O
REMARK SMILES IDX 8 1 7 2 6 3 5 4 4 5 2 6 1 7 3 8 10 9 11 10 9 11
REMARK H PARENT
REMARK Flexibility Score: inf
ROOT
ATOM      1  C   UNL     1      16.874 -32.097  20.912  1.00  0.00     0.008 C 
ATOM      2  C   UNL     1      15.951 -32.877  21.861  1.00  0.00    -0.006 C 
ATOM      3  C   UNL     1      15.765 -32.162  23.212  1.00  0.00     0.008 C 
ATOM      4  C   UNL     1      14.995 -30.837  23.091  1.00  0.00     0.039 C 
ATOM      5  C   UNL     1      13.708 -30.970  22.288  1.00  0.00    -0.006 C 
ATOM      6  C   UNL     1      12.631 -30.170  22.543  1.00  0.00    -0.070 C 
ATOM      7  C   UNL     1      12.680 -29.110  23.620  1.00  0.00     0.039 C 
ATOM      8  C   UNL     1      11.328 -30.326  21.794  1.00  0.00     0.039 C 
ATOM      9  C   UNL     1      13.737 -31.928  21.144  1.00  0.00     0.159 C 
ATOM     10  O   UNL     1      13.067 -31.720  20.098  1.00  0.00    -0.295 OA
ATOM     11  C   UNL     1      14.585 -33.165  21.220  1.00  0.00     0.084 C 
ENDROOT
TORSDOF 0
ENDMDL
MODEL 3
REMARK VINA RESULT:    -5.030     15.168     16.528
REMARK INTER + INTRA:          -5.030
REMARK INTER:                  -5.030
REMARK INTRA:                   0.000
REMARK UNBOUND:                 0.000
REMARK SMILES CC(C)=C1CC[C@H](C)CC1=O
REMARK SMILES IDX 8 1 7 2 6 3 5 4 4 5 2 6 1 7 3 8 10 9 11 10 9 11
REMARK H PARENT
REMARK Flexibility Score: inf
ROOT
ATOM      1  C   UNL     1      22.613 -38.038  36.457  1.00  0.00     0.008 C 
ATOM      2  C   UNL     1      22.647 -36.594  35.932  1.00  0.00    -0.006 C 
ATOM      3  C   UNL     1      24.067 -35.998  35.959  1.00  0.00     0.008 C 
ATOM      4  C   UNL     1      25.026 -36.683  34.972  1.00  0.00     0.039 C 
ATOM      5  C   UNL     1      24.444 -36.813  33.571  1.00  0.00    -0.006 C 
ATOM      6  C   UNL     1      25.250 -36.809  32.469  1.00  0.00    -0.070 C 
ATOM      7  C   UNL     1      26.752 -36.694  32.597  1.00  0.00     0.039 C 
ATOM      8  C   UNL     1      24.685 -36.879  31.069  1.00  0.00     0.039 C 
ATOM      9  C   UNL     1      22.975 -37.061  33.485  1.00  0.00     0.159 C 
ATOM     10  O   UNL     1      22.482 -37.758  32.558  1.00  0.00    -0.295 OA
ATOM     11  C   UNL     1      22.052 -36.486  34.520  1.00  0.00     0.084 C 
ENDROOT
TORSDOF 0
ENDMDL
MODEL 4
REMARK VINA RESULT:    -5.024      2.283      2.854
REMARK INTER + INTRA:          -5.024
REMARK INTER:                  -5.024
REMARK INTRA:                   0.000
REMARK UNBOUND:                 0.000
REMARK SMILES CC(C)=C1CC[C@H](C)CC1=O
REMARK SMILES IDX 8 1 7 2 6 3 5 4 4 5 2 6 1 7 3 8 10 9 11 10 9 11
REMARK H PARENT
REMARK Flexibility Score: inf
ROOT
ATOM      1  C   UNL     1      13.497 -31.066  23.334  1.00  0.00     0.008 C 
ATOM      2  C   UNL     1      13.617 -30.585  21.880  1.00  0.00    -0.006 C 
ATOM      3  C   UNL     1      14.909 -29.784  21.636  1.00  0.00     0.008 C 
ATOM      4  C   UNL     1      16.180 -30.639  21.758  1.00  0.00     0.039 C 
ATOM      5  C   UNL     1      16.104 -31.934  20.960  1.00  0.00    -0.006 C 
ATOM      6  C   UNL     1      17.228 -32.510  20.442  1.00  0.00    -0.070 C 
ATOM      7  C   UNL     1      18.593 -31.896  20.654  1.00  0.00     0.039 C 
ATOM      8  C   UNL     1      17.164 -33.763  19.600  1.00  0.00     0.039 C 
ATOM      9  C   UNL     1      14.764 -32.587  20.884  1.00  0.00     0.159 C 
ATOM     10  O   UNL     1      14.649 -33.840  20.829  1.00  0.00    -0.295 OA
ATOM     11  C   UNL     1      13.518 -31.750  20.884  1.00  0.00     0.084 C 
ENDROOT
TORSDOF 0
ENDMDL
MODEL 5
REMARK VINA RESULT:    -5.014      2.487      4.991
REMARK INTER + INTRA:          -5.014
REMARK INTER:                  -5.014
REMARK INTRA:                   0.000
REMARK UNBOUND:                 0.000
REMARK SMILES CC(C)=C1CC[C@H](C)CC1=O
REMARK SMILES IDX 8 1 7 2 6 3 5 4 4 5 2 6 1 7 3 8 10 9 11 10 9 11
REMARK H PARENT
REMARK Flexibility Score: inf
ROOT
ATOM      1  C   UNL     1      17.281 -33.933  18.927  1.00  0.00     0.008 C 
ATOM      2  C   UNL     1      16.329 -35.013  19.463  1.00  0.00    -0.006 C 
ATOM      3  C   UNL     1      16.919 -35.759  20.674  1.00  0.00     0.008 C 
ATOM      4  C   UNL     1      17.067 -34.867  21.918  1.00  0.00     0.039 C 
ATOM      5  C   UNL     1      15.802 -34.083  22.240  1.00  0.00    -0.006 C 
ATOM      6  C   UNL     1      15.492 -33.739  23.525  1.00  0.00    -0.070 C 
ATOM      7  C   UNL     1      16.401 -34.107  24.675  1.00  0.00     0.039 C 
ATOM      8  C   UNL     1      14.213 -33.011  23.868  1.00  0.00     0.039 C 
ATOM      9  C   UNL     1      14.996 -33.617  21.073  1.00  0.00     0.159 C 
ATOM     10  O   UNL     1      14.353 -32.535  21.112  1.00  0.00    -0.295 OA
ATOM     11  C   UNL     1      14.950 -34.436  19.815  1.00  0.00     0.084 C 
ENDROOT
TORSDOF 0
ENDMDL
MODEL 6
REMARK VINA RESULT:    -4.965      1.592      4.369
REMARK INTER + INTRA:          -4.965
REMARK INTER:                  -4.965
REMARK INTRA:                   0.000
REMARK UNBOUND:                 0.000
REMARK SMILES CC(C)=C1CC[C@H](C)CC1=O
REMARK SMILES IDX 8 1 7 2 6 3 5 4 4 5 2 6 1 7 3 8 10 9 11 10 9 11
REMARK H PARENT
REMARK Flexibility Score: inf
ROOT
ATOM      1  C   UNL     1      14.605 -32.937  22.128  1.00  0.00     0.008 C 
ATOM      2  C   UNL     1      14.392 -31.883  21.031  1.00  0.00    -0.006 C 
ATOM      3  C   UNL     1      12.920 -31.448  20.918  1.00  0.00     0.008 C 
ATOM      4  C   UNL     1      12.423 -30.678  22.153  1.00  0.00     0.039 C 
ATOM      5  C   UNL     1      13.362 -29.554  22.569  1.00  0.00    -0.006 C 
ATOM      6  C   UNL     1      12.889 -28.429  23.183  1.00  0.00    -0.070 C 
ATOM      7  C   UNL     1      11.419 -28.264  23.490  1.00  0.00     0.039 C 
ATOM      8  C   UNL     1      13.799 -27.280  23.551  1.00  0.00     0.039 C 
ATOM      9  C   UNL     1      14.821 -29.804  22.377  1.00  0.00     0.159 C 
ATOM     10  O   UNL     1      15.678 -29.321  23.164  1.00  0.00    -0.295 OA
ATOM     11  C   UNL     1      15.294 -30.657  21.235  1.00  0.00     0.084 C 
ENDROOT
TORSDOF 0
ENDMDL
MODEL 7
REMARK VINA RESULT:    -4.938      1.668      2.714
REMARK INTER + INTRA:          -4.938
REMARK INTER:                  -4.938
REMARK INTRA:                   0.000
REMARK UNBOUND:                 0.000
REMARK SMILES CC(C)=C1CC[C@H](C)CC1=O
REMARK SMILES IDX 8 1 7 2 6 3 5 4 4 5 2 6 1 7 3 8 10 9 11 10 9 11
REMARK H PARENT
REMARK Flexibility Score: inf
ROOT
ATOM      1  C   UNL     1      13.367 -30.507  23.581  1.00  0.00     0.008 C 
ATOM      2  C   UNL     1      14.601 -30.195  22.719  1.00  0.00    -0.006 C 
ATOM      3  C   UNL     1      15.861 -30.923  23.221  1.00  0.00     0.008 C 
ATOM      4  C   UNL     1      15.779 -32.450  23.060  1.00  0.00     0.039 C 
ATOM      5  C   UNL     1      15.342 -32.877  21.665  1.00  0.00    -0.006 C 
ATOM      6  C   UNL     1      15.759 -34.060  21.125  1.00  0.00    -0.070 C 
ATOM      7  C   UNL     1      16.657 -34.999  21.897  1.00  0.00     0.039 C 
ATOM      8  C   UNL     1      15.381 -34.472  19.721  1.00  0.00     0.039 C 
ATOM      9  C   UNL     1      14.348 -31.995  20.984  1.00  0.00     0.159 C 
ATOM     10  O   UNL     1      13.484 -32.468  20.199  1.00  0.00    -0.295 OA
ATOM     11  C   UNL     1      14.357 -30.516  21.237  1.00  0.00     0.084 C 
ENDROOT
TORSDOF 0
ENDMDL
MODEL 8
REMARK VINA RESULT:    -4.844      3.666      5.481
REMARK INTER + INTRA:          -4.844
REMARK INTER:                  -4.844
REMARK INTRA:                   0.000
REMARK UNBOUND:                 0.000
REMARK SMILES CC(C)=C1CC[C@H](C)CC1=O
REMARK SMILES IDX 8 1 7 2 6 3 5 4 4 5 2 6 1 7 3 8 10 9 11 10 9 11
REMARK H PARENT
REMARK Flexibility Score: inf
ROOT
ATOM      1  C   UNL     1      17.180 -33.972  18.814  1.00  0.00     0.008 C 
ATOM      2  C   UNL     1      16.242 -35.053  19.373  1.00  0.00    -0.006 C 
ATOM      3  C   UNL     1      17.010 -36.290  19.873  1.00  0.00     0.008 C 
ATOM      4  C   UNL     1      17.879 -36.001  21.108  1.00  0.00     0.039 C 
ATOM      5  C   UNL     1      17.124 -35.265  22.207  1.00  0.00    -0.006 C 
ATOM      6  C   UNL     1      17.450 -35.434  23.523  1.00  0.00    -0.070 C 
ATOM      7  C   UNL     1      18.584 -36.343  23.938  1.00  0.00     0.039 C 
ATOM      8  C   UNL     1      16.674 -34.757  24.628  1.00  0.00     0.039 C 
ATOM      9  C   UNL     1      16.102 -34.274  21.759  1.00  0.00     0.159 C 
ATOM     10  O   UNL     1      15.868 -33.230  22.423  1.00  0.00    -0.295 OA
ATOM     11  C   UNL     1      15.338 -34.503  20.487  1.00  0.00     0.084 C 
ENDROOT
TORSDOF 0
ENDMDL
MODEL 9
REMARK VINA RESULT:    -4.840      1.947      4.941
REMARK INTER + INTRA:          -4.840
REMARK INTER:                  -4.840
REMARK INTRA:                   0.000
REMARK UNBOUND:                 0.000
REMARK SMILES CC(C)=C1CC[C@H](C)CC1=O
REMARK SMILES IDX 8 1 7 2 6 3 5 4 4 5 2 6 1 7 3 8 10 9 11 10 9 11
REMARK H PARENT
REMARK Flexibility Score: inf
ROOT
ATOM      1  C   UNL     1      16.946 -36.753  19.727  1.00  0.00     0.008 C 
ATOM      2  C   UNL     1      17.617 -35.372  19.788  1.00  0.00    -0.006 C 
ATOM      3  C   UNL     1      16.894 -34.333  18.912  1.00  0.00     0.008 C 
ATOM      4  C   UNL     1      15.486 -33.989  19.425  1.00  0.00     0.039 C 
ATOM      5  C   UNL     1      15.459 -33.659  20.911  1.00  0.00    -0.006 C 
ATOM      6  C   UNL     1      14.539 -32.792  21.426  1.00  0.00    -0.070 C 
ATOM      7  C   UNL     1      13.499 -32.138  20.543  1.00  0.00     0.039 C 
ATOM      8  C   UNL     1      14.534 -32.410  22.888  1.00  0.00     0.039 C 
ATOM      9  C   UNL     1      16.407 -34.422  21.776  1.00  0.00     0.159 C 
ATOM     10  O   UNL     1      16.114 -34.721  22.964  1.00  0.00    -0.295 OA
ATOM     11  C   UNL     1      17.736 -34.860  21.232  1.00  0.00     0.084 C 
ENDROOT
TORSDOF 0
ENDMDL
