MODEL 1
REMARK VINA RESULT:    -3.371      0.000      0.000
REMARK INTER + INTRA:          -3.825
REMARK INTER:                  -3.765
REMARK INTRA:                  -0.061
REMARK UNBOUND:                -0.061
REMARK SMILES CCCC(=O)[O-]
REMARK SMILES IDX 3 1 4 2 5 3 6 4 2 5 1 6
REMARK H PARENT
REMARK Flexibility Score: inf
ROOT
ATOM      1  C   UNL     1       9.942  54.572  22.772  1.00  0.00     0.052 C 
ENDROOT
BRANCH   1   2
ATOM      2  C   UNL     1      10.211  54.621  24.245  1.00  0.00     0.041 C 
ATOM      3  O   UNL     1       9.256  54.676  25.064  1.00  0.00    -0.550 OA
ATOM      4  O   UNL     1      11.520  54.639  24.712  1.00  0.00    -0.550 OA
ENDBRANCH   1   2
BRANCH   1   5
ATOM      5  C   UNL     1      10.862  53.574  22.060  1.00  0.00     0.003 C 
ATOM      6  C   UNL     1      10.486  52.123  22.357  1.00  0.00     0.004 C 
ENDBRANCH   1   5
TORSDOF 2
ENDMDL
MODEL 2
REMARK VINA RESULT:    -3.258      5.008      5.380
REMARK INTER + INTRA:          -3.699
REMARK INTER:                  -3.664
REMARK INTRA:                  -0.036
REMARK UNBOUND:                -0.061
REMARK SMILES CCCC(=O)[O-]
REMARK SMILES IDX 3 1 4 2 5 3 6 4 2 5 1 6
REMARK H PARENT
REMARK Flexibility Score: inf
ROOT
ATOM      1  C   UNL     1       7.230  54.586  19.305  1.00  0.00     0.052 C 
ENDROOT
BRANCH   1   2
ATOM      2  C   UNL     1       8.178  55.431  20.100  1.00  0.00     0.041 C 
ATOM      3  O   UNL     1       8.383  56.630  19.775  1.00  0.00    -0.550 OA
ATOM      4  O   UNL     1       8.860  54.884  21.179  1.00  0.00    -0.550 OA
ENDBRANCH   1   2
BRANCH   1   5
ATOM      5  C   UNL     1       7.730  54.366  17.873  1.00  0.00     0.003 C 
ATOM      6  C   UNL     1       6.965  55.209  16.854  1.00  0.00     0.004 C 
ENDBRANCH   1   5
TORSDOF 2
ENDMDL
MODEL 3
REMARK VINA RESULT:    -3.195      2.228      2.999
REMARK INTER + INTRA:          -3.629
REMARK INTER:                  -3.621
REMARK INTRA:                  -0.008
REMARK UNBOUND:                -0.061
REMARK SMILES CCCC(=O)[O-]
REMARK SMILES IDX 3 1 4 2 5 3 6 4 2 5 1 6
REMARK H PARENT
REMARK Flexibility Score: inf
ROOT
ATOM      1  C   UNL     1       9.929  53.621  21.223  1.00  0.00     0.052 C 
ENDROOT
BRANCH   1   2
ATOM      2  C   UNL     1      10.563  52.989  22.424  1.00  0.00     0.041 C 
ATOM      3  O   UNL     1      10.712  51.740  22.480  1.00  0.00    -0.550 OA
ATOM      4  O   UNL     1      10.958  53.778  23.497  1.00  0.00    -0.550 OA
ENDBRANCH   1   2
BRANCH   1   5
ATOM      5  C   UNL     1       8.990  54.768  21.614  1.00  0.00     0.003 C 
ATOM      6  C   UNL     1       8.435  55.506  20.397  1.00  0.00     0.004 C 
ENDBRANCH   1   5
TORSDOF 2
ENDMDL
MODEL 4
REMARK VINA RESULT:    -3.173      2.801      3.186
REMARK INTER + INTRA:          -3.604
REMARK INTER:                  -3.567
REMARK INTRA:                  -0.037
REMARK UNBOUND:                -0.061
REMARK SMILES CCCC(=O)[O-]
REMARK SMILES IDX 3 1 4 2 5 3 6 4 2 5 1 6
REMARK H PARENT
REMARK Flexibility Score: inf
ROOT
ATOM      1  C   UNL     1       9.657  54.627  22.288  1.00  0.00     0.052 C 
ENDROOT
BRANCH   1   2
ATOM      2  C   UNL     1       8.623  55.112  21.319  1.00  0.00     0.041 C 
ATOM      3  O   UNL     1       8.328  54.424  20.307  1.00  0.00    -0.550 OA
ATOM      4  O   UNL     1       8.007  56.342  21.517  1.00  0.00    -0.550 OA
ENDBRANCH   1   2
BRANCH   1   5
ATOM      5  C   UNL     1      10.618  53.625  21.637  1.00  0.00     0.003 C 
ATOM      6  C   UNL     1      10.571  52.254  22.311  1.00  0.00     0.004 C 
ENDBRANCH   1   5
TORSDOF 2
ENDMDL
MODEL 5
REMARK VINA RESULT:    -3.153      4.623      5.198
REMARK INTER + INTRA:          -3.582
REMARK INTER:                  -3.543
REMARK INTRA:                  -0.039
REMARK UNBOUND:                -0.061
REMARK SMILES CCCC(=O)[O-]
REMARK SMILES IDX 3 1 4 2 5 3 6 4 2 5 1 6
REMARK H PARENT
REMARK Flexibility Score: inf
ROOT
ATOM      1  C   UNL     1       7.367  56.401  20.076  1.00  0.00     0.052 C 
ENDROOT
BRANCH   1   2
ATOM      2  C   UNL     1       6.420  56.191  21.218  1.00  0.00     0.041 C 
ATOM      3  O   UNL     1       6.541  55.185  21.965  1.00  0.00    -0.550 OA
ATOM      4  O   UNL     1       5.384  57.090  21.435  1.00  0.00    -0.550 OA
ENDBRANCH   1   2
BRANCH   1   5
ATOM      5  C   UNL     1       8.020  55.087  19.631  1.00  0.00     0.003 C 
ATOM      6  C   UNL     1       7.315  54.466  18.427  1.00  0.00     0.004 C 
ENDBRANCH   1   5
TORSDOF 2
ENDMDL
MODEL 6
REMARK VINA RESULT:    -3.134      3.539      4.014
REMARK INTER + INTRA:          -3.561
REMARK INTER:                  -3.550
REMARK INTRA:                  -0.011
REMARK UNBOUND:                -0.061
REMARK SMILES CCCC(=O)[O-]
REMARK SMILES IDX 3 1 4 2 5 3 6 4 2 5 1 6
REMARK H PARENT
REMARK Flexibility Score: inf
ROOT
ATOM      1  C   UNL     1       8.729  54.690  20.526  1.00  0.00     0.052 C 
ENDROOT
BRANCH   1   2
ATOM      2  C   UNL     1       8.116  56.057  20.530  1.00  0.00     0.041 C 
ATOM      3  O   UNL     1       7.935  56.668  21.615  1.00  0.00    -0.550 OA
ATOM      4  O   UNL     1       7.714  56.642  19.336  1.00  0.00    -0.550 OA
ENDBRANCH   1   2
BRANCH   1   5
ATOM      5  C   UNL     1       9.491  54.406  21.826  1.00  0.00     0.003 C 
ATOM      6  C   UNL     1      10.642  53.422  21.622  1.00  0.00     0.004 C 
ENDBRANCH   1   5
TORSDOF 2
ENDMDL
MODEL 7
REMARK VINA RESULT:    -3.132      2.729      3.427
REMARK INTER + INTRA:          -3.558
REMARK INTER:                  -3.546
REMARK INTRA:                  -0.013
REMARK UNBOUND:                -0.061
REMARK SMILES CCCC(=O)[O-]
REMARK SMILES IDX 3 1 4 2 5 3 6 4 2 5 1 6
REMARK H PARENT
REMARK Flexibility Score: inf
ROOT
ATOM      1  C   UNL     1       8.872  54.468  20.951  1.00  0.00     0.052 C 
ENDROOT
BRANCH   1   2
ATOM      2  C   UNL     1       9.971  54.363  21.964  1.00  0.00     0.041 C 
ATOM      3  O   UNL     1       9.855  54.922  23.086  1.00  0.00    -0.550 OA
ATOM      4  O   UNL     1      11.137  53.674  21.656  1.00  0.00    -0.550 OA
ENDBRANCH   1   2
BRANCH   1   5
ATOM      5  C   UNL     1       8.133  55.808  21.055  1.00  0.00     0.003 C 
ATOM      6  C   UNL     1       7.968  56.487  19.696  1.00  0.00     0.004 C 
ENDBRANCH   1   5
TORSDOF 2
ENDMDL
MODEL 8
REMARK VINA RESULT:    -3.092      4.627      5.093
REMARK INTER + INTRA:          -3.514
REMARK INTER:                  -3.503
REMARK INTRA:                  -0.011
REMARK UNBOUND:                -0.061
REMARK SMILES CCCC(=O)[O-]
REMARK SMILES IDX 3 1 4 2 5 3 6 4 2 5 1 6
REMARK H PARENT
REMARK Flexibility Score: inf
ROOT
ATOM      1  C   UNL     1       7.871  54.443  20.240  1.00  0.00     0.052 C 
ENDROOT
BRANCH   1   2
ATOM      2  C   UNL     1       7.760  55.368  19.066  1.00  0.00     0.041 C 
ATOM      3  O   UNL     1       7.639  54.904  17.902  1.00  0.00    -0.550 OA
ATOM      4  O   UNL     1       7.824  56.742  19.257  1.00  0.00    -0.550 OA
ENDBRANCH   1   2
BRANCH   1   5
ATOM      5  C   UNL     1       8.980  54.880  21.204  1.00  0.00     0.003 C 
ATOM      6  C   UNL     1       9.996  53.769  21.465  1.00  0.00     0.004 C 
ENDBRANCH   1   5
TORSDOF 2
ENDMDL
MODEL 9
REMARK VINA RESULT:    -3.086      2.398      3.329
REMARK INTER + INTRA:          -3.508
REMARK INTER:                  -3.475
REMARK INTRA:                  -0.032
REMARK UNBOUND:                -0.061
REMARK SMILES CCCC(=O)[O-]
REMARK SMILES IDX 3 1 4 2 5 3 6 4 2 5 1 6
REMARK H PARENT
REMARK Flexibility Score: inf
ROOT
ATOM      1  C   UNL     1       9.405  54.156  23.271  1.00  0.00     0.052 C 
ENDROOT
BRANCH   1   2
ATOM      2  C   UNL     1       9.794  54.011  21.832  1.00  0.00     0.041 C 
ATOM      3  O   UNL     1      10.990  53.774  21.518  1.00  0.00    -0.550 OA
ATOM      4  O   UNL     1       8.840  54.171  20.834  1.00  0.00    -0.550 OA
ENDBRANCH   1   2
BRANCH   1   5
ATOM      5  C   UNL     1      10.217  55.253  23.970  1.00  0.00     0.003 C 
ATOM      6  C   UNL     1      11.279  54.683  24.909  1.00  0.00     0.004 C 
ENDBRANCH   1   5
TORSDOF 2
ENDMDL
