MODEL 1
REMARK VINA RESULT:    -5.366      0.000      0.000
REMARK INTER + INTRA:         -11.447
REMARK INTER:                  -9.444
REMARK INTRA:                  -2.003
REMARK UNBOUND:                -2.003
REMARK SMILES CCCCCCCCCCCCCCC(=O)[O-]
REMARK SMILES IDX 9 1 10 2 11 3 12 4 13 5 14 6 15 7 16 8 17 9 8 10 7 11 6 12
REMARK SMILES IDX 5 13 4 14 3 15 2 16 1 17
REMARK H PARENT
REMARK Flexibility Score: inf
ROOT
ATOM      1  C   UNL     1      53.113  14.539  -0.923  1.00  0.00     0.000 C 
ENDROOT
BRANCH   1   2
ATOM      2  C   UNL     1      53.580  15.663  -1.863  1.00  0.00     0.000 C 
BRANCH   2   3
ATOM      3  C   UNL     1      52.491  16.718  -2.112  1.00  0.00     0.000 C 
BRANCH   3   4
ATOM      4  C   UNL     1      52.722  17.958  -1.237  1.00  0.00     0.000 C 
BRANCH   4   5
ATOM      5  C   UNL     1      51.409  18.640  -0.817  1.00  0.00     0.006 C 
BRANCH   5   6
ATOM      6  C   UNL     1      50.225  18.243  -1.707  1.00  0.00     0.053 C 
BRANCH   6   7
ATOM      7  C   UNL     1      49.316  19.413  -1.917  1.00  0.00     0.041 C 
ATOM      8  O   UNL     1      49.735  20.583  -1.718  1.00  0.00    -0.550 OA
ATOM      9  O   UNL     1      48.022  19.214  -2.380  1.00  0.00    -0.550 OA
ENDBRANCH   6   7
ENDBRANCH   5   6
ENDBRANCH   4   5
ENDBRANCH   3   4
ENDBRANCH   2   3
ENDBRANCH   1   2
BRANCH   1  10
ATOM     10  C   UNL     1      54.226  14.069   0.030  1.00  0.00     0.000 C 
BRANCH  10  11
ATOM     11  C   UNL     1      53.977  14.496   1.486  1.00  0.00    -0.000 C 
BRANCH  11  12
ATOM     12  C   UNL     1      52.685  15.310   1.655  1.00  0.00    -0.000 C 
BRANCH  12  13
ATOM     13  C   UNL     1      52.996  16.782   1.956  1.00  0.00    -0.000 C 
BRANCH  13  14
ATOM     14  C   UNL     1      54.416  16.939   2.522  1.00  0.00    -0.000 C 
BRANCH  14  15
ATOM     15  C   UNL     1      55.253  17.962   1.728  1.00  0.00    -0.000 C 
BRANCH  15  16
ATOM     16  C   UNL     1      55.924  17.371   0.477  1.00  0.00    -0.003 C 
ATOM     17  C   UNL     1      57.154  16.526   0.800  1.00  0.00     0.004 C 
ENDBRANCH  15  16
ENDBRANCH  14  15
ENDBRANCH  13  14
ENDBRANCH  12  13
ENDBRANCH  11  12
ENDBRANCH  10  11
ENDBRANCH   1  10
TORSDOF 13
ENDMDL
MODEL 2
REMARK VINA RESULT:    -5.293      1.022      1.770
REMARK INTER + INTRA:         -11.318
REMARK INTER:                  -9.082
REMARK INTRA:                  -2.236
REMARK UNBOUND:                -2.003
REMARK SMILES CCCCCCCCCCCCCCC(=O)[O-]
REMARK SMILES IDX 9 1 10 2 11 3 12 4 13 5 14 6 15 7 16 8 17 9 8 10 7 11 6 12
REMARK SMILES IDX 5 13 4 14 3 15 2 16 1 17
REMARK H PARENT
REMARK Flexibility Score: inf
ROOT
ATOM      1  C   UNL     1      54.071  14.115   0.044  1.00  0.00     0.000 C 
ENDROOT
BRANCH   1   2
ATOM      2  C   UNL     1      52.966  14.702  -0.851  1.00  0.00     0.000 C 
BRANCH   2   3
ATOM      3  C   UNL     1      53.507  15.713  -1.874  1.00  0.00     0.000 C 
BRANCH   3   4
ATOM      4  C   UNL     1      52.469  16.807  -2.162  1.00  0.00     0.000 C 
BRANCH   4   5
ATOM      5  C   UNL     1      52.527  17.961  -1.148  1.00  0.00     0.006 C 
BRANCH   5   6
ATOM      6  C   UNL     1      51.213  18.136  -0.375  1.00  0.00     0.053 C 
BRANCH   6   7
ATOM      7  C   UNL     1      50.571  19.441  -0.729  1.00  0.00     0.041 C 
ATOM      8  O   UNL     1      51.076  20.174  -1.619  1.00  0.00    -0.550 OA
ATOM      9  O   UNL     1      49.388  19.824  -0.111  1.00  0.00    -0.550 OA
ENDBRANCH   6   7
ENDBRANCH   5   6
ENDBRANCH   4   5
ENDBRANCH   3   4
ENDBRANCH   2   3
ENDBRANCH   1   2
BRANCH   1  10
ATOM     10  C   UNL     1      53.933  14.552   1.513  1.00  0.00     0.000 C 
BRANCH  10  11
ATOM     11  C   UNL     1      52.915  15.690   1.698  1.00  0.00    -0.000 C 
BRANCH  11  12
ATOM     12  C   UNL     1      53.480  16.867   2.508  1.00  0.00    -0.000 C 
BRANCH  12  13
ATOM     13  C   UNL     1      54.979  17.052   2.238  1.00  0.00    -0.000 C 
BRANCH  13  14
ATOM     14  C   UNL     1      55.212  17.812   0.923  1.00  0.00    -0.000 C 
BRANCH  14  15
ATOM     15  C   UNL     1      56.262  17.125   0.027  1.00  0.00    -0.000 C 
BRANCH  15  16
ATOM     16  C   UNL     1      57.349  16.376   0.815  1.00  0.00    -0.003 C 
ATOM     17  C   UNL     1      57.676  15.004   0.229  1.00  0.00     0.004 C 
ENDBRANCH  15  16
ENDBRANCH  14  15
ENDBRANCH  13  14
ENDBRANCH  12  13
ENDBRANCH  11  12
ENDBRANCH  10  11
ENDBRANCH   1  10
TORSDOF 13
ENDMDL
MODEL 3
REMARK VINA RESULT:    -5.219      1.396      3.141
REMARK INTER + INTRA:         -11.189
REMARK INTER:                  -9.280
REMARK INTRA:                  -1.909
REMARK UNBOUND:                -2.003
REMARK SMILES CCCCCCCCCCCCCCC(=O)[O-]
REMARK SMILES IDX 9 1 10 2 11 3 12 4 13 5 14 6 15 7 16 8 17 9 8 10 7 11 6 12
REMARK SMILES IDX 5 13 4 14 3 15 2 16 1 17
REMARK H PARENT
REMARK Flexibility Score: inf
ROOT
ATOM      1  C   UNL     1      53.559  16.777   2.243  1.00  0.00     0.000 C 
ENDROOT
BRANCH   1   2
ATOM      2  C   UNL     1      52.455  17.825   2.461  1.00  0.00     0.000 C 
BRANCH   2   3
ATOM      3  C   UNL     1      51.404  17.822   1.340  1.00  0.00     0.000 C 
BRANCH   3   4
ATOM      4  C   UNL     1      50.306  18.858   1.617  1.00  0.00     0.000 C 
BRANCH   4   5
ATOM      5  C   UNL     1      49.738  19.479   0.331  1.00  0.00     0.006 C 
BRANCH   5   6
ATOM      6  C   UNL     1      49.747  18.503  -0.852  1.00  0.00     0.053 C 
BRANCH   6   7
ATOM      7  C   UNL     1      50.315  19.163  -2.068  1.00  0.00     0.041 C 
ATOM      8  O   UNL     1      50.431  18.517  -3.143  1.00  0.00    -0.550 OA
ATOM      9  O   UNL     1      50.670  20.505  -2.030  1.00  0.00    -0.550 OA
ENDBRANCH   6   7
ENDBRANCH   5   6
ENDBRANCH   4   5
ENDBRANCH   3   4
ENDBRANCH   2   3
ENDBRANCH   1   2
BRANCH   1  10
ATOM     10  C   UNL     1      53.005  15.437   1.727  1.00  0.00     0.000 C 
BRANCH  10  11
ATOM     11  C   UNL     1      54.108  14.392   1.493  1.00  0.00    -0.000 C 
BRANCH  11  12
ATOM     12  C   UNL     1      54.196  13.938   0.028  1.00  0.00    -0.000 C 
BRANCH  12  13
ATOM     13  C   UNL     1      53.061  14.547  -0.806  1.00  0.00    -0.000 C 
BRANCH  13  14
ATOM     14  C   UNL     1      53.613  15.507  -1.871  1.00  0.00    -0.000 C 
BRANCH  14  15
ATOM     15  C   UNL     1      53.137  16.958  -1.656  1.00  0.00    -0.000 C 
BRANCH  15  16
ATOM     16  C   UNL     1      54.237  17.897  -1.135  1.00  0.00    -0.003 C 
ATOM     17  C   UNL     1      55.578  17.194  -0.931  1.00  0.00     0.004 C 
ENDBRANCH  15  16
ENDBRANCH  14  15
ENDBRANCH  13  14
ENDBRANCH  12  13
ENDBRANCH  11  12
ENDBRANCH  10  11
ENDBRANCH   1  10
TORSDOF 13
ENDMDL
MODEL 4
REMARK VINA RESULT:    -5.155      4.851      7.210
REMARK INTER + INTRA:         -11.076
REMARK INTER:                  -9.284
REMARK INTRA:                  -1.791
REMARK UNBOUND:                -2.003
REMARK SMILES CCCCCCCCCCCCCCC(=O)[O-]
REMARK SMILES IDX 9 1 10 2 11 3 12 4 13 5 14 6 15 7 16 8 17 9 8 10 7 11 6 12
REMARK SMILES IDX 5 13 4 14 3 15 2 16 1 17
REMARK H PARENT
REMARK Flexibility Score: inf
ROOT
ATOM      1  C   UNL     1      55.323  17.721   1.208  1.00  0.00     0.000 C 
ENDROOT
BRANCH   1   2
ATOM      2  C   UNL     1      56.744  17.144   1.099  1.00  0.00     0.000 C 
BRANCH   2   3
ATOM      3  C   UNL     1      56.901  16.172  -0.081  1.00  0.00     0.000 C 
BRANCH   3   4
ATOM      4  C   UNL     1      58.312  15.567  -0.107  1.00  0.00     0.000 C 
BRANCH   4   5
ATOM      5  C   UNL     1      58.423  14.284   0.733  1.00  0.00     0.006 C 
BRANCH   5   6
ATOM      6  C   UNL     1      57.714  13.089   0.084  1.00  0.00     0.053 C 
BRANCH   6   7
ATOM      7  C   UNL     1      58.623  11.901   0.047  1.00  0.00     0.041 C 
ATOM      8  O   UNL     1      58.182  10.778  -0.312  1.00  0.00    -0.550 OA
ATOM      9  O   UNL     1      59.968  12.044   0.359  1.00  0.00    -0.550 OA
ENDBRANCH   6   7
ENDBRANCH   5   6
ENDBRANCH   4   5
ENDBRANCH   3   4
ENDBRANCH   2   3
ENDBRANCH   1   2
BRANCH   1  10
ATOM     10  C   UNL     1      54.499  17.049   2.321  1.00  0.00     0.000 C 
BRANCH  10  11
ATOM     11  C   UNL     1      53.038  16.804   1.908  1.00  0.00    -0.000 C 
BRANCH  11  12
ATOM     12  C   UNL     1      52.743  15.325   1.615  1.00  0.00    -0.000 C 
BRANCH  12  13
ATOM     13  C   UNL     1      54.043  14.528   1.445  1.00  0.00    -0.000 C 
BRANCH  13  14
ATOM     14  C   UNL     1      54.108  13.870   0.058  1.00  0.00    -0.000 C 
BRANCH  14  15
ATOM     15  C   UNL     1      53.076  14.464  -0.921  1.00  0.00    -0.000 C 
BRANCH  15  16
ATOM     16  C   UNL     1      53.635  15.603  -1.790  1.00  0.00    -0.003 C 
ATOM     17  C   UNL     1      52.723  16.827  -1.831  1.00  0.00     0.004 C 
ENDBRANCH  15  16
ENDBRANCH  14  15
ENDBRANCH  13  14
ENDBRANCH  12  13
ENDBRANCH  11  12
ENDBRANCH  10  11
ENDBRANCH   1  10
TORSDOF 13
ENDMDL
MODEL 5
REMARK VINA RESULT:    -5.142      2.239      4.330
REMARK INTER + INTRA:         -11.054
REMARK INTER:                  -9.181
REMARK INTRA:                  -1.873
REMARK UNBOUND:                -2.003
REMARK SMILES CCCCCCCCCCCCCCC(=O)[O-]
REMARK SMILES IDX 9 1 10 2 11 3 12 4 13 5 14 6 15 7 16 8 17 9 8 10 7 11 6 12
REMARK SMILES IDX 5 13 4 14 3 15 2 16 1 17
REMARK H PARENT
REMARK Flexibility Score: inf
ROOT
ATOM      1  C   UNL     1      56.495  17.099   1.137  1.00  0.00     0.000 C 
ENDROOT
BRANCH   1   2
ATOM      2  C   UNL     1      55.206  17.866   1.477  1.00  0.00     0.000 C 
BRANCH   2   3
ATOM      3  C   UNL     1      54.415  17.217   2.623  1.00  0.00     0.000 C 
BRANCH   3   4
ATOM      4  C   UNL     1      53.052  16.711   2.129  1.00  0.00     0.000 C 
BRANCH   4   5
ATOM      5  C   UNL     1      52.039  17.847   1.918  1.00  0.00     0.006 C 
BRANCH   5   6
ATOM      6  C   UNL     1      51.301  18.229   3.207  1.00  0.00     0.053 C 
BRANCH   6   7
ATOM      7  C   UNL     1      49.965  18.822   2.887  1.00  0.00     0.041 C 
ATOM      8  O   UNL     1      48.971  18.073   2.697  1.00  0.00    -0.550 OA
ATOM      9  O   UNL     1      49.806  20.200   2.848  1.00  0.00    -0.550 OA
ENDBRANCH   6   7
ENDBRANCH   5   6
ENDBRANCH   4   5
ENDBRANCH   3   4
ENDBRANCH   2   3
ENDBRANCH   1   2
BRANCH   1  10
ATOM     10  C   UNL     1      56.311  16.138  -0.052  1.00  0.00     0.000 C 
BRANCH  10  11
ATOM     11  C   UNL     1      56.450  14.662   0.355  1.00  0.00    -0.000 C 
BRANCH  11  12
ATOM     12  C   UNL     1      55.107  14.023   0.742  1.00  0.00    -0.000 C 
BRANCH  12  13
ATOM     13  C   UNL     1      54.345  13.549  -0.502  1.00  0.00    -0.000 C 
BRANCH  13  14
ATOM     14  C   UNL     1      53.103  14.419  -0.751  1.00  0.00    -0.000 C 
BRANCH  14  15
ATOM     15  C   UNL     1      53.346  15.491  -1.833  1.00  0.00    -0.000 C 
BRANCH  15  16
ATOM     16  C   UNL     1      52.473  16.745  -1.665  1.00  0.00    -0.003 C 
ATOM     17  C   UNL     1      53.288  18.014  -1.420  1.00  0.00     0.004 C 
ENDBRANCH  15  16
ENDBRANCH  14  15
ENDBRANCH  13  14
ENDBRANCH  12  13
ENDBRANCH  11  12
ENDBRANCH  10  11
ENDBRANCH   1  10
TORSDOF 13
ENDMDL
MODEL 6
REMARK VINA RESULT:    -5.081      4.051      6.145
REMARK INTER + INTRA:         -10.947
REMARK INTER:                  -8.704
REMARK INTRA:                  -2.242
REMARK UNBOUND:                -2.003
REMARK SMILES CCCCCCCCCCCCCCC(=O)[O-]
REMARK SMILES IDX 9 1 10 2 11 3 12 4 13 5 14 6 15 7 16 8 17 9 8 10 7 11 6 12
REMARK SMILES IDX 5 13 4 14 3 15 2 16 1 17
REMARK H PARENT
REMARK Flexibility Score: inf
ROOT
ATOM      1  C   UNL     1      53.230  16.990  -1.563  1.00  0.00     0.000 C 
ENDROOT
BRANCH   1   2
ATOM      2  C   UNL     1      53.690  15.539  -1.776  1.00  0.00     0.000 C 
BRANCH   2   3
ATOM      3  C   UNL     1      52.880  14.532  -0.944  1.00  0.00     0.000 C 
BRANCH   3   4
ATOM      4  C   UNL     1      53.753  13.897   0.148  1.00  0.00     0.000 C 
BRANCH   4   5
ATOM      5  C   UNL     1      55.130  13.456  -0.375  1.00  0.00     0.006 C 
BRANCH   5   6
ATOM      6  C   UNL     1      56.169  13.308   0.744  1.00  0.00     0.053 C 
BRANCH   6   7
ATOM      7  C   UNL     1      57.552  13.449   0.192  1.00  0.00     0.041 C 
ATOM      8  O   UNL     1      58.207  12.426  -0.142  1.00  0.00    -0.550 OA
ATOM      9  O   UNL     1      58.100  14.710  -0.000  1.00  0.00    -0.550 OA
ENDBRANCH   6   7
ENDBRANCH   5   6
ENDBRANCH   4   5
ENDBRANCH   3   4
ENDBRANCH   2   3
ENDBRANCH   1   2
BRANCH   1  10
ATOM     10  C   UNL     1      54.379  17.913  -1.119  1.00  0.00     0.000 C 
BRANCH  10  11
ATOM     11  C   UNL     1      55.543  17.140  -0.478  1.00  0.00    -0.000 C 
BRANCH  11  12
ATOM     12  C   UNL     1      55.797  17.551   0.981  1.00  0.00    -0.000 C 
BRANCH  12  13
ATOM     13  C   UNL     1      54.970  16.691   1.946  1.00  0.00    -0.000 C 
BRANCH  13  14
ATOM     14  C   UNL     1      53.807  17.497   2.544  1.00  0.00    -0.000 C 
BRANCH  14  15
ATOM     15  C   UNL     1      52.437  17.036   2.006  1.00  0.00    -0.000 C 
BRANCH  15  16
ATOM     16  C   UNL     1      51.348  18.120   2.084  1.00  0.00    -0.003 C 
ATOM     17  C   UNL     1      50.742  18.458   0.723  1.00  0.00     0.004 C 
ENDBRANCH  15  16
ENDBRANCH  14  15
ENDBRANCH  13  14
ENDBRANCH  12  13
ENDBRANCH  11  12
ENDBRANCH  10  11
ENDBRANCH   1  10
TORSDOF 13
ENDMDL
MODEL 7
REMARK VINA RESULT:    -5.068      1.941      3.096
REMARK INTER + INTRA:         -10.923
REMARK INTER:                  -8.827
REMARK INTRA:                  -2.096
REMARK UNBOUND:                -2.003
REMARK SMILES CCCCCCCCCCCCCCC(=O)[O-]
REMARK SMILES IDX 9 1 10 2 11 3 12 4 13 5 14 6 15 7 16 8 17 9 8 10 7 11 6 12
REMARK SMILES IDX 5 13 4 14 3 15 2 16 1 17
REMARK H PARENT
REMARK Flexibility Score: inf
ROOT
ATOM      1  C   UNL     1      53.910  16.164  -1.566  1.00  0.00     0.000 C 
ENDROOT
BRANCH   1   2
ATOM      2  C   UNL     1      52.519  16.727  -1.899  1.00  0.00     0.000 C 
BRANCH   2   3
ATOM      3  C   UNL     1      52.246  18.076  -1.216  1.00  0.00     0.000 C 
BRANCH   3   4
ATOM      4  C   UNL     1      50.867  18.077  -0.541  1.00  0.00     0.000 C 
BRANCH   4   5
ATOM      5  C   UNL     1      50.492  19.450   0.040  1.00  0.00     0.006 C 
BRANCH   5   6
ATOM      6  C   UNL     1      50.068  19.375   1.512  1.00  0.00     0.053 C 
BRANCH   6   7
ATOM      7  C   UNL     1      48.583  19.516   1.634  1.00  0.00     0.041 C 
ATOM      8  O   UNL     1      47.950  18.831   2.479  1.00  0.00    -0.550 OA
ATOM      9  O   UNL     1      47.905  20.440   0.850  1.00  0.00    -0.550 OA
ENDBRANCH   6   7
ENDBRANCH   5   6
ENDBRANCH   4   5
ENDBRANCH   3   4
ENDBRANCH   2   3
ENDBRANCH   1   2
BRANCH   1  10
ATOM     10  C   UNL     1      54.872  17.245  -1.041  1.00  0.00     0.000 C 
BRANCH  10  11
ATOM     11  C   UNL     1      56.137  16.650  -0.399  1.00  0.00    -0.000 C 
BRANCH  11  12
ATOM     12  C   UNL     1      56.382  17.171   1.025  1.00  0.00    -0.000 C 
BRANCH  12  13
ATOM     13  C   UNL     1      55.163  17.943   1.546  1.00  0.00    -0.000 C 
BRANCH  13  14
ATOM     14  C   UNL     1      54.404  17.126   2.603  1.00  0.00    -0.000 C 
BRANCH  14  15
ATOM     15  C   UNL     1      52.910  16.965   2.257  1.00  0.00    -0.000 C 
BRANCH  15  16
ATOM     16  C   UNL     1      52.548  15.569   1.723  1.00  0.00    -0.003 C 
ATOM     17  C   UNL     1      53.733  14.606   1.713  1.00  0.00     0.004 C 
ENDBRANCH  15  16
ENDBRANCH  14  15
ENDBRANCH  13  14
ENDBRANCH  12  13
ENDBRANCH  11  12
ENDBRANCH  10  11
ENDBRANCH   1  10
TORSDOF 13
ENDMDL
MODEL 8
REMARK VINA RESULT:    -5.061      2.014      4.266
REMARK INTER + INTRA:         -10.911
REMARK INTER:                  -9.265
REMARK INTRA:                  -1.646
REMARK UNBOUND:                -2.003
REMARK SMILES CCCCCCCCCCCCCCC(=O)[O-]
REMARK SMILES IDX 9 1 10 2 11 3 12 4 13 5 14 6 15 7 16 8 17 9 8 10 7 11 6 12
REMARK SMILES IDX 5 13 4 14 3 15 2 16 1 17
REMARK H PARENT
REMARK Flexibility Score: inf
ROOT
ATOM      1  C   UNL     1      57.368  14.979   0.364  1.00  0.00     0.000 C 
ENDROOT
BRANCH   1   2
ATOM      2  C   UNL     1      56.506  13.713   0.216  1.00  0.00     0.000 C 
BRANCH   2   3
ATOM      3  C   UNL     1      55.046  13.938   0.637  1.00  0.00     0.000 C 
BRANCH   3   4
ATOM      4  C   UNL     1      54.093  13.688  -0.541  1.00  0.00     0.000 C 
BRANCH   4   5
ATOM      5  C   UNL     1      53.070  14.820  -0.728  1.00  0.00     0.006 C 
BRANCH   5   6
ATOM      6  C   UNL     1      53.383  15.705  -1.941  1.00  0.00     0.053 C 
BRANCH   6   7
ATOM      7  C   UNL     1      52.886  17.098  -1.711  1.00  0.00     0.041 C 
ATOM      8  O   UNL     1      53.632  17.954  -1.166  1.00  0.00    -0.550 OA
ATOM      9  O   UNL     1      51.619  17.466  -2.143  1.00  0.00    -0.550 OA
ENDBRANCH   6   7
ENDBRANCH   5   6
ENDBRANCH   4   5
ENDBRANCH   3   4
ENDBRANCH   2   3
ENDBRANCH   1   2
BRANCH   1  10
ATOM     10  C   UNL     1      56.595  16.262   0.010  1.00  0.00     0.000 C 
BRANCH  10  11
ATOM     11  C   UNL     1      56.680  17.327   1.116  1.00  0.00    -0.000 C 
BRANCH  11  12
ATOM     12  C   UNL     1      55.310  17.924   1.473  1.00  0.00    -0.000 C 
BRANCH  12  13
ATOM     13  C   UNL     1      54.628  17.112   2.582  1.00  0.00    -0.000 C 
BRANCH  13  14
ATOM     14  C   UNL     1      53.195  16.729   2.183  1.00  0.00    -0.000 C 
BRANCH  14  15
ATOM     15  C   UNL     1      52.188  17.865   2.453  1.00  0.00    -0.000 C 
BRANCH  15  16
ATOM     16  C   UNL     1      51.004  17.885   1.472  1.00  0.00    -0.003 C 
ATOM     17  C   UNL     1      49.646  17.888   2.172  1.00  0.00     0.004 C 
ENDBRANCH  15  16
ENDBRANCH  14  15
ENDBRANCH  13  14
ENDBRANCH  12  13
ENDBRANCH  11  12
ENDBRANCH  10  11
ENDBRANCH   1  10
TORSDOF 13
ENDMDL
MODEL 9
REMARK VINA RESULT:    -5.043      2.236      3.304
REMARK INTER + INTRA:         -10.879
REMARK INTER:                  -9.233
REMARK INTRA:                  -1.645
REMARK UNBOUND:                -2.003
REMARK SMILES CCCCCCCCCCCCCCC(=O)[O-]
REMARK SMILES IDX 9 1 10 2 11 3 12 4 13 5 14 6 15 7 16 8 17 9 8 10 7 11 6 12
REMARK SMILES IDX 5 13 4 14 3 15 2 16 1 17
REMARK H PARENT
REMARK Flexibility Score: inf
ROOT
ATOM      1  C   UNL     1      53.088  17.142  -1.373  1.00  0.00     0.000 C 
ENDROOT
BRANCH   1   2
ATOM      2  C   UNL     1      51.743  17.665  -1.902  1.00  0.00     0.000 C 
BRANCH   2   3
ATOM      3  C   UNL     1      51.215  18.862  -1.097  1.00  0.00     0.000 C 
BRANCH   3   4
ATOM      4  C   UNL     1      49.840  18.549  -0.489  1.00  0.00     0.000 C 
BRANCH   4   5
ATOM      5  C   UNL     1      49.910  18.264   1.020  1.00  0.00     0.006 C 
BRANCH   5   6
ATOM      6  C   UNL     1      50.571  19.402   1.807  1.00  0.00     0.053 C 
BRANCH   6   7
ATOM      7  C   UNL     1      49.556  20.117   2.642  1.00  0.00     0.041 C 
ATOM      8  O   UNL     1      48.327  19.955   2.421  1.00  0.00    -0.550 OA
ATOM      9  O   UNL     1      49.965  20.923   3.696  1.00  0.00    -0.550 OA
ENDBRANCH   6   7
ENDBRANCH   5   6
ENDBRANCH   4   5
ENDBRANCH   3   4
ENDBRANCH   2   3
ENDBRANCH   1   2
BRANCH   1  10
ATOM     10  C   UNL     1      53.402  15.718  -1.867  1.00  0.00     0.000 C 
BRANCH  10  11
ATOM     11  C   UNL     1      53.007  14.638  -0.846  1.00  0.00    -0.000 C 
BRANCH  11  12
ATOM     12  C   UNL     1      54.202  14.138  -0.018  1.00  0.00    -0.000 C 
BRANCH  12  13
ATOM     13  C   UNL     1      54.042  14.513   1.461  1.00  0.00    -0.000 C 
BRANCH  13  14
ATOM     14  C   UNL     1      52.773  15.349   1.683  1.00  0.00    -0.000 C 
BRANCH  14  15
ATOM     15  C   UNL     1      53.087  16.760   2.220  1.00  0.00    -0.000 C 
BRANCH  15  16
ATOM     16  C   UNL     1      54.582  16.997   2.491  1.00  0.00    -0.003 C 
ATOM     17  C   UNL     1      55.240  17.911   1.458  1.00  0.00     0.004 C 
ENDBRANCH  15  16
ENDBRANCH  14  15
ENDBRANCH  13  14
ENDBRANCH  12  13
ENDBRANCH  11  12
ENDBRANCH  10  11
ENDBRANCH   1  10
TORSDOF 13
ENDMDL
