MODEL 1
REMARK VINA RESULT:    -4.368      0.000      0.000
REMARK INTER + INTRA:          -6.939
REMARK INTER:                  -6.666
REMARK INTRA:                  -0.274
REMARK UNBOUND:                -0.274
REMARK SMILES CC1=CCC[C@H](C)C(=O)C[C@H](C(C)C)C(=O)C1
REMARK SMILES IDX 8 1 9 2 6 3 7 4 5 5 4 6 3 7 2 8 1 9 10 11 11 12 15 13 16 14
REMARK SMILES IDX 17 15 12 17 13 18 14 19
REMARK H PARENT
REMARK Flexibility Score: 70.00
ROOT
ATOM      1  C   UNL     1       5.750  21.487   5.194  1.00  0.00     0.136 C 
ATOM      2  O   UNL     1       5.854  21.180   4.015  1.00  0.00    -0.299 OA
ENDROOT
BRANCH   1   3
ATOM      3  C   UNL     1       6.799  21.024   6.184  1.00  0.00     0.053 C 
ATOM      4  C   UNL     1       6.503  21.630   7.560  1.00  0.00     0.016 C 
BRANCH   3   5
ATOM      5  C   UNL     1       6.864  19.480   6.287  1.00  0.00     0.015 C 
BRANCH   5   6
ATOM      6  C   UNL     1       5.966  18.887   7.384  1.00  0.00     0.028 C 
BRANCH   6   7
ATOM      7  C   UNL     1       4.727  18.250   6.802  1.00  0.00    -0.028 C 
ATOM      8  C   UNL     1       3.469  18.729   6.941  1.00  0.00    -0.070 CG0
ATOM      9  C   UNL     1       2.342  17.954   6.307  1.00  0.00     0.039 C 
ATOM     10  G   UNL     1       3.151  20.001   7.707  1.00  0.00     0.000 G0
ENDBRANCH   6   7
ENDBRANCH   5   6
ENDBRANCH   3   5
ENDBRANCH   1   3
BRANCH   1  11
ATOM     11  C   UNL     1       4.543  22.280   5.641  1.00  0.00     0.087 C 
BRANCH  11  12
ATOM     12  C   UNL     1       3.209  21.505   5.497  1.00  0.00     0.066 C 
BRANCH  12  13
ATOM     13  C   UNL     1       2.618  21.148   6.857  1.00  0.00     0.140 C 
ATOM     14  O   UNL     1       1.657  21.780   7.271  1.00  0.00    -0.299 OA
BRANCH  13  15
ATOM     15  C   UNL     1       3.137  20.008   7.710  1.00  0.00     0.106 CG0
ATOM     16  G   UNL     1       3.473  18.748   6.931  1.00  0.00     0.000 G0
ENDBRANCH  13  15
ENDBRANCH  12  13
BRANCH  12  17
ATOM     17  C   UNL     1       2.198  22.269   4.585  1.00  0.00    -0.006 C 
ATOM     18  C   UNL     1       1.260  21.355   3.777  1.00  0.00     0.008 C 
ATOM     19  C   UNL     1       2.920  23.240   3.640  1.00  0.00     0.008 C 
ENDBRANCH  12  17
ENDBRANCH  11  12
ENDBRANCH   1  11
TORSDOF 1
ENDMDL
MODEL 2
REMARK VINA RESULT:    -4.302      2.409      3.236
REMARK INTER + INTRA:          -6.840
REMARK INTER:                  -6.786
REMARK INTRA:                  -0.054
REMARK UNBOUND:                -0.274
REMARK SMILES CC1=CCC[C@H](C)C(=O)C[C@H](C(C)C)C(=O)C1
REMARK SMILES IDX 8 1 9 2 6 3 7 4 5 5 4 6 3 7 2 8 1 9 10 11 11 12 15 13 16 14
REMARK SMILES IDX 17 15 12 17 13 18 14 19
REMARK H PARENT
REMARK Flexibility Score: 70.00
ROOT
ATOM      1  C   UNL     1       6.066  20.015   4.098  1.00  0.00     0.136 C 
ATOM      2  O   UNL     1       6.543  19.090   3.456  1.00  0.00    -0.299 OA
ENDROOT
BRANCH   1   3
ATOM      3  C   UNL     1       5.947  19.897   5.604  1.00  0.00     0.053 C 
ATOM      4  C   UNL     1       6.553  18.565   6.060  1.00  0.00     0.016 C 
BRANCH   3   5
ATOM      5  C   UNL     1       6.635  21.073   6.339  1.00  0.00     0.015 C 
BRANCH   5   6
ATOM      6  C   UNL     1       5.659  22.028   7.044  1.00  0.00     0.028 C 
BRANCH   6   7
ATOM      7  C   UNL     1       4.255  21.470   7.065  1.00  0.00    -0.028 C 
ATOM      8  C   UNL     1       3.297  21.747   6.151  1.00  0.00    -0.070 CG0
ATOM      9  C   UNL     1       1.940  21.115   6.334  1.00  0.00     0.039 C 
ATOM     10  G   UNL     1       3.529  22.663   4.962  1.00  0.00     0.000 G0
ENDBRANCH   6   7
ENDBRANCH   5   6
ENDBRANCH   3   5
ENDBRANCH   1   3
BRANCH   1  11
ATOM     11  C   UNL     1       5.560  21.234   3.363  1.00  0.00     0.087 C 
BRANCH  11  12
ATOM     12  C   UNL     1       4.099  21.091   2.866  1.00  0.00     0.066 C 
BRANCH  12  13
ATOM     13  C   UNL     1       3.158  22.032   3.612  1.00  0.00     0.140 C 
ATOM     14  O   UNL     1       2.054  22.265   3.140  1.00  0.00    -0.299 OA
BRANCH  13  15
ATOM     15  C   UNL     1       3.506  22.663   4.945  1.00  0.00     0.106 CG0
ATOM     16  G   UNL     1       3.292  21.753   6.142  1.00  0.00     0.000 G0
ENDBRANCH  13  15
ENDBRANCH  12  13
BRANCH  12  17
ATOM     17  C   UNL     1       4.002  21.250   1.316  1.00  0.00    -0.006 C 
ATOM     18  C   UNL     1       4.641  20.097   0.521  1.00  0.00     0.008 C 
ATOM     19  C   UNL     1       4.592  22.590   0.853  1.00  0.00     0.008 C 
ENDBRANCH  12  17
ENDBRANCH  11  12
ENDBRANCH   1  11
TORSDOF 1
ENDMDL
MODEL 3
REMARK VINA RESULT:    -4.023      2.678      3.860
REMARK INTER + INTRA:          -6.414
REMARK INTER:                  -6.125
REMARK INTRA:                  -0.289
REMARK UNBOUND:                -0.274
REMARK SMILES CC1=CCC[C@H](C)C(=O)C[C@H](C(C)C)C(=O)C1
REMARK SMILES IDX 8 1 9 2 6 3 7 4 5 5 4 6 3 7 2 8 1 9 10 11 11 12 15 13 16 14
REMARK SMILES IDX 17 15 12 17 13 18 14 19
REMARK H PARENT
REMARK Flexibility Score: 70.00
ROOT
ATOM      1  C   UNL     1       4.401  20.833   6.690  1.00  0.00     0.136 C 
ATOM      2  O   UNL     1       4.440  19.715   7.186  1.00  0.00    -0.299 OA
ENDROOT
BRANCH   1   3
ATOM      3  C   UNL     1       5.684  21.620   6.517  1.00  0.00     0.053 C 
ATOM      4  C   UNL     1       6.490  21.572   7.819  1.00  0.00     0.016 C 
BRANCH   3   5
ATOM      5  C   UNL     1       6.541  21.090   5.342  1.00  0.00     0.015 C 
BRANCH   5   6
ATOM      6  C   UNL     1       5.766  20.212   4.347  1.00  0.00     0.028 C 
BRANCH   6   7
ATOM      7  C   UNL     1       5.614  20.894   3.007  1.00  0.00    -0.028 C 
ATOM      8  C   UNL     1       4.454  21.389   2.516  1.00  0.00    -0.070 CG0
ATOM      9  C   UNL     1       4.479  22.025   1.148  1.00  0.00     0.039 C 
ATOM     10  G   UNL     1       3.141  21.325   3.276  1.00  0.00     0.000 G0
ENDBRANCH   6   7
ENDBRANCH   5   6
ENDBRANCH   3   5
ENDBRANCH   1   3
BRANCH   1  11
ATOM     11  C   UNL     1       3.062  21.420   6.310  1.00  0.00     0.087 C 
BRANCH  11  12
ATOM     12  C   UNL     1       3.173  22.753   5.529  1.00  0.00     0.066 C 
BRANCH  12  13
ATOM     13  C   UNL     1       2.791  22.578   4.062  1.00  0.00     0.140 C 
ATOM     14  O   UNL     1       2.224  23.494   3.483  1.00  0.00    -0.299 OA
BRANCH  13  15
ATOM     15  C   UNL     1       3.122  21.333   3.265  1.00  0.00     0.106 CG0
ATOM     16  G   UNL     1       4.442  21.402   2.518  1.00  0.00     0.000 G0
ENDBRANCH  13  15
ENDBRANCH  12  13
BRANCH  12  17
ATOM     17  C   UNL     1       2.368  23.895   6.226  1.00  0.00    -0.006 C 
ATOM     18  C   UNL     1       3.224  25.099   6.659  1.00  0.00     0.008 C 
ATOM     19  C   UNL     1       1.572  23.365   7.427  1.00  0.00     0.008 C 
ENDBRANCH  12  17
ENDBRANCH  11  12
ENDBRANCH   1  11
TORSDOF 1
ENDMDL
MODEL 4
REMARK VINA RESULT:    -3.984      2.118      5.101
REMARK INTER + INTRA:          -6.354
REMARK INTER:                  -6.053
REMARK INTRA:                  -0.301
REMARK UNBOUND:                -0.274
REMARK SMILES CC1=CCC[C@H](C)C(=O)C[C@H](C(C)C)C(=O)C1
REMARK SMILES IDX 8 1 9 2 6 3 7 4 5 5 4 6 3 7 2 8 1 9 10 11 11 12 15 13 16 14
REMARK SMILES IDX 17 15 12 17 13 18 14 19
REMARK H PARENT
REMARK Flexibility Score: 70.00
ROOT
ATOM      1  C   UNL     1       2.585  20.628   6.601  1.00  0.00     0.136 C 
ATOM      2  O   UNL     1       1.794  21.111   7.400  1.00  0.00    -0.299 OA
ENDROOT
BRANCH   1   3
ATOM      3  C   UNL     1       2.190  19.403   5.803  1.00  0.00     0.053 C 
ATOM      4  C   UNL     1       1.683  18.316   6.756  1.00  0.00     0.016 C 
BRANCH   3   5
ATOM      5  C   UNL     1       1.111  19.722   4.739  1.00  0.00     0.015 C 
BRANCH   5   6
ATOM      6  C   UNL     1       1.308  21.073   4.033  1.00  0.00     0.028 C 
BRANCH   6   7
ATOM      7  C   UNL     1       2.057  20.913   2.730  1.00  0.00    -0.028 C 
ATOM      8  C   UNL     1       3.339  21.288   2.522  1.00  0.00    -0.070 CG0
ATOM      9  C   UNL     1       3.927  21.071   1.150  1.00  0.00     0.039 C 
ATOM     10  G   UNL     1       4.201  21.918   3.602  1.00  0.00     0.000 G0
ENDBRANCH   6   7
ENDBRANCH   5   6
ENDBRANCH   3   5
ENDBRANCH   1   3
BRANCH   1  11
ATOM     11  C   UNL     1       3.961  21.241   6.472  1.00  0.00     0.087 C 
BRANCH  11  12
ATOM     12  C   UNL     1       4.949  20.368   5.658  1.00  0.00     0.066 C 
BRANCH  12  13
ATOM     13  C   UNL     1       5.180  20.936   4.261  1.00  0.00     0.140 C 
ATOM     14  O   UNL     1       6.157  20.568   3.624  1.00  0.00    -0.299 OA
BRANCH  13  15
ATOM     15  C   UNL     1       4.227  21.909   3.597  1.00  0.00     0.106 CG0
ATOM     16  G   UNL     1       3.342  21.287   2.532  1.00  0.00     0.000 G0
ENDBRANCH  13  15
ENDBRANCH  12  13
BRANCH  12  17
ATOM     17  C   UNL     1       6.281  20.132   6.437  1.00  0.00    -0.006 C 
ATOM     18  C   UNL     1       6.500  18.676   6.888  1.00  0.00     0.008 C 
ATOM     19  C   UNL     1       6.398  21.073   7.645  1.00  0.00     0.008 C 
ENDBRANCH  12  17
ENDBRANCH  11  12
ENDBRANCH   1  11
TORSDOF 1
ENDMDL
MODEL 5
REMARK VINA RESULT:    -3.831      2.330      5.093
REMARK INTER + INTRA:          -6.121
REMARK INTER:                  -5.949
REMARK INTRA:                  -0.172
REMARK UNBOUND:                -0.274
REMARK SMILES CC1=CCC[C@H](C)C(=O)C[C@H](C(C)C)C(=O)C1
REMARK SMILES IDX 8 1 9 2 6 3 7 4 5 5 4 6 3 7 2 8 1 9 10 11 11 12 15 13 16 14
REMARK SMILES IDX 17 15 12 17 13 18 14 19
REMARK H PARENT
REMARK Flexibility Score: 70.00
ROOT
ATOM      1  C   UNL     1       3.245  21.471   6.847  1.00  0.00     0.136 C 
ATOM      2  O   UNL     1       3.392  20.945   7.941  1.00  0.00    -0.299 OA
ENDROOT
BRANCH   1   3
ATOM      3  C   UNL     1       1.848  21.711   6.312  1.00  0.00     0.053 C 
ATOM      4  C   UNL     1       1.607  23.219   6.177  1.00  0.00     0.016 C 
BRANCH   3   5
ATOM      5  C   UNL     1       1.615  21.012   4.951  1.00  0.00     0.015 C 
BRANCH   5   6
ATOM      6  C   UNL     1       1.895  21.905   3.732  1.00  0.00     0.028 C 
BRANCH   6   7
ATOM      7  C   UNL     1       2.451  21.106   2.576  1.00  0.00    -0.028 C 
ATOM      8  C   UNL     1       3.765  20.990   2.275  1.00  0.00    -0.070 CG0
ATOM      9  C   UNL     1       4.145  20.165   1.071  1.00  0.00     0.039 C 
ATOM     10  G   UNL     1       4.861  21.653   3.090  1.00  0.00     0.000 G0
ENDBRANCH   6   7
ENDBRANCH   5   6
ENDBRANCH   3   5
ENDBRANCH   1   3
BRANCH   1  11
ATOM     11  C   UNL     1       4.469  21.821   6.032  1.00  0.00     0.087 C 
BRANCH  11  12
ATOM     12  C   UNL     1       5.241  20.581   5.515  1.00  0.00     0.066 C 
BRANCH  12  13
ATOM     13  C   UNL     1       5.603  20.721   4.040  1.00  0.00     0.140 C 
ATOM     14  O   UNL     1       6.499  20.027   3.581  1.00  0.00    -0.299 OA
BRANCH  13  15
ATOM     15  C   UNL     1       4.871  21.650   3.094  1.00  0.00     0.106 CG0
ATOM     16  G   UNL     1       3.780  20.979   2.278  1.00  0.00     0.000 G0
ENDBRANCH  13  15
ENDBRANCH  12  13
BRANCH  12  17
ATOM     17  C   UNL     1       6.479  20.263   6.410  1.00  0.00    -0.006 C 
ATOM     18  C   UNL     1       6.326  18.999   7.275  1.00  0.00     0.008 C 
ATOM     19  C   UNL     1       6.850  21.459   7.299  1.00  0.00     0.008 C 
ENDBRANCH  12  17
ENDBRANCH  11  12
ENDBRANCH   1  11
TORSDOF 1
ENDMDL
MODEL 6
REMARK VINA RESULT:    -3.791      2.086      3.132
REMARK INTER + INTRA:          -6.059
REMARK INTER:                  -5.739
REMARK INTRA:                  -0.320
REMARK UNBOUND:                -0.274
REMARK SMILES CC1=CCC[C@H](C)C(=O)C[C@H](C(C)C)C(=O)C1
REMARK SMILES IDX 8 1 9 2 6 3 7 4 5 5 4 6 3 7 2 8 1 9 10 11 11 12 15 13 16 14
REMARK SMILES IDX 17 15 12 17 13 18 14 19
REMARK H PARENT
REMARK Flexibility Score: 70.00
ROOT
ATOM      1  C   UNL     1       5.940  20.593   5.358  1.00  0.00     0.136 C 
ATOM      2  O   UNL     1       6.545  21.386   6.066  1.00  0.00    -0.299 OA
ENDROOT
BRANCH   1   3
ATOM      3  C   UNL     1       5.561  19.234   5.910  1.00  0.00     0.053 C 
ATOM      4  C   UNL     1       6.817  18.365   6.030  1.00  0.00     0.016 C 
BRANCH   3   5
ATOM      5  C   UNL     1       4.853  19.338   7.283  1.00  0.00     0.015 C 
BRANCH   5   6
ATOM      6  C   UNL     1       3.330  19.517   7.190  1.00  0.00     0.028 C 
BRANCH   6   7
ATOM      7  C   UNL     1       2.912  20.917   7.576  1.00  0.00    -0.028 C 
ATOM      8  C   UNL     1       2.392  21.833   6.727  1.00  0.00    -0.070 CG0
ATOM      9  C   UNL     1       2.045  23.193   7.279  1.00  0.00     0.039 C 
ATOM     10  G   UNL     1       2.151  21.551   5.255  1.00  0.00     0.000 G0
ENDBRANCH   6   7
ENDBRANCH   5   6
ENDBRANCH   3   5
ENDBRANCH   1   3
BRANCH   1  11
ATOM     11  C   UNL     1       5.633  20.974   3.928  1.00  0.00     0.087 C 
BRANCH  11  12
ATOM     12  C   UNL     1       4.127  20.882   3.576  1.00  0.00     0.066 C 
BRANCH  12  13
ATOM     13  C   UNL     1       3.308  21.921   4.337  1.00  0.00     0.140 C 
ATOM     14  O   UNL     1       3.568  23.107   4.186  1.00  0.00    -0.299 OA
BRANCH  13  15
ATOM     15  C   UNL     1       2.149  21.559   5.242  1.00  0.00     0.106 CG0
ATOM     16  G   UNL     1       2.401  21.823   6.716  1.00  0.00     0.000 G0
ENDBRANCH  13  15
ENDBRANCH  12  13
BRANCH  12  17
ATOM     17  C   UNL     1       3.893  20.945   2.034  1.00  0.00    -0.006 C 
ATOM     18  C   UNL     1       2.499  20.470   1.586  1.00  0.00     0.008 C 
ATOM     19  C   UNL     1       4.977  20.170   1.272  1.00  0.00     0.008 C 
ENDBRANCH  12  17
ENDBRANCH  11  12
ENDBRANCH   1  11
TORSDOF 1
ENDMDL
MODEL 7
REMARK VINA RESULT:    -3.702      2.229      4.058
REMARK INTER + INTRA:          -5.923
REMARK INTER:                  -5.532
REMARK INTRA:                  -0.392
REMARK UNBOUND:                -0.274
REMARK SMILES CC1=CCC[C@H](C)C(=O)C[C@H](C(C)C)C(=O)C1
REMARK SMILES IDX 8 1 9 2 6 3 7 4 5 5 4 6 3 7 2 8 1 9 10 11 11 12 15 13 16 14
REMARK SMILES IDX 17 15 12 17 13 18 14 19
REMARK H PARENT
REMARK Flexibility Score: 70.00
ROOT
ATOM      1  C   UNL     1       2.635  22.006   4.808  1.00  0.00     0.136 C 
ATOM      2  O   UNL     1       1.424  22.134   4.691  1.00  0.00    -0.299 OA
ENDROOT
BRANCH   1   3
ATOM      3  C   UNL     1       3.425  23.032   5.594  1.00  0.00     0.053 C 
ATOM      4  C   UNL     1       2.646  24.351   5.635  1.00  0.00     0.016 C 
BRANCH   3   5
ATOM      5  C   UNL     1       3.736  22.554   7.033  1.00  0.00     0.015 C 
BRANCH   5   6
ATOM      6  C   UNL     1       5.235  22.375   7.322  1.00  0.00     0.028 C 
BRANCH   6   7
ATOM      7  C   UNL     1       5.621  20.915   7.363  1.00  0.00    -0.028 C 
ATOM      8  C   UNL     1       6.241  20.248   6.363  1.00  0.00    -0.070 CG0
ATOM      9  C   UNL     1       6.538  18.783   6.565  1.00  0.00     0.039 C 
ATOM     10  G   UNL     1       6.642  20.908   5.055  1.00  0.00     0.000 G0
ENDBRANCH   6   7
ENDBRANCH   5   6
ENDBRANCH   3   5
ENDBRANCH   1   3
BRANCH   1  11
ATOM     11  C   UNL     1       3.319  20.849   4.117  1.00  0.00     0.087 C 
BRANCH  11  12
ATOM     12  C   UNL     1       4.597  21.262   3.343  1.00  0.00     0.066 C 
BRANCH  12  13
ATOM     13  C   UNL     1       5.821  20.493   3.831  1.00  0.00     0.140 C 
ATOM     14  O   UNL     1       6.192  19.510   3.206  1.00  0.00    -0.299 OA
BRANCH  13  15
ATOM     15  C   UNL     1       6.637  20.917   5.035  1.00  0.00     0.106 CG0
ATOM     16  G   UNL     1       6.230  20.244   6.334  1.00  0.00     0.000 G0
ENDBRANCH  13  15
ENDBRANCH  12  13
BRANCH  12  17
ATOM     17  C   UNL     1       4.393  21.149   1.799  1.00  0.00    -0.006 C 
ATOM     18  C   UNL     1       4.561  22.479   1.041  1.00  0.00     0.008 C 
ATOM     19  C   UNL     1       3.033  20.524   1.458  1.00  0.00     0.008 C 
ENDBRANCH  12  17
ENDBRANCH  11  12
ENDBRANCH   1  11
TORSDOF 1
ENDMDL
MODEL 8
REMARK VINA RESULT:    -3.633      1.914      2.716
REMARK INTER + INTRA:          -5.819
REMARK INTER:                  -5.937
REMARK INTRA:                   0.118
REMARK UNBOUND:                -0.274
REMARK SMILES CC1=CCC[C@H](C)C(=O)C[C@H](C(C)C)C(=O)C1
REMARK SMILES IDX 8 1 9 2 6 3 7 4 5 5 4 6 3 7 2 8 1 9 10 11 11 12 15 13 16 14
REMARK SMILES IDX 17 15 12 17 13 18 14 19
REMARK H PARENT
REMARK Flexibility Score: 70.00
ROOT
ATOM      1  C   UNL     1       5.721  20.401   3.984  1.00  0.00     0.136 C 
ATOM      2  O   UNL     1       6.522  19.891   3.214  1.00  0.00    -0.299 OA
ENDROOT
BRANCH   1   3
ATOM      3  C   UNL     1       5.774  20.055   5.458  1.00  0.00     0.053 C 
ATOM      4  C   UNL     1       6.022  18.552   5.619  1.00  0.00     0.016 C 
BRANCH   3   5
ATOM      5  C   UNL     1       6.866  20.857   6.208  1.00  0.00     0.015 C 
BRANCH   5   6
ATOM      6  C   UNL     1       6.341  21.655   7.412  1.00  0.00     0.028 C 
BRANCH   6   7
ATOM      7  C   UNL     1       4.924  21.263   7.761  1.00  0.00    -0.028 C 
ATOM      8  C   UNL     1       3.814  21.903   7.330  1.00  0.00    -0.070 CG0
ATOM      9  C   UNL     1       2.474  21.387   7.792  1.00  0.00     0.039 C 
ATOM     10  G   UNL     1       3.861  23.112   6.413  1.00  0.00     0.000 G0
ENDBRANCH   6   7
ENDBRANCH   5   6
ENDBRANCH   3   5
ENDBRANCH   1   3
BRANCH   1  11
ATOM     11  C   UNL     1       4.662  21.328   3.433  1.00  0.00     0.087 C 
BRANCH  11  12
ATOM     12  C   UNL     1       3.411  21.443   4.340  1.00  0.00     0.066 C 
BRANCH  12  13
ATOM     13  C   UNL     1       3.319  22.818   4.996  1.00  0.00     0.140 C 
ATOM     14  O   UNL     1       2.768  23.728   4.392  1.00  0.00    -0.299 OA
BRANCH  13  15
ATOM     15  C   UNL     1       3.839  23.105   6.389  1.00  0.00     0.106 CG0
ATOM     16  G   UNL     1       3.819  21.908   7.323  1.00  0.00     0.000 G0
ENDBRANCH  13  15
ENDBRANCH  12  13
BRANCH  12  17
ATOM     17  C   UNL     1       2.108  21.056   3.573  1.00  0.00    -0.006 C 
ATOM     18  C   UNL     1       1.373  19.834   4.152  1.00  0.00     0.008 C 
ATOM     19  C   UNL     1       2.383  20.836   2.078  1.00  0.00     0.008 C 
ENDBRANCH  12  17
ENDBRANCH  11  12
ENDBRANCH   1  11
TORSDOF 1
ENDMDL
MODEL 9
REMARK VINA RESULT:    -3.633      1.868      4.527
REMARK INTER + INTRA:          -5.818
REMARK INTER:                  -5.996
REMARK INTRA:                   0.178
REMARK UNBOUND:                -0.274
REMARK SMILES CC1=CCC[C@H](C)C(=O)C[C@H](C(C)C)C(=O)C1
REMARK SMILES IDX 8 1 9 2 6 3 7 4 5 5 4 6 3 7 2 8 1 9 10 11 11 12 15 13 16 14
REMARK SMILES IDX 17 15 12 17 13 18 14 19
REMARK H PARENT
REMARK Flexibility Score: 70.00
ROOT
ATOM      1  C   UNL     1       5.193  20.926   3.960  1.00  0.00     0.136 C 
ATOM      2  O   UNL     1       6.377  20.886   3.656  1.00  0.00    -0.299 OA
ENDROOT
BRANCH   1   3
ATOM      3  C   UNL     1       4.232  21.746   3.123  1.00  0.00     0.053 C 
ATOM      4  C   UNL     1       4.738  21.802   1.677  1.00  0.00     0.016 C 
BRANCH   3   5
ATOM      5  C   UNL     1       2.793  21.178   3.161  1.00  0.00     0.015 C 
BRANCH   5   6
ATOM      6  C   UNL     1       1.774  22.099   3.851  1.00  0.00     0.028 C 
BRANCH   6   7
ATOM      7  C   UNL     1       2.451  23.282   4.503  1.00  0.00    -0.028 C 
ATOM      8  C   UNL     1       2.654  23.424   5.833  1.00  0.00    -0.070 CG0
ATOM      9  C   UNL     1       3.331  24.682   6.316  1.00  0.00     0.039 C 
ATOM     10  G   UNL     1       2.226  22.380   6.850  1.00  0.00     0.000 G0
ENDBRANCH   6   7
ENDBRANCH   5   6
ENDBRANCH   3   5
ENDBRANCH   1   3
BRANCH   1  11
ATOM     11  C   UNL     1       4.729  20.194   5.198  1.00  0.00     0.087 C 
BRANCH  11  12
ATOM     12  C   UNL     1       4.532  21.121   6.424  1.00  0.00     0.066 C 
BRANCH  12  13
ATOM     13  C   UNL     1       3.077  21.147   6.880  1.00  0.00     0.140 C 
ATOM     14  O   UNL     1       2.573  20.123   7.318  1.00  0.00    -0.299 OA
BRANCH  13  15
ATOM     15  C   UNL     1       2.228  22.402   6.861  1.00  0.00     0.106 CG0
ATOM     16  G   UNL     1       2.648  23.425   5.821  1.00  0.00     0.000 G0
ENDBRANCH  13  15
ENDBRANCH  12  13
BRANCH  12  17
ATOM     17  C   UNL     1       5.517  20.758   7.580  1.00  0.00    -0.006 C 
ATOM     18  C   UNL     1       6.755  21.669   7.665  1.00  0.00     0.008 C 
ATOM     19  C   UNL     1       5.956  19.289   7.501  1.00  0.00     0.008 C 
ENDBRANCH  12  17
ENDBRANCH  11  12
ENDBRANCH   1  11
TORSDOF 1
ENDMDL
