MODEL 1
REMARK VINA RESULT:    -4.501      0.000      0.000
REMARK INTER + INTRA:          -4.785
REMARK INTER:                  -4.764
REMARK INTRA:                  -0.021
REMARK UNBOUND:                -0.021
REMARK SMILES O=C([O-])c1cccnc1
REMARK SMILES IDX 4 1 5 2 9 3 6 4 8 5 7 6 2 7 1 8 3 9
REMARK H PARENT
REMARK Flexibility Score: inf
ROOT
ATOM      1  C   UNL     1      21.532   6.355   6.504  1.00  0.00     0.016 A 
ATOM      2  C   UNL     1      21.657   4.997   6.839  1.00  0.00     0.013 A 
ATOM      3  C   UNL     1      22.430   6.897   5.567  1.00  0.00     0.120 A 
ATOM      4  C   UNL     1      22.653   4.217   6.249  1.00  0.00     0.021 A 
ATOM      5  N   UNL     1      23.391   6.115   5.005  1.00  0.00    -0.264 NA
ATOM      6  C   UNL     1      23.520   4.801   5.324  1.00  0.00     0.111 A 
ENDROOT
BRANCH   1   7
ATOM      7  C   UNL     1      20.481   7.191   7.123  1.00  0.00     0.073 C 
ATOM      8  O   UNL     1      20.152   7.018   8.327  1.00  0.00    -0.545 OA
ATOM      9  O   UNL     1      19.842   8.180   6.384  1.00  0.00    -0.545 OA
ENDBRANCH   1   7
TORSDOF 1
ENDMDL
MODEL 2
REMARK VINA RESULT:    -4.193      0.882      1.602
REMARK INTER + INTRA:          -4.459
REMARK INTER:                  -4.439
REMARK INTRA:                  -0.020
REMARK UNBOUND:                -0.021
REMARK SMILES O=C([O-])c1cccnc1
REMARK SMILES IDX 4 1 5 2 9 3 6 4 8 5 7 6 2 7 1 8 3 9
REMARK H PARENT
REMARK Flexibility Score: inf
ROOT
ATOM      1  C   UNL     1      21.553   6.414   6.458  1.00  0.00     0.016 A 
ATOM      2  C   UNL     1      22.491   7.013   5.599  1.00  0.00     0.013 A 
ATOM      3  C   UNL     1      21.664   5.035   6.708  1.00  0.00     0.120 A 
ATOM      4  C   UNL     1      23.500   6.244   5.017  1.00  0.00     0.021 A 
ATOM      5  N   UNL     1      22.657   4.309   6.129  1.00  0.00    -0.264 NA
ATOM      6  C   UNL     1      23.568   4.879   5.297  1.00  0.00     0.111 A 
ENDROOT
BRANCH   1   7
ATOM      7  C   UNL     1      20.479   7.218   7.080  1.00  0.00     0.073 C 
ATOM      8  O   UNL     1      20.125   7.001   8.269  1.00  0.00    -0.545 OA
ATOM      9  O   UNL     1      19.847   8.225   6.360  1.00  0.00    -0.545 OA
ENDBRANCH   1   7
TORSDOF 1
ENDMDL
MODEL 3
REMARK VINA RESULT:    -3.833      2.662      3.664
REMARK INTER + INTRA:          -4.078
REMARK INTER:                  -4.055
REMARK INTRA:                  -0.024
REMARK UNBOUND:                -0.021
REMARK SMILES O=C([O-])c1cccnc1
REMARK SMILES IDX 4 1 5 2 9 3 6 4 8 5 7 6 2 7 1 8 3 9
REMARK H PARENT
REMARK Flexibility Score: inf
ROOT
ATOM      1  C   UNL     1      21.862   5.565   6.431  1.00  0.00     0.016 A 
ATOM      2  C   UNL     1      20.956   5.574   7.504  1.00  0.00     0.013 A 
ATOM      3  C   UNL     1      22.005   6.738   5.668  1.00  0.00     0.120 A 
ATOM      4  C   UNL     1      20.221   6.726   7.793  1.00  0.00     0.021 A 
ATOM      5  N   UNL     1      21.279   7.847   5.971  1.00  0.00    -0.264 NA
ATOM      6  C   UNL     1      20.399   7.865   7.006  1.00  0.00     0.111 A 
ENDROOT
BRANCH   1   7
ATOM      7  C   UNL     1      22.645   4.351   6.115  1.00  0.00     0.073 C 
ATOM      8  O   UNL     1      23.548   4.382   5.237  1.00  0.00    -0.545 OA
ATOM      9  O   UNL     1      22.394   3.158   6.784  1.00  0.00    -0.545 OA
ENDBRANCH   1   7
TORSDOF 1
ENDMDL
MODEL 4
REMARK VINA RESULT:    -3.718      3.106      3.970
REMARK INTER + INTRA:          -3.956
REMARK INTER:                  -3.932
REMARK INTRA:                  -0.024
REMARK UNBOUND:                -0.021
REMARK SMILES O=C([O-])c1cccnc1
REMARK SMILES IDX 4 1 5 2 9 3 6 4 8 5 7 6 2 7 1 8 3 9
REMARK H PARENT
REMARK Flexibility Score: inf
ROOT
ATOM      1  C   UNL     1      23.462   6.433   5.493  1.00  0.00     0.016 A 
ATOM      2  C   UNL     1      22.426   7.354   5.716  1.00  0.00     0.013 A 
ATOM      3  C   UNL     1      23.193   5.066   5.684  1.00  0.00     0.120 A 
ATOM      4  C   UNL     1      21.166   6.909   6.118  1.00  0.00     0.021 A 
ATOM      5  N   UNL     1      21.956   4.658   6.075  1.00  0.00    -0.264 NA
ATOM      6  C   UNL     1      20.948   5.541   6.293  1.00  0.00     0.111 A 
ENDROOT
BRANCH   1   7
ATOM      7  C   UNL     1      24.802   6.893   5.068  1.00  0.00     0.073 C 
ATOM      8  O   UNL     1      25.027   8.118   4.875  1.00  0.00    -0.545 OA
ATOM      9  O   UNL     1      25.832   5.980   4.876  1.00  0.00    -0.545 OA
ENDBRANCH   1   7
TORSDOF 1
ENDMDL
MODEL 5
REMARK VINA RESULT:    -3.256     22.830     23.645
REMARK INTER + INTRA:          -3.467
REMARK INTER:                  -3.451
REMARK INTRA:                  -0.017
REMARK UNBOUND:                -0.021
REMARK SMILES O=C([O-])c1cccnc1
REMARK SMILES IDX 4 1 5 2 9 3 6 4 8 5 7 6 2 7 1 8 3 9
REMARK H PARENT
REMARK Flexibility Score: inf
ROOT
ATOM      1  C   UNL     1      36.165  -2.149  22.587  1.00  0.00     0.016 A 
ATOM      2  C   UNL     1      34.796  -1.967  22.845  1.00  0.00     0.013 A 
ATOM      3  C   UNL     1      37.077  -1.934  23.636  1.00  0.00     0.120 A 
ATOM      4  C   UNL     1      34.367  -1.581  24.116  1.00  0.00     0.021 A 
ATOM      5  N   UNL     1      36.633  -1.560  24.865  1.00  0.00    -0.264 NA
ATOM      6  C   UNL     1      35.312  -1.380  25.125  1.00  0.00     0.111 A 
ENDROOT
BRANCH   1   7
ATOM      7  C   UNL     1      36.631  -2.557  21.244  1.00  0.00     0.073 C 
ATOM      8  O   UNL     1      36.651  -1.729  20.295  1.00  0.00    -0.545 OA
ATOM      9  O   UNL     1      37.054  -3.861  21.012  1.00  0.00    -0.545 OA
ENDBRANCH   1   7
TORSDOF 1
ENDMDL
MODEL 6
REMARK VINA RESULT:    -3.181     22.816     23.641
REMARK INTER + INTRA:          -3.388
REMARK INTER:                  -3.372
REMARK INTRA:                  -0.016
REMARK UNBOUND:                -0.021
REMARK SMILES O=C([O-])c1cccnc1
REMARK SMILES IDX 4 1 5 2 9 3 6 4 8 5 7 6 2 7 1 8 3 9
REMARK H PARENT
REMARK Flexibility Score: inf
ROOT
ATOM      1  C   UNL     1      36.119  -2.182  22.597  1.00  0.00     0.016 A 
ATOM      2  C   UNL     1      37.031  -1.994  23.648  1.00  0.00     0.013 A 
ATOM      3  C   UNL     1      34.750  -1.989  22.858  1.00  0.00     0.120 A 
ATOM      4  C   UNL     1      36.577  -1.627  24.915  1.00  0.00     0.021 A 
ATOM      5  N   UNL     1      34.334  -1.630  24.102  1.00  0.00    -0.264 NA
ATOM      6  C   UNL     1      35.208  -1.447  25.125  1.00  0.00     0.111 A 
ENDROOT
BRANCH   1   7
ATOM      7  C   UNL     1      36.589  -2.572  21.250  1.00  0.00     0.073 C 
ATOM      8  O   UNL     1      36.627  -1.727  20.316  1.00  0.00    -0.545 OA
ATOM      9  O   UNL     1      36.996  -3.877  20.997  1.00  0.00    -0.545 OA
ENDBRANCH   1   7
TORSDOF 1
ENDMDL
MODEL 7
REMARK VINA RESULT:    -2.836     22.663     23.460
REMARK INTER + INTRA:          -3.023
REMARK INTER:                  -3.006
REMARK INTRA:                  -0.017
REMARK UNBOUND:                -0.021
REMARK SMILES O=C([O-])c1cccnc1
REMARK SMILES IDX 4 1 5 2 9 3 6 4 8 5 7 6 2 7 1 8 3 9
REMARK H PARENT
REMARK Flexibility Score: inf
ROOT
ATOM      1  C   UNL     1      35.967  -1.939  22.662  1.00  0.00     0.016 A 
ATOM      2  C   UNL     1      36.713  -1.951  23.852  1.00  0.00     0.013 A 
ATOM      3  C   UNL     1      34.567  -1.839  22.753  1.00  0.00     0.120 A 
ATOM      4  C   UNL     1      36.067  -1.868  25.087  1.00  0.00     0.021 A 
ATOM      5  N   UNL     1      33.962  -1.757  23.968  1.00  0.00    -0.264 NA
ATOM      6  C   UNL     1      34.674  -1.770  25.124  1.00  0.00     0.111 A 
ENDROOT
BRANCH   1   7
ATOM      7  C   UNL     1      36.641  -2.028  21.349  1.00  0.00     0.073 C 
ATOM      8  O   UNL     1      37.188  -3.101  20.982  1.00  0.00    -0.545 OA
ATOM      9  O   UNL     1      36.678  -0.926  20.501  1.00  0.00    -0.545 OA
ENDBRANCH   1   7
TORSDOF 1
ENDMDL
MODEL 8
REMARK VINA RESULT:    -2.229     22.566     23.311
REMARK INTER + INTRA:          -2.380
REMARK INTER:                  -2.359
REMARK INTRA:                  -0.021
REMARK UNBOUND:                -0.021
REMARK SMILES O=C([O-])c1cccnc1
REMARK SMILES IDX 4 1 5 2 9 3 6 4 8 5 7 6 2 7 1 8 3 9
REMARK H PARENT
REMARK Flexibility Score: inf
ROOT
ATOM      1  C   UNL     1      34.620  -1.862  23.807  1.00  0.00     0.016 A 
ATOM      2  C   UNL     1      35.127  -2.010  22.505  1.00  0.00     0.013 A 
ATOM      3  C   UNL     1      35.533  -1.688  24.863  1.00  0.00     0.120 A 
ATOM      4  C   UNL     1      36.504  -1.983  22.281  1.00  0.00     0.021 A 
ATOM      5  N   UNL     1      36.870  -1.665  24.617  1.00  0.00    -0.264 NA
ATOM      6  C   UNL     1      37.370  -1.807  23.362  1.00  0.00     0.111 A 
ENDROOT
BRANCH   1   7
ATOM      7  C   UNL     1      33.163  -1.889  24.057  1.00  0.00     0.073 C 
ATOM      8  O   UNL     1      32.705  -2.376  25.125  1.00  0.00    -0.545 OA
ATOM      9  O   UNL     1      32.278  -1.377  23.115  1.00  0.00    -0.545 OA
ENDBRANCH   1   7
TORSDOF 1
ENDMDL
MODEL 9
REMARK VINA RESULT:    -2.111      2.912      3.726
REMARK INTER + INTRA:          -2.256
REMARK INTER:                  -2.238
REMARK INTRA:                  -0.018
REMARK UNBOUND:                -0.021
REMARK SMILES O=C([O-])c1cccnc1
REMARK SMILES IDX 4 1 5 2 9 3 6 4 8 5 7 6 2 7 1 8 3 9
REMARK H PARENT
REMARK Flexibility Score: inf
ROOT
ATOM      1  C   UNL     1      22.273   4.732   6.418  1.00  0.00     0.016 A 
ATOM      2  C   UNL     1      23.282   5.372   5.679  1.00  0.00     0.013 A 
ATOM      3  C   UNL     1      21.139   5.479   6.785  1.00  0.00     0.120 A 
ATOM      4  C   UNL     1      23.149   6.715   5.326  1.00  0.00     0.021 A 
ATOM      5  N   UNL     1      21.033   6.787   6.427  1.00  0.00    -0.264 NA
ATOM      6  C   UNL     1      22.004   7.414   5.714  1.00  0.00     0.111 A 
ENDROOT
BRANCH   1   7
ATOM      7  C   UNL     1      22.403   3.309   6.798  1.00  0.00     0.073 C 
ATOM      8  O   UNL     1      21.548   2.465   6.422  1.00  0.00    -0.545 OA
ATOM      9  O   UNL     1      23.474   2.884   7.576  1.00  0.00    -0.545 OA
ENDBRANCH   1   7
TORSDOF 1
ENDMDL
