MODEL 1
REMARK VINA RESULT:    -4.664      0.000      0.000
REMARK INTER + INTRA:          -4.800
REMARK INTER:                  -4.800
REMARK INTRA:                   0.000
REMARK UNBOUND:                 0.000
REMARK SMILES Nc1ncnc2nc[nH]c12
REMARK SMILES IDX 8 1 7 2 6 3 5 4 4 5 3 6 2 7 10 8 9 9 1 11
REMARK H PARENT 9 10 1 12 1 13
REMARK Flexibility Score: inf
ROOT
ATOM      1  C   UNL     1      -5.176 -24.340 -31.348  1.00  0.00     0.199 A 
ATOM      2  N   UNL     1      -5.020 -23.620 -30.203  1.00  0.00    -0.217 NA
ATOM      3  C   UNL     1      -3.775 -23.955 -29.825  1.00  0.00     0.182 A 
ATOM      4  N   UNL     1      -3.117 -23.509 -28.728  1.00  0.00    -0.215 NA
ATOM      5  C   UNL     1      -1.847 -23.966 -28.508  1.00  0.00     0.226 A 
ATOM      6  N   UNL     1      -1.264 -24.851 -29.380  1.00  0.00    -0.217 NA
ATOM      7  C   UNL     1      -1.926 -25.301 -30.487  1.00  0.00     0.152 A 
ATOM      8  C   UNL     1      -3.219 -24.827 -30.696  1.00  0.00     0.127 A 
ATOM      9  N   UNL     1      -4.093 -25.088 -31.677  1.00  0.00    -0.340 N 
ATOM     10  H   UNL     1      -3.980 -25.716 -32.502  1.00  0.00     0.168 HD
ENDROOT
BRANCH   7  11
ATOM     11  N   UNL     1      -1.300 -26.223 -31.379  1.00  0.00    -0.382 N 
ATOM     12  H   UNL     1      -0.549 -25.894 -32.027  1.00  0.00     0.158 HD
ATOM     13  H   UNL     1      -1.574 -27.229 -31.404  1.00  0.00     0.158 HD
ENDBRANCH   7  11
TORSDOF 1
ENDMDL
MODEL 2
REMARK VINA RESULT:    -4.427      1.687      3.484
REMARK INTER + INTRA:          -4.557
REMARK INTER:                  -4.557
REMARK INTRA:                   0.000
REMARK UNBOUND:                 0.000
REMARK SMILES Nc1ncnc2nc[nH]c12
REMARK SMILES IDX 8 1 7 2 6 3 5 4 4 5 3 6 2 7 10 8 9 9 1 11
REMARK H PARENT 9 10 1 12 1 13
REMARK Flexibility Score: inf
ROOT
ATOM      1  C   UNL     1      -2.285 -25.732 -30.477  1.00  0.00     0.199 A 
ATOM      2  N   UNL     1      -2.123 -24.419 -30.800  1.00  0.00    -0.217 NA
ATOM      3  C   UNL     1      -3.385 -23.959 -30.760  1.00  0.00     0.182 A 
ATOM      4  N   UNL     1      -3.790 -22.690 -31.006  1.00  0.00    -0.215 NA
ATOM      5  C   UNL     1      -5.125 -22.411 -30.916  1.00  0.00     0.226 A 
ATOM      6  N   UNL     1      -6.022 -23.395 -30.584  1.00  0.00    -0.217 NA
ATOM      7  C   UNL     1      -5.615 -24.675 -30.335  1.00  0.00     0.152 A 
ATOM      8  C   UNL     1      -4.252 -24.943 -30.432  1.00  0.00     0.127 A 
ATOM      9  N   UNL     1      -3.574 -26.084 -30.246  1.00  0.00    -0.340 N 
ATOM     10  H   UNL     1      -3.940 -27.026 -29.987  1.00  0.00     0.168 HD
ENDROOT
BRANCH   7  11
ATOM     11  N   UNL     1      -6.567 -25.683 -29.992  1.00  0.00    -0.382 N 
ATOM     12  H   UNL     1      -7.040 -26.232 -30.744  1.00  0.00     0.158 HD
ATOM     13  H   UNL     1      -6.807 -25.889 -28.998  1.00  0.00     0.158 HD
ENDBRANCH   7  11
TORSDOF 1
ENDMDL
MODEL 3
REMARK VINA RESULT:    -4.403     15.484     16.451
REMARK INTER + INTRA:          -4.531
REMARK INTER:                  -4.531
REMARK INTRA:                   0.000
REMARK UNBOUND:                 0.000
REMARK SMILES Nc1ncnc2nc[nH]c12
REMARK SMILES IDX 8 1 7 2 6 3 5 4 4 5 3 6 2 7 10 8 9 9 1 11
REMARK H PARENT 9 10 1 12 1 13
REMARK Flexibility Score: inf
ROOT
ATOM      1  C   UNL     1     -15.576 -31.666 -22.299  1.00  0.00     0.199 A 
ATOM      2  N   UNL     1     -14.357 -31.069 -22.417  1.00  0.00    -0.217 NA
ATOM      3  C   UNL     1     -14.385 -30.168 -21.421  1.00  0.00     0.182 A 
ATOM      4  N   UNL     1     -13.401 -29.297 -21.093  1.00  0.00    -0.215 NA
ATOM      5  C   UNL     1     -13.613 -28.451 -20.040  1.00  0.00     0.226 A 
ATOM      6  N   UNL     1     -14.794 -28.491 -19.341  1.00  0.00    -0.217 NA
ATOM      7  C   UNL     1     -15.787 -29.370 -19.670  1.00  0.00     0.152 A 
ATOM      8  C   UNL     1     -15.555 -30.224 -20.745  1.00  0.00     0.127 A 
ATOM      9  N   UNL     1     -16.331 -31.172 -21.286  1.00  0.00    -0.340 N 
ATOM     10  H   UNL     1     -17.291 -31.468 -21.005  1.00  0.00     0.168 HD
ENDROOT
BRANCH   7  11
ATOM     11  N   UNL     1     -17.007 -29.393 -18.929  1.00  0.00    -0.382 N 
ATOM     12  H   UNL     1     -17.810 -28.795 -19.226  1.00  0.00     0.158 HD
ATOM     13  H   UNL     1     -17.121 -29.999 -18.086  1.00  0.00     0.158 HD
ENDBRANCH   7  11
TORSDOF 1
ENDMDL
MODEL 4
REMARK VINA RESULT:    -4.324     10.036     11.368
REMARK INTER + INTRA:          -4.451
REMARK INTER:                  -4.451
REMARK INTRA:                   0.000
REMARK UNBOUND:                 0.000
REMARK SMILES Nc1ncnc2nc[nH]c12
REMARK SMILES IDX 8 1 7 2 6 3 5 4 4 5 3 6 2 7 10 8 9 9 1 11
REMARK H PARENT 9 10 1 12 1 13
REMARK Flexibility Score: inf
ROOT
ATOM      1  C   UNL     1      -6.415 -15.626 -25.002  1.00  0.00     0.199 A 
ATOM      2  N   UNL     1      -5.809 -16.832 -24.821  1.00  0.00    -0.217 NA
ATOM      3  C   UNL     1      -6.655 -17.450 -23.979  1.00  0.00     0.182 A 
ATOM      4  N   UNL     1      -6.520 -18.699 -23.473  1.00  0.00    -0.215 NA
ATOM      5  C   UNL     1      -7.490 -19.161 -22.627  1.00  0.00     0.226 A 
ATOM      6  N   UNL     1      -8.566 -18.372 -22.305  1.00  0.00    -0.217 NA
ATOM      7  C   UNL     1      -8.704 -17.112 -22.815  1.00  0.00     0.152 A 
ATOM      8  C   UNL     1      -7.707 -16.658 -23.675  1.00  0.00     0.127 A 
ATOM      9  N   UNL     1      -7.577 -15.488 -24.316  1.00  0.00    -0.340 N 
ATOM     10  H   UNL     1      -8.212 -14.661 -24.298  1.00  0.00     0.168 HD
ENDROOT
BRANCH   7  11
ATOM     11  N   UNL     1      -9.832 -16.310 -22.466  1.00  0.00    -0.382 N 
ATOM     12  H   UNL     1      -9.912 -15.911 -21.504  1.00  0.00     0.158 HD
ATOM     13  H   UNL     1     -10.591 -16.108 -23.154  1.00  0.00     0.158 HD
ENDBRANCH   7  11
TORSDOF 1
ENDMDL
MODEL 5
REMARK VINA RESULT:    -4.295      1.502      2.603
REMARK INTER + INTRA:          -4.421
REMARK INTER:                  -4.421
REMARK INTRA:                   0.000
REMARK UNBOUND:                 0.000
REMARK SMILES Nc1ncnc2nc[nH]c12
REMARK SMILES IDX 8 1 7 2 6 3 5 4 4 5 3 6 2 7 10 8 9 9 1 11
REMARK H PARENT 9 10 1 12 1 13
REMARK Flexibility Score: inf
ROOT
ATOM      1  C   UNL     1      -1.989 -21.863 -29.058  1.00  0.00     0.199 A 
ATOM      2  N   UNL     1      -3.224 -22.290 -28.676  1.00  0.00    -0.217 NA
ATOM      3  C   UNL     1      -3.280 -23.517 -29.222  1.00  0.00     0.182 A 
ATOM      4  N   UNL     1      -4.314 -24.390 -29.142  1.00  0.00    -0.215 NA
ATOM      5  C   UNL     1      -4.185 -25.600 -29.765  1.00  0.00     0.226 A 
ATOM      6  N   UNL     1      -3.038 -25.912 -30.450  1.00  0.00    -0.217 NA
ATOM      7  C   UNL     1      -1.995 -25.034 -30.531  1.00  0.00     0.152 A 
ATOM      8  C   UNL     1      -2.141 -23.806 -29.892  1.00  0.00     0.127 A 
ATOM      9  N   UNL     1      -1.302 -22.766 -29.801  1.00  0.00    -0.340 N 
ATOM     10  H   UNL     1      -0.345 -22.663 -30.204  1.00  0.00     0.168 HD
ENDROOT
BRANCH   7  11
ATOM     11  N   UNL     1      -0.811 -25.381 -31.250  1.00  0.00    -0.382 N 
ATOM     12  H   UNL     1      -0.610 -24.934 -32.172  1.00  0.00     0.158 HD
ATOM     13  H   UNL     1      -0.132 -26.080 -30.876  1.00  0.00     0.158 HD
ENDBRANCH   7  11
TORSDOF 1
ENDMDL
MODEL 6
REMARK VINA RESULT:    -4.288      4.742      5.911
REMARK INTER + INTRA:          -4.413
REMARK INTER:                  -4.413
REMARK INTRA:                   0.000
REMARK UNBOUND:                 0.000
REMARK SMILES Nc1ncnc2nc[nH]c12
REMARK SMILES IDX 8 1 7 2 6 3 5 4 4 5 3 6 2 7 10 8 9 9 1 11
REMARK H PARENT 9 10 1 12 1 13
REMARK Flexibility Score: inf
ROOT
ATOM      1  C   UNL     1      -2.737 -26.148 -24.855  1.00  0.00     0.199 A 
ATOM      2  N   UNL     1      -3.110 -25.224 -25.782  1.00  0.00    -0.217 NA
ATOM      3  C   UNL     1      -4.235 -25.761 -26.283  1.00  0.00     0.182 A 
ATOM      4  N   UNL     1      -5.019 -25.234 -27.254  1.00  0.00    -0.215 NA
ATOM      5  C   UNL     1      -6.133 -25.931 -27.632  1.00  0.00     0.226 A 
ATOM      6  N   UNL     1      -6.439 -27.131 -27.039  1.00  0.00    -0.217 NA
ATOM      7  C   UNL     1      -5.650 -27.663 -26.060  1.00  0.00     0.152 A 
ATOM      8  C   UNL     1      -4.520 -26.941 -25.686  1.00  0.00     0.127 A 
ATOM      9  N   UNL     1      -3.578 -27.209 -24.771  1.00  0.00    -0.340 N 
ATOM     10  H   UNL     1      -3.500 -28.036 -24.139  1.00  0.00     0.168 HD
ENDROOT
BRANCH   7  11
ATOM     11  N   UNL     1      -5.988 -28.913 -25.457  1.00  0.00    -0.382 N 
ATOM     12  H   UNL     1      -5.262 -29.655 -25.351  1.00  0.00     0.158 HD
ATOM     13  H   UNL     1      -6.955 -29.109 -25.117  1.00  0.00     0.158 HD
ENDBRANCH   7  11
TORSDOF 1
ENDMDL
MODEL 7
REMARK VINA RESULT:    -4.223     15.303     16.338
REMARK INTER + INTRA:          -4.346
REMARK INTER:                  -4.346
REMARK INTRA:                   0.000
REMARK UNBOUND:                 0.000
REMARK SMILES Nc1ncnc2nc[nH]c12
REMARK SMILES IDX 8 1 7 2 6 3 5 4 4 5 3 6 2 7 10 8 9 9 1 11
REMARK H PARENT 9 10 1 12 1 13
REMARK Flexibility Score: inf
ROOT
ATOM      1  C   UNL     1     -14.314 -26.123 -19.325  1.00  0.00     0.199 A 
ATOM      2  N   UNL     1     -13.329 -26.751 -20.024  1.00  0.00    -0.217 NA
ATOM      3  C   UNL     1     -13.825 -27.993 -20.161  1.00  0.00     0.182 A 
ATOM      4  N   UNL     1     -13.230 -29.034 -20.791  1.00  0.00    -0.215 NA
ATOM      5  C   UNL     1     -13.895 -30.228 -20.830  1.00  0.00     0.226 A 
ATOM      6  N   UNL     1     -15.129 -30.358 -20.243  1.00  0.00    -0.217 NA
ATOM      7  C   UNL     1     -15.730 -29.309 -19.608  1.00  0.00     0.152 A 
ATOM      8  C   UNL     1     -15.040 -28.100 -19.578  1.00  0.00     0.127 A 
ATOM      9  N   UNL     1     -15.374 -26.920 -19.038  1.00  0.00    -0.340 N 
ATOM     10  H   UNL     1     -16.240 -26.664 -18.516  1.00  0.00     0.168 HD
ENDROOT
BRANCH   7  11
ATOM     11  N   UNL     1     -17.014 -29.468 -19.005  1.00  0.00    -0.382 N 
ATOM     12  H   UNL     1     -17.091 -29.834 -18.030  1.00  0.00     0.158 HD
ATOM     13  H   UNL     1     -17.890 -29.225 -19.518  1.00  0.00     0.158 HD
ENDBRANCH   7  11
TORSDOF 1
ENDMDL
MODEL 8
REMARK VINA RESULT:    -4.213      2.249      2.974
REMARK INTER + INTRA:          -4.336
REMARK INTER:                  -4.336
REMARK INTRA:                   0.000
REMARK UNBOUND:                 0.000
REMARK SMILES Nc1ncnc2nc[nH]c12
REMARK SMILES IDX 8 1 7 2 6 3 5 4 4 5 3 6 2 7 10 8 9 9 1 11
REMARK H PARENT 9 10 1 12 1 13
REMARK Flexibility Score: inf
ROOT
ATOM      1  C   UNL     1      -6.870 -25.955 -28.311  1.00  0.00     0.199 A 
ATOM      2  N   UNL     1      -5.717 -25.762 -27.614  1.00  0.00    -0.217 NA
ATOM      3  C   UNL     1      -4.867 -25.365 -28.576  1.00  0.00     0.182 A 
ATOM      4  N   UNL     1      -3.562 -25.038 -28.416  1.00  0.00    -0.215 NA
ATOM      5  C   UNL     1      -2.853 -24.654 -29.520  1.00  0.00     0.226 A 
ATOM      6  N   UNL     1      -3.456 -24.605 -30.752  1.00  0.00    -0.217 NA
ATOM      7  C   UNL     1      -4.771 -24.933 -30.915  1.00  0.00     0.152 A 
ATOM      8  C   UNL     1      -5.479 -25.323 -29.781  1.00  0.00     0.127 A 
ATOM      9  N   UNL     1      -6.758 -25.694 -29.638  1.00  0.00    -0.340 N 
ATOM     10  H   UNL     1      -7.501 -25.770 -30.367  1.00  0.00     0.168 HD
ENDROOT
BRANCH   7  11
ATOM     11  N   UNL     1      -5.377 -24.875 -32.207  1.00  0.00    -0.382 N 
ATOM     12  H   UNL     1      -5.685 -25.753 -32.679  1.00  0.00     0.158 HD
ATOM     13  H   UNL     1      -5.520 -23.966 -32.700  1.00  0.00     0.158 HD
ENDBRANCH   7  11
TORSDOF 1
ENDMDL
MODEL 9
REMARK VINA RESULT:    -4.184      1.953      2.666
REMARK INTER + INTRA:          -4.306
REMARK INTER:                  -4.306
REMARK INTRA:                   0.000
REMARK UNBOUND:                 0.000
REMARK SMILES Nc1ncnc2nc[nH]c12
REMARK SMILES IDX 8 1 7 2 6 3 5 4 4 5 3 6 2 7 10 8 9 9 1 11
REMARK H PARENT 9 10 1 12 1 13
REMARK Flexibility Score: inf
ROOT
ATOM      1  C   UNL     1      -5.175 -24.635 -31.612  1.00  0.00     0.199 A 
ATOM      2  N   UNL     1      -4.044 -23.969 -31.248  1.00  0.00    -0.217 NA
ATOM      3  C   UNL     1      -3.888 -24.353 -29.969  1.00  0.00     0.182 A 
ATOM      4  N   UNL     1      -2.898 -23.972 -29.127  1.00  0.00    -0.215 NA
ATOM      5  C   UNL     1      -2.906 -24.472 -27.855  1.00  0.00     0.226 A 
ATOM      6  N   UNL     1      -3.894 -25.334 -27.451  1.00  0.00    -0.217 NA
ATOM      7  C   UNL     1      -4.893 -25.720 -28.299  1.00  0.00     0.152 A 
ATOM      8  C   UNL     1      -4.871 -25.201 -29.591  1.00  0.00     0.127 A 
ATOM      9  N   UNL     1      -5.704 -25.397 -30.623  1.00  0.00    -0.340 N 
ATOM     10  H   UNL     1      -6.560 -25.991 -30.665  1.00  0.00     0.168 HD
ENDROOT
BRANCH   7  11
ATOM     11  N   UNL     1      -5.911 -26.618 -27.857  1.00  0.00    -0.382 N 
ATOM     12  H   UNL     1      -6.853 -26.251 -27.595  1.00  0.00     0.158 HD
ATOM     13  H   UNL     1      -5.738 -27.645 -27.786  1.00  0.00     0.158 HD
ENDBRANCH   7  11
TORSDOF 1
ENDMDL
