MODEL 1
REMARK VINA RESULT:    -3.388      0.000      0.000
REMARK INTER + INTRA:          -4.086
REMARK INTER:                  -3.982
REMARK INTRA:                  -0.104
REMARK UNBOUND:                -0.104
REMARK SMILES CCCCC(=O)[O-]
REMARK SMILES IDX 4 1 5 2 6 3 7 4 3 5 2 6 1 7
REMARK H PARENT
REMARK Flexibility Score: inf
ROOT
ATOM      1  C   UNL     1     108.639 104.901 130.615  1.00  0.00     0.053 C 
ENDROOT
BRANCH   1   2
ATOM      2  C   UNL     1     108.815 104.082 129.373  1.00  0.00     0.041 C 
ATOM      3  O   UNL     1     107.819 103.789 128.661  1.00  0.00    -0.550 OA
ATOM      4  O   UNL     1     110.074 103.614 129.021  1.00  0.00    -0.550 OA
ENDBRANCH   1   2
BRANCH   1   5
ATOM      5  C   UNL     1     107.694 104.225 131.616  1.00  0.00     0.006 C 
BRANCH   5   6
ATOM      6  C   UNL     1     108.086 102.765 131.889  1.00  0.00    -0.003 C 
ATOM      7  C   UNL     1     106.897 101.830 131.688  1.00  0.00     0.004 C 
ENDBRANCH   5   6
ENDBRANCH   1   5
TORSDOF 3
ENDMDL
MODEL 2
REMARK VINA RESULT:    -3.375      2.693      3.754
REMARK INTER + INTRA:          -4.070
REMARK INTER:                  -4.028
REMARK INTRA:                  -0.043
REMARK UNBOUND:                -0.104
REMARK SMILES CCCCC(=O)[O-]
REMARK SMILES IDX 4 1 5 2 6 3 7 4 3 5 2 6 1 7
REMARK H PARENT
REMARK Flexibility Score: inf
ROOT
ATOM      1  C   UNL     1     107.903 102.524 131.131  1.00  0.00     0.053 C 
ENDROOT
BRANCH   1   2
ATOM      2  C   UNL     1     106.882 101.570 131.672  1.00  0.00     0.041 C 
ATOM      3  O   UNL     1     105.756 101.991 132.044  1.00  0.00    -0.550 OA
ATOM      4  O   UNL     1     107.188 100.221 131.797  1.00  0.00    -0.550 OA
ENDBRANCH   1   2
BRANCH   1   5
ATOM      5  C   UNL     1     107.790 102.678 129.609  1.00  0.00     0.006 C 
BRANCH   5   6
ATOM      6  C   UNL     1     108.261 104.058 129.128  1.00  0.00    -0.003 C 
ATOM      7  C   UNL     1     108.598 104.966 130.307  1.00  0.00     0.004 C 
ENDBRANCH   5   6
ENDBRANCH   1   5
TORSDOF 3
ENDMDL
MODEL 3
REMARK VINA RESULT:    -3.335      1.508      1.826
REMARK INTER + INTRA:          -4.024
REMARK INTER:                  -3.954
REMARK INTRA:                  -0.070
REMARK UNBOUND:                -0.104
REMARK SMILES CCCCC(=O)[O-]
REMARK SMILES IDX 4 1 5 2 6 3 7 4 3 5 2 6 1 7
REMARK H PARENT
REMARK Flexibility Score: inf
ROOT
ATOM      1  C   UNL     1     108.084 103.437 129.407  1.00  0.00     0.053 C 
ENDROOT
BRANCH   1   2
ATOM      2  C   UNL     1     108.895 104.363 130.261  1.00  0.00     0.041 C 
ATOM      3  O   UNL     1     108.432 105.486 130.592  1.00  0.00    -0.550 OA
ATOM      4  O   UNL     1     110.174 104.000 130.662  1.00  0.00    -0.550 OA
ENDBRANCH   1   2
BRANCH   1   5
ATOM      5  C   UNL     1     107.804 102.106 130.116  1.00  0.00     0.006 C 
BRANCH   5   6
ATOM      6  C   UNL     1     107.243 102.309 131.531  1.00  0.00    -0.003 C 
ATOM      7  C   UNL     1     106.056 101.387 131.790  1.00  0.00     0.004 C 
ENDBRANCH   5   6
ENDBRANCH   1   5
TORSDOF 3
ENDMDL
MODEL 4
REMARK VINA RESULT:    -3.207     12.089     12.771
REMARK INTER + INTRA:          -3.873
REMARK INTER:                  -3.797
REMARK INTRA:                  -0.076
REMARK UNBOUND:                -0.104
REMARK SMILES CCCCC(=O)[O-]
REMARK SMILES IDX 4 1 5 2 6 3 7 4 3 5 2 6 1 7
REMARK H PARENT
REMARK Flexibility Score: inf
ROOT
ATOM      1  C   UNL     1     112.604 112.131 122.379  1.00  0.00     0.053 C 
ENDROOT
BRANCH   1   2
ATOM      2  C   UNL     1     111.899 113.277 121.719  1.00  0.00     0.041 C 
ATOM      3  O   UNL     1     112.176 114.461 122.042  1.00  0.00    -0.550 OA
ATOM      4  O   UNL     1     110.914 113.034 120.771  1.00  0.00    -0.550 OA
ENDBRANCH   1   2
BRANCH   1   5
ATOM      5  C   UNL     1     111.673 110.929 122.583  1.00  0.00     0.006 C 
BRANCH   5   6
ATOM      6  C   UNL     1     112.058 109.738 121.694  1.00  0.00    -0.003 C 
ATOM      7  C   UNL     1     113.573 109.631 121.544  1.00  0.00     0.004 C 
ENDBRANCH   5   6
ENDBRANCH   1   5
TORSDOF 3
ENDMDL
MODEL 5
REMARK VINA RESULT:    -3.100     12.161     12.688
REMARK INTER + INTRA:          -3.747
REMARK INTER:                  -3.675
REMARK INTRA:                  -0.072
REMARK UNBOUND:                -0.104
REMARK SMILES CCCCC(=O)[O-]
REMARK SMILES IDX 4 1 5 2 6 3 7 4 3 5 2 6 1 7
REMARK H PARENT
REMARK Flexibility Score: inf
ROOT
ATOM      1  C   UNL     1     111.907 111.369 122.524  1.00  0.00     0.053 C 
ENDROOT
BRANCH   1   2
ATOM      2  C   UNL     1     111.522 112.595 121.754  1.00  0.00     0.041 C 
ATOM      3  O   UNL     1     110.603 112.541 120.896  1.00  0.00    -0.550 OA
ATOM      4  O   UNL     1     112.201 113.788 121.961  1.00  0.00    -0.550 OA
ENDBRANCH   1   2
BRANCH   1   5
ATOM      5  C   UNL     1     111.930 110.120 121.634  1.00  0.00     0.006 C 
BRANCH   5   6
ATOM      6  C   UNL     1     113.217 110.024 120.800  1.00  0.00    -0.003 C 
ATOM      7  C   UNL     1     114.345 109.381 121.601  1.00  0.00     0.004 C 
ENDBRANCH   5   6
ENDBRANCH   1   5
TORSDOF 3
ENDMDL
MODEL 6
REMARK VINA RESULT:    -3.062     11.869     12.610
REMARK INTER + INTRA:          -3.702
REMARK INTER:                  -3.592
REMARK INTRA:                  -0.110
REMARK UNBOUND:                -0.104
REMARK SMILES CCCCC(=O)[O-]
REMARK SMILES IDX 4 1 5 2 6 3 7 4 3 5 2 6 1 7
REMARK H PARENT
REMARK Flexibility Score: inf
ROOT
ATOM      1  C   UNL     1     112.093 110.140 121.767  1.00  0.00     0.053 C 
ENDROOT
BRANCH   1   2
ATOM      2  C   UNL     1     113.582 110.070 121.609  1.00  0.00     0.041 C 
ATOM      3  O   UNL     1     114.326 110.840 122.270  1.00  0.00    -0.550 OA
ATOM      4  O   UNL     1     114.144 109.178 120.705  1.00  0.00    -0.550 OA
ENDBRANCH   1   2
BRANCH   1   5
ATOM      5  C   UNL     1     111.662 111.384 122.555  1.00  0.00     0.006 C 
BRANCH   5   6
ATOM      6  C   UNL     1     111.263 112.545 121.633  1.00  0.00    -0.003 C 
ATOM      7  C   UNL     1     112.183 113.746 121.833  1.00  0.00     0.004 C 
ENDBRANCH   5   6
ENDBRANCH   1   5
TORSDOF 3
ENDMDL
MODEL 7
REMARK VINA RESULT:    -3.053     11.826     12.480
REMARK INTER + INTRA:          -3.692
REMARK INTER:                  -3.588
REMARK INTRA:                  -0.104
REMARK UNBOUND:                -0.104
REMARK SMILES CCCCC(=O)[O-]
REMARK SMILES IDX 4 1 5 2 6 3 7 4 3 5 2 6 1 7
REMARK H PARENT
REMARK Flexibility Score: inf
ROOT
ATOM      1  C   UNL     1     114.466 109.214 121.724  1.00  0.00     0.053 C 
ENDROOT
BRANCH   1   2
ATOM      2  C   UNL     1     115.476 110.236 122.150  1.00  0.00     0.041 C 
ATOM      3  O   UNL     1     116.576 109.873 122.642  1.00  0.00    -0.550 OA
ATOM      4  O   UNL     1     115.188 111.590 122.033  1.00  0.00    -0.550 OA
ENDBRANCH   1   2
BRANCH   1   5
ATOM      5  C   UNL     1     113.265 109.858 121.020  1.00  0.00     0.006 C 
BRANCH   5   6
ATOM      6  C   UNL     1     112.001 109.835 121.891  1.00  0.00    -0.003 C 
ATOM      7  C   UNL     1     111.735 111.203 122.512  1.00  0.00     0.004 C 
ENDBRANCH   5   6
ENDBRANCH   1   5
TORSDOF 3
ENDMDL
MODEL 8
REMARK VINA RESULT:    -3.042     11.593     12.457
REMARK INTER + INTRA:          -3.680
REMARK INTER:                  -3.622
REMARK INTRA:                  -0.057
REMARK UNBOUND:                -0.104
REMARK SMILES CCCCC(=O)[O-]
REMARK SMILES IDX 4 1 5 2 6 3 7 4 3 5 2 6 1 7
REMARK H PARENT
REMARK Flexibility Score: inf
ROOT
ATOM      1  C   UNL     1     113.658 110.878 121.472  1.00  0.00     0.053 C 
ENDROOT
BRANCH   1   2
ATOM      2  C   UNL     1     112.281 110.680 122.031  1.00  0.00     0.041 C 
ATOM      3  O   UNL     1     111.771 109.530 122.064  1.00  0.00    -0.550 OA
ATOM      4  O   UNL     1     111.550 111.771 122.482  1.00  0.00    -0.550 OA
ENDBRANCH   1   2
BRANCH   1   5
ATOM      5  C   UNL     1     114.526 109.624 121.636  1.00  0.00     0.006 C 
BRANCH   5   6
ATOM      6  C   UNL     1     115.877 109.936 122.295  1.00  0.00    -0.003 C 
ATOM      7  C   UNL     1     115.892 111.346 122.878  1.00  0.00     0.004 C 
ENDBRANCH   5   6
ENDBRANCH   1   5
TORSDOF 3
ENDMDL
MODEL 9
REMARK VINA RESULT:    -2.997     12.927     13.371
REMARK INTER + INTRA:          -3.626
REMARK INTER:                  -3.604
REMARK INTRA:                  -0.022
REMARK UNBOUND:                -0.104
REMARK SMILES CCCCC(=O)[O-]
REMARK SMILES IDX 4 1 5 2 6 3 7 4 3 5 2 6 1 7
REMARK H PARENT
REMARK Flexibility Score: inf
ROOT
ATOM      1  C   UNL     1     112.798 111.918 122.377  1.00  0.00     0.053 C 
ENDROOT
BRANCH   1   2
ATOM      2  C   UNL     1     112.156 113.049 121.633  1.00  0.00     0.041 C 
ATOM      3  O   UNL     1     112.286 114.232 122.044  1.00  0.00    -0.550 OA
ATOM      4  O   UNL     1     111.387 112.793 120.506  1.00  0.00    -0.550 OA
ENDBRANCH   1   2
BRANCH   1   5
ATOM      5  C   UNL     1     114.118 111.484 121.727  1.00  0.00     0.006 C 
BRANCH   5   6
ATOM      6  C   UNL     1     115.235 111.280 122.761  1.00  0.00    -0.003 C 
ATOM      7  C   UNL     1     116.038 110.017 122.462  1.00  0.00     0.004 C 
ENDBRANCH   5   6
ENDBRANCH   1   5
TORSDOF 3
ENDMDL
