MODEL 1
REMARK VINA RESULT:    16.790      0.000      0.000
REMARK INTER + INTRA:          28.304
REMARK INTER:                  24.642
REMARK INTRA:                   3.661
REMARK UNBOUND:                 3.661
REMARK SMILES O=c1c(O[C@@H]2O[C@@H](CO)[C@H](O)[C@@H](O)[C@H]2O)c(-c2ccc(O)c(O)c2)oc2cc(O)cc(O)c12
REMARK SMILES IDX 4 1 3 2 16 3 25 4 2 5 26 6 1 7 33 8 27 9 31 10 28 11 30 12
REMARK SMILES IDX 17 13 18 14 19 15 20 16 24 17 22 18 21 19 23 21 32 23 29 25
REMARK SMILES IDX 5 27 14 28 6 29 12 30 7 31 10 32 15 33 13 35 8 37 9 38 11 40
REMARK H PARENT 21 20 23 22 32 24 29 26 15 34 13 36 9 39 11 41
REMARK Flexibility Score: inf
ROOT
ATOM      1  O   UNL     1      -9.286  -8.121 -10.228  1.00  0.00    -0.454 OA
ENDROOT
BRANCH   1   2
ATOM      2  C   UNL     1      -8.231  -7.664  -9.434  1.00  0.00     0.214 A 
ATOM      3  C   UNL     1      -7.759  -6.344  -9.566  1.00  0.00     0.180 A 
ATOM      4  O   UNL     1      -6.783  -5.909  -8.773  1.00  0.00    -0.452 OA
ATOM      5  C   UNL     1      -7.632  -8.509  -8.494  1.00  0.00     0.239 A 
ATOM      6  C   UNL     1      -6.192  -6.669  -7.858  1.00  0.00     0.146 A 
ATOM      7  O   UNL     1      -8.024  -9.701  -8.398  1.00  0.00    -0.285 OA
ATOM      8  C   UNL     1      -6.592  -8.014  -7.675  1.00  0.00     0.111 A 
ATOM      9  C   UNL     1      -5.167  -6.129  -7.076  1.00  0.00     0.094 A 
ATOM     10  C   UNL     1      -5.945  -8.800  -6.691  1.00  0.00     0.134 A 
ATOM     11  C   UNL     1      -4.525  -6.913  -6.114  1.00  0.00     0.123 A 
ATOM     12  C   UNL     1      -4.914  -8.242  -5.922  1.00  0.00     0.093 A 
BRANCH   3  13
ATOM     13  C   UNL     1      -8.344  -5.405 -10.550  1.00  0.00     0.025 A 
ATOM     14  C   UNL     1      -8.616  -4.087 -10.170  1.00  0.00     0.016 A 
ATOM     15  C   UNL     1      -9.193  -3.194 -11.078  1.00  0.00     0.051 A 
ATOM     16  C   UNL     1      -9.500  -3.606 -12.378  1.00  0.00     0.157 A 
ATOM     17  C   UNL     1      -8.621  -5.805 -11.868  1.00  0.00     0.062 A 
ATOM     18  C   UNL     1      -9.206  -4.915 -12.775  1.00  0.00     0.158 A 
BRANCH  16  19
ATOM     19  O   UNL     1     -10.087  -2.720 -13.278  1.00  0.00    -0.504 OA
ATOM     20  H   UNL     1     -10.691  -3.044 -14.023  1.00  0.00     0.293 HD
ENDBRANCH  16  19
BRANCH  18  21
ATOM     21  O   UNL     1      -9.480  -5.349 -14.068  1.00  0.00    -0.504 OA
ATOM     22  H   UNL     1      -8.889  -5.098 -14.854  1.00  0.00     0.293 HD
ENDBRANCH  18  21
ENDBRANCH   3  13
BRANCH  10  23
ATOM     23  O   UNL     1      -6.319 -10.123  -6.474  1.00  0.00    -0.507 OA
ATOM     24  H   UNL     1      -6.575 -10.464  -5.554  1.00  0.00     0.293 HD
ENDBRANCH  10  23
BRANCH  11  25
ATOM     25  O   UNL     1      -3.496  -6.360  -5.354  1.00  0.00    -0.508 OA
ATOM     26  H   UNL     1      -2.900  -6.937  -4.774  1.00  0.00     0.293 HD
ENDBRANCH  11  25
ENDBRANCH   1   2
BRANCH   1  27
ATOM     27  C   UNL     1      -9.086  -9.016 -11.324  1.00  0.00     0.339 C 
ATOM     28  C   UNL     1      -8.927  -8.208 -12.640  1.00  0.00     0.214 C 
ATOM     29  O   UNL     1      -7.993  -9.885 -11.062  1.00  0.00    -0.332 OA
ATOM     30  C   UNL     1      -7.756  -8.734 -13.492  1.00  0.00     0.180 C 
ATOM     31  C   UNL     1      -6.756  -9.206 -11.170  1.00  0.00     0.179 C 
ATOM     32  C   UNL     1      -6.458  -8.805 -12.652  1.00  0.00     0.177 C 
BRANCH  28  33
ATOM     33  O   UNL     1     -10.124  -8.250 -13.373  1.00  0.00    -0.384 OA
ATOM     34  H   UNL     1     -10.053  -9.013 -14.003  1.00  0.00     0.211 HD
ENDBRANCH  28  33
BRANCH  30  35
ATOM     35  O   UNL     1      -8.057  -9.975 -14.087  1.00  0.00    -0.387 OA
ATOM     36  H   UNL     1      -8.906  -9.888 -14.583  1.00  0.00     0.211 HD
ENDBRANCH  30  35
BRANCH  31  37
ATOM     37  C   UNL     1      -5.660 -10.125 -10.610  1.00  0.00     0.191 C 
BRANCH  37  38
ATOM     38  O   UNL     1      -4.732  -9.382  -9.874  1.00  0.00    -0.394 OA
ATOM     39  H   UNL     1      -4.453  -9.963  -9.119  1.00  0.00     0.210 HD
ENDBRANCH  37  38
ENDBRANCH  31  37
BRANCH  32  40
ATOM     40  O   UNL     1      -5.837  -7.543 -12.694  1.00  0.00    -0.387 OA
ATOM     41  H   UNL     1      -5.889  -7.215 -13.628  1.00  0.00     0.211 HD
ENDBRANCH  32  40
ENDBRANCH   1  27
TORSDOF 12
ENDMDL
