MODEL 1
REMARK VINA RESULT:    -2.878      0.000      0.000
REMARK INTER + INTRA:          -3.507
REMARK INTER:                  -3.383
REMARK INTRA:                  -0.124
REMARK UNBOUND:                -0.124
REMARK SMILES O=C([O-])CCC(=O)[O-]
REMARK SMILES IDX 4 1 2 2 1 3 3 4 5 5 6 6 7 7 8 8
REMARK H PARENT
REMARK Flexibility Score: inf
ROOT
ATOM      1  C   UNL     1       5.152  11.795  40.036  1.00  0.00     0.059 C 
ENDROOT
BRANCH   1   2
ATOM      2  C   UNL     1       6.569  11.779  40.523  1.00  0.00     0.042 C 
ATOM      3  O   UNL     1       7.516  11.595  39.713  1.00  0.00    -0.550 OA
ATOM      4  O   UNL     1       6.840  11.929  41.877  1.00  0.00    -0.550 OA
ENDBRANCH   1   2
BRANCH   1   5
ATOM      5  C   UNL     1       4.482  10.427  40.208  1.00  0.00     0.059 C 
BRANCH   5   6
ATOM      6  C   UNL     1       4.802   9.508  39.069  1.00  0.00     0.042 C 
ATOM      7  O   UNL     1       4.894   8.267  39.262  1.00  0.00    -0.550 OA
ATOM      8  O   UNL     1       4.955  10.018  37.785  1.00  0.00    -0.550 OA
ENDBRANCH   5   6
ENDBRANCH   1   5
TORSDOF 3
ENDMDL
MODEL 2
REMARK VINA RESULT:    -2.849      0.977      3.629
REMARK INTER + INTRA:          -3.473
REMARK INTER:                  -3.327
REMARK INTRA:                  -0.145
REMARK UNBOUND:                -0.124
REMARK SMILES O=C([O-])CCC(=O)[O-]
REMARK SMILES IDX 4 1 2 2 1 3 3 4 5 5 6 6 7 7 8 8
REMARK H PARENT
REMARK Flexibility Score: inf
ROOT
ATOM      1  C   UNL     1       4.289  10.508  40.179  1.00  0.00     0.059 C 
ENDROOT
BRANCH   1   2
ATOM      2  C   UNL     1       4.752   9.593  39.087  1.00  0.00     0.042 C 
ATOM      3  O   UNL     1       5.045   8.396  39.343  1.00  0.00    -0.550 OA
ATOM      4  O   UNL     1       4.897  10.075  37.792  1.00  0.00    -0.550 OA
ENDBRANCH   1   2
BRANCH   1   5
ATOM      5  C   UNL     1       5.459  10.988  41.044  1.00  0.00     0.059 C 
BRANCH   5   6
ATOM      6  C   UNL     1       6.286  12.017  40.335  1.00  0.00     0.042 C 
ATOM      7  O   UNL     1       5.783  13.125  40.015  1.00  0.00    -0.550 OA
ATOM      8  O   UNL     1       7.627  11.767  40.066  1.00  0.00    -0.550 OA
ENDBRANCH   5   6
ENDBRANCH   1   5
TORSDOF 3
ENDMDL
MODEL 3
REMARK VINA RESULT:    -2.751     13.919     14.700
REMARK INTER + INTRA:          -3.357
REMARK INTER:                  -3.331
REMARK INTRA:                  -0.026
REMARK UNBOUND:                -0.124
REMARK SMILES O=C([O-])CCC(=O)[O-]
REMARK SMILES IDX 4 1 2 2 1 3 3 4 5 5 6 6 7 7 8 8
REMARK H PARENT
REMARK Flexibility Score: inf
ROOT
ATOM      1  C   UNL     1      15.151   0.936  36.223  1.00  0.00     0.059 C 
ENDROOT
BRANCH   1   2
ATOM      2  C   UNL     1      14.861   0.744  37.680  1.00  0.00     0.042 C 
ATOM      3  O   UNL     1      15.805   0.664  38.510  1.00  0.00    -0.550 OA
ATOM      4  O   UNL     1      13.548   0.612  38.116  1.00  0.00    -0.550 OA
ENDBRANCH   1   2
BRANCH   1   5
ATOM      5  C   UNL     1      15.240  -0.404  35.485  1.00  0.00     0.059 C 
BRANCH   5   6
ATOM      6  C   UNL     1      15.154  -0.225  34.000  1.00  0.00     0.042 C 
ATOM      7  O   UNL     1      16.203  -0.184  33.305  1.00  0.00    -0.550 OA
ATOM      8  O   UNL     1      13.913  -0.146  33.380  1.00  0.00    -0.550 OA
ENDBRANCH   5   6
ENDBRANCH   1   5
TORSDOF 3
ENDMDL
MODEL 4
REMARK VINA RESULT:    -2.748     13.901     14.973
REMARK INTER + INTRA:          -3.354
REMARK INTER:                  -3.327
REMARK INTRA:                  -0.027
REMARK UNBOUND:                -0.124
REMARK SMILES O=C([O-])CCC(=O)[O-]
REMARK SMILES IDX 4 1 2 2 1 3 3 4 5 5 6 6 7 7 8 8
REMARK H PARENT
REMARK Flexibility Score: inf
ROOT
ATOM      1  C   UNL     1      15.159  -0.428  35.499  1.00  0.00     0.059 C 
ENDROOT
BRANCH   1   2
ATOM      2  C   UNL     1      15.139  -0.272  34.009  1.00  0.00     0.042 C 
ATOM      3  O   UNL     1      14.044  -0.170  33.396  1.00  0.00    -0.550 OA
ATOM      4  O   UNL     1      16.330  -0.280  33.294  1.00  0.00    -0.550 OA
ENDBRANCH   1   2
BRANCH   1   5
ATOM      5  C   UNL     1      15.104   0.928  36.208  1.00  0.00     0.059 C 
BRANCH   5   6
ATOM      6  C   UNL     1      14.769   0.780  37.661  1.00  0.00     0.042 C 
ATOM      7  O   UNL     1      15.686   0.715  38.520  1.00  0.00    -0.550 OA
ATOM      8  O   UNL     1      13.441   0.757  38.070  1.00  0.00    -0.550 OA
ENDBRANCH   5   6
ENDBRANCH   1   5
TORSDOF 3
ENDMDL
MODEL 5
REMARK VINA RESULT:    -2.742     13.921     14.697
REMARK INTER + INTRA:          -3.346
REMARK INTER:                  -3.319
REMARK INTRA:                  -0.027
REMARK UNBOUND:                -0.124
REMARK SMILES O=C([O-])CCC(=O)[O-]
REMARK SMILES IDX 4 1 2 2 1 3 3 4 5 5 6 6 7 7 8 8
REMARK H PARENT
REMARK Flexibility Score: inf
ROOT
ATOM      1  C   UNL     1      15.146   0.951  36.208  1.00  0.00     0.059 C 
ENDROOT
BRANCH   1   2
ATOM      2  C   UNL     1      14.849   0.753  37.663  1.00  0.00     0.042 C 
ATOM      3  O   UNL     1      15.789   0.660  38.496  1.00  0.00    -0.550 OA
ATOM      4  O   UNL     1      13.534   0.631  38.094  1.00  0.00    -0.550 OA
ENDBRANCH   1   2
BRANCH   1   5
ATOM      5  C   UNL     1      15.244  -0.385  35.466  1.00  0.00     0.059 C 
BRANCH   5   6
ATOM      6  C   UNL     1      15.145  -0.204  33.982  1.00  0.00     0.042 C 
ATOM      7  O   UNL     1      14.018  -0.163  33.423  1.00  0.00    -0.550 OA
ATOM      8  O   UNL     1      16.296  -0.036  33.223  1.00  0.00    -0.550 OA
ENDBRANCH   5   6
ENDBRANCH   1   5
TORSDOF 3
ENDMDL
MODEL 6
REMARK VINA RESULT:    -2.721     13.911     14.977
REMARK INTER + INTRA:          -3.322
REMARK INTER:                  -3.296
REMARK INTRA:                  -0.027
REMARK UNBOUND:                -0.124
REMARK SMILES O=C([O-])CCC(=O)[O-]
REMARK SMILES IDX 4 1 2 2 1 3 3 4 5 5 6 6 7 7 8 8
REMARK H PARENT
REMARK Flexibility Score: inf
ROOT
ATOM      1  C   UNL     1      15.143  -0.422  35.444  1.00  0.00     0.059 C 
ENDROOT
BRANCH   1   2
ATOM      2  C   UNL     1      15.090  -0.240  33.958  1.00  0.00     0.042 C 
ATOM      3  O   UNL     1      16.154  -0.148  33.291  1.00  0.00    -0.550 OA
ATOM      4  O   UNL     1      13.863  -0.131  33.315  1.00  0.00    -0.550 OA
ENDBRANCH   1   2
BRANCH   1   5
ATOM      5  C   UNL     1      15.103   0.923  36.178  1.00  0.00     0.059 C 
BRANCH   5   6
ATOM      6  C   UNL     1      14.827   0.747  37.640  1.00  0.00     0.042 C 
ATOM      7  O   UNL     1      13.645   0.612  38.051  1.00  0.00    -0.550 OA
ATOM      8  O   UNL     1      15.881   0.690  38.545  1.00  0.00    -0.550 OA
ENDBRANCH   5   6
ENDBRANCH   1   5
TORSDOF 3
ENDMDL
MODEL 7
REMARK VINA RESULT:    -2.571      1.807      2.686
REMARK INTER + INTRA:          -3.146
REMARK INTER:                  -3.034
REMARK INTRA:                  -0.112
REMARK UNBOUND:                -0.124
REMARK SMILES O=C([O-])CCC(=O)[O-]
REMARK SMILES IDX 4 1 2 2 1 3 3 4 5 5 6 6 7 7 8 8
REMARK H PARENT
REMARK Flexibility Score: inf
ROOT
ATOM      1  C   UNL     1       4.486  11.271  41.108  1.00  0.00     0.059 C 
ENDROOT
BRANCH   1   2
ATOM      2  C   UNL     1       4.623  10.530  42.403  1.00  0.00     0.042 C 
ATOM      3  O   UNL     1       4.924  11.147  43.458  1.00  0.00    -0.550 OA
ATOM      4  O   UNL     1       4.455   9.151  42.435  1.00  0.00    -0.550 OA
ENDBRANCH   1   2
BRANCH   1   5
ATOM      5  C   UNL     1       5.620  10.924  40.138  1.00  0.00     0.059 C 
BRANCH   5   6
ATOM      6  C   UNL     1       5.172   9.952  39.089  1.00  0.00     0.042 C 
ATOM      7  O   UNL     1       4.644  10.367  38.025  1.00  0.00    -0.550 OA
ATOM      8  O   UNL     1       5.379   8.590  39.269  1.00  0.00    -0.550 OA
ENDBRANCH   5   6
ENDBRANCH   1   5
TORSDOF 3
ENDMDL
MODEL 8
REMARK VINA RESULT:    -2.533     14.149     15.146
REMARK INTER + INTRA:          -3.101
REMARK INTER:                  -2.967
REMARK INTRA:                  -0.134
REMARK UNBOUND:                -0.124
REMARK SMILES O=C([O-])CCC(=O)[O-]
REMARK SMILES IDX 4 1 2 2 1 3 3 4 5 5 6 6 7 7 8 8
REMARK H PARENT
REMARK Flexibility Score: inf
ROOT
ATOM      1  C   UNL     1      15.160  -0.193  35.398  1.00  0.00     0.059 C 
ENDROOT
BRANCH   1   2
ATOM      2  C   UNL     1      15.045  -0.322  33.909  1.00  0.00     0.042 C 
ATOM      3  O   UNL     1      16.062  -0.585  33.215  1.00  0.00    -0.550 OA
ATOM      4  O   UNL     1      13.821  -0.110  33.286  1.00  0.00    -0.550 OA
ENDBRANCH   1   2
BRANCH   1   5
ATOM      5  C   UNL     1      16.315   0.732  35.796  1.00  0.00     0.059 C 
BRANCH   5   6
ATOM      6  C   UNL     1      15.923   2.175  35.708  1.00  0.00     0.042 C 
ATOM      7  O   UNL     1      15.331   2.731  36.670  1.00  0.00    -0.550 OA
ATOM      8  O   UNL     1      16.249   2.917  34.579  1.00  0.00    -0.550 OA
ENDBRANCH   5   6
ENDBRANCH   1   5
TORSDOF 3
ENDMDL
MODEL 9
REMARK VINA RESULT:    -2.480     12.246     13.117
REMARK INTER + INTRA:          -3.038
REMARK INTER:                  -2.875
REMARK INTRA:                  -0.163
REMARK UNBOUND:                -0.124
REMARK SMILES O=C([O-])CCC(=O)[O-]
REMARK SMILES IDX 4 1 2 2 1 3 3 4 5 5 6 6 7 7 8 8
REMARK H PARENT
REMARK Flexibility Score: inf
ROOT
ATOM      1  C   UNL     1      15.246   1.525  38.764  1.00  0.00     0.059 C 
ENDROOT
BRANCH   1   2
ATOM      2  C   UNL     1      14.251   0.880  37.847  1.00  0.00     0.042 C 
ATOM      3  O   UNL     1      14.639   0.285  36.807  1.00  0.00    -0.550 OA
ATOM      4  O   UNL     1      12.892   0.972  38.121  1.00  0.00    -0.550 OA
ENDBRANCH   1   2
BRANCH   1   5
ATOM      5  C   UNL     1      15.137   3.052  38.727  1.00  0.00     0.059 C 
BRANCH   5   6
ATOM      6  C   UNL     1      15.624   3.611  37.424  1.00  0.00     0.042 C 
ATOM      7  O   UNL     1      16.757   3.289  36.981  1.00  0.00    -0.550 OA
ATOM      8  O   UNL     1      14.807   4.453  36.680  1.00  0.00    -0.550 OA
ENDBRANCH   5   6
ENDBRANCH   1   5
TORSDOF 3
ENDMDL
