MODEL 1
REMARK VINA RESULT:    -3.732      0.000      0.000
REMARK INTER + INTRA:          -4.335
REMARK INTER:                  -4.277
REMARK INTRA:                  -0.057
REMARK UNBOUND:                -0.057
REMARK SMILES CC(C)[C@@H]([NH3+])C(=O)[O-]
REMARK SMILES IDX 4 1 5 2 6 6 7 7 8 8 2 9 1 10 3 11
REMARK H PARENT 5 3 5 4 5 5
REMARK Flexibility Score: inf
ROOT
ATOM      1  C   UNL     1      16.053   0.944 -47.365  1.00  0.00     0.230 C 
ENDROOT
BRANCH   1   2
ATOM      2  N   UNL     1      16.509  -0.306 -47.992  1.00  0.00    -0.350 N 
ATOM      3  H   UNL     1      15.976  -1.119 -47.608  1.00  0.00     0.345 HD
ATOM      4  H   UNL     1      17.519  -0.471 -47.775  1.00  0.00     0.345 HD
ATOM      5  H   UNL     1      16.386  -0.265 -49.030  1.00  0.00     0.345 HD
ENDBRANCH   1   2
BRANCH   1   6
ATOM      6  C   UNL     1      17.220   1.894 -47.245  1.00  0.00     0.099 C 
ATOM      7  O   UNL     1      17.979   1.842 -46.242  1.00  0.00    -0.544 OA
ATOM      8  O   UNL     1      17.462   2.834 -48.240  1.00  0.00    -0.544 OA
ENDBRANCH   1   6
BRANCH   1   9
ATOM      9  C   UNL     1      14.886   1.602 -48.162  1.00  0.00     0.047 C 
ATOM     10  C   UNL     1      13.857   2.245 -47.215  1.00  0.00     0.014 C 
ATOM     11  C   UNL     1      14.169   0.587 -49.070  1.00  0.00     0.014 C 
ENDBRANCH   1   9
TORSDOF 3
ENDMDL
MODEL 2
REMARK VINA RESULT:    -3.703     10.113     11.437
REMARK INTER + INTRA:          -4.302
REMARK INTER:                  -4.241
REMARK INTRA:                  -0.060
REMARK UNBOUND:                -0.057
REMARK SMILES CC(C)[C@@H]([NH3+])C(=O)[O-]
REMARK SMILES IDX 4 1 5 2 6 6 7 7 8 8 2 9 1 10 3 11
REMARK H PARENT 5 3 5 4 5 5
REMARK Flexibility Score: inf
ROOT
ATOM      1  C   UNL     1      26.785  -1.034 -48.207  1.00  0.00     0.230 C 
ENDROOT
BRANCH   1   2
ATOM      2  N   UNL     1      27.015  -0.128 -49.343  1.00  0.00    -0.350 N 
ATOM      3  H   UNL     1      26.150  -0.048 -49.923  1.00  0.00     0.345 HD
ATOM      4  H   UNL     1      27.766  -0.511 -49.962  1.00  0.00     0.345 HD
ATOM      5  H   UNL     1      27.302   0.821 -49.007  1.00  0.00     0.345 HD
ENDBRANCH   1   2
BRANCH   1   6
ATOM      6  C   UNL     1      25.301  -1.145 -47.952  1.00  0.00     0.099 C 
ATOM      7  O   UNL     1      24.688  -2.208 -48.233  1.00  0.00    -0.544 OA
ATOM      8  O   UNL     1      24.602  -0.074 -47.408  1.00  0.00    -0.544 OA
ENDBRANCH   1   6
BRANCH   1   9
ATOM      9  C   UNL     1      27.410  -2.441 -48.450  1.00  0.00     0.047 C 
ATOM     10  C   UNL     1      28.599  -2.693 -47.506  1.00  0.00     0.014 C 
ATOM     11  C   UNL     1      27.876  -2.617 -49.905  1.00  0.00     0.014 C 
ENDBRANCH   1   9
TORSDOF 3
ENDMDL
MODEL 3
REMARK VINA RESULT:    -3.681     15.914     16.443
REMARK INTER + INTRA:          -4.276
REMARK INTER:                  -4.252
REMARK INTRA:                  -0.024
REMARK UNBOUND:                -0.057
REMARK SMILES CC(C)[C@@H]([NH3+])C(=O)[O-]
REMARK SMILES IDX 4 1 5 2 6 6 7 7 8 8 2 9 1 10 3 11
REMARK H PARENT 5 3 5 4 5 5
REMARK Flexibility Score: inf
ROOT
ATOM      1  C   UNL     1      14.963  -5.443 -32.565  1.00  0.00     0.230 C 
ENDROOT
BRANCH   1   2
ATOM      2  N   UNL     1      14.861  -6.454 -31.502  1.00  0.00    -0.350 N 
ATOM      3  H   UNL     1      15.756  -6.509 -30.967  1.00  0.00     0.345 HD
ATOM      4  H   UNL     1      14.692  -7.399 -31.918  1.00  0.00     0.345 HD
ATOM      5  H   UNL     1      14.075  -6.226 -30.849  1.00  0.00     0.345 HD
ENDBRANCH   1   2
BRANCH   1   6
ATOM      6  C   UNL     1      16.376  -4.914 -32.613  1.00  0.00     0.099 C 
ATOM      7  O   UNL     1      16.877  -4.544 -33.707  1.00  0.00    -0.544 OA
ATOM      8  O   UNL     1      17.133  -4.834 -31.450  1.00  0.00    -0.544 OA
ENDBRANCH   1   6
BRANCH   1   9
ATOM      9  C   UNL     1      14.541  -6.015 -33.952  1.00  0.00     0.047 C 
ATOM     10  C   UNL     1      13.009  -6.058 -34.094  1.00  0.00     0.014 C 
ATOM     11  C   UNL     1      15.108  -7.425 -34.187  1.00  0.00     0.014 C 
ENDBRANCH   1   9
TORSDOF 3
ENDMDL
MODEL 4
REMARK VINA RESULT:    -3.680      2.305      3.449
REMARK INTER + INTRA:          -4.275
REMARK INTER:                  -4.227
REMARK INTRA:                  -0.048
REMARK UNBOUND:                -0.057
REMARK SMILES CC(C)[C@@H]([NH3+])C(=O)[O-]
REMARK SMILES IDX 4 1 5 2 6 6 7 7 8 8 2 9 1 10 3 11
REMARK H PARENT 5 3 5 4 5 5
REMARK Flexibility Score: inf
ROOT
ATOM      1  C   UNL     1      15.995   0.895 -48.385  1.00  0.00     0.230 C 
ENDROOT
BRANCH   1   2
ATOM      2  N   UNL     1      16.528  -0.424 -48.012  1.00  0.00    -0.350 N 
ATOM      3  H   UNL     1      17.553  -0.359 -47.820  1.00  0.00     0.345 HD
ATOM      4  H   UNL     1      16.405  -1.099 -48.801  1.00  0.00     0.345 HD
ATOM      5  H   UNL     1      16.035  -0.797 -47.167  1.00  0.00     0.345 HD
ENDBRANCH   1   2
BRANCH   1   6
ATOM      6  C   UNL     1      14.494   0.885 -48.232  1.00  0.00     0.099 C 
ATOM      7  O   UNL     1      13.759   1.302 -49.166  1.00  0.00    -0.544 OA
ATOM      8  O   UNL     1      13.912   0.419 -47.059  1.00  0.00    -0.544 OA
ENDBRANCH   1   6
BRANCH   1   9
ATOM      9  C   UNL     1      16.628   2.038 -47.536  1.00  0.00     0.047 C 
ATOM     10  C   UNL     1      17.629   2.861 -48.367  1.00  0.00     0.014 C 
ATOM     11  C   UNL     1      17.341   1.496 -46.285  1.00  0.00     0.014 C 
ENDBRANCH   1   9
TORSDOF 3
ENDMDL
MODEL 5
REMARK VINA RESULT:    -3.667      2.607      2.995
REMARK INTER + INTRA:          -4.260
REMARK INTER:                  -4.212
REMARK INTRA:                  -0.048
REMARK UNBOUND:                -0.057
REMARK SMILES CC(C)[C@@H]([NH3+])C(=O)[O-]
REMARK SMILES IDX 4 1 5 2 6 6 7 7 8 8 2 9 1 10 3 11
REMARK H PARENT 5 3 5 4 5 5
REMARK Flexibility Score: inf
ROOT
ATOM      1  C   UNL     1      15.953   0.648 -48.295  1.00  0.00     0.230 C 
ENDROOT
BRANCH   1   2
ATOM      2  N   UNL     1      16.848   0.331 -47.172  1.00  0.00    -0.350 N 
ATOM      3  H   UNL     1      17.778   0.785 -47.310  1.00  0.00     0.345 HD
ATOM      4  H   UNL     1      17.013  -0.701 -47.124  1.00  0.00     0.345 HD
ATOM      5  H   UNL     1      16.432   0.650 -46.266  1.00  0.00     0.345 HD
ENDBRANCH   1   2
BRANCH   1   6
ATOM      6  C   UNL     1      15.671  -0.610 -49.078  1.00  0.00     0.099 C 
ATOM      7  O   UNL     1      16.536  -1.523 -49.143  1.00  0.00    -0.544 OA
ATOM      8  O   UNL     1      14.455  -0.769 -49.733  1.00  0.00    -0.544 OA
ENDBRANCH   1   6
BRANCH   1   9
ATOM      9  C   UNL     1      14.626   1.307 -47.812  1.00  0.00     0.047 C 
ATOM     10  C   UNL     1      14.321   2.591 -48.603  1.00  0.00     0.014 C 
ATOM     11  C   UNL     1      14.664   1.638 -46.310  1.00  0.00     0.014 C 
ENDBRANCH   1   9
TORSDOF 3
ENDMDL
MODEL 6
REMARK VINA RESULT:    -3.606      2.142      2.657
REMARK INTER + INTRA:          -4.190
REMARK INTER:                  -4.124
REMARK INTRA:                  -0.066
REMARK UNBOUND:                -0.057
REMARK SMILES CC(C)[C@@H]([NH3+])C(=O)[O-]
REMARK SMILES IDX 4 1 5 2 6 6 7 7 8 8 2 9 1 10 3 11
REMARK H PARENT 5 3 5 4 5 5
REMARK Flexibility Score: inf
ROOT
ATOM      1  C   UNL     1      15.400   0.210 -47.600  1.00  0.00     0.230 C 
ENDROOT
BRANCH   1   2
ATOM      2  N   UNL     1      16.812   0.279 -47.195  1.00  0.00    -0.350 N 
ATOM      3  H   UNL     1      17.132   1.272 -47.166  1.00  0.00     0.345 HD
ATOM      4  H   UNL     1      17.412  -0.217 -47.894  1.00  0.00     0.345 HD
ATOM      5  H   UNL     1      16.949  -0.163 -46.256  1.00  0.00     0.345 HD
ENDBRANCH   1   2
BRANCH   1   6
ATOM      6  C   UNL     1      14.779   1.580 -47.475  1.00  0.00     0.099 C 
ATOM      7  O   UNL     1      14.140   1.893 -46.436  1.00  0.00    -0.544 OA
ATOM      8  O   UNL     1      14.908   2.503 -48.505  1.00  0.00    -0.544 OA
ENDBRANCH   1   6
BRANCH   1   9
ATOM      9  C   UNL     1      15.238  -0.338 -49.051  1.00  0.00     0.047 C 
ATOM     10  C   UNL     1      13.788  -0.778 -49.321  1.00  0.00     0.014 C 
ATOM     11  C   UNL     1      16.182  -1.521 -49.325  1.00  0.00     0.014 C 
ENDBRANCH   1   9
TORSDOF 3
ENDMDL
MODEL 7
REMARK VINA RESULT:    -3.538     16.210     16.952
REMARK INTER + INTRA:          -4.112
REMARK INTER:                  -4.047
REMARK INTRA:                  -0.065
REMARK UNBOUND:                -0.057
REMARK SMILES CC(C)[C@@H]([NH3+])C(=O)[O-]
REMARK SMILES IDX 4 1 5 2 6 6 7 7 8 8 2 9 1 10 3 11
REMARK H PARENT 5 3 5 4 5 5
REMARK Flexibility Score: inf
ROOT
ATOM      1  C   UNL     1      14.240  -6.782 -32.794  1.00  0.00     0.230 C 
ENDROOT
BRANCH   1   2
ATOM      2  N   UNL     1      14.787  -6.245 -31.538  1.00  0.00    -0.350 N 
ATOM      3  H   UNL     1      15.806  -6.462 -31.465  1.00  0.00     0.345 HD
ATOM      4  H   UNL     1      14.317  -6.696 -30.719  1.00  0.00     0.345 HD
ATOM      5  H   UNL     1      14.643  -5.210 -31.485  1.00  0.00     0.345 HD
ENDBRANCH   1   2
BRANCH   1   6
ATOM      6  C   UNL     1      12.786  -6.398 -32.907  1.00  0.00     0.099 C 
ATOM      7  O   UNL     1      12.373  -5.771 -33.918  1.00  0.00    -0.544 OA
ATOM      8  O   UNL     1      11.893  -6.731 -31.896  1.00  0.00    -0.544 OA
ENDBRANCH   1   6
BRANCH   1   9
ATOM      9  C   UNL     1      15.041  -6.284 -34.035  1.00  0.00     0.047 C 
ATOM     10  C   UNL     1      15.765  -7.448 -34.734  1.00  0.00     0.014 C 
ATOM     11  C   UNL     1      16.070  -5.205 -33.658  1.00  0.00     0.014 C 
ENDBRANCH   1   9
TORSDOF 3
ENDMDL
MODEL 8
REMARK VINA RESULT:    -3.520      1.756      2.307
REMARK INTER + INTRA:          -4.091
REMARK INTER:                  -4.037
REMARK INTRA:                  -0.055
REMARK UNBOUND:                -0.057
REMARK SMILES CC(C)[C@@H]([NH3+])C(=O)[O-]
REMARK SMILES IDX 4 1 5 2 6 6 7 7 8 8 2 9 1 10 3 11
REMARK H PARENT 5 3 5 4 5 5
REMARK Flexibility Score: inf
ROOT
ATOM      1  C   UNL     1      16.431   1.457 -47.911  1.00  0.00     0.230 C 
ENDROOT
BRANCH   1   2
ATOM      2  N   UNL     1      15.889   2.781 -48.250  1.00  0.00    -0.350 N 
ATOM      3  H   UNL     1      15.893   3.400 -47.408  1.00  0.00     0.345 HD
ATOM      4  H   UNL     1      14.896   2.695 -48.564  1.00  0.00     0.345 HD
ATOM      5  H   UNL     1      16.450   3.225 -49.015  1.00  0.00     0.345 HD
ENDBRANCH   1   2
BRANCH   1   6
ATOM      6  C   UNL     1      16.814   1.435 -46.451  1.00  0.00     0.099 C 
ATOM      7  O   UNL     1      15.958   1.140 -45.576  1.00  0.00    -0.544 OA
ATOM      8  O   UNL     1      18.113   1.742 -46.064  1.00  0.00    -0.544 OA
ENDBRANCH   1   6
BRANCH   1   9
ATOM      9  C   UNL     1      15.418   0.316 -48.232  1.00  0.00     0.047 C 
ATOM     10  C   UNL     1      16.048  -0.746 -49.150  1.00  0.00     0.014 C 
ATOM     11  C   UNL     1      14.137   0.856 -48.892  1.00  0.00     0.014 C 
ENDBRANCH   1   9
TORSDOF 3
ENDMDL
MODEL 9
REMARK VINA RESULT:    -3.486     16.204     16.783
REMARK INTER + INTRA:          -4.052
REMARK INTER:                  -3.995
REMARK INTRA:                  -0.058
REMARK UNBOUND:                -0.057
REMARK SMILES CC(C)[C@@H]([NH3+])C(=O)[O-]
REMARK SMILES IDX 4 1 5 2 6 6 7 7 8 8 2 9 1 10 3 11
REMARK H PARENT 5 3 5 4 5 5
REMARK Flexibility Score: inf
ROOT
ATOM      1  C   UNL     1      13.916  -5.679 -33.396  1.00  0.00     0.230 C 
ENDROOT
BRANCH   1   2
ATOM      2  N   UNL     1      13.289  -5.718 -34.725  1.00  0.00    -0.350 N 
ATOM      3  H   UNL     1      14.007  -5.572 -35.469  1.00  0.00     0.345 HD
ATOM      4  H   UNL     1      12.590  -4.944 -34.817  1.00  0.00     0.345 HD
ATOM      5  H   UNL     1      12.804  -6.633 -34.879  1.00  0.00     0.345 HD
ENDBRANCH   1   2
BRANCH   1   6
ATOM      6  C   UNL     1      13.111  -6.525 -32.440  1.00  0.00     0.099 C 
ATOM      7  O   UNL     1      11.857  -6.575 -32.541  1.00  0.00    -0.544 OA
ATOM      8  O   UNL     1      13.748  -7.252 -31.442  1.00  0.00    -0.544 OA
ENDBRANCH   1   6
BRANCH   1   9
ATOM      9  C   UNL     1      15.400  -6.157 -33.440  1.00  0.00     0.047 C 
ATOM     10  C   UNL     1      16.358  -4.979 -33.690  1.00  0.00     0.014 C 
ATOM     11  C   UNL     1      15.624  -7.227 -34.522  1.00  0.00     0.014 C 
ENDBRANCH   1   9
TORSDOF 3
ENDMDL
