MODEL 1
REMARK VINA RESULT:    -1.552      0.000      0.000
REMARK INTER + INTRA:          -1.827
REMARK INTER:                  -1.778
REMARK INTRA:                  -0.049
REMARK UNBOUND:                -0.049
REMARK SMILES CC(C)[C@@H]([NH3+])C(=O)[O-]
REMARK SMILES IDX 4 1 5 2 6 6 7 7 8 8 2 9 1 10 3 11
REMARK H PARENT 5 3 5 4 5 5
REMARK Flexibility Score: inf
ROOT
ATOM      1  C   UNL     1       1.720  -0.068  -6.713  1.00  0.00     0.230 C 
ENDROOT
BRANCH   1   2
ATOM      2  N   UNL     1       3.157  -0.241  -6.448  1.00  0.00    -0.350 N 
ATOM      3  H   UNL     1       3.446   0.401  -5.675  1.00  0.00     0.345 HD
ATOM      4  H   UNL     1       3.731  -0.022  -7.293  1.00  0.00     0.345 HD
ATOM      5  H   UNL     1       3.356  -1.218  -6.136  1.00  0.00     0.345 HD
ENDBRANCH   1   2
BRANCH   1   6
ATOM      6  C   UNL     1       1.140   1.010  -5.832  1.00  0.00     0.099 C 
ATOM      7  O   UNL     1       1.788   1.421  -4.833  1.00  0.00    -0.544 OA
ATOM      8  O   UNL     1      -0.127   1.527  -6.081  1.00  0.00    -0.544 OA
ENDBRANCH   1   6
BRANCH   1   9
ATOM      9  C   UNL     1       1.406   0.214  -8.213  1.00  0.00     0.047 C 
ATOM     10  C   UNL     1       2.662   0.388  -9.083  1.00  0.00     0.014 C 
ATOM     11  C   UNL     1       0.489  -0.859  -8.819  1.00  0.00     0.014 C 
ENDBRANCH   1   9
TORSDOF 3
ENDMDL
MODEL 2
REMARK VINA RESULT:    -0.830      4.672      6.073
REMARK INTER + INTRA:          -1.000
REMARK INTER:                  -0.939
REMARK INTRA:                  -0.061
REMARK UNBOUND:                -0.049
REMARK SMILES CC(C)[C@@H]([NH3+])C(=O)[O-]
REMARK SMILES IDX 4 1 5 2 6 6 7 7 8 8 2 9 1 10 3 11
REMARK H PARENT 5 3 5 4 5 5
REMARK Flexibility Score: inf
ROOT
ATOM      1  C   UNL     1      -1.912   3.804  -4.958  1.00  0.00     0.230 C 
ENDROOT
BRANCH   1   2
ATOM      2  N   UNL     1      -1.753   4.854  -5.977  1.00  0.00    -0.350 N 
ATOM      3  H   UNL     1      -1.127   5.605  -5.606  1.00  0.00     0.345 HD
ATOM      4  H   UNL     1      -2.671   5.283  -6.230  1.00  0.00     0.345 HD
ATOM      5  H   UNL     1      -1.303   4.464  -6.836  1.00  0.00     0.345 HD
ENDBRANCH   1   2
BRANCH   1   6
ATOM      6  C   UNL     1      -1.026   2.622  -5.266  1.00  0.00     0.099 C 
ATOM      7  O   UNL     1       0.087   2.505  -4.689  1.00  0.00    -0.544 OA
ATOM      8  O   UNL     1      -1.402   1.680  -6.217  1.00  0.00    -0.544 OA
ENDBRANCH   1   6
BRANCH   1   9
ATOM      9  C   UNL     1      -1.667   4.319  -3.509  1.00  0.00     0.047 C 
ATOM     10  C   UNL     1      -1.709   5.851  -3.384  1.00  0.00     0.014 C 
ATOM     11  C   UNL     1      -2.634   3.679  -2.501  1.00  0.00     0.014 C 
ENDBRANCH   1   9
TORSDOF 3
ENDMDL
MODEL 3
REMARK VINA RESULT:    -0.706      3.692      5.019
REMARK INTER + INTRA:          -0.858
REMARK INTER:                  -0.798
REMARK INTRA:                  -0.060
REMARK UNBOUND:                -0.049
REMARK SMILES CC(C)[C@@H]([NH3+])C(=O)[O-]
REMARK SMILES IDX 4 1 5 2 6 6 7 7 8 8 2 9 1 10 3 11
REMARK H PARENT 5 3 5 4 5 5
REMARK Flexibility Score: inf
ROOT
ATOM      1  C   UNL     1      -1.263   2.382  -5.228  1.00  0.00     0.230 C 
ENDROOT
BRANCH   1   2
ATOM      2  N   UNL     1      -1.977   2.385  -6.515  1.00  0.00    -0.350 N 
ATOM      3  H   UNL     1      -2.974   2.108  -6.359  1.00  0.00     0.345 HD
ATOM      4  H   UNL     1      -1.549   1.714  -7.192  1.00  0.00     0.345 HD
ATOM      5  H   UNL     1      -1.979   3.344  -6.929  1.00  0.00     0.345 HD
ENDBRANCH   1   2
BRANCH   1   6
ATOM      6  C   UNL     1       0.150   1.881  -5.403  1.00  0.00     0.099 C 
ATOM      7  O   UNL     1       1.060   2.288  -4.634  1.00  0.00    -0.544 OA
ATOM      8  O   UNL     1       0.471   1.008  -6.436  1.00  0.00    -0.544 OA
ENDBRANCH   1   6
BRANCH   1   9
ATOM      9  C   UNL     1      -1.276   3.770  -4.521  1.00  0.00     0.047 C 
ATOM     10  C   UNL     1      -1.884   4.892  -5.377  1.00  0.00     0.014 C 
ATOM     11  C   UNL     1      -1.975   3.709  -3.154  1.00  0.00     0.014 C 
ENDBRANCH   1   9
TORSDOF 3
ENDMDL
MODEL 4
REMARK VINA RESULT:    -0.535      4.464      5.290
REMARK INTER + INTRA:          -0.662
REMARK INTER:                  -0.616
REMARK INTRA:                  -0.046
REMARK UNBOUND:                -0.049
REMARK SMILES CC(C)[C@@H]([NH3+])C(=O)[O-]
REMARK SMILES IDX 4 1 5 2 6 6 7 7 8 8 2 9 1 10 3 11
REMARK H PARENT 5 3 5 4 5 5
REMARK Flexibility Score: inf
ROOT
ATOM      1  C   UNL     1      -1.058   3.827  -4.670  1.00  0.00     0.230 C 
ENDROOT
BRANCH   1   2
ATOM      2  N   UNL     1      -1.928   4.464  -5.672  1.00  0.00    -0.350 N 
ATOM      3  H   UNL     1      -2.434   5.266  -5.231  1.00  0.00     0.345 HD
ATOM      4  H   UNL     1      -2.635   3.792  -6.047  1.00  0.00     0.345 HD
ATOM      5  H   UNL     1      -1.359   4.846  -6.460  1.00  0.00     0.345 HD
ENDBRANCH   1   2
BRANCH   1   6
ATOM      6  C   UNL     1      -1.586   4.063  -3.277  1.00  0.00     0.099 C 
ATOM      7  O   UNL     1      -2.767   3.735  -2.988  1.00  0.00    -0.544 OA
ATOM      8  O   UNL     1      -0.797   4.683  -2.315  1.00  0.00    -0.544 OA
ENDBRANCH   1   6
BRANCH   1   9
ATOM      9  C   UNL     1      -0.842   2.306  -4.931  1.00  0.00     0.047 C 
ATOM     10  C   UNL     1      -1.537   1.793  -6.203  1.00  0.00     0.014 C 
ATOM     11  C   UNL     1       0.649   1.935  -4.956  1.00  0.00     0.014 C 
ENDBRANCH   1   9
TORSDOF 3
ENDMDL
MODEL 5
REMARK VINA RESULT:     0.108      2.260      3.253
REMARK INTER + INTRA:           0.075
REMARK INTER:                  -0.038
REMARK INTRA:                   0.113
REMARK UNBOUND:                -0.049
REMARK SMILES CC(C)[C@@H]([NH3+])C(=O)[O-]
REMARK SMILES IDX 4 1 5 2 6 6 7 7 8 8 2 9 1 10 3 11
REMARK H PARENT 5 3 5 4 5 5
REMARK Flexibility Score: inf
ROOT
ATOM      1  C   UNL     1       2.312   0.474  -7.521  1.00  0.00     0.230 C 
ENDROOT
BRANCH   1   2
ATOM      2  N   UNL     1       3.666  -0.073  -7.335  1.00  0.00    -0.350 N 
ATOM      3  H   UNL     1       4.372   0.668  -7.550  1.00  0.00     0.345 HD
ATOM      4  H   UNL     1       3.838  -0.888  -7.966  1.00  0.00     0.345 HD
ATOM      5  H   UNL     1       3.808  -0.366  -6.343  1.00  0.00     0.345 HD
ENDBRANCH   1   2
BRANCH   1   6
ATOM      6  C   UNL     1       1.656  -0.124  -8.741  1.00  0.00     0.099 C 
ATOM      7  O   UNL     1       2.159   0.064  -9.880  1.00  0.00    -0.544 OA
ATOM      8  O   UNL     1       0.473  -0.845  -8.629  1.00  0.00    -0.544 OA
ENDBRANCH   1   6
BRANCH   1   9
ATOM      9  C   UNL     1       1.408   0.302  -6.264  1.00  0.00     0.047 C 
ATOM     10  C   UNL     1       2.172   0.414  -4.935  1.00  0.00     0.014 C 
ATOM     11  C   UNL     1       0.219   1.275  -6.275  1.00  0.00     0.014 C 
ENDBRANCH   1   9
TORSDOF 3
ENDMDL
MODEL 6
REMARK VINA RESULT:     0.241      2.489      3.384
REMARK INTER + INTRA:           0.227
REMARK INTER:                  -0.393
REMARK INTRA:                   0.620
REMARK UNBOUND:                -0.049
REMARK SMILES CC(C)[C@@H]([NH3+])C(=O)[O-]
REMARK SMILES IDX 4 1 5 2 6 6 7 7 8 8 2 9 1 10 3 11
REMARK H PARENT 5 3 5 4 5 5
REMARK Flexibility Score: inf
ROOT
ATOM      1  C   UNL     1       0.891   0.084  -6.819  1.00  0.00     0.230 C 
ENDROOT
BRANCH   1   2
ATOM      2  N   UNL     1       0.223   1.377  -6.598  1.00  0.00    -0.350 N 
ATOM      3  H   UNL     1      -0.388   1.596  -7.418  1.00  0.00     0.345 HD
ATOM      4  H   UNL     1       0.917   2.150  -6.486  1.00  0.00     0.345 HD
ATOM      5  H   UNL     1      -0.389   1.332  -5.753  1.00  0.00     0.345 HD
ENDBRANCH   1   2
BRANCH   1   6
ATOM      6  C   UNL     1       1.211  -0.110  -8.280  1.00  0.00     0.099 C 
ATOM      7  O   UNL     1       0.669  -1.048  -8.923  1.00  0.00    -0.544 OA
ATOM      8  O   UNL     1       2.135   0.708  -8.919  1.00  0.00    -0.544 OA
ENDBRANCH   1   6
BRANCH   1   9
ATOM      9  C   UNL     1       2.166  -0.101  -5.943  1.00  0.00     0.047 C 
ATOM     10  C   UNL     1       3.461  -0.236  -6.760  1.00  0.00     0.014 C 
ATOM     11  C   UNL     1       2.313   1.019  -4.901  1.00  0.00     0.014 C 
ENDBRANCH   1   9
TORSDOF 3
ENDMDL
MODEL 7
REMARK VINA RESULT:     0.531      1.658      2.328
REMARK INTER + INTRA:           0.559
REMARK INTER:                   0.602
REMARK INTRA:                  -0.043
REMARK UNBOUND:                -0.049
REMARK SMILES CC(C)[C@@H]([NH3+])C(=O)[O-]
REMARK SMILES IDX 4 1 5 2 6 6 7 7 8 8 2 9 1 10 3 11
REMARK H PARENT 5 3 5 4 5 5
REMARK Flexibility Score: inf
ROOT
ATOM      1  C   UNL     1       1.351   0.782  -7.092  1.00  0.00     0.230 C 
ENDROOT
BRANCH   1   2
ATOM      2  N   UNL     1      -0.045   0.954  -6.659  1.00  0.00    -0.350 N 
ATOM      3  H   UNL     1      -0.685   0.733  -7.457  1.00  0.00     0.345 HD
ATOM      4  H   UNL     1      -0.231   1.934  -6.348  1.00  0.00     0.345 HD
ATOM      5  H   UNL     1      -0.271   0.294  -5.882  1.00  0.00     0.345 HD
ENDBRANCH   1   2
BRANCH   1   6
ATOM      6  C   UNL     1       2.234   0.431  -5.920  1.00  0.00     0.099 C 
ATOM      7  O   UNL     1       2.002   0.929  -4.787  1.00  0.00    -0.544 OA
ATOM      8  O   UNL     1       3.334  -0.404  -6.084  1.00  0.00    -0.544 OA
ENDBRANCH   1   6
BRANCH   1   9
ATOM      9  C   UNL     1       1.510  -0.262  -8.238  1.00  0.00     0.047 C 
ATOM     10  C   UNL     1       0.172  -0.788  -8.782  1.00  0.00     0.014 C 
ATOM     11  C   UNL     1       2.374   0.278  -9.388  1.00  0.00     0.014 C 
ENDBRANCH   1   9
TORSDOF 3
ENDMDL
MODEL 8
REMARK VINA RESULT:     0.631      2.344      3.500
REMARK INTER + INTRA:           0.674
REMARK INTER:                   0.408
REMARK INTRA:                   0.267
REMARK UNBOUND:                -0.049
REMARK SMILES CC(C)[C@@H]([NH3+])C(=O)[O-]
REMARK SMILES IDX 4 1 5 2 6 6 7 7 8 8 2 9 1 10 3 11
REMARK H PARENT 5 3 5 4 5 5
REMARK Flexibility Score: inf
ROOT
ATOM      1  C   UNL     1       0.840   1.721  -5.801  1.00  0.00     0.230 C 
ENDROOT
BRANCH   1   2
ATOM      2  N   UNL     1       1.816   1.867  -4.709  1.00  0.00    -0.350 N 
ATOM      3  H   UNL     1       1.732   2.824  -4.295  1.00  0.00     0.345 HD
ATOM      4  H   UNL     1       2.795   1.739  -5.051  1.00  0.00     0.345 HD
ATOM      5  H   UNL     1       1.619   1.178  -3.949  1.00  0.00     0.345 HD
ENDBRANCH   1   2
BRANCH   1   6
ATOM      6  C   UNL     1       1.086   0.446  -6.570  1.00  0.00     0.099 C 
ATOM      7  O   UNL     1       1.722  -0.499  -6.033  1.00  0.00    -0.544 OA
ATOM      8  O   UNL     1       0.658   0.317  -7.886  1.00  0.00    -0.544 OA
ENDBRANCH   1   6
BRANCH   1   9
ATOM      9  C   UNL     1      -0.637   1.798  -5.313  1.00  0.00     0.047 C 
ATOM     10  C   UNL     1      -0.955   3.068  -4.507  1.00  0.00     0.014 C 
ATOM     11  C   UNL     1      -1.633   1.645  -6.473  1.00  0.00     0.014 C 
ENDBRANCH   1   9
TORSDOF 3
ENDMDL
MODEL 9
REMARK VINA RESULT:     0.814      5.185      6.241
REMARK INTER + INTRA:           0.884
REMARK INTER:                   0.901
REMARK INTRA:                  -0.017
REMARK UNBOUND:                -0.049
REMARK SMILES CC(C)[C@@H]([NH3+])C(=O)[O-]
REMARK SMILES IDX 4 1 5 2 6 6 7 7 8 8 2 9 1 10 3 11
REMARK H PARENT 5 3 5 4 5 5
REMARK Flexibility Score: inf
ROOT
ATOM      1  C   UNL     1      -1.971   4.380  -3.500  1.00  0.00     0.230 C 
ENDROOT
BRANCH   1   2
ATOM      2  N   UNL     1      -0.881   4.421  -2.511  1.00  0.00    -0.350 N 
ATOM      3  H   UNL     1      -0.729   5.409  -2.205  1.00  0.00     0.345 HD
ATOM      4  H   UNL     1       0.012   4.057  -2.912  1.00  0.00     0.345 HD
ATOM      5  H   UNL     1      -1.136   3.864  -1.664  1.00  0.00     0.345 HD
ENDBRANCH   1   2
BRANCH   1   6
ATOM      6  C   UNL     1      -2.010   5.655  -4.305  1.00  0.00     0.099 C 
ATOM      7  O   UNL     1      -2.093   5.602  -5.561  1.00  0.00    -0.544 OA
ATOM      8  O   UNL     1      -1.909   6.893  -3.680  1.00  0.00    -0.544 OA
ENDBRANCH   1   6
BRANCH   1   9
ATOM      9  C   UNL     1      -1.899   3.135  -4.435  1.00  0.00     0.047 C 
ATOM     10  C   UNL     1      -0.464   2.719  -4.797  1.00  0.00     0.014 C 
ATOM     11  C   UNL     1      -2.667   1.937  -3.855  1.00  0.00     0.014 C 
ENDBRANCH   1   9
TORSDOF 3
ENDMDL
