MODEL 1
REMARK VINA RESULT:    -3.496      0.000      0.000
REMARK INTER + INTRA:          -4.294
REMARK INTER:                  -4.109
REMARK INTRA:                  -0.185
REMARK UNBOUND:                -0.185
REMARK SMILES O=C([O-])CCC(=O)[O-]
REMARK SMILES IDX 4 1 2 2 1 3 3 4 5 5 6 6 7 7 8 8
REMARK H PARENT
REMARK Flexibility Score: inf
ROOT
ATOM      1  C   UNL     1      54.438  17.051   2.399  1.00  0.00     0.059 C 
ENDROOT
BRANCH   1   2
ATOM      2  C   UNL     1      53.162  16.644   1.734  1.00  0.00     0.042 C 
ATOM      3  O   UNL     1      52.371  17.518   1.292  1.00  0.00    -0.550 OA
ATOM      4  O   UNL     1      52.822  15.300   1.645  1.00  0.00    -0.550 OA
ENDBRANCH   1   2
BRANCH   1   5
ATOM      5  C   UNL     1      55.336  17.808   1.419  1.00  0.00     0.059 C 
BRANCH   5   6
ATOM      6  C   UNL     1      55.763  16.912   0.300  1.00  0.00     0.042 C 
ATOM      7  O   UNL     1      56.480  15.905   0.534  1.00  0.00    -0.550 OA
ATOM      8  O   UNL     1      55.410  17.218  -1.008  1.00  0.00    -0.550 OA
ENDBRANCH   5   6
ENDBRANCH   1   5
TORSDOF 3
ENDMDL
MODEL 2
REMARK VINA RESULT:    -3.495      2.454      3.518
REMARK INTER + INTRA:          -4.293
REMARK INTER:                  -4.110
REMARK INTRA:                  -0.183
REMARK UNBOUND:                -0.185
REMARK SMILES O=C([O-])CCC(=O)[O-]
REMARK SMILES IDX 4 1 2 2 1 3 3 4 5 5 6 6 7 7 8 8
REMARK H PARENT
REMARK Flexibility Score: inf
ROOT
ATOM      1  C   UNL     1      53.528  15.616  -1.785  1.00  0.00     0.059 C 
ENDROOT
BRANCH   1   2
ATOM      2  C   UNL     1      53.406  16.930  -1.080  1.00  0.00     0.042 C 
ATOM      3  O   UNL     1      52.301  17.288  -0.594  1.00  0.00    -0.550 OA
ATOM      4  O   UNL     1      54.501  17.782  -1.004  1.00  0.00    -0.550 OA
ENDBRANCH   1   2
BRANCH   1   5
ATOM      5  C   UNL     1      53.182  14.466  -0.838  1.00  0.00     0.059 C 
BRANCH   5   6
ATOM      6  C   UNL     1      54.146  14.419   0.305  1.00  0.00     0.042 C 
ATOM      7  O   UNL     1      55.367  14.206   0.094  1.00  0.00    -0.550 OA
ATOM      8  O   UNL     1      53.685  14.562   1.608  1.00  0.00    -0.550 OA
ENDBRANCH   5   6
ENDBRANCH   1   5
TORSDOF 3
ENDMDL
MODEL 3
REMARK VINA RESULT:    -3.492      2.450      3.476
REMARK INTER + INTRA:          -4.290
REMARK INTER:                  -4.104
REMARK INTRA:                  -0.187
REMARK UNBOUND:                -0.185
REMARK SMILES O=C([O-])CCC(=O)[O-]
REMARK SMILES IDX 4 1 2 2 1 3 3 4 5 5 6 6 7 7 8 8
REMARK H PARENT
REMARK Flexibility Score: inf
ROOT
ATOM      1  C   UNL     1      53.242  14.496  -0.851  1.00  0.00     0.059 C 
ENDROOT
BRANCH   1   2
ATOM      2  C   UNL     1      54.178  14.538   0.315  1.00  0.00     0.042 C 
ATOM      3  O   UNL     1      53.727  14.625   1.488  1.00  0.00    -0.550 OA
ATOM      4  O   UNL     1      55.552  14.533   0.104  1.00  0.00    -0.550 OA
ENDBRANCH   1   2
BRANCH   1   5
ATOM      5  C   UNL     1      53.563  15.620  -1.837  1.00  0.00     0.059 C 
BRANCH   5   6
ATOM      6  C   UNL     1      53.350  16.955  -1.197  1.00  0.00     0.042 C 
ATOM      7  O   UNL     1      52.205  17.290  -0.797  1.00  0.00    -0.550 OA
ATOM      8  O   UNL     1      54.407  17.850  -1.087  1.00  0.00    -0.550 OA
ENDBRANCH   5   6
ENDBRANCH   1   5
TORSDOF 3
ENDMDL
MODEL 4
REMARK VINA RESULT:    -3.485      0.189      3.328
REMARK INTER + INTRA:          -4.282
REMARK INTER:                  -4.096
REMARK INTRA:                  -0.186
REMARK UNBOUND:                -0.185
REMARK SMILES O=C([O-])CCC(=O)[O-]
REMARK SMILES IDX 4 1 2 2 1 3 3 4 5 5 6 6 7 7 8 8
REMARK H PARENT
REMARK Flexibility Score: inf
ROOT
ATOM      1  C   UNL     1      55.373  17.796   1.367  1.00  0.00     0.059 C 
ENDROOT
BRANCH   1   2
ATOM      2  C   UNL     1      55.673  16.918   0.194  1.00  0.00     0.042 C 
ATOM      3  O   UNL     1      55.373  17.291  -0.970  1.00  0.00    -0.550 OA
ATOM      4  O   UNL     1      56.239  15.664   0.392  1.00  0.00    -0.550 OA
ENDBRANCH   1   2
BRANCH   1   5
ATOM      5  C   UNL     1      54.532  17.043   2.399  1.00  0.00     0.059 C 
BRANCH   5   6
ATOM      6  C   UNL     1      53.180  16.726   1.842  1.00  0.00     0.042 C 
ATOM      7  O   UNL     1      52.399  17.654   1.509  1.00  0.00    -0.550 OA
ATOM      8  O   UNL     1      52.764  15.404   1.738  1.00  0.00    -0.550 OA
ENDBRANCH   5   6
ENDBRANCH   1   5
TORSDOF 3
ENDMDL
MODEL 5
REMARK VINA RESULT:    -3.481      2.478      3.504
REMARK INTER + INTRA:          -4.277
REMARK INTER:                  -4.096
REMARK INTRA:                  -0.181
REMARK UNBOUND:                -0.185
REMARK SMILES O=C([O-])CCC(=O)[O-]
REMARK SMILES IDX 4 1 2 2 1 3 3 4 5 5 6 6 7 7 8 8
REMARK H PARENT
REMARK Flexibility Score: inf
ROOT
ATOM      1  C   UNL     1      53.251  14.453  -0.822  1.00  0.00     0.059 C 
ENDROOT
BRANCH   1   2
ATOM      2  C   UNL     1      54.248  14.411   0.292  1.00  0.00     0.042 C 
ATOM      3  O   UNL     1      55.446  14.102   0.060  1.00  0.00    -0.550 OA
ATOM      4  O   UNL     1      53.842  14.666   1.597  1.00  0.00    -0.550 OA
ENDBRANCH   1   2
BRANCH   1   5
ATOM      5  C   UNL     1      53.598  15.568  -1.810  1.00  0.00     0.059 C 
BRANCH   5   6
ATOM      6  C   UNL     1      53.457  16.907  -1.158  1.00  0.00     0.042 C 
ATOM      7  O   UNL     1      52.351  17.264  -0.676  1.00  0.00    -0.550 OA
ATOM      8  O   UNL     1      54.537  17.782  -1.128  1.00  0.00    -0.550 OA
ENDBRANCH   5   6
ENDBRANCH   1   5
TORSDOF 3
ENDMDL
MODEL 6
REMARK VINA RESULT:    -3.361      2.512      3.831
REMARK INTER + INTRA:          -4.135
REMARK INTER:                  -4.014
REMARK INTRA:                  -0.122
REMARK UNBOUND:                -0.185
REMARK SMILES O=C([O-])CCC(=O)[O-]
REMARK SMILES IDX 4 1 2 2 1 3 3 4 5 5 6 6 7 7 8 8
REMARK H PARENT
REMARK Flexibility Score: inf
ROOT
ATOM      1  C   UNL     1      54.101  14.923   1.078  1.00  0.00     0.059 C 
ENDROOT
BRANCH   1   2
ATOM      2  C   UNL     1      53.937  14.151  -0.193  1.00  0.00     0.042 C 
ATOM      3  O   UNL     1      54.580  13.083  -0.373  1.00  0.00    -0.550 OA
ATOM      4  O   UNL     1      53.112  14.637  -1.200  1.00  0.00    -0.550 OA
ENDBRANCH   1   2
BRANCH   1   5
ATOM      5  C   UNL     1      52.738  15.361   1.618  1.00  0.00     0.059 C 
BRANCH   5   6
ATOM      6  C   UNL     1      52.624  16.853   1.605  1.00  0.00     0.042 C 
ATOM      7  O   UNL     1      52.402  17.461   0.526  1.00  0.00    -0.550 OA
ATOM      8  O   UNL     1      52.813  17.574   2.777  1.00  0.00    -0.550 OA
ENDBRANCH   5   6
ENDBRANCH   1   5
TORSDOF 3
ENDMDL
MODEL 7
REMARK VINA RESULT:    -3.352      2.544      3.681
REMARK INTER + INTRA:          -4.125
REMARK INTER:                  -4.004
REMARK INTRA:                  -0.121
REMARK UNBOUND:                -0.185
REMARK SMILES O=C([O-])CCC(=O)[O-]
REMARK SMILES IDX 4 1 2 2 1 3 3 4 5 5 6 6 7 7 8 8
REMARK H PARENT
REMARK Flexibility Score: inf
ROOT
ATOM      1  C   UNL     1      55.471  17.128  -0.995  1.00  0.00     0.059 C 
ENDROOT
BRANCH   1   2
ATOM      2  C   UNL     1      56.128  16.479   0.181  1.00  0.00     0.042 C 
ATOM      3  O   UNL     1      56.049  15.233   0.343  1.00  0.00    -0.550 OA
ATOM      4  O   UNL     1      56.785  17.257   1.127  1.00  0.00    -0.550 OA
ENDBRANCH   1   2
BRANCH   1   5
ATOM      5  C   UNL     1      53.988  17.377  -0.712  1.00  0.00     0.059 C 
BRANCH   5   6
ATOM      6  C   UNL     1      53.135  16.549  -1.620  1.00  0.00     0.042 C 
ATOM      7  O   UNL     1      53.318  15.307  -1.702  1.00  0.00    -0.550 OA
ATOM      8  O   UNL     1      52.171  17.158  -2.413  1.00  0.00    -0.550 OA
ENDBRANCH   5   6
ENDBRANCH   1   5
TORSDOF 3
ENDMDL
MODEL 8
REMARK VINA RESULT:    -3.327      2.496      2.715
REMARK INTER + INTRA:          -4.096
REMARK INTER:                  -3.981
REMARK INTRA:                  -0.115
REMARK UNBOUND:                -0.185
REMARK SMILES O=C([O-])CCC(=O)[O-]
REMARK SMILES IDX 4 1 2 2 1 3 3 4 5 5 6 6 7 7 8 8
REMARK H PARENT
REMARK Flexibility Score: inf
ROOT
ATOM      1  C   UNL     1      54.006  17.527  -0.829  1.00  0.00     0.059 C 
ENDROOT
BRANCH   1   2
ATOM      2  C   UNL     1      53.068  16.664  -1.612  1.00  0.00     0.042 C 
ATOM      3  O   UNL     1      52.138  17.185  -2.283  1.00  0.00    -0.550 OA
ATOM      4  O   UNL     1      53.191  15.281  -1.562  1.00  0.00    -0.550 OA
ENDBRANCH   1   2
BRANCH   1   5
ATOM      5  C   UNL     1      55.456  17.108  -1.080  1.00  0.00     0.059 C 
BRANCH   5   6
ATOM      6  C   UNL     1      56.056  16.530   0.162  1.00  0.00     0.042 C 
ATOM      7  O   UNL     1      56.103  15.283   0.322  1.00  0.00    -0.550 OA
ATOM      8  O   UNL     1      56.520  17.371   1.166  1.00  0.00    -0.550 OA
ENDBRANCH   5   6
ENDBRANCH   1   5
TORSDOF 3
ENDMDL
MODEL 9
REMARK VINA RESULT:    -3.198      2.049      2.685
REMARK INTER + INTRA:          -3.944
REMARK INTER:                  -3.844
REMARK INTRA:                  -0.101
REMARK UNBOUND:                -0.185
REMARK SMILES O=C([O-])CCC(=O)[O-]
REMARK SMILES IDX 4 1 2 2 1 3 3 4 5 5 6 6 7 7 8 8
REMARK H PARENT
REMARK Flexibility Score: inf
ROOT
ATOM      1  C   UNL     1      52.929  15.296   1.501  1.00  0.00     0.059 C 
ENDROOT
BRANCH   1   2
ATOM      2  C   UNL     1      52.873  16.784   1.648  1.00  0.00     0.042 C 
ATOM      3  O   UNL     1      53.778  17.394   2.276  1.00  0.00    -0.550 OA
ATOM      4  O   UNL     1      51.794  17.493   1.133  1.00  0.00    -0.550 OA
ENDBRANCH   1   2
BRANCH   1   5
ATOM      5  C   UNL     1      53.272  14.913   0.060  1.00  0.00     0.059 C 
BRANCH   5   6
ATOM      6  C   UNL     1      54.610  14.247  -0.000  1.00  0.00     0.042 C 
ATOM      7  O   UNL     1      54.701  13.039  -0.341  1.00  0.00    -0.550 OA
ATOM      8  O   UNL     1      55.752  14.947   0.369  1.00  0.00    -0.550 OA
ENDBRANCH   5   6
ENDBRANCH   1   5
TORSDOF 3
ENDMDL
