MODEL 1
REMARK VINA RESULT:    -3.337      0.000      0.000
REMARK INTER + INTRA:          -6.432
REMARK INTER:                  -5.288
REMARK INTRA:                  -1.144
REMARK UNBOUND:                -1.144
REMARK SMILES CCCCCCCCCCCC(=O)[O-]
REMARK SMILES IDX 7 1 8 2 9 3 10 4 11 5 12 6 13 7 14 8 6 9 5 10 4 11 3 12 2 13
REMARK SMILES IDX 1 14
REMARK H PARENT
REMARK Flexibility Score: inf
ROOT
ATOM      1  C   UNL     1      61.003  31.475  60.197  1.00  0.00     0.000 C 
ENDROOT
BRANCH   1   2
ATOM      2  C   UNL     1      61.256  31.046  61.652  1.00  0.00     0.000 C 
BRANCH   2   3
ATOM      3  C   UNL     1      62.221  29.853  61.755  1.00  0.00     0.000 C 
BRANCH   3   4
ATOM      4  C   UNL     1      63.695  30.262  61.576  1.00  0.00     0.006 C 
BRANCH   4   5
ATOM      5  C   UNL     1      64.390  29.621  60.365  1.00  0.00     0.053 C 
BRANCH   5   6
ATOM      6  C   UNL     1      65.356  28.551  60.771  1.00  0.00     0.041 C 
ATOM      7  O   UNL     1      66.484  28.859  61.237  1.00  0.00    -0.550 OA
ATOM      8  O   UNL     1      64.996  27.214  60.667  1.00  0.00    -0.550 OA
ENDBRANCH   5   6
ENDBRANCH   4   5
ENDBRANCH   3   4
ENDBRANCH   2   3
ENDBRANCH   1   2
BRANCH   1   9
ATOM      9  C   UNL     1      61.411  32.932  59.929  1.00  0.00     0.000 C 
BRANCH   9  10
ATOM     10  C   UNL     1      62.567  33.001  58.919  1.00  0.00    -0.000 C 
BRANCH  10  11
ATOM     11  C   UNL     1      63.898  33.418  59.577  1.00  0.00    -0.000 C 
BRANCH  11  12
ATOM     12  C   UNL     1      63.751  33.921  61.025  1.00  0.00    -0.000 C 
BRANCH  12  13
ATOM     13  C   UNL     1      63.853  35.452  61.175  1.00  0.00    -0.003 C 
ATOM     14  C   UNL     1      65.158  35.893  61.841  1.00  0.00     0.004 C 
ENDBRANCH  12  13
ENDBRANCH  11  12
ENDBRANCH  10  11
ENDBRANCH   9  10
ENDBRANCH   1   9
TORSDOF 10
ENDMDL
MODEL 2
REMARK VINA RESULT:    -3.322     12.152     13.967
REMARK INTER + INTRA:          -6.407
REMARK INTER:                  -5.046
REMARK INTRA:                  -1.361
REMARK UNBOUND:                -1.144
REMARK SMILES CCCCCCCCCCCC(=O)[O-]
REMARK SMILES IDX 7 1 8 2 9 3 10 4 11 5 12 6 13 7 14 8 6 9 5 10 4 11 3 12 2 13
REMARK SMILES IDX 1 14
REMARK H PARENT
REMARK Flexibility Score: inf
ROOT
ATOM      1  C   UNL     1      56.037  28.312  50.419  1.00  0.00     0.000 C 
ENDROOT
BRANCH   1   2
ATOM      2  C   UNL     1      56.826  28.117  51.724  1.00  0.00     0.000 C 
BRANCH   2   3
ATOM      3  C   UNL     1      57.928  27.052  51.593  1.00  0.00     0.000 C 
BRANCH   3   4
ATOM      4  C   UNL     1      57.970  26.409  50.194  1.00  0.00     0.006 C 
BRANCH   4   5
ATOM      5  C   UNL     1      59.362  26.392  49.544  1.00  0.00     0.053 C 
BRANCH   5   6
ATOM      6  C   UNL     1      59.940  27.768  49.413  1.00  0.00     0.041 C 
ATOM      7  O   UNL     1      61.130  27.991  49.755  1.00  0.00    -0.550 OA
ATOM      8  O   UNL     1      59.173  28.796  48.880  1.00  0.00    -0.550 OA
ENDBRANCH   5   6
ENDBRANCH   4   5
ENDBRANCH   3   4
ENDBRANCH   2   3
ENDBRANCH   1   2
BRANCH   1   9
ATOM      9  C   UNL     1      54.534  28.521  50.660  1.00  0.00     0.000 C 
BRANCH   9  10
ATOM     10  C   UNL     1      53.700  27.590  49.766  1.00  0.00    -0.000 C 
BRANCH  10  11
ATOM     11  C   UNL     1      54.434  26.271  49.446  1.00  0.00    -0.000 C 
BRANCH  11  12
ATOM     12  C   UNL     1      53.713  25.011  49.963  1.00  0.00    -0.000 C 
BRANCH  12  13
ATOM     13  C   UNL     1      53.421  25.027  51.476  1.00  0.00    -0.003 C 
ATOM     14  C   UNL     1      54.694  25.075  52.322  1.00  0.00     0.004 C 
ENDBRANCH  12  13
ENDBRANCH  11  12
ENDBRANCH  10  11
ENDBRANCH   9  10
ENDBRANCH   1   9
TORSDOF 10
ENDMDL
MODEL 3
REMARK VINA RESULT:    -3.295     11.799     13.285
REMARK INTER + INTRA:          -6.365
REMARK INTER:                  -5.106
REMARK INTRA:                  -1.259
REMARK UNBOUND:                -1.144
REMARK SMILES CCCCCCCCCCCC(=O)[O-]
REMARK SMILES IDX 7 1 8 2 9 3 10 4 11 5 12 6 13 7 14 8 6 9 5 10 4 11 3 12 2 13
REMARK SMILES IDX 1 14
REMARK H PARENT
REMARK Flexibility Score: inf
ROOT
ATOM      1  C   UNL     1      56.905  26.566  51.367  1.00  0.00     0.000 C 
ENDROOT
BRANCH   1   2
ATOM      2  C   UNL     1      57.765  27.839  51.406  1.00  0.00     0.000 C 
BRANCH   2   3
ATOM      3  C   UNL     1      57.606  28.697  50.139  1.00  0.00     0.000 C 
BRANCH   3   4
ATOM      4  C   UNL     1      58.947  28.973  49.434  1.00  0.00     0.006 C 
BRANCH   4   5
ATOM      5  C   UNL     1      59.853  27.742  49.287  1.00  0.00     0.053 C 
BRANCH   5   6
ATOM      6  C   UNL     1      61.253  28.013  49.749  1.00  0.00     0.041 C 
ATOM      7  O   UNL     1      62.217  27.367  49.262  1.00  0.00    -0.550 OA
ATOM      8  O   UNL     1      61.493  29.003  50.692  1.00  0.00    -0.550 OA
ENDBRANCH   5   6
ENDBRANCH   4   5
ENDBRANCH   3   4
ENDBRANCH   2   3
ENDBRANCH   1   2
BRANCH   1   9
ATOM      9  C   UNL     1      56.166  26.389  50.032  1.00  0.00     0.000 C 
BRANCH   9  10
ATOM     10  C   UNL     1      54.661  26.180  50.260  1.00  0.00    -0.000 C 
BRANCH  10  11
ATOM     11  C   UNL     1      53.807  27.258  49.562  1.00  0.00    -0.000 C 
BRANCH  11  12
ATOM     12  C   UNL     1      53.219  28.311  50.520  1.00  0.00    -0.000 C 
BRANCH  12  13
ATOM     13  C   UNL     1      54.052  29.604  50.624  1.00  0.00    -0.003 C 
ATOM     14  C   UNL     1      54.606  29.836  52.031  1.00  0.00     0.004 C 
ENDBRANCH  12  13
ENDBRANCH  11  12
ENDBRANCH  10  11
ENDBRANCH   9  10
ENDBRANCH   1   9
TORSDOF 10
ENDMDL
MODEL 4
REMARK VINA RESULT:    -3.280      2.735      4.021
REMARK INTER + INTRA:          -6.342
REMARK INTER:                  -5.247
REMARK INTRA:                  -1.094
REMARK UNBOUND:                -1.144
REMARK SMILES CCCCCCCCCCCC(=O)[O-]
REMARK SMILES IDX 7 1 8 2 9 3 10 4 11 5 12 6 13 7 14 8 6 9 5 10 4 11 3 12 2 13
REMARK SMILES IDX 1 14
REMARK H PARENT
REMARK Flexibility Score: inf
ROOT
ATOM      1  C   UNL     1      64.705  32.086  59.759  1.00  0.00     0.000 C 
ENDROOT
BRANCH   1   2
ATOM      2  C   UNL     1      64.323  31.426  61.094  1.00  0.00     0.000 C 
BRANCH   2   3
ATOM      3  C   UNL     1      63.411  30.201  60.907  1.00  0.00     0.000 C 
BRANCH   3   4
ATOM      4  C   UNL     1      62.148  30.259  61.787  1.00  0.00     0.006 C 
BRANCH   4   5
ATOM      5  C   UNL     1      61.157  31.370  61.405  1.00  0.00     0.053 C 
BRANCH   5   6
ATOM      6  C   UNL     1      60.786  31.319  59.954  1.00  0.00     0.041 C 
ATOM      7  O   UNL     1      60.190  30.313  59.488  1.00  0.00    -0.550 OA
ATOM      8  O   UNL     1      61.068  32.398  59.127  1.00  0.00    -0.550 OA
ENDBRANCH   5   6
ENDBRANCH   4   5
ENDBRANCH   3   4
ENDBRANCH   2   3
ENDBRANCH   1   2
BRANCH   1   9
ATOM      9  C   UNL     1      64.479  33.606  59.762  1.00  0.00     0.000 C 
BRANCH   9  10
ATOM     10  C   UNL     1      63.830  34.061  61.078  1.00  0.00    -0.000 C 
BRANCH  10  11
ATOM     11  C   UNL     1      63.991  35.575  61.320  1.00  0.00    -0.000 C 
BRANCH  11  12
ATOM     12  C   UNL     1      62.734  36.401  60.985  1.00  0.00    -0.000 C 
BRANCH  12  13
ATOM     13  C   UNL     1      61.479  35.552  60.699  1.00  0.00    -0.003 C 
ATOM     14  C   UNL     1      60.491  36.257  59.769  1.00  0.00     0.004 C 
ENDBRANCH  12  13
ENDBRANCH  11  12
ENDBRANCH  10  11
ENDBRANCH   9  10
ENDBRANCH   1   9
TORSDOF 10
ENDMDL
MODEL 5
REMARK VINA RESULT:    -3.270      1.690      2.542
REMARK INTER + INTRA:          -6.326
REMARK INTER:                  -5.426
REMARK INTRA:                  -0.901
REMARK UNBOUND:                -1.144
REMARK SMILES CCCCCCCCCCCC(=O)[O-]
REMARK SMILES IDX 7 1 8 2 9 3 10 4 11 5 12 6 13 7 14 8 6 9 5 10 4 11 3 12 2 13
REMARK SMILES IDX 1 14
REMARK H PARENT
REMARK Flexibility Score: inf
ROOT
ATOM      1  C   UNL     1      61.443  32.927  59.436  1.00  0.00     0.000 C 
ENDROOT
BRANCH   1   2
ATOM      2  C   UNL     1      60.745  31.667  59.974  1.00  0.00     0.000 C 
BRANCH   2   3
ATOM      3  C   UNL     1      61.143  31.347  61.425  1.00  0.00     0.000 C 
BRANCH   3   4
ATOM      4  C   UNL     1      62.013  30.082  61.538  1.00  0.00     0.006 C 
BRANCH   4   5
ATOM      5  C   UNL     1      63.515  30.356  61.712  1.00  0.00     0.053 C 
BRANCH   5   6
ATOM      6  C   UNL     1      64.181  30.686  60.411  1.00  0.00     0.041 C 
ATOM      7  O   UNL     1      64.087  29.900  59.433  1.00  0.00    -0.550 OA
ATOM      8  O   UNL     1      64.877  31.880  60.270  1.00  0.00    -0.550 OA
ENDBRANCH   5   6
ENDBRANCH   4   5
ENDBRANCH   3   4
ENDBRANCH   2   3
ENDBRANCH   1   2
BRANCH   1   9
ATOM      9  C   UNL     1      61.888  33.882  60.554  1.00  0.00     0.000 C 
BRANCH   9  10
ATOM     10  C   UNL     1      61.394  35.312  60.283  1.00  0.00    -0.000 C 
BRANCH  10  11
ATOM     11  C   UNL     1      62.163  36.365  61.106  1.00  0.00    -0.000 C 
BRANCH  11  12
ATOM     12  C   UNL     1      63.418  36.917  60.404  1.00  0.00    -0.000 C 
BRANCH  12  13
ATOM     13  C   UNL     1      64.701  36.847  61.256  1.00  0.00    -0.003 C 
ATOM     14  C   UNL     1      64.966  35.445  61.806  1.00  0.00     0.004 C 
ENDBRANCH  12  13
ENDBRANCH  11  12
ENDBRANCH  10  11
ENDBRANCH   9  10
ENDBRANCH   1   9
TORSDOF 10
ENDMDL
MODEL 6
REMARK VINA RESULT:    -3.264     12.141     13.782
REMARK INTER + INTRA:          -6.316
REMARK INTER:                  -5.822
REMARK INTRA:                  -0.494
REMARK UNBOUND:                -1.144
REMARK SMILES CCCCCCCCCCCC(=O)[O-]
REMARK SMILES IDX 7 1 8 2 9 3 10 4 11 5 12 6 13 7 14 8 6 9 5 10 4 11 3 12 2 13
REMARK SMILES IDX 1 14
REMARK H PARENT
REMARK Flexibility Score: inf
ROOT
ATOM      1  C   UNL     1      59.706  28.541  50.241  1.00  0.00     0.000 C 
ENDROOT
BRANCH   1   2
ATOM      2  C   UNL     1      59.861  27.332  49.304  1.00  0.00     0.000 C 
BRANCH   2   3
ATOM      3  C   UNL     1      60.936  26.344  49.789  1.00  0.00     0.000 C 
BRANCH   3   4
ATOM      4  C   UNL     1      60.365  24.947  50.096  1.00  0.00     0.006 C 
BRANCH   4   5
ATOM      5  C   UNL     1      61.406  23.818  50.085  1.00  0.00     0.053 C 
BRANCH   5   6
ATOM      6  C   UNL     1      60.780  22.476  49.858  1.00  0.00     0.041 C 
ATOM      7  O   UNL     1      60.942  21.877  48.763  1.00  0.00    -0.550 OA
ATOM      8  O   UNL     1      60.046  21.872  50.871  1.00  0.00    -0.550 OA
ENDBRANCH   5   6
ENDBRANCH   4   5
ENDBRANCH   3   4
ENDBRANCH   2   3
ENDBRANCH   1   2
BRANCH   1   9
ATOM      9  C   UNL     1      58.267  29.081  50.280  1.00  0.00     0.000 C 
BRANCH   9  10
ATOM     10  C   UNL     1      57.252  27.930  50.352  1.00  0.00    -0.000 C 
BRANCH  10  11
ATOM     11  C   UNL     1      55.818  28.429  50.625  1.00  0.00    -0.000 C 
BRANCH  11  12
ATOM     12  C   UNL     1      54.749  27.320  50.581  1.00  0.00    -0.000 C 
BRANCH  12  13
ATOM     13  C   UNL     1      55.126  26.115  49.696  1.00  0.00    -0.003 C 
ATOM     14  C   UNL     1      53.918  25.511  48.978  1.00  0.00     0.004 C 
ENDBRANCH  12  13
ENDBRANCH  11  12
ENDBRANCH  10  11
ENDBRANCH   9  10
ENDBRANCH   1   9
TORSDOF 10
ENDMDL
MODEL 7
REMARK VINA RESULT:    -3.217      2.986      5.060
REMARK INTER + INTRA:          -6.242
REMARK INTER:                  -5.070
REMARK INTRA:                  -1.172
REMARK UNBOUND:                -1.144
REMARK SMILES CCCCCCCCCCCC(=O)[O-]
REMARK SMILES IDX 7 1 8 2 9 3 10 4 11 5 12 6 13 7 14 8 6 9 5 10 4 11 3 12 2 13
REMARK SMILES IDX 1 14
REMARK H PARENT
REMARK Flexibility Score: inf
ROOT
ATOM      1  C   UNL     1      60.846  30.962  60.427  1.00  0.00     0.000 C 
ENDROOT
BRANCH   1   2
ATOM      2  C   UNL     1      61.119  32.326  59.770  1.00  0.00     0.000 C 
BRANCH   2   3
ATOM      3  C   UNL     1      61.900  33.278  60.692  1.00  0.00     0.000 C 
BRANCH   3   4
ATOM      4  C   UNL     1      61.837  34.744  60.223  1.00  0.00     0.006 C 
BRANCH   4   5
ATOM      5  C   UNL     1      62.658  35.721  61.079  1.00  0.00     0.053 C 
BRANCH   5   6
ATOM      6  C   UNL     1      64.132  35.521  60.905  1.00  0.00     0.041 C 
ATOM      7  O   UNL     1      64.839  35.140  61.874  1.00  0.00    -0.550 OA
ATOM      8  O   UNL     1      64.719  35.723  59.662  1.00  0.00    -0.550 OA
ENDBRANCH   5   6
ENDBRANCH   4   5
ENDBRANCH   3   4
ENDBRANCH   2   3
ENDBRANCH   1   2
BRANCH   1   9
ATOM      9  C   UNL     1      61.694  30.731  61.687  1.00  0.00     0.000 C 
BRANCH   9  10
ATOM     10  C   UNL     1      62.277  29.310  61.703  1.00  0.00    -0.000 C 
BRANCH  10  11
ATOM     11  C   UNL     1      63.632  29.223  60.973  1.00  0.00    -0.000 C 
BRANCH  11  12
ATOM     12  C   UNL     1      64.444  30.533  60.999  1.00  0.00    -0.000 C 
BRANCH  12  13
ATOM     13  C   UNL     1      65.240  30.807  59.707  1.00  0.00    -0.003 C 
ATOM     14  C   UNL     1      64.977  32.203  59.140  1.00  0.00     0.004 C 
ENDBRANCH  12  13
ENDBRANCH  11  12
ENDBRANCH  10  11
ENDBRANCH   9  10
ENDBRANCH   1   9
TORSDOF 10
ENDMDL
MODEL 8
REMARK VINA RESULT:    -3.206      2.327      4.069
REMARK INTER + INTRA:          -6.224
REMARK INTER:                  -4.881
REMARK INTRA:                  -1.343
REMARK UNBOUND:                -1.144
REMARK SMILES CCCCCCCCCCCC(=O)[O-]
REMARK SMILES IDX 7 1 8 2 9 3 10 4 11 5 12 6 13 7 14 8 6 9 5 10 4 11 3 12 2 13
REMARK SMILES IDX 1 14
REMARK H PARENT
REMARK Flexibility Score: inf
ROOT
ATOM      1  C   UNL     1      64.258  33.921  60.214  1.00  0.00     0.000 C 
ENDROOT
BRANCH   1   2
ATOM      2  C   UNL     1      63.809  32.472  60.464  1.00  0.00     0.000 C 
BRANCH   2   3
ATOM      3  C   UNL     1      62.458  32.151  59.802  1.00  0.00     0.000 C 
BRANCH   3   4
ATOM      4  C   UNL     1      61.265  32.364  60.752  1.00  0.00     0.006 C 
BRANCH   4   5
ATOM      5  C   UNL     1      61.019  31.208  61.733  1.00  0.00     0.053 C 
BRANCH   5   6
ATOM      6  C   UNL     1      61.076  29.873  61.056  1.00  0.00     0.041 C 
ATOM      7  O   UNL     1      60.190  29.546  60.223  1.00  0.00    -0.550 OA
ATOM      8  O   UNL     1      62.127  29.005  61.319  1.00  0.00    -0.550 OA
ENDBRANCH   5   6
ENDBRANCH   4   5
ENDBRANCH   3   4
ENDBRANCH   2   3
ENDBRANCH   1   2
BRANCH   1   9
ATOM      9  C   UNL     1      64.562  34.682  61.514  1.00  0.00     0.000 C 
BRANCH   9  10
ATOM     10  C   UNL     1      63.867  36.052  61.524  1.00  0.00    -0.000 C 
BRANCH  10  11
ATOM     11  C   UNL     1      62.925  36.241  60.317  1.00  0.00    -0.000 C 
BRANCH  11  12
ATOM     12  C   UNL     1      61.431  36.285  60.688  1.00  0.00    -0.000 C 
BRANCH  12  13
ATOM     13  C   UNL     1      60.483  35.885  59.540  1.00  0.00    -0.003 C 
ATOM     14  C   UNL     1      61.234  35.390  58.303  1.00  0.00     0.004 C 
ENDBRANCH  12  13
ENDBRANCH  11  12
ENDBRANCH  10  11
ENDBRANCH   9  10
ENDBRANCH   1   9
TORSDOF 10
ENDMDL
MODEL 9
REMARK VINA RESULT:    -3.192      3.759      6.047
REMARK INTER + INTRA:          -6.202
REMARK INTER:                  -4.916
REMARK INTRA:                  -1.286
REMARK UNBOUND:                -1.144
REMARK SMILES CCCCCCCCCCCC(=O)[O-]
REMARK SMILES IDX 7 1 8 2 9 3 10 4 11 5 12 6 13 7 14 8 6 9 5 10 4 11 3 12 2 13
REMARK SMILES IDX 1 14
REMARK H PARENT
REMARK Flexibility Score: inf
ROOT
ATOM      1  C   UNL     1      65.182  30.964  59.339  1.00  0.00     0.000 C 
ENDROOT
BRANCH   1   2
ATOM      2  C   UNL     1      64.571  32.372  59.421  1.00  0.00     0.000 C 
BRANCH   2   3
ATOM      3  C   UNL     1      64.274  32.803  60.868  1.00  0.00     0.000 C 
BRANCH   3   4
ATOM      4  C   UNL     1      63.914  34.296  60.982  1.00  0.00     0.006 C 
BRANCH   4   5
ATOM      5  C   UNL     1      62.438  34.617  60.701  1.00  0.00     0.053 C 
BRANCH   5   6
ATOM      6  C   UNL     1      62.118  36.060  60.949  1.00  0.00     0.041 C 
ATOM      7  O   UNL     1      60.963  36.502  60.714  1.00  0.00    -0.550 OA
ATOM      8  O   UNL     1      63.086  36.906  61.473  1.00  0.00    -0.550 OA
ENDBRANCH   5   6
ENDBRANCH   4   5
ENDBRANCH   3   4
ENDBRANCH   2   3
ENDBRANCH   1   2
BRANCH   1   9
ATOM      9  C   UNL     1      65.164  30.230  60.689  1.00  0.00     0.000 C 
BRANCH   9  10
ATOM     10  C   UNL     1      64.372  28.917  60.588  1.00  0.00    -0.000 C 
BRANCH  10  11
ATOM     11  C   UNL     1      62.943  29.048  61.154  1.00  0.00    -0.000 C 
BRANCH  11  12
ATOM     12  C   UNL     1      61.875  29.374  60.093  1.00  0.00    -0.000 C 
BRANCH  12  13
ATOM     13  C   UNL     1      61.171  30.729  60.302  1.00  0.00    -0.003 C 
ATOM     14  C   UNL     1      61.063  31.115  61.778  1.00  0.00     0.004 C 
ENDBRANCH  12  13
ENDBRANCH  11  12
ENDBRANCH  10  11
ENDBRANCH   9  10
ENDBRANCH   1   9
TORSDOF 10
ENDMDL
