MODEL 1
REMARK VINA RESULT:    -5.617      0.000      0.000
REMARK INTER + INTRA:          -6.530
REMARK INTER:                  -6.438
REMARK INTRA:                  -0.092
REMARK UNBOUND:                -0.092
REMARK SMILES COc1cc(C(C)=O)ccc1O
REMARK SMILES IDX 5 1 4 2 3 3 11 4 10 5 9 6 6 7 7 8 8 9 2 10 1 11 12 12
REMARK H PARENT 12 13
REMARK Flexibility Score: inf
ROOT
ATOM      1  C   UNL     1      18.132 -11.814  66.700  1.00  0.00     0.021 A 
ATOM      2  C   UNL     1      19.027 -12.323  67.663  1.00  0.00     0.062 A 
ATOM      3  C   UNL     1      19.501 -11.508  68.711  1.00  0.00     0.161 A 
ATOM      4  C   UNL     1      19.072 -10.172  68.791  1.00  0.00     0.157 A 
ATOM      5  C   UNL     1      18.186  -9.664  67.839  1.00  0.00     0.051 A 
ATOM      6  C   UNL     1      17.719 -10.474  66.804  1.00  0.00     0.016 A 
ENDROOT
BRANCH   1   7
ATOM      7  C   UNL     1      17.623 -12.664  65.588  1.00  0.00     0.159 C 
ATOM      8  C   UNL     1      18.134 -14.054  65.353  1.00  0.00     0.093 C 
ATOM      9  O   UNL     1      16.736 -12.214  64.813  1.00  0.00    -0.295 OA
ENDBRANCH   1   7
BRANCH   3  10
ATOM     10  O   UNL     1      20.393 -11.991  69.683  1.00  0.00    -0.493 OA
ATOM     11  C   UNL     1      21.148 -13.192  69.563  1.00  0.00     0.278 C 
ENDBRANCH   3  10
BRANCH   4  12
ATOM     12  O   UNL     1      19.518  -9.332  69.812  1.00  0.00    -0.504 OA
ATOM     13  H   UNL     1      19.891  -8.409  69.628  1.00  0.00     0.293 HD
ENDBRANCH   4  12
TORSDOF 3
ENDMDL
MODEL 2
REMARK VINA RESULT:    -5.132      1.581      2.070
REMARK INTER + INTRA:          -5.974
REMARK INTER:                  -5.843
REMARK INTRA:                  -0.131
REMARK UNBOUND:                -0.092
REMARK SMILES COc1cc(C(C)=O)ccc1O
REMARK SMILES IDX 5 1 4 2 3 3 11 4 10 5 9 6 6 7 7 8 8 9 2 10 1 11 12 12
REMARK H PARENT 12 13
REMARK Flexibility Score: inf
ROOT
ATOM      1  C   UNL     1      17.138 -11.004  66.436  1.00  0.00     0.021 A 
ATOM      2  C   UNL     1      17.680 -12.234  66.859  1.00  0.00     0.062 A 
ATOM      3  C   UNL     1      18.552 -12.297  67.965  1.00  0.00     0.161 A 
ATOM      4  C   UNL     1      18.882 -11.115  68.650  1.00  0.00     0.157 A 
ATOM      5  C   UNL     1      18.347  -9.894  68.233  1.00  0.00     0.051 A 
ATOM      6  C   UNL     1      17.484  -9.836  67.139  1.00  0.00     0.016 A 
ENDROOT
BRANCH   1   7
ATOM      7  C   UNL     1      16.215 -10.922  65.270  1.00  0.00     0.159 C 
ATOM      8  C   UNL     1      16.288  -9.801  64.277  1.00  0.00     0.093 C 
ATOM      9  O   UNL     1      15.341 -11.816  65.100  1.00  0.00    -0.295 OA
ENDBRANCH   1   7
BRANCH   3  10
ATOM     10  O   UNL     1      19.106 -13.511  68.407  1.00  0.00    -0.493 OA
ATOM     11  C   UNL     1      20.272 -14.115  67.858  1.00  0.00     0.278 C 
ENDBRANCH   3  10
BRANCH   4  12
ATOM     12  O   UNL     1      19.741 -11.134  69.748  1.00  0.00    -0.504 OA
ATOM     13  H   UNL     1      19.413 -11.316  70.689  1.00  0.00     0.293 HD
ENDBRANCH   4  12
TORSDOF 3
ENDMDL
MODEL 3
REMARK VINA RESULT:    -5.120      2.472      4.635
REMARK INTER + INTRA:          -5.960
REMARK INTER:                  -5.853
REMARK INTRA:                  -0.107
REMARK UNBOUND:                -0.092
REMARK SMILES COc1cc(C(C)=O)ccc1O
REMARK SMILES IDX 5 1 4 2 3 3 11 4 10 5 9 6 6 7 7 8 8 9 2 10 1 11 12 12
REMARK H PARENT 12 13
REMARK Flexibility Score: inf
ROOT
ATOM      1  C   UNL     1      18.941 -10.242  67.458  1.00  0.00     0.021 A 
ATOM      2  C   UNL     1      19.822  -9.857  66.427  1.00  0.00     0.062 A 
ATOM      3  C   UNL     1      19.339  -9.576  65.133  1.00  0.00     0.161 A 
ATOM      4  C   UNL     1      17.962  -9.684  64.873  1.00  0.00     0.157 A 
ATOM      5  C   UNL     1      17.087 -10.066  65.892  1.00  0.00     0.051 A 
ATOM      6  C   UNL     1      17.568 -10.343  67.172  1.00  0.00     0.016 A 
ENDROOT
BRANCH   1   7
ATOM      7  C   UNL     1      19.437 -10.542  68.830  1.00  0.00     0.159 C 
ATOM      8  C   UNL     1      20.043 -11.867  69.184  1.00  0.00     0.093 C 
ATOM      9  O   UNL     1      19.351  -9.664  69.732  1.00  0.00    -0.295 OA
ENDBRANCH   1   7
BRANCH   3  10
ATOM     10  O   UNL     1      20.195  -9.189  64.087  1.00  0.00    -0.493 OA
ATOM     11  C   UNL     1      21.254  -9.988  63.572  1.00  0.00     0.278 C 
ENDBRANCH   3  10
BRANCH   4  12
ATOM     12  O   UNL     1      17.444  -9.415  63.606  1.00  0.00    -0.504 OA
ATOM     13  H   UNL     1      16.518  -9.026  63.472  1.00  0.00     0.293 HD
ENDBRANCH   4  12
TORSDOF 3
ENDMDL
MODEL 4
REMARK VINA RESULT:    -5.119      2.368      2.988
REMARK INTER + INTRA:          -5.959
REMARK INTER:                  -5.846
REMARK INTRA:                  -0.113
REMARK UNBOUND:                -0.092
REMARK SMILES COc1cc(C(C)=O)ccc1O
REMARK SMILES IDX 5 1 4 2 3 3 11 4 10 5 9 6 6 7 7 8 8 9 2 10 1 11 12 12
REMARK H PARENT 12 13
REMARK Flexibility Score: inf
ROOT
ATOM      1  C   UNL     1      18.286 -10.726  65.990  1.00  0.00     0.021 A 
ATOM      2  C   UNL     1      19.082 -11.461  66.892  1.00  0.00     0.062 A 
ATOM      3  C   UNL     1      18.491 -12.310  67.850  1.00  0.00     0.161 A 
ATOM      4  C   UNL     1      17.091 -12.420  67.902  1.00  0.00     0.157 A 
ATOM      5  C   UNL     1      16.300 -11.694  67.010  1.00  0.00     0.051 A 
ATOM      6  C   UNL     1      16.888 -10.855  66.063  1.00  0.00     0.016 A 
ENDROOT
BRANCH   1   7
ATOM      7  C   UNL     1      18.897  -9.826  64.973  1.00  0.00     0.159 C 
ATOM      8  C   UNL     1      18.250  -9.578  63.642  1.00  0.00     0.093 C 
ATOM      9  O   UNL     1      19.990  -9.249  65.224  1.00  0.00    -0.295 OA
ENDBRANCH   1   7
BRANCH   3  10
ATOM     10  O   UNL     1      19.262 -13.053  68.761  1.00  0.00    -0.493 OA
ATOM     11  C   UNL     1      20.563 -12.686  69.208  1.00  0.00     0.278 C 
ENDBRANCH   3  10
BRANCH   4  12
ATOM     12  O   UNL     1      16.467 -13.249  68.835  1.00  0.00    -0.504 OA
ATOM     13  H   UNL     1      16.889 -14.110  69.161  1.00  0.00     0.293 HD
ENDBRANCH   4  12
TORSDOF 3
ENDMDL
MODEL 5
REMARK VINA RESULT:    -5.074      2.084      4.858
REMARK INTER + INTRA:          -5.908
REMARK INTER:                  -5.794
REMARK INTRA:                  -0.114
REMARK UNBOUND:                -0.092
REMARK SMILES COc1cc(C(C)=O)ccc1O
REMARK SMILES IDX 5 1 4 2 3 3 11 4 10 5 9 6 6 7 7 8 8 9 2 10 1 11 12 12
REMARK H PARENT 12 13
REMARK Flexibility Score: inf
ROOT
ATOM      1  C   UNL     1      19.228 -10.240  67.358  1.00  0.00     0.021 A 
ATOM      2  C   UNL     1      17.913 -10.275  66.853  1.00  0.00     0.062 A 
ATOM      3  C   UNL     1      17.649  -9.972  65.501  1.00  0.00     0.161 A 
ATOM      4  C   UNL     1      18.716  -9.631  64.652  1.00  0.00     0.157 A 
ATOM      5  C   UNL     1      20.020  -9.594  65.148  1.00  0.00     0.051 A 
ATOM      6  C   UNL     1      20.277  -9.895  66.486  1.00  0.00     0.016 A 
ENDROOT
BRANCH   1   7
ATOM      7  C   UNL     1      19.521 -10.558  68.783  1.00  0.00     0.159 C 
ATOM      8  C   UNL     1      19.982 -11.919  69.214  1.00  0.00     0.093 C 
ATOM      9  O   UNL     1      19.382  -9.666  69.664  1.00  0.00    -0.295 OA
ENDBRANCH   1   7
BRANCH   3  10
ATOM     10  O   UNL     1      16.347 -10.000  64.973  1.00  0.00    -0.493 OA
ATOM     11  C   UNL     1      15.559 -11.176  64.827  1.00  0.00     0.278 C 
ENDBRANCH   3  10
BRANCH   4  12
ATOM     12  O   UNL     1      18.498  -9.323  63.309  1.00  0.00    -0.504 OA
ATOM     13  H   UNL     1      18.829  -8.463  62.890  1.00  0.00     0.293 HD
ENDBRANCH   4  12
TORSDOF 3
ENDMDL
MODEL 6
REMARK VINA RESULT:    -4.881      2.536      3.290
REMARK INTER + INTRA:          -5.686
REMARK INTER:                  -5.554
REMARK INTRA:                  -0.133
REMARK UNBOUND:                -0.092
REMARK SMILES COc1cc(C(C)=O)ccc1O
REMARK SMILES IDX 5 1 4 2 3 3 11 4 10 5 9 6 6 7 7 8 8 9 2 10 1 11 12 12
REMARK H PARENT 12 13
REMARK Flexibility Score: inf
ROOT
ATOM      1  C   UNL     1      16.841 -10.336  64.986  1.00  0.00     0.021 A 
ATOM      2  C   UNL     1      17.155 -10.265  66.358  1.00  0.00     0.062 A 
ATOM      3  C   UNL     1      18.441  -9.874  66.785  1.00  0.00     0.161 A 
ATOM      4  C   UNL     1      19.416  -9.553  65.826  1.00  0.00     0.157 A 
ATOM      5  C   UNL     1      19.109  -9.622  64.466  1.00  0.00     0.051 A 
ATOM      6  C   UNL     1      17.836 -10.009  64.047  1.00  0.00     0.016 A 
ENDROOT
BRANCH   1   7
ATOM      7  C   UNL     1      15.487 -10.747  64.520  1.00  0.00     0.159 C 
ATOM      8  C   UNL     1      14.899 -10.237  63.239  1.00  0.00     0.093 C 
ATOM      9  O   UNL     1      14.803 -11.548  65.215  1.00  0.00    -0.295 OA
ENDBRANCH   1   7
BRANCH   3  10
ATOM     10  O   UNL     1      18.780  -9.795  68.147  1.00  0.00    -0.493 OA
ATOM     11  C   UNL     1      19.220 -10.896  68.936  1.00  0.00     0.278 C 
ENDBRANCH   3  10
BRANCH   4  12
ATOM     12  O   UNL     1      20.700  -9.162  66.207  1.00  0.00    -0.504 OA
ATOM     13  H   UNL     1      20.882  -8.677  67.077  1.00  0.00     0.293 HD
ENDBRANCH   4  12
TORSDOF 3
ENDMDL
MODEL 7
REMARK VINA RESULT:    -4.822      3.551      4.442
REMARK INTER + INTRA:          -5.619
REMARK INTER:                  -5.504
REMARK INTRA:                  -0.115
REMARK UNBOUND:                -0.092
REMARK SMILES COc1cc(C(C)=O)ccc1O
REMARK SMILES IDX 5 1 4 2 3 3 11 4 10 5 9 6 6 7 7 8 8 9 2 10 1 11 12 12
REMARK H PARENT 12 13
REMARK Flexibility Score: inf
ROOT
ATOM      1  C   UNL     1      16.514 -11.605  63.419  1.00  0.00     0.021 A 
ATOM      2  C   UNL     1      17.613 -10.723  63.403  1.00  0.00     0.062 A 
ATOM      3  C   UNL     1      17.985 -10.010  64.561  1.00  0.00     0.161 A 
ATOM      4  C   UNL     1      17.245 -10.185  65.743  1.00  0.00     0.157 A 
ATOM      5  C   UNL     1      16.156 -11.057  65.763  1.00  0.00     0.051 A 
ATOM      6  C   UNL     1      15.791 -11.761  64.616  1.00  0.00     0.016 A 
ENDROOT
BRANCH   1   7
ATOM      7  C   UNL     1      16.110 -12.365  62.204  1.00  0.00     0.159 C 
ATOM      8  C   UNL     1      14.689 -12.401  61.725  1.00  0.00     0.093 C 
ATOM      9  O   UNL     1      16.978 -13.003  61.548  1.00  0.00    -0.295 OA
ENDBRANCH   1   7
BRANCH   3  10
ATOM     10  O   UNL     1      19.076  -9.125  64.571  1.00  0.00    -0.493 OA
ATOM     11  C   UNL     1      20.380  -9.443  64.096  1.00  0.00     0.278 C 
ENDBRANCH   3  10
BRANCH   4  12
ATOM     12  O   UNL     1      17.580  -9.497  66.910  1.00  0.00    -0.504 OA
ATOM     13  H   UNL     1      16.966  -9.469  67.715  1.00  0.00     0.293 HD
ENDBRANCH   4  12
TORSDOF 3
ENDMDL
MODEL 8
REMARK VINA RESULT:    -4.808      2.148      2.355
REMARK INTER + INTRA:          -5.602
REMARK INTER:                  -5.482
REMARK INTRA:                  -0.120
REMARK UNBOUND:                -0.092
REMARK SMILES COc1cc(C(C)=O)ccc1O
REMARK SMILES IDX 5 1 4 2 3 3 11 4 10 5 9 6 6 7 7 8 8 9 2 10 1 11 12 12
REMARK H PARENT 12 13
REMARK Flexibility Score: inf
ROOT
ATOM      1  C   UNL     1      19.511 -10.673  65.747  1.00  0.00     0.021 A 
ATOM      2  C   UNL     1      19.633 -11.941  66.350  1.00  0.00     0.062 A 
ATOM      3  C   UNL     1      19.539 -12.087  67.749  1.00  0.00     0.161 A 
ATOM      4  C   UNL     1      19.320 -10.951  68.547  1.00  0.00     0.157 A 
ATOM      5  C   UNL     1      19.199  -9.693  67.953  1.00  0.00     0.051 A 
ATOM      6  C   UNL     1      19.293  -9.552  66.568  1.00  0.00     0.016 A 
ENDROOT
BRANCH   1   7
ATOM      7  C   UNL     1      19.609 -10.503  64.270  1.00  0.00     0.159 C 
ATOM      8  C   UNL     1      20.777  -9.818  63.625  1.00  0.00     0.093 C 
ATOM      9  O   UNL     1      18.689 -10.944  63.528  1.00  0.00    -0.295 OA
ENDBRANCH   1   7
BRANCH   3  10
ATOM     10  O   UNL     1      19.657 -13.339  68.376  1.00  0.00    -0.493 OA
ATOM     11  C   UNL     1      20.892 -13.955  68.727  1.00  0.00     0.278 C 
ENDBRANCH   3  10
BRANCH   4  12
ATOM     12  O   UNL     1      19.220 -11.052  69.935  1.00  0.00    -0.504 OA
ATOM     13  H   UNL     1      19.769 -10.474  70.560  1.00  0.00     0.293 HD
ENDBRANCH   4  12
TORSDOF 3
ENDMDL
MODEL 9
REMARK VINA RESULT:    -4.771      2.425      2.763
REMARK INTER + INTRA:          -5.560
REMARK INTER:                  -5.428
REMARK INTRA:                  -0.132
REMARK UNBOUND:                -0.092
REMARK SMILES COc1cc(C(C)=O)ccc1O
REMARK SMILES IDX 5 1 4 2 3 3 11 4 10 5 9 6 6 7 7 8 8 9 2 10 1 11 12 12
REMARK H PARENT 12 13
REMARK Flexibility Score: inf
ROOT
ATOM      1  C   UNL     1      17.583 -10.692  65.072  1.00  0.00     0.021 A 
ATOM      2  C   UNL     1      18.980 -10.505  65.079  1.00  0.00     0.062 A 
ATOM      3  C   UNL     1      19.636 -10.005  66.222  1.00  0.00     0.161 A 
ATOM      4  C   UNL     1      18.882  -9.689  67.365  1.00  0.00     0.157 A 
ATOM      5  C   UNL     1      17.498  -9.872  67.362  1.00  0.00     0.051 A 
ATOM      6  C   UNL     1      16.852 -10.368  66.229  1.00  0.00     0.016 A 
ENDROOT
BRANCH   1   7
ATOM      7  C   UNL     1      16.877 -11.220  63.871  1.00  0.00     0.159 C 
ATOM      8  C   UNL     1      15.381 -11.262  63.785  1.00  0.00     0.093 C 
ATOM      9  O   UNL     1      17.545 -11.648  62.891  1.00  0.00    -0.295 OA
ENDBRANCH   1   7
BRANCH   3  10
ATOM     10  O   UNL     1      21.028  -9.810  66.256  1.00  0.00    -0.493 OA
ATOM     11  C   UNL     1      21.994 -10.846  66.112  1.00  0.00     0.278 C 
ENDBRANCH   3  10
BRANCH   4  12
ATOM     12  O   UNL     1      19.492  -9.191  68.517  1.00  0.00    -0.504 OA
ATOM     13  H   UNL     1      18.993  -9.088  69.392  1.00  0.00     0.293 HD
ENDBRANCH   4  12
TORSDOF 3
ENDMDL
