MODEL 1
REMARK VINA RESULT:    -4.001      0.000      0.000
REMARK INTER + INTRA:          -5.957
REMARK INTER:                  -5.404
REMARK INTRA:                  -0.553
REMARK UNBOUND:                -0.553
REMARK SMILES O=C[C@H](O)[C@@H](O)[C@H](O)CO
REMARK SMILES IDX 7 1 9 2 10 3 5 5 3 6 2 7 1 8 4 9 6 11 8 13
REMARK H PARENT 10 4 4 10 6 12 8 14
REMARK Flexibility Score: inf
ROOT
ATOM      1  C   UNL     1      -1.508 -15.583  20.121  1.00  0.00     0.171 C 
ENDROOT
BRANCH   1   2
ATOM      2  C   UNL     1      -2.261 -16.875  20.463  1.00  0.00     0.190 C 
BRANCH   2   3
ATOM      3  O   UNL     1      -3.059 -16.697  21.602  1.00  0.00    -0.394 OA
ATOM      4  H   UNL     1      -2.870 -17.469  22.195  1.00  0.00     0.210 HD
ENDBRANCH   2   3
ENDBRANCH   1   2
BRANCH   1   5
ATOM      5  C   UNL     1      -2.377 -14.518  19.388  1.00  0.00     0.181 C 
BRANCH   5   6
ATOM      6  C   UNL     1      -2.745 -13.290  20.272  1.00  0.00     0.209 C 
BRANCH   6   7
ATOM      7  C   UNL     1      -1.527 -12.614  20.834  1.00  0.00     0.258 C 
ATOM      8  O   UNL     1      -0.565 -12.367  20.122  1.00  0.00    -0.300 OA
ENDBRANCH   6   7
BRANCH   6   9
ATOM      9  O   UNL     1      -3.547 -13.694  21.354  1.00  0.00    -0.383 OA
ATOM     10  H   UNL     1      -3.404 -13.041  22.087  1.00  0.00     0.211 HD
ENDBRANCH   6   9
ENDBRANCH   5   6
BRANCH   5  11
ATOM     11  O   UNL     1      -1.705 -14.087  18.229  1.00  0.00    -0.387 OA
ATOM     12  H   UNL     1      -2.256 -14.352  17.447  1.00  0.00     0.211 HD
ENDBRANCH   5  11
ENDBRANCH   1   5
BRANCH   1  13
ATOM     13  O   UNL     1      -0.406 -15.921  19.314  1.00  0.00    -0.388 OA
ATOM     14  H   UNL     1       0.361 -15.366  19.615  1.00  0.00     0.211 HD
ENDBRANCH   1  13
TORSDOF 8
ENDMDL
MODEL 2
REMARK VINA RESULT:    -3.946      0.778      3.898
REMARK INTER + INTRA:          -5.883
REMARK INTER:                  -5.609
REMARK INTRA:                  -0.274
REMARK UNBOUND:                -0.553
REMARK SMILES O=C[C@H](O)[C@@H](O)[C@H](O)CO
REMARK SMILES IDX 7 1 9 2 10 3 5 5 3 6 2 7 1 8 4 9 6 11 8 13
REMARK H PARENT 10 4 4 10 6 12 8 14
REMARK Flexibility Score: inf
ROOT
ATOM      1  C   UNL     1      -2.230 -13.827  20.514  1.00  0.00     0.171 C 
ENDROOT
BRANCH   1   2
ATOM      2  C   UNL     1      -1.719 -12.431  20.897  1.00  0.00     0.190 C 
BRANCH   2   3
ATOM      3  O   UNL     1      -0.645 -12.055  20.078  1.00  0.00    -0.394 OA
ATOM      4  H   UNL     1      -0.210 -11.287  20.530  1.00  0.00     0.210 HD
ENDBRANCH   2   3
ENDBRANCH   1   2
BRANCH   1   5
ATOM      5  C   UNL     1      -1.448 -14.488  19.340  1.00  0.00     0.181 C 
BRANCH   5   6
ATOM      6  C   UNL     1      -1.463 -16.045  19.371  1.00  0.00     0.209 C 
BRANCH   6   7
ATOM      7  C   UNL     1      -1.981 -16.578  20.678  1.00  0.00     0.258 C 
ATOM      8  O   UNL     1      -2.832 -17.454  20.702  1.00  0.00    -0.300 OA
ENDBRANCH   6   7
BRANCH   6   9
ATOM      9  O   UNL     1      -0.163 -16.546  19.190  1.00  0.00    -0.383 OA
ATOM     10  H   UNL     1      -0.231 -17.535  19.151  1.00  0.00     0.211 HD
ENDBRANCH   6   9
ENDBRANCH   5   6
BRANCH   5  11
ATOM     11  O   UNL     1      -1.973 -14.030  18.117  1.00  0.00    -0.387 OA
ATOM     12  H   UNL     1      -1.278 -13.468  17.685  1.00  0.00     0.211 HD
ENDBRANCH   5  11
ENDBRANCH   1   5
BRANCH   1  13
ATOM     13  O   UNL     1      -3.588 -13.713  20.165  1.00  0.00    -0.388 OA
ATOM     14  H   UNL     1      -3.988 -14.618  20.240  1.00  0.00     0.211 HD
ENDBRANCH   1  13
TORSDOF 8
ENDMDL
MODEL 3
REMARK VINA RESULT:    -3.861      1.329      2.626
REMARK INTER + INTRA:          -5.769
REMARK INTER:                  -5.274
REMARK INTRA:                  -0.495
REMARK UNBOUND:                -0.553
REMARK SMILES O=C[C@H](O)[C@@H](O)[C@H](O)CO
REMARK SMILES IDX 7 1 9 2 10 3 5 5 3 6 2 7 1 8 4 9 6 11 8 13
REMARK H PARENT 10 4 4 10 6 12 8 14
REMARK Flexibility Score: inf
ROOT
ATOM      1  C   UNL     1      -1.351 -14.389  19.607  1.00  0.00     0.171 C 
ENDROOT
BRANCH   1   2
ATOM      2  C   UNL     1      -1.295 -15.917  19.735  1.00  0.00     0.190 C 
BRANCH   2   3
ATOM      3  O   UNL     1      -0.160 -16.426  19.088  1.00  0.00    -0.394 OA
ATOM      4  H   UNL     1      -0.246 -17.414  19.119  1.00  0.00     0.210 HD
ENDBRANCH   2   3
ENDBRANCH   1   2
BRANCH   1   5
ATOM      5  C   UNL     1      -2.271 -13.698  20.657  1.00  0.00     0.181 C 
BRANCH   5   6
ATOM      6  C   UNL     1      -1.875 -12.224  20.968  1.00  0.00     0.209 C 
BRANCH   6   7
ATOM      7  C   UNL     1      -3.039 -11.285  20.824  1.00  0.00     0.258 C 
ATOM      8  O   UNL     1      -3.970 -11.318  21.614  1.00  0.00    -0.300 OA
ENDBRANCH   6   7
BRANCH   6   9
ATOM      9  O   UNL     1      -0.868 -11.796  20.085  1.00  0.00    -0.383 OA
ATOM     10  H   UNL     1      -0.976 -10.817  19.968  1.00  0.00     0.211 HD
ENDBRANCH   6   9
ENDBRANCH   5   6
BRANCH   5  11
ATOM     11  O   UNL     1      -3.605 -13.750  20.212  1.00  0.00    -0.387 OA
ATOM     12  H   UNL     1      -4.136 -14.212  20.911  1.00  0.00     0.211 HD
ENDBRANCH   5  11
ENDBRANCH   1   5
BRANCH   1  13
ATOM     13  O   UNL     1      -1.805 -14.077  18.312  1.00  0.00    -0.388 OA
ATOM     14  H   UNL     1      -2.518 -13.393  18.407  1.00  0.00     0.211 HD
ENDBRANCH   1  13
TORSDOF 8
ENDMDL
MODEL 4
REMARK VINA RESULT:    -3.803      6.312      7.954
REMARK INTER + INTRA:          -5.689
REMARK INTER:                  -5.031
REMARK INTRA:                  -0.658
REMARK UNBOUND:                -0.553
REMARK SMILES O=C[C@H](O)[C@@H](O)[C@H](O)CO
REMARK SMILES IDX 7 1 9 2 10 3 5 5 3 6 2 7 1 8 4 9 6 11 8 13
REMARK H PARENT 10 4 4 10 6 12 8 14
REMARK Flexibility Score: inf
ROOT
ATOM      1  C   UNL     1       2.697 -11.092  18.175  1.00  0.00     0.171 C 
ENDROOT
BRANCH   1   2
ATOM      2  C   UNL     1       2.263  -9.627  18.034  1.00  0.00     0.190 C 
BRANCH   2   3
ATOM      3  O   UNL     1       1.617  -9.418  16.808  1.00  0.00    -0.394 OA
ATOM      4  H   UNL     1       1.486  -8.438  16.729  1.00  0.00     0.210 HD
ENDBRANCH   2   3
ENDBRANCH   1   2
BRANCH   1   5
ATOM      5  C   UNL     1       4.172 -11.359  17.750  1.00  0.00     0.181 C 
BRANCH   5   6
ATOM      6  C   UNL     1       4.384 -12.731  17.043  1.00  0.00     0.209 C 
BRANCH   6   7
ATOM      7  C   UNL     1       5.839 -13.082  16.916  1.00  0.00     0.258 C 
ATOM      8  O   UNL     1       6.693 -12.424  17.492  1.00  0.00    -0.300 OA
ENDBRANCH   6   7
BRANCH   6   9
ATOM      9  O   UNL     1       3.837 -12.698  15.748  1.00  0.00    -0.383 OA
ATOM     10  H   UNL     1       3.485 -11.782  15.600  1.00  0.00     0.211 HD
ENDBRANCH   6   9
ENDBRANCH   5   6
BRANCH   5  11
ATOM     11  O   UNL     1       4.608 -10.317  16.911  1.00  0.00    -0.387 OA
ATOM     12  H   UNL     1       4.881  -9.559  17.491  1.00  0.00     0.211 HD
ENDBRANCH   5  11
ENDBRANCH   1   5
BRANCH   1  13
ATOM     13  O   UNL     1       1.835 -11.880  17.391  1.00  0.00    -0.388 OA
ATOM     14  H   UNL     1       2.244 -12.781  17.319  1.00  0.00     0.211 HD
ENDBRANCH   1  13
TORSDOF 8
ENDMDL
MODEL 5
REMARK VINA RESULT:    -3.786      5.624      7.001
REMARK INTER + INTRA:          -5.666
REMARK INTER:                  -5.351
REMARK INTRA:                  -0.315
REMARK UNBOUND:                -0.553
REMARK SMILES O=C[C@H](O)[C@@H](O)[C@H](O)CO
REMARK SMILES IDX 7 1 9 2 10 3 5 5 3 6 2 7 1 8 4 9 6 11 8 13
REMARK H PARENT 10 4 4 10 6 12 8 14
REMARK Flexibility Score: inf
ROOT
ATOM      1  C   UNL     1       1.790 -11.552  18.050  1.00  0.00     0.171 C 
ENDROOT
BRANCH   1   2
ATOM      2  C   UNL     1       1.566 -12.331  19.354  1.00  0.00     0.190 C 
BRANCH   2   3
ATOM      3  O   UNL     1       1.780 -13.702  19.154  1.00  0.00    -0.394 OA
ATOM      4  H   UNL     1       1.038 -14.014  18.574  1.00  0.00     0.210 HD
ENDBRANCH   2   3
ENDBRANCH   1   2
BRANCH   1   5
ATOM      5  C   UNL     1       3.262 -11.090  17.834  1.00  0.00     0.181 C 
BRANCH   5   6
ATOM      6  C   UNL     1       4.149 -12.139  17.100  1.00  0.00     0.209 C 
BRANCH   6   7
ATOM      7  C   UNL     1       5.478 -11.568  16.691  1.00  0.00     0.258 C 
ATOM      8  O   UNL     1       6.136 -10.898  17.472  1.00  0.00    -0.300 OA
ENDBRANCH   6   7
BRANCH   6   9
ATOM      9  O   UNL     1       3.502 -12.592  15.937  1.00  0.00    -0.383 OA
ATOM     10  H   UNL     1       3.595 -13.580  15.914  1.00  0.00     0.211 HD
ENDBRANCH   6   9
ENDBRANCH   5   6
BRANCH   5  11
ATOM     11  O   UNL     1       3.267  -9.878  17.119  1.00  0.00    -0.387 OA
ATOM     12  H   UNL     1       3.575  -9.166  17.740  1.00  0.00     0.211 HD
ENDBRANCH   5  11
ENDBRANCH   1   5
BRANCH   1  13
ATOM     13  O   UNL     1       0.945 -10.428  18.064  1.00  0.00    -0.388 OA
ATOM     14  H   UNL     1       1.312  -9.792  18.734  1.00  0.00     0.211 HD
ENDBRANCH   1  13
TORSDOF 8
ENDMDL
MODEL 6
REMARK VINA RESULT:    -3.726      1.712      3.748
REMARK INTER + INTRA:          -5.585
REMARK INTER:                  -5.061
REMARK INTRA:                  -0.524
REMARK UNBOUND:                -0.553
REMARK SMILES O=C[C@H](O)[C@@H](O)[C@H](O)CO
REMARK SMILES IDX 7 1 9 2 10 3 5 5 3 6 2 7 1 8 4 9 6 11 8 13
REMARK H PARENT 10 4 4 10 6 12 8 14
REMARK Flexibility Score: inf
ROOT
ATOM      1  C   UNL     1      -0.174 -12.798  20.118  1.00  0.00     0.171 C 
ENDROOT
BRANCH   1   2
ATOM      2  C   UNL     1       1.052 -12.410  19.280  1.00  0.00     0.190 C 
BRANCH   2   3
ATOM      3  O   UNL     1       1.865 -13.527  19.045  1.00  0.00    -0.394 OA
ATOM      4  H   UNL     1       2.008 -13.955  19.929  1.00  0.00     0.210 HD
ENDBRANCH   2   3
ENDBRANCH   1   2
BRANCH   1   5
ATOM      5  C   UNL     1      -0.878 -14.103  19.642  1.00  0.00     0.181 C 
BRANCH   5   6
ATOM      6  C   UNL     1      -2.051 -14.556  20.562  1.00  0.00     0.209 C 
BRANCH   6   7
ATOM      7  C   UNL     1      -2.269 -16.042  20.508  1.00  0.00     0.258 C 
ATOM      8  O   UNL     1      -1.624 -16.741  19.741  1.00  0.00    -0.300 OA
ENDBRANCH   6   7
BRANCH   6   9
ATOM      9  O   UNL     1      -3.247 -13.933  20.165  1.00  0.00    -0.383 OA
ATOM     10  H   UNL     1      -3.468 -13.253  20.853  1.00  0.00     0.211 HD
ENDBRANCH   6   9
ENDBRANCH   5   6
BRANCH   5  11
ATOM     11  O   UNL     1      -1.346 -13.925  18.327  1.00  0.00    -0.387 OA
ATOM     12  H   UNL     1      -2.316 -13.719  18.379  1.00  0.00     0.211 HD
ENDBRANCH   5  11
ENDBRANCH   1   5
BRANCH   1  13
ATOM     13  O   UNL     1      -1.088 -11.730  20.073  1.00  0.00    -0.388 OA
ATOM     14  H   UNL     1      -0.657 -10.955  20.520  1.00  0.00     0.211 HD
ENDBRANCH   1  13
TORSDOF 8
ENDMDL
MODEL 7
REMARK VINA RESULT:    -3.711      4.125      5.920
REMARK INTER + INTRA:          -5.565
REMARK INTER:                  -4.883
REMARK INTRA:                  -0.682
REMARK UNBOUND:                -0.553
REMARK SMILES O=C[C@H](O)[C@@H](O)[C@H](O)CO
REMARK SMILES IDX 7 1 9 2 10 3 5 5 3 6 2 7 1 8 4 9 6 11 8 13
REMARK H PARENT 10 4 4 10 6 12 8 14
REMARK Flexibility Score: inf
ROOT
ATOM      1  C   UNL     1       2.814 -10.742  18.014  1.00  0.00     0.171 C 
ENDROOT
BRANCH   1   2
ATOM      2  C   UNL     1       3.839 -11.662  17.337  1.00  0.00     0.190 C 
BRANCH   2   3
ATOM      3  O   UNL     1       3.246 -12.374  16.285  1.00  0.00    -0.394 OA
ATOM      4  H   UNL     1       2.967 -11.696  15.616  1.00  0.00     0.210 HD
ENDBRANCH   2   3
ENDBRANCH   1   2
BRANCH   1   5
ATOM      5  C   UNL     1       1.801 -11.489  18.932  1.00  0.00     0.181 C 
BRANCH   5   6
ATOM      6  C   UNL     1       0.946 -10.542  19.826  1.00  0.00     0.209 C 
BRANCH   6   7
ATOM      7  C   UNL     1       0.104 -11.304  20.810  1.00  0.00     0.258 C 
ATOM      8  O   UNL     1      -0.586 -12.244  20.446  1.00  0.00    -0.300 OA
ENDBRANCH   6   7
BRANCH   6   9
ATOM      9  O   UNL     1       0.082  -9.772  19.029  1.00  0.00    -0.383 OA
ATOM     10  H   UNL     1       0.604  -9.459  18.246  1.00  0.00     0.211 HD
ENDBRANCH   6   9
ENDBRANCH   5   6
BRANCH   5  11
ATOM     11  O   UNL     1       0.956 -12.286  18.137  1.00  0.00    -0.387 OA
ATOM     12  H   UNL     1       1.259 -13.227  18.229  1.00  0.00     0.211 HD
ENDBRANCH   5  11
ENDBRANCH   1   5
BRANCH   1  13
ATOM     13  O   UNL     1       2.113 -10.055  17.006  1.00  0.00    -0.388 OA
ATOM     14  H   UNL     1       1.445 -10.687  16.630  1.00  0.00     0.211 HD
ENDBRANCH   1  13
TORSDOF 8
ENDMDL
MODEL 8
REMARK VINA RESULT:    -3.630      4.619      6.332
REMARK INTER + INTRA:          -5.455
REMARK INTER:                  -4.960
REMARK INTRA:                  -0.496
REMARK UNBOUND:                -0.553
REMARK SMILES O=C[C@H](O)[C@@H](O)[C@H](O)CO
REMARK SMILES IDX 7 1 9 2 10 3 5 5 3 6 2 7 1 8 4 9 6 11 8 13
REMARK H PARENT 10 4 4 10 6 12 8 14
REMARK Flexibility Score: inf
ROOT
ATOM      1  C   UNL     1       3.210 -10.786  17.982  1.00  0.00     0.171 C 
ENDROOT
BRANCH   1   2
ATOM      2  C   UNL     1       4.153 -11.619  17.104  1.00  0.00     0.190 C 
BRANCH   2   3
ATOM      3  O   UNL     1       3.425 -12.503  16.295  1.00  0.00    -0.394 OA
ATOM      4  H   UNL     1       2.878 -11.937  15.691  1.00  0.00     0.210 HD
ENDBRANCH   2   3
ENDBRANCH   1   2
BRANCH   1   5
ATOM      5  C   UNL     1       1.726 -11.258  17.943  1.00  0.00     0.181 C 
BRANCH   5   6
ATOM      6  C   UNL     1       1.336 -12.206  19.116  1.00  0.00     0.209 C 
BRANCH   6   7
ATOM      7  C   UNL     1       1.552 -11.563  20.457  1.00  0.00     0.258 C 
ATOM      8  O   UNL     1       0.843 -10.641  20.829  1.00  0.00    -0.300 OA
ENDBRANCH   6   7
BRANCH   6   9
ATOM      9  O   UNL     1       2.114 -13.376  19.072  1.00  0.00    -0.383 OA
ATOM     10  H   UNL     1       1.501 -14.143  19.219  1.00  0.00     0.211 HD
ENDBRANCH   6   9
ENDBRANCH   5   6
BRANCH   5  11
ATOM     11  O   UNL     1       0.881 -10.132  17.939  1.00  0.00    -0.387 OA
ATOM     12  H   UNL     1       1.337  -9.414  18.452  1.00  0.00     0.211 HD
ENDBRANCH   5  11
ENDBRANCH   1   5
BRANCH   1  13
ATOM     13  O   UNL     1       3.286  -9.448  17.555  1.00  0.00    -0.388 OA
ATOM     14  H   UNL     1       4.210  -9.298  17.222  1.00  0.00     0.211 HD
ENDBRANCH   1  13
TORSDOF 8
ENDMDL
MODEL 9
REMARK VINA RESULT:    -3.610      1.300      3.839
REMARK INTER + INTRA:          -5.429
REMARK INTER:                  -4.855
REMARK INTRA:                  -0.574
REMARK UNBOUND:                -0.553
REMARK SMILES O=C[C@H](O)[C@@H](O)[C@H](O)CO
REMARK SMILES IDX 7 1 9 2 10 3 5 5 3 6 2 7 1 8 4 9 6 11 8 13
REMARK H PARENT 10 4 4 10 6 12 8 14
REMARK Flexibility Score: inf
ROOT
ATOM      1  C   UNL     1      -3.005 -12.874  21.333  1.00  0.00     0.171 C 
ENDROOT
BRANCH   1   2
ATOM      2  C   UNL     1      -4.192 -12.342  20.519  1.00  0.00     0.190 C 
BRANCH   2   3
ATOM      3  O   UNL     1      -3.776 -11.331  19.641  1.00  0.00    -0.394 OA
ATOM      4  H   UNL     1      -4.395 -10.569  19.785  1.00  0.00     0.210 HD
ENDBRANCH   2   3
ENDBRANCH   1   2
BRANCH   1   5
ATOM      5  C   UNL     1      -1.876 -13.508  20.467  1.00  0.00     0.181 C 
BRANCH   5   6
ATOM      6  C   UNL     1      -2.396 -14.499  19.383  1.00  0.00     0.209 C 
BRANCH   6   7
ATOM      7  C   UNL     1      -2.051 -15.924  19.710  1.00  0.00     0.258 C 
ATOM      8  O   UNL     1      -2.358 -16.410  20.788  1.00  0.00    -0.300 OA
ENDBRANCH   6   7
BRANCH   6   9
ATOM      9  O   UNL     1      -1.825 -14.195  18.135  1.00  0.00    -0.383 OA
ATOM     10  H   UNL     1      -2.184 -14.849  17.480  1.00  0.00     0.211 HD
ENDBRANCH   6   9
ENDBRANCH   5   6
BRANCH   5  11
ATOM     11  O   UNL     1      -1.129 -12.483  19.857  1.00  0.00    -0.387 OA
ATOM     12  H   UNL     1      -1.103 -12.671  18.882  1.00  0.00     0.211 HD
ENDBRANCH   5  11
ENDBRANCH   1   5
BRANCH   1  13
ATOM     13  O   UNL     1      -3.493 -13.833  22.239  1.00  0.00    -0.388 OA
ATOM     14  H   UNL     1      -3.423 -13.441  23.149  1.00  0.00     0.211 HD
ENDBRANCH   1  13
TORSDOF 8
ENDMDL
