MODEL 1
REMARK VINA RESULT:    -3.869      0.000      0.000
REMARK INTER + INTRA:         -15.482
REMARK INTER:                 -10.201
REMARK INTRA:                  -5.280
REMARK UNBOUND:                -5.280
REMARK SMILES CCCCCCCCCCCCCCCCCCCCCCCCCCCCCC(=O)[O-]
REMARK SMILES IDX 16 1 17 2 18 3 19 4 20 5 21 6 22 7 23 8 24 9 25 10 26 11
REMARK SMILES IDX 27 12 28 13 29 14 30 15 31 16 32 17 15 18 14 19 13 20 12 21
REMARK SMILES IDX 11 22 10 23 9 24 8 25 7 26 6 27 5 28 4 29 3 30 2 31 1 32
REMARK H PARENT
REMARK Flexibility Score: inf
ROOT
ATOM      1  C   UNL     1     139.438 129.596 114.271  1.00  0.00     0.000 C 
ENDROOT
BRANCH   1   2
ATOM      2  C   UNL     1     140.649 130.280 113.614  1.00  0.00     0.000 C 
BRANCH   2   3
ATOM      3  C   UNL     1     141.964 130.034 114.377  1.00  0.00     0.000 C 
BRANCH   3   4
ATOM      4  C   UNL     1     141.891 128.973 115.492  1.00  0.00     0.000 C 
BRANCH   4   5
ATOM      5  C   UNL     1     142.591 127.657 115.113  1.00  0.00     0.000 C 
BRANCH   5   6
ATOM      6  C   UNL     1     143.538 127.155 116.214  1.00  0.00     0.000 C 
BRANCH   6   7
ATOM      7  C   UNL     1     145.029 127.225 115.818  1.00  0.00     0.000 C 
BRANCH   7   8
ATOM      8  C   UNL     1     145.215 127.675 114.359  1.00  0.00     0.000 C 
BRANCH   8   9
ATOM      9  C   UNL     1     145.589 129.167 114.240  1.00  0.00     0.000 C 
BRANCH   9  10
ATOM     10  C   UNL     1     145.835 129.861 115.595  1.00  0.00     0.000 C 
BRANCH  10  11
ATOM     11  C   UNL     1     145.359 131.324 115.680  1.00  0.00     0.000 C 
BRANCH  11  12
ATOM     12  C   UNL     1     146.217 132.231 116.582  1.00  0.00     0.000 C 
BRANCH  12  13
ATOM     13  C   UNL     1     145.509 133.544 116.945  1.00  0.00     0.006 C 
BRANCH  13  14
ATOM     14  C   UNL     1     145.134 134.332 115.684  1.00  0.00     0.053 C 
BRANCH  14  15
ATOM     15  C   UNL     1     146.312 135.092 115.161  1.00  0.00     0.041 C 
ATOM     16  O   UNL     1     146.941 135.884 115.913  1.00  0.00    -0.550 OA
ATOM     17  O   UNL     1     146.707 134.940 113.837  1.00  0.00    -0.550 OA
ENDBRANCH  14  15
ENDBRANCH  13  14
ENDBRANCH  12  13
ENDBRANCH  11  12
ENDBRANCH  10  11
ENDBRANCH   9  10
ENDBRANCH   8   9
ENDBRANCH   7   8
ENDBRANCH   6   7
ENDBRANCH   5   6
ENDBRANCH   4   5
ENDBRANCH   3   4
ENDBRANCH   2   3
ENDBRANCH   1   2
BRANCH   1  18
ATOM     18  C   UNL     1     138.866 128.448 113.421  1.00  0.00     0.000 C 
BRANCH  18  19
ATOM     19  C   UNL     1     138.383 127.219 114.216  1.00  0.00     0.000 C 
BRANCH  19  20
ATOM     20  C   UNL     1     137.301 127.506 115.277  1.00  0.00     0.000 C 
BRANCH  20  21
ATOM     21  C   UNL     1     137.728 127.234 116.732  1.00  0.00     0.000 C 
BRANCH  21  22
ATOM     22  C   UNL     1     139.235 126.987 116.935  1.00  0.00     0.000 C 
BRANCH  22  23
ATOM     23  C   UNL     1     139.853 127.808 118.086  1.00  0.00     0.000 C 
BRANCH  23  24
ATOM     24  C   UNL     1     138.957 128.976 118.536  1.00  0.00    -0.000 C 
BRANCH  24  25
ATOM     25  C   UNL     1     139.413 130.323 117.937  1.00  0.00    -0.000 C 
BRANCH  25  26
ATOM     26  C   UNL     1     140.459 131.054 118.797  1.00  0.00    -0.000 C 
BRANCH  26  27
ATOM     27  C   UNL     1     141.799 131.251 118.068  1.00  0.00    -0.000 C 
BRANCH  27  28
ATOM     28  C   UNL     1     142.973 131.467 119.034  1.00  0.00    -0.000 C 
BRANCH  28  29
ATOM     29  C   UNL     1     144.046 130.373 118.920  1.00  0.00    -0.000 C 
BRANCH  29  30
ATOM     30  C   UNL     1     143.410 128.976 118.959  1.00  0.00    -0.000 C 
BRANCH  30  31
ATOM     31  C   UNL     1     143.862 128.153 120.174  1.00  0.00    -0.003 C 
ATOM     32  C   UNL     1     145.351 128.317 120.479  1.00  0.00     0.004 C 
ENDBRANCH  30  31
ENDBRANCH  29  30
ENDBRANCH  28  29
ENDBRANCH  27  28
ENDBRANCH  26  27
ENDBRANCH  25  26
ENDBRANCH  24  25
ENDBRANCH  23  24
ENDBRANCH  22  23
ENDBRANCH  21  22
ENDBRANCH  20  21
ENDBRANCH  19  20
ENDBRANCH  18  19
ENDBRANCH   1  18
TORSDOF 28
ENDMDL
MODEL 2
REMARK VINA RESULT:    -3.747     10.293     14.261
REMARK INTER + INTRA:         -15.161
REMARK INTER:                  -8.972
REMARK INTRA:                  -6.189
REMARK UNBOUND:                -5.280
REMARK SMILES CCCCCCCCCCCCCCCCCCCCCCCCCCCCCC(=O)[O-]
REMARK SMILES IDX 16 1 17 2 18 3 19 4 20 5 21 6 22 7 23 8 24 9 25 10 26 11
REMARK SMILES IDX 27 12 28 13 29 14 30 15 31 16 32 17 15 18 14 19 13 20 12 21
REMARK SMILES IDX 11 22 10 23 9 24 8 25 7 26 6 27 5 28 4 29 3 30 2 31 1 32
REMARK H PARENT
REMARK Flexibility Score: inf
ROOT
ATOM      1  C   UNL     1     132.291 129.864 114.822  1.00  0.00     0.000 C 
ENDROOT
BRANCH   1   2
ATOM      2  C   UNL     1     131.782 128.463 114.445  1.00  0.00     0.000 C 
BRANCH   2   3
ATOM      3  C   UNL     1     131.983 127.429 115.567  1.00  0.00     0.000 C 
BRANCH   3   4
ATOM      4  C   UNL     1     131.368 127.805 116.930  1.00  0.00     0.000 C 
BRANCH   4   5
ATOM      5  C   UNL     1     129.934 127.278 117.104  1.00  0.00     0.000 C 
BRANCH   5   6
ATOM      6  C   UNL     1     129.317 127.686 118.451  1.00  0.00     0.000 C 
BRANCH   6   7
ATOM      7  C   UNL     1     130.353 128.226 119.460  1.00  0.00     0.000 C 
BRANCH   7   8
ATOM      8  C   UNL     1     129.695 129.080 120.558  1.00  0.00     0.000 C 
BRANCH   8   9
ATOM      9  C   UNL     1     128.267 129.530 120.184  1.00  0.00     0.000 C 
BRANCH   9  10
ATOM     10  C   UNL     1     127.758 130.737 120.997  1.00  0.00     0.000 C 
BRANCH  10  11
ATOM     11  C   UNL     1     128.854 131.668 121.548  1.00  0.00     0.000 C 
BRANCH  11  12
ATOM     12  C   UNL     1     128.358 132.728 122.550  1.00  0.00     0.000 C 
BRANCH  12  13
ATOM     13  C   UNL     1     128.650 132.346 124.008  1.00  0.00     0.006 C 
BRANCH  13  14
ATOM     14  C   UNL     1     128.680 133.590 124.904  1.00  0.00     0.053 C 
BRANCH  14  15
ATOM     15  C   UNL     1     128.454 133.220 126.337  1.00  0.00     0.041 C 
ATOM     16  O   UNL     1     129.386 133.333 127.177  1.00  0.00    -0.550 OA
ATOM     17  O   UNL     1     127.218 132.731 126.743  1.00  0.00    -0.550 OA
ENDBRANCH  14  15
ENDBRANCH  13  14
ENDBRANCH  12  13
ENDBRANCH  11  12
ENDBRANCH  10  11
ENDBRANCH   9  10
ENDBRANCH   8   9
ENDBRANCH   7   8
ENDBRANCH   6   7
ENDBRANCH   5   6
ENDBRANCH   4   5
ENDBRANCH   3   4
ENDBRANCH   2   3
ENDBRANCH   1   2
BRANCH   1  18
ATOM     18  C   UNL     1     131.769 130.964 113.882  1.00  0.00     0.000 C 
BRANCH  18  19
ATOM     19  C   UNL     1     131.817 132.395 114.453  1.00  0.00     0.000 C 
BRANCH  19  20
ATOM     20  C   UNL     1     130.547 133.238 114.221  1.00  0.00     0.000 C 
BRANCH  20  21
ATOM     21  C   UNL     1     129.540 132.638 113.223  1.00  0.00     0.000 C 
BRANCH  21  22
ATOM     22  C   UNL     1     128.177 132.247 113.825  1.00  0.00     0.000 C 
BRANCH  22  23
ATOM     23  C   UNL     1     127.910 130.726 113.833  1.00  0.00     0.000 C 
BRANCH  23  24
ATOM     24  C   UNL     1     128.362 130.047 115.137  1.00  0.00    -0.000 C 
BRANCH  24  25
ATOM     25  C   UNL     1     128.347 131.020 116.335  1.00  0.00    -0.000 C 
BRANCH  25  26
ATOM     26  C   UNL     1     129.687 131.086 117.088  1.00  0.00    -0.000 C 
BRANCH  26  27
ATOM     27  C   UNL     1     129.767 132.273 118.063  1.00  0.00    -0.000 C 
BRANCH  27  28
ATOM     28  C   UNL     1     131.144 132.399 118.732  1.00  0.00    -0.000 C 
BRANCH  28  29
ATOM     29  C   UNL     1     132.178 131.419 118.157  1.00  0.00    -0.000 C 
BRANCH  29  30
ATOM     30  C   UNL     1     132.930 130.693 119.282  1.00  0.00    -0.000 C 
BRANCH  30  31
ATOM     31  C   UNL     1     133.911 129.637 118.752  1.00  0.00    -0.003 C 
ATOM     32  C   UNL     1     134.734 130.136 117.564  1.00  0.00     0.004 C 
ENDBRANCH  30  31
ENDBRANCH  29  30
ENDBRANCH  28  29
ENDBRANCH  27  28
ENDBRANCH  26  27
ENDBRANCH  25  26
ENDBRANCH  24  25
ENDBRANCH  23  24
ENDBRANCH  22  23
ENDBRANCH  21  22
ENDBRANCH  20  21
ENDBRANCH  19  20
ENDBRANCH  18  19
ENDBRANCH   1  18
TORSDOF 28
ENDMDL
MODEL 3
REMARK VINA RESULT:    -3.693      2.926      4.646
REMARK INTER + INTRA:         -15.017
REMARK INTER:                  -9.172
REMARK INTRA:                  -5.845
REMARK UNBOUND:                -5.280
REMARK SMILES CCCCCCCCCCCCCCCCCCCCCCCCCCCCCC(=O)[O-]
REMARK SMILES IDX 16 1 17 2 18 3 19 4 20 5 21 6 22 7 23 8 24 9 25 10 26 11
REMARK SMILES IDX 27 12 28 13 29 14 30 15 31 16 32 17 15 18 14 19 13 20 12 21
REMARK SMILES IDX 11 22 10 23 9 24 8 25 7 26 6 27 5 28 4 29 3 30 2 31 1 32
REMARK H PARENT
REMARK Flexibility Score: inf
ROOT
ATOM      1  C   UNL     1     141.493 129.523 115.849  1.00  0.00     0.000 C 
ENDROOT
BRANCH   1   2
ATOM      2  C   UNL     1     141.864 128.063 116.155  1.00  0.00     0.000 C 
BRANCH   2   3
ATOM      3  C   UNL     1     142.497 127.340 114.952  1.00  0.00     0.000 C 
BRANCH   3   4
ATOM      4  C   UNL     1     144.014 127.550 114.780  1.00  0.00     0.000 C 
BRANCH   4   5
ATOM      5  C   UNL     1     144.822 127.115 116.015  1.00  0.00     0.000 C 
BRANCH   5   6
ATOM      6  C   UNL     1     145.844 128.176 116.453  1.00  0.00     0.000 C 
BRANCH   6   7
ATOM      7  C   UNL     1     146.007 129.326 115.435  1.00  0.00     0.000 C 
BRANCH   7   8
ATOM      8  C   UNL     1     145.892 130.706 116.104  1.00  0.00     0.000 C 
BRANCH   8   9
ATOM      9  C   UNL     1     144.525 131.376 115.854  1.00  0.00     0.000 C 
BRANCH   9  10
ATOM     10  C   UNL     1     144.225 132.559 116.795  1.00  0.00     0.000 C 
BRANCH  10  11
ATOM     11  C   UNL     1     143.060 132.337 117.779  1.00  0.00     0.000 C 
BRANCH  11  12
ATOM     12  C   UNL     1     143.487 132.049 119.230  1.00  0.00     0.000 C 
BRANCH  12  13
ATOM     13  C   UNL     1     142.977 130.694 119.740  1.00  0.00     0.006 C 
BRANCH  13  14
ATOM     14  C   UNL     1     143.630 129.538 118.973  1.00  0.00     0.053 C 
BRANCH  14  15
ATOM     15  C   UNL     1     143.694 128.306 119.819  1.00  0.00     0.041 C 
ATOM     16  O   UNL     1     143.419 127.180 119.325  1.00  0.00    -0.550 OA
ATOM     17  O   UNL     1     144.040 128.401 121.162  1.00  0.00    -0.550 OA
ENDBRANCH  14  15
ENDBRANCH  13  14
ENDBRANCH  12  13
ENDBRANCH  11  12
ENDBRANCH  10  11
ENDBRANCH   9  10
ENDBRANCH   8   9
ENDBRANCH   7   8
ENDBRANCH   6   7
ENDBRANCH   5   6
ENDBRANCH   4   5
ENDBRANCH   3   4
ENDBRANCH   2   3
ENDBRANCH   1   2
BRANCH   1  18
ATOM     18  C   UNL     1     141.159 129.757 114.365  1.00  0.00     0.000 C 
BRANCH  18  19
ATOM     19  C   UNL     1     139.691 130.124 114.071  1.00  0.00     0.000 C 
BRANCH  19  20
ATOM     20  C   UNL     1     138.931 129.129 113.171  1.00  0.00     0.000 C 
BRANCH  20  21
ATOM     21  C   UNL     1     138.897 127.678 113.688  1.00  0.00     0.000 C 
BRANCH  21  22
ATOM     22  C   UNL     1     137.743 127.358 114.656  1.00  0.00     0.000 C 
BRANCH  22  23
ATOM     23  C   UNL     1     138.155 127.361 116.144  1.00  0.00     0.000 C 
BRANCH  23  24
ATOM     24  C   UNL     1     136.978 127.658 117.090  1.00  0.00    -0.000 C 
BRANCH  24  25
ATOM     25  C   UNL     1     137.424 128.439 118.345  1.00  0.00    -0.000 C 
BRANCH  25  26
ATOM     26  C   UNL     1     138.717 129.247 118.137  1.00  0.00    -0.000 C 
BRANCH  26  27
ATOM     27  C   UNL     1     139.821 128.876 119.140  1.00  0.00    -0.000 C 
BRANCH  27  28
ATOM     28  C   UNL     1     139.999 127.358 119.293  1.00  0.00    -0.000 C 
BRANCH  28  29
ATOM     29  C   UNL     1     140.137 126.919 120.759  1.00  0.00    -0.000 C 
BRANCH  29  30
ATOM     30  C   UNL     1     140.415 128.126 121.668  1.00  0.00    -0.000 C 
BRANCH  30  31
ATOM     31  C   UNL     1     139.343 128.310 122.752  1.00  0.00    -0.003 C 
ATOM     32  C   UNL     1     138.054 127.546 122.445  1.00  0.00     0.004 C 
ENDBRANCH  30  31
ENDBRANCH  29  30
ENDBRANCH  28  29
ENDBRANCH  27  28
ENDBRANCH  26  27
ENDBRANCH  25  26
ENDBRANCH  24  25
ENDBRANCH  23  24
ENDBRANCH  22  23
ENDBRANCH  21  22
ENDBRANCH  20  21
ENDBRANCH  19  20
ENDBRANCH  18  19
ENDBRANCH   1  18
TORSDOF 28
ENDMDL
MODEL 4
REMARK VINA RESULT:    -3.636     10.437     14.689
REMARK INTER + INTRA:         -14.869
REMARK INTER:                 -10.136
REMARK INTRA:                  -4.732
REMARK UNBOUND:                -5.280
REMARK SMILES CCCCCCCCCCCCCCCCCCCCCCCCCCCCCC(=O)[O-]
REMARK SMILES IDX 16 1 17 2 18 3 19 4 20 5 21 6 22 7 23 8 24 9 25 10 26 11
REMARK SMILES IDX 27 12 28 13 29 14 30 15 31 16 32 17 15 18 14 19 13 20 12 21
REMARK SMILES IDX 11 22 10 23 9 24 8 25 7 26 6 27 5 28 4 29 3 30 2 31 1 32
REMARK H PARENT
REMARK Flexibility Score: inf
ROOT
ATOM      1  C   UNL     1     132.843 130.377 116.767  1.00  0.00     0.000 C 
ENDROOT
BRANCH   1   2
ATOM      2  C   UNL     1     133.087 129.745 118.147  1.00  0.00     0.000 C 
BRANCH   2   3
ATOM      3  C   UNL     1     131.799 129.610 118.981  1.00  0.00     0.000 C 
BRANCH   3   4
ATOM      4  C   UNL     1     131.584 128.235 119.645  1.00  0.00     0.000 C 
BRANCH   4   5
ATOM      5  C   UNL     1     130.550 128.276 120.783  1.00  0.00     0.000 C 
BRANCH   5   6
ATOM      6  C   UNL     1     131.185 128.605 122.143  1.00  0.00     0.000 C 
BRANCH   6   7
ATOM      7  C   UNL     1     130.618 127.760 123.304  1.00  0.00     0.000 C 
BRANCH   7   8
ATOM      8  C   UNL     1     131.176 128.207 124.666  1.00  0.00     0.000 C 
BRANCH   8   9
ATOM      9  C   UNL     1     130.064 128.552 125.679  1.00  0.00     0.000 C 
BRANCH   9  10
ATOM     10  C   UNL     1     128.674 128.006 125.294  1.00  0.00     0.000 C 
BRANCH  10  11
ATOM     11  C   UNL     1     127.617 129.076 124.961  1.00  0.00     0.000 C 
BRANCH  11  12
ATOM     12  C   UNL     1     127.132 129.072 123.499  1.00  0.00     0.000 C 
BRANCH  12  13
ATOM     13  C   UNL     1     127.847 130.121 122.635  1.00  0.00     0.006 C 
BRANCH  13  14
ATOM     14  C   UNL     1     127.080 130.370 121.330  1.00  0.00     0.053 C 
BRANCH  14  15
ATOM     15  C   UNL     1     128.013 130.778 120.234  1.00  0.00     0.041 C 
ATOM     16  O   UNL     1     127.895 130.284 119.081  1.00  0.00    -0.550 OA
ATOM     17  O   UNL     1     129.028 131.694 120.489  1.00  0.00    -0.550 OA
ENDBRANCH  14  15
ENDBRANCH  13  14
ENDBRANCH  12  13
ENDBRANCH  11  12
ENDBRANCH  10  11
ENDBRANCH   9  10
ENDBRANCH   8   9
ENDBRANCH   7   8
ENDBRANCH   6   7
ENDBRANCH   5   6
ENDBRANCH   4   5
ENDBRANCH   3   4
ENDBRANCH   2   3
ENDBRANCH   1   2
BRANCH   1  18
ATOM     18  C   UNL     1     133.254 129.456 115.605  1.00  0.00     0.000 C 
BRANCH  18  19
ATOM     19  C   UNL     1     133.832 128.089 116.023  1.00  0.00     0.000 C 
BRANCH  19  20
ATOM     20  C   UNL     1     132.920 126.877 115.745  1.00  0.00     0.000 C 
BRANCH  20  21
ATOM     21  C   UNL     1     131.986 127.029 114.531  1.00  0.00     0.000 C 
BRANCH  21  22
ATOM     22  C   UNL     1     130.481 126.958 114.852  1.00  0.00     0.000 C 
BRANCH  22  23
ATOM     23  C   UNL     1     130.128 127.380 116.295  1.00  0.00     0.000 C 
BRANCH  23  24
ATOM     24  C   UNL     1     129.529 128.795 116.373  1.00  0.00    -0.000 C 
BRANCH  24  25
ATOM     25  C   UNL     1     129.416 129.457 114.983  1.00  0.00    -0.000 C 
BRANCH  25  26
ATOM     26  C   UNL     1     128.268 130.475 114.881  1.00  0.00    -0.000 C 
BRANCH  26  27
ATOM     27  C   UNL     1     128.444 131.459 113.712  1.00  0.00    -0.000 C 
BRANCH  27  28
ATOM     28  C   UNL     1     127.833 132.838 113.999  1.00  0.00    -0.000 C 
BRANCH  28  29
ATOM     29  C   UNL     1     128.046 133.293 115.452  1.00  0.00    -0.000 C 
BRANCH  29  30
ATOM     30  C   UNL     1     129.280 134.200 115.566  1.00  0.00    -0.000 C 
BRANCH  30  31
ATOM     31  C   UNL     1     130.473 133.496 116.228  1.00  0.00    -0.003 C 
ATOM     32  C   UNL     1     130.048 132.500 117.307  1.00  0.00     0.004 C 
ENDBRANCH  30  31
ENDBRANCH  29  30
ENDBRANCH  28  29
ENDBRANCH  27  28
ENDBRANCH  26  27
ENDBRANCH  25  26
ENDBRANCH  24  25
ENDBRANCH  23  24
ENDBRANCH  22  23
ENDBRANCH  21  22
ENDBRANCH  20  21
ENDBRANCH  19  20
ENDBRANCH  18  19
ENDBRANCH   1  18
TORSDOF 28
ENDMDL
MODEL 5
REMARK VINA RESULT:    -3.599      1.095      2.193
REMARK INTER + INTRA:         -14.770
REMARK INTER:                  -9.890
REMARK INTRA:                  -4.880
REMARK UNBOUND:                -5.280
REMARK SMILES CCCCCCCCCCCCCCCCCCCCCCCCCCCCCC(=O)[O-]
REMARK SMILES IDX 16 1 17 2 18 3 19 4 20 5 21 6 22 7 23 8 24 9 25 10 26 11
REMARK SMILES IDX 27 12 28 13 29 14 30 15 31 16 32 17 15 18 14 19 13 20 12 21
REMARK SMILES IDX 11 22 10 23 9 24 8 25 7 26 6 27 5 28 4 29 3 30 2 31 1 32
REMARK H PARENT
REMARK Flexibility Score: inf
ROOT
ATOM      1  C   UNL     1     139.697 129.670 114.420  1.00  0.00     0.000 C 
ENDROOT
BRANCH   1   2
ATOM      2  C   UNL     1     140.937 130.309 113.775  1.00  0.00     0.000 C 
BRANCH   2   3
ATOM      3  C   UNL     1     142.234 130.026 114.557  1.00  0.00     0.000 C 
BRANCH   3   4
ATOM      4  C   UNL     1     142.098 129.021 115.718  1.00  0.00     0.000 C 
BRANCH   4   5
ATOM      5  C   UNL     1     142.784 127.676 115.428  1.00  0.00     0.000 C 
BRANCH   5   6
ATOM      6  C   UNL     1     143.778 127.273 116.528  1.00  0.00     0.000 C 
BRANCH   6   7
ATOM      7  C   UNL     1     145.253 127.522 116.141  1.00  0.00     0.000 C 
BRANCH   7   8
ATOM      8  C   UNL     1     145.400 127.913 114.661  1.00  0.00     0.000 C 
BRANCH   8   9
ATOM      9  C   UNL     1     145.756 129.403 114.473  1.00  0.00     0.000 C 
BRANCH   9  10
ATOM     10  C   UNL     1     145.886 130.187 115.794  1.00  0.00     0.000 C 
BRANCH  10  11
ATOM     11  C   UNL     1     146.764 131.451 115.723  1.00  0.00     0.000 C 
BRANCH  11  12
ATOM     12  C   UNL     1     146.220 132.660 116.508  1.00  0.00     0.000 C 
BRANCH  12  13
ATOM     13  C   UNL     1     145.420 133.629 115.625  1.00  0.00     0.006 C 
BRANCH  13  14
ATOM     14  C   UNL     1     146.357 134.546 114.829  1.00  0.00     0.053 C 
BRANCH  14  15
ATOM     15  C   UNL     1     145.663 135.816 114.450  1.00  0.00     0.041 C 
ATOM     16  O   UNL     1     146.290 136.909 114.454  1.00  0.00    -0.550 OA
ATOM     17  O   UNL     1     144.315 135.797 114.108  1.00  0.00    -0.550 OA
ENDBRANCH  14  15
ENDBRANCH  13  14
ENDBRANCH  12  13
ENDBRANCH  11  12
ENDBRANCH  10  11
ENDBRANCH   9  10
ENDBRANCH   8   9
ENDBRANCH   7   8
ENDBRANCH   6   7
ENDBRANCH   5   6
ENDBRANCH   4   5
ENDBRANCH   3   4
ENDBRANCH   2   3
ENDBRANCH   1   2
BRANCH   1  18
ATOM     18  C   UNL     1     138.863 128.845 113.425  1.00  0.00     0.000 C 
BRANCH  18  19
ATOM     19  C   UNL     1     138.805 127.331 113.710  1.00  0.00     0.000 C 
BRANCH  19  20
ATOM     20  C   UNL     1     137.734 126.894 114.729  1.00  0.00     0.000 C 
BRANCH  20  21
ATOM     21  C   UNL     1     137.166 128.028 115.604  1.00  0.00     0.000 C 
BRANCH  21  22
ATOM     22  C   UNL     1     137.362 127.843 117.120  1.00  0.00     0.000 C 
BRANCH  22  23
ATOM     23  C   UNL     1     138.691 128.420 117.654  1.00  0.00     0.000 C 
BRANCH  23  24
ATOM     24  C   UNL     1     139.283 127.589 118.806  1.00  0.00    -0.000 C 
BRANCH  24  25
ATOM     25  C   UNL     1     140.775 127.263 118.581  1.00  0.00    -0.000 C 
BRANCH  25  26
ATOM     26  C   UNL     1     141.563 127.064 119.888  1.00  0.00    -0.000 C 
BRANCH  26  27
ATOM     27  C   UNL     1     142.722 128.062 120.044  1.00  0.00    -0.000 C 
BRANCH  27  28
ATOM     28  C   UNL     1     142.422 129.426 119.403  1.00  0.00    -0.000 C 
BRANCH  28  29
ATOM     29  C   UNL     1     143.691 130.151 118.927  1.00  0.00    -0.000 C 
BRANCH  29  30
ATOM     30  C   UNL     1     143.339 131.491 118.263  1.00  0.00    -0.000 C 
BRANCH  30  31
ATOM     31  C   UNL     1     141.838 131.806 118.329  1.00  0.00    -0.003 C 
ATOM     32  C   UNL     1     141.327 132.515 117.073  1.00  0.00     0.004 C 
ENDBRANCH  30  31
ENDBRANCH  29  30
ENDBRANCH  28  29
ENDBRANCH  27  28
ENDBRANCH  26  27
ENDBRANCH  25  26
ENDBRANCH  24  25
ENDBRANCH  23  24
ENDBRANCH  22  23
ENDBRANCH  21  22
ENDBRANCH  20  21
ENDBRANCH  19  20
ENDBRANCH  18  19
ENDBRANCH   1  18
TORSDOF 28
ENDMDL
MODEL 6
REMARK VINA RESULT:    -3.564      3.448      5.014
REMARK INTER + INTRA:         -14.679
REMARK INTER:                  -8.818
REMARK INTRA:                  -5.861
REMARK UNBOUND:                -5.280
REMARK SMILES CCCCCCCCCCCCCCCCCCCCCCCCCCCCCC(=O)[O-]
REMARK SMILES IDX 16 1 17 2 18 3 19 4 20 5 21 6 22 7 23 8 24 9 25 10 26 11
REMARK SMILES IDX 27 12 28 13 29 14 30 15 31 16 32 17 15 18 14 19 13 20 12 21
REMARK SMILES IDX 11 22 10 23 9 24 8 25 7 26 6 27 5 28 4 29 3 30 2 31 1 32
REMARK H PARENT
REMARK Flexibility Score: inf
ROOT
ATOM      1  C   UNL     1     141.016 130.286 114.062  1.00  0.00     0.000 C 
ENDROOT
BRANCH   1   2
ATOM      2  C   UNL     1     141.897 129.964 115.281  1.00  0.00     0.000 C 
BRANCH   2   3
ATOM      3  C   UNL     1     141.643 128.555 115.850  1.00  0.00     0.000 C 
BRANCH   3   4
ATOM      4  C   UNL     1     142.434 127.418 115.174  1.00  0.00     0.000 C 
BRANCH   4   5
ATOM      5  C   UNL     1     143.859 127.836 114.774  1.00  0.00     0.000 C 
BRANCH   5   6
ATOM      6  C   UNL     1     144.938 127.002 115.482  1.00  0.00     0.000 C 
BRANCH   6   7
ATOM      7  C   UNL     1     145.965 127.859 116.254  1.00  0.00     0.000 C 
BRANCH   7   8
ATOM      8  C   UNL     1     145.915 129.337 115.830  1.00  0.00     0.000 C 
BRANCH   8   9
ATOM      9  C   UNL     1     145.849 130.298 117.035  1.00  0.00     0.000 C 
BRANCH   9  10
ATOM     10  C   UNL     1     144.432 130.480 117.615  1.00  0.00     0.000 C 
BRANCH  10  11
ATOM     11  C   UNL     1     144.185 129.797 118.973  1.00  0.00     0.000 C 
BRANCH  11  12
ATOM     12  C   UNL     1     143.570 128.388 118.884  1.00  0.00     0.000 C 
BRANCH  12  13
ATOM     13  C   UNL     1     143.098 127.860 120.247  1.00  0.00     0.006 C 
BRANCH  13  14
ATOM     14  C   UNL     1     143.744 128.649 121.393  1.00  0.00     0.053 C 
BRANCH  14  15
ATOM     15  C   UNL     1     143.244 128.166 122.719  1.00  0.00     0.041 C 
ATOM     16  O   UNL     1     142.007 128.029 122.919  1.00  0.00    -0.550 OA
ATOM     17  O   UNL     1     144.142 127.883 123.741  1.00  0.00    -0.550 OA
ENDBRANCH  14  15
ENDBRANCH  13  14
ENDBRANCH  12  13
ENDBRANCH  11  12
ENDBRANCH  10  11
ENDBRANCH   9  10
ENDBRANCH   8   9
ENDBRANCH   7   8
ENDBRANCH   6   7
ENDBRANCH   5   6
ENDBRANCH   4   5
ENDBRANCH   3   4
ENDBRANCH   2   3
ENDBRANCH   1   2
BRANCH   1  18
ATOM     18  C   UNL     1     139.542 129.898 114.271  1.00  0.00     0.000 C 
BRANCH  18  19
ATOM     19  C   UNL     1     138.878 129.174 113.083  1.00  0.00     0.000 C 
BRANCH  19  20
ATOM     20  C   UNL     1     138.709 127.651 113.252  1.00  0.00     0.000 C 
BRANCH  20  21
ATOM     21  C   UNL     1     138.517 127.174 114.704  1.00  0.00     0.000 C 
BRANCH  21  22
ATOM     22  C   UNL     1     137.068 127.227 115.222  1.00  0.00     0.000 C 
BRANCH  22  23
ATOM     23  C   UNL     1     136.778 128.430 116.146  1.00  0.00     0.000 C 
BRANCH  23  24
ATOM     24  C   UNL     1     137.150 128.158 117.615  1.00  0.00    -0.000 C 
BRANCH  24  25
ATOM     25  C   UNL     1     138.533 128.740 117.981  1.00  0.00    -0.000 C 
BRANCH  25  26
ATOM     26  C   UNL     1     139.399 127.782 118.817  1.00  0.00    -0.000 C 
BRANCH  26  27
ATOM     27  C   UNL     1     139.604 128.268 120.261  1.00  0.00    -0.000 C 
BRANCH  27  28
ATOM     28  C   UNL     1     138.671 129.430 120.634  1.00  0.00    -0.000 C 
BRANCH  28  29
ATOM     29  C   UNL     1     139.427 130.636 121.216  1.00  0.00    -0.000 C 
BRANCH  29  30
ATOM     30  C   UNL     1     140.859 130.702 120.665  1.00  0.00    -0.000 C 
BRANCH  30  31
ATOM     31  C   UNL     1     141.091 131.927 119.768  1.00  0.00    -0.003 C 
ATOM     32  C   UNL     1     140.877 131.624 118.285  1.00  0.00     0.004 C 
ENDBRANCH  30  31
ENDBRANCH  29  30
ENDBRANCH  28  29
ENDBRANCH  27  28
ENDBRANCH  26  27
ENDBRANCH  25  26
ENDBRANCH  24  25
ENDBRANCH  23  24
ENDBRANCH  22  23
ENDBRANCH  21  22
ENDBRANCH  20  21
ENDBRANCH  19  20
ENDBRANCH  18  19
ENDBRANCH   1  18
TORSDOF 28
ENDMDL
MODEL 7
REMARK VINA RESULT:    -3.562      1.385      3.130
REMARK INTER + INTRA:         -14.672
REMARK INTER:                  -8.719
REMARK INTRA:                  -5.953
REMARK UNBOUND:                -5.280
REMARK SMILES CCCCCCCCCCCCCCCCCCCCCCCCCCCCCC(=O)[O-]
REMARK SMILES IDX 16 1 17 2 18 3 19 4 20 5 21 6 22 7 23 8 24 9 25 10 26 11
REMARK SMILES IDX 27 12 28 13 29 14 30 15 31 16 32 17 15 18 14 19 13 20 12 21
REMARK SMILES IDX 11 22 10 23 9 24 8 25 7 26 6 27 5 28 4 29 3 30 2 31 1 32
REMARK H PARENT
REMARK Flexibility Score: inf
ROOT
ATOM      1  C   UNL     1     140.378 131.335 117.181  1.00  0.00     0.000 C 
ENDROOT
BRANCH   1   2
ATOM      2  C   UNL     1     141.575 130.420 116.875  1.00  0.00     0.000 C 
BRANCH   2   3
ATOM      3  C   UNL     1     142.450 130.942 115.720  1.00  0.00     0.000 C 
BRANCH   3   4
ATOM      4  C   UNL     1     142.942 129.869 114.728  1.00  0.00     0.000 C 
BRANCH   4   5
ATOM      5  C   UNL     1     142.457 128.455 115.087  1.00  0.00     0.000 C 
BRANCH   5   6
ATOM      6  C   UNL     1     143.596 127.424 115.086  1.00  0.00     0.000 C 
BRANCH   6   7
ATOM      7  C   UNL     1     144.039 127.000 116.503  1.00  0.00     0.000 C 
BRANCH   7   8
ATOM      8  C   UNL     1     145.293 127.762 116.965  1.00  0.00     0.000 C 
BRANCH   8   9
ATOM      9  C   UNL     1     144.963 128.915 117.936  1.00  0.00     0.000 C 
BRANCH   9  10
ATOM     10  C   UNL     1     145.630 130.256 117.567  1.00  0.00     0.000 C 
BRANCH  10  11
ATOM     11  C   UNL     1     146.355 130.276 116.208  1.00  0.00     0.000 C 
BRANCH  11  12
ATOM     12  C   UNL     1     146.299 131.626 115.467  1.00  0.00     0.000 C 
BRANCH  12  13
ATOM     13  C   UNL     1     146.043 132.810 116.411  1.00  0.00     0.006 C 
BRANCH  13  14
ATOM     14  C   UNL     1     144.895 133.685 115.892  1.00  0.00     0.053 C 
BRANCH  14  15
ATOM     15  C   UNL     1     145.423 134.927 115.246  1.00  0.00     0.041 C 
ATOM     16  O   UNL     1     144.914 136.048 115.514  1.00  0.00    -0.550 OA
ATOM     17  O   UNL     1     146.469 134.846 114.334  1.00  0.00    -0.550 OA
ENDBRANCH  14  15
ENDBRANCH  13  14
ENDBRANCH  12  13
ENDBRANCH  11  12
ENDBRANCH  10  11
ENDBRANCH   9  10
ENDBRANCH   8   9
ENDBRANCH   7   8
ENDBRANCH   6   7
ENDBRANCH   5   6
ENDBRANCH   4   5
ENDBRANCH   3   4
ENDBRANCH   2   3
ENDBRANCH   1   2
BRANCH   1  18
ATOM     18  C   UNL     1     139.139 131.004 116.330  1.00  0.00     0.000 C 
BRANCH  18  19
ATOM     19  C   UNL     1     139.003 131.810 115.024  1.00  0.00     0.000 C 
BRANCH  19  20
ATOM     20  C   UNL     1     138.495 131.011 113.807  1.00  0.00     0.000 C 
BRANCH  20  21
ATOM     21  C   UNL     1     139.454 129.919 113.298  1.00  0.00     0.000 C 
BRANCH  21  22
ATOM     22  C   UNL     1     138.848 128.506 113.212  1.00  0.00     0.000 C 
BRANCH  22  23
ATOM     23  C   UNL     1     138.898 127.722 114.541  1.00  0.00     0.000 C 
BRANCH  23  24
ATOM     24  C   UNL     1     137.500 127.401 115.098  1.00  0.00    -0.000 C 
BRANCH  24  25
ATOM     25  C   UNL     1     137.501 127.279 116.637  1.00  0.00    -0.000 C 
BRANCH  25  26
ATOM     26  C   UNL     1     138.886 126.958 117.225  1.00  0.00    -0.000 C 
BRANCH  26  27
ATOM     27  C   UNL     1     139.263 127.873 118.402  1.00  0.00    -0.000 C 
BRANCH  27  28
ATOM     28  C   UNL     1     140.641 127.542 118.994  1.00  0.00    -0.000 C 
BRANCH  28  29
ATOM     29  C   UNL     1     140.913 128.279 120.316  1.00  0.00    -0.000 C 
BRANCH  29  30
ATOM     30  C   UNL     1     142.396 128.658 120.436  1.00  0.00    -0.000 C 
BRANCH  30  31
ATOM     31  C   UNL     1     142.617 130.178 120.464  1.00  0.00    -0.003 C 
ATOM     32  C   UNL     1     141.348 130.954 120.817  1.00  0.00     0.004 C 
ENDBRANCH  30  31
ENDBRANCH  29  30
ENDBRANCH  28  29
ENDBRANCH  27  28
ENDBRANCH  26  27
ENDBRANCH  25  26
ENDBRANCH  24  25
ENDBRANCH  23  24
ENDBRANCH  22  23
ENDBRANCH  21  22
ENDBRANCH  20  21
ENDBRANCH  19  20
ENDBRANCH  18  19
ENDBRANCH   1  18
TORSDOF 28
ENDMDL
MODEL 8
REMARK VINA RESULT:    -3.536      3.313      5.998
REMARK INTER + INTRA:         -14.605
REMARK INTER:                  -8.620
REMARK INTRA:                  -5.986
REMARK UNBOUND:                -5.280
REMARK SMILES CCCCCCCCCCCCCCCCCCCCCCCCCCCCCC(=O)[O-]
REMARK SMILES IDX 16 1 17 2 18 3 19 4 20 5 21 6 22 7 23 8 24 9 25 10 26 11
REMARK SMILES IDX 27 12 28 13 29 14 30 15 31 16 32 17 15 18 14 19 13 20 12 21
REMARK SMILES IDX 11 22 10 23 9 24 8 25 7 26 6 27 5 28 4 29 3 30 2 31 1 32
REMARK H PARENT
REMARK Flexibility Score: inf
ROOT
ATOM      1  C   UNL     1     142.132 130.976 117.684  1.00  0.00     0.000 C 
ENDROOT
BRANCH   1   2
ATOM      2  C   UNL     1     143.374 131.749 117.210  1.00  0.00     0.000 C 
BRANCH   2   3
ATOM      3  C   UNL     1     144.653 130.892 117.218  1.00  0.00     0.000 C 
BRANCH   3   4
ATOM      4  C   UNL     1     145.525 130.995 115.951  1.00  0.00     0.000 C 
BRANCH   4   5
ATOM      5  C   UNL     1     145.929 129.622 115.388  1.00  0.00     0.000 C 
BRANCH   5   6
ATOM      6  C   UNL     1     144.826 128.994 114.523  1.00  0.00     0.000 C 
BRANCH   6   7
ATOM      7  C   UNL     1     144.376 127.602 115.020  1.00  0.00     0.000 C 
BRANCH   7   8
ATOM      8  C   UNL     1     142.844 127.459 115.016  1.00  0.00     0.000 C 
BRANCH   8   9
ATOM      9  C   UNL     1     142.264 127.243 116.429  1.00  0.00     0.000 C 
BRANCH   9  10
ATOM     10  C   UNL     1     143.279 127.480 117.566  1.00  0.00     0.000 C 
BRANCH  10  11
ATOM     11  C   UNL     1     142.786 127.101 118.975  1.00  0.00     0.000 C 
BRANCH  11  12
ATOM     12  C   UNL     1     143.007 128.183 120.049  1.00  0.00     0.000 C 
BRANCH  12  13
ATOM     13  C   UNL     1     142.441 127.782 121.419  1.00  0.00     0.006 C 
BRANCH  13  14
ATOM     14  C   UNL     1     143.093 128.599 122.542  1.00  0.00     0.053 C 
BRANCH  14  15
ATOM     15  C   UNL     1     142.066 129.067 123.524  1.00  0.00     0.041 C 
ATOM     16  O   UNL     1     141.843 130.298 123.673  1.00  0.00    -0.550 OA
ATOM     17  O   UNL     1     141.363 128.144 124.290  1.00  0.00    -0.550 OA
ENDBRANCH  14  15
ENDBRANCH  13  14
ENDBRANCH  12  13
ENDBRANCH  11  12
ENDBRANCH  10  11
ENDBRANCH   9  10
ENDBRANCH   8   9
ENDBRANCH   7   8
ENDBRANCH   6   7
ENDBRANCH   5   6
ENDBRANCH   4   5
ENDBRANCH   3   4
ENDBRANCH   2   3
ENDBRANCH   1   2
BRANCH   1  18
ATOM     18  C   UNL     1     141.197 130.578 116.529  1.00  0.00     0.000 C 
BRANCH  18  19
ATOM     19  C   UNL     1     141.673 130.997 115.124  1.00  0.00     0.000 C 
BRANCH  19  20
ATOM     20  C   UNL     1     141.010 130.244 113.953  1.00  0.00     0.000 C 
BRANCH  20  21
ATOM     21  C   UNL     1     139.573 130.688 113.623  1.00  0.00     0.000 C 
BRANCH  21  22
ATOM     22  C   UNL     1     138.491 129.615 113.848  1.00  0.00     0.000 C 
BRANCH  22  23
ATOM     23  C   UNL     1     138.855 128.229 113.274  1.00  0.00     0.000 C 
BRANCH  23  24
ATOM     24  C   UNL     1     138.683 127.093 114.298  1.00  0.00    -0.000 C 
BRANCH  24  25
ATOM     25  C   UNL     1     137.819 127.524 115.503  1.00  0.00    -0.000 C 
BRANCH  25  26
ATOM     26  C   UNL     1     138.495 127.274 116.863  1.00  0.00    -0.000 C 
BRANCH  26  27
ATOM     27  C   UNL     1     138.474 128.510 117.777  1.00  0.00    -0.000 C 
BRANCH  27  28
ATOM     28  C   UNL     1     139.434 128.384 118.969  1.00  0.00    -0.000 C 
BRANCH  28  29
ATOM     29  C   UNL     1     138.703 128.307 120.318  1.00  0.00    -0.000 C 
BRANCH  29  30
ATOM     30  C   UNL     1     139.162 129.433 121.255  1.00  0.00    -0.000 C 
BRANCH  30  31
ATOM     31  C   UNL     1     140.030 130.480 120.541  1.00  0.00    -0.003 C 
ATOM     32  C   UNL     1     139.377 131.861 120.499  1.00  0.00     0.004 C 
ENDBRANCH  30  31
ENDBRANCH  29  30
ENDBRANCH  28  29
ENDBRANCH  27  28
ENDBRANCH  26  27
ENDBRANCH  25  26
ENDBRANCH  24  25
ENDBRANCH  23  24
ENDBRANCH  22  23
ENDBRANCH  21  22
ENDBRANCH  20  21
ENDBRANCH  19  20
ENDBRANCH  18  19
ENDBRANCH   1  18
TORSDOF 28
ENDMDL
MODEL 9
REMARK VINA RESULT:    -3.533      8.999     12.377
REMARK INTER + INTRA:         -14.597
REMARK INTER:                  -8.174
REMARK INTRA:                  -6.423
REMARK UNBOUND:                -5.280
REMARK SMILES CCCCCCCCCCCCCCCCCCCCCCCCCCCCCC(=O)[O-]
REMARK SMILES IDX 16 1 17 2 18 3 19 4 20 5 21 6 22 7 23 8 24 9 25 10 26 11
REMARK SMILES IDX 27 12 28 13 29 14 30 15 31 16 32 17 15 18 14 19 13 20 12 21
REMARK SMILES IDX 11 22 10 23 9 24 8 25 7 26 6 27 5 28 4 29 3 30 2 31 1 32
REMARK H PARENT
REMARK Flexibility Score: inf
ROOT
ATOM      1  C   UNL     1     133.582 130.684 115.923  1.00  0.00     0.000 C 
ENDROOT
BRANCH   1   2
ATOM      2  C   UNL     1     133.563 129.346 115.165  1.00  0.00     0.000 C 
BRANCH   2   3
ATOM      3  C   UNL     1     133.673 128.126 116.098  1.00  0.00     0.000 C 
BRANCH   3   4
ATOM      4  C   UNL     1     132.895 126.875 115.644  1.00  0.00     0.000 C 
BRANCH   4   5
ATOM      5  C   UNL     1     131.923 127.163 114.487  1.00  0.00     0.000 C 
BRANCH   5   6
ATOM      6  C   UNL     1     130.455 126.940 114.883  1.00  0.00     0.000 C 
BRANCH   6   7
ATOM      7  C   UNL     1     129.668 128.255 115.079  1.00  0.00     0.000 C 
BRANCH   7   8
ATOM      8  C   UNL     1     129.901 128.861 116.474  1.00  0.00     0.000 C 
BRANCH   8   9
ATOM      9  C   UNL     1     129.697 127.835 117.608  1.00  0.00     0.000 C 
BRANCH   9  10
ATOM     10  C   UNL     1     130.785 127.883 118.700  1.00  0.00     0.000 C 
BRANCH  10  11
ATOM     11  C   UNL     1     131.568 129.207 118.789  1.00  0.00     0.000 C 
BRANCH  11  12
ATOM     12  C   UNL     1     132.934 129.103 119.493  1.00  0.00     0.000 C 
BRANCH  12  13
ATOM     13  C   UNL     1     133.408 130.446 120.068  1.00  0.00     0.006 C 
BRANCH  13  14
ATOM     14  C   UNL     1     134.864 130.726 119.677  1.00  0.00     0.053 C 
BRANCH  14  15
ATOM     15  C   UNL     1     135.027 132.138 119.210  1.00  0.00     0.041 C 
ATOM     16  O   UNL     1     136.153 132.700 119.266  1.00  0.00    -0.550 OA
ATOM     17  O   UNL     1     133.930 132.843 118.727  1.00  0.00    -0.550 OA
ENDBRANCH  14  15
ENDBRANCH  13  14
ENDBRANCH  12  13
ENDBRANCH  11  12
ENDBRANCH  10  11
ENDBRANCH   9  10
ENDBRANCH   8   9
ENDBRANCH   7   8
ENDBRANCH   6   7
ENDBRANCH   5   6
ENDBRANCH   4   5
ENDBRANCH   3   4
ENDBRANCH   2   3
ENDBRANCH   1   2
BRANCH   1  18
ATOM     18  C   UNL     1     132.436 131.623 115.507  1.00  0.00     0.000 C 
BRANCH  18  19
ATOM     19  C   UNL     1     131.677 131.210 114.231  1.00  0.00     0.000 C 
BRANCH  19  20
ATOM     20  C   UNL     1     131.349 132.360 113.258  1.00  0.00     0.000 C 
BRANCH  20  21
ATOM     21  C   UNL     1     129.875 132.806 113.250  1.00  0.00     0.000 C 
BRANCH  21  22
ATOM     22  C   UNL     1     129.065 132.405 114.496  1.00  0.00     0.000 C 
BRANCH  22  23
ATOM     23  C   UNL     1     129.123 133.439 115.641  1.00  0.00     0.000 C 
BRANCH  23  24
ATOM     24  C   UNL     1     127.901 133.367 116.574  1.00  0.00    -0.000 C 
BRANCH  24  25
ATOM     25  C   UNL     1     127.878 132.065 117.402  1.00  0.00    -0.000 C 
BRANCH  25  26
ATOM     26  C   UNL     1     129.161 131.835 118.220  1.00  0.00    -0.000 C 
BRANCH  26  27
ATOM     27  C   UNL     1     128.888 131.667 119.723  1.00  0.00    -0.000 C 
BRANCH  27  28
ATOM     28  C   UNL     1     128.359 130.270 120.078  1.00  0.00    -0.000 C 
BRANCH  28  29
ATOM     29  C   UNL     1     128.734 129.835 121.504  1.00  0.00    -0.000 C 
BRANCH  29  30
ATOM     30  C   UNL     1     130.033 130.516 121.959  1.00  0.00    -0.000 C 
BRANCH  30  31
ATOM     31  C   UNL     1     130.992 129.547 122.666  1.00  0.00    -0.003 C 
ATOM     32  C   UNL     1     130.644 128.080 122.413  1.00  0.00     0.004 C 
ENDBRANCH  30  31
ENDBRANCH  29  30
ENDBRANCH  28  29
ENDBRANCH  27  28
ENDBRANCH  26  27
ENDBRANCH  25  26
ENDBRANCH  24  25
ENDBRANCH  23  24
ENDBRANCH  22  23
ENDBRANCH  21  22
ENDBRANCH  20  21
ENDBRANCH  19  20
ENDBRANCH  18  19
ENDBRANCH   1  18
TORSDOF 28
ENDMDL
