MODEL 1
REMARK VINA RESULT:    -5.503      0.000      0.000
REMARK INTER + INTRA:          -9.091
REMARK INTER:                  -8.559
REMARK INTRA:                  -0.532
REMARK UNBOUND:                -0.532
REMARK SMILES COc1cc(CNC(=O)CCCCC=CC(C)C)ccc1O
REMARK SMILES IDX 11 1 12 2 13 3 14 4 15 5 16 6 17 7 18 8 10 9 8 10 9 11 7 12
REMARK SMILES IDX 6 14 5 15 4 16 19 17 3 18 20 19 21 20 2 21 1 22 22 23
REMARK H PARENT 7 13 22 24
REMARK Flexibility Score: inf
ROOT
ATOM      1  C   UNL     1      -4.367  38.181  78.217  1.00  0.00     0.010 C 
ENDROOT
BRANCH   1   2
ATOM      2  C   UNL     1      -3.912  39.640  78.398  1.00  0.00     0.005 C 
BRANCH   2   3
ATOM      3  C   UNL     1      -5.040  40.640  78.103  1.00  0.00     0.027 C 
BRANCH   3   4
ATOM      4  C   UNL     1      -4.727  41.520  76.925  1.00  0.00    -0.031 C 
ATOM      5  C   UNL     1      -3.566  42.187  76.835  1.00  0.00    -0.028 C 
BRANCH   5   6
ATOM      6  C   UNL     1      -3.256  43.072  75.652  1.00  0.00     0.005 C 
ATOM      7  C   UNL     1      -2.683  44.415  76.119  1.00  0.00     0.012 C 
ATOM      8  C   UNL     1      -4.514  43.294  74.806  1.00  0.00     0.012 C 
ENDBRANCH   5   6
ENDBRANCH   3   4
ENDBRANCH   2   3
ENDBRANCH   1   2
BRANCH   1   9
ATOM      9  C   UNL     1      -3.643  37.223  79.174  1.00  0.00     0.100 C 
BRANCH   9  10
ATOM     10  C   UNL     1      -4.224  35.841  79.102  1.00  0.00     0.220 C 
ATOM     11  O   UNL     1      -4.835  35.376  80.102  1.00  0.00    -0.275 OA
ATOM     12  N   UNL     1      -4.031  35.031  77.933  1.00  0.00    -0.352 N 
ATOM     13  H   UNL     1      -3.641  35.479  77.073  1.00  0.00     0.163 HD
BRANCH  12  14
ATOM     14  C   UNL     1      -4.020  33.572  78.001  1.00  0.00     0.151 C 
BRANCH  14  15
ATOM     15  C   UNL     1      -3.636  33.013  76.659  1.00  0.00    -0.025 A 
ATOM     16  C   UNL     1      -4.087  33.633  75.482  1.00  0.00     0.056 A 
ATOM     17  C   UNL     1      -2.932  31.804  76.573  1.00  0.00     0.009 A 
ATOM     18  C   UNL     1      -3.840  33.048  74.225  1.00  0.00     0.160 A 
ATOM     19  C   UNL     1      -2.667  31.230  75.328  1.00  0.00     0.050 A 
ATOM     20  C   UNL     1      -3.121  31.847  74.155  1.00  0.00     0.157 A 
BRANCH  18  21
ATOM     21  O   UNL     1      -4.305  33.620  73.031  1.00  0.00    -0.493 OA
ATOM     22  C   UNL     1      -5.042  34.836  72.956  1.00  0.00     0.278 C 
ENDBRANCH  18  21
BRANCH  20  23
ATOM     23  O   UNL     1      -2.871  31.266  72.914  1.00  0.00    -0.504 OA
ATOM     24  H   UNL     1      -1.939  30.968  72.645  1.00  0.00     0.293 HD
ENDBRANCH  20  23
ENDBRANCH  14  15
ENDBRANCH  12  14
ENDBRANCH   9  10
ENDBRANCH   1   9
TORSDOF 10
ENDMDL
MODEL 2
REMARK VINA RESULT:    -5.407      3.352      8.491
REMARK INTER + INTRA:          -8.942
REMARK INTER:                  -8.213
REMARK INTRA:                  -0.729
REMARK UNBOUND:                -0.532
REMARK SMILES COc1cc(CNC(=O)CCCCC=CC(C)C)ccc1O
REMARK SMILES IDX 11 1 12 2 13 3 14 4 15 5 16 6 17 7 18 8 10 9 8 10 9 11 7 12
REMARK SMILES IDX 6 14 5 15 4 16 19 17 3 18 20 19 21 20 2 21 1 22 22 23
REMARK H PARENT 7 13 22 24
REMARK Flexibility Score: inf
ROOT
ATOM      1  C   UNL     1      -3.872  35.447  78.530  1.00  0.00     0.010 C 
ENDROOT
BRANCH   1   2
ATOM      2  C   UNL     1      -4.666  34.139  78.695  1.00  0.00     0.005 C 
BRANCH   2   3
ATOM      3  C   UNL     1      -4.028  32.973  77.925  1.00  0.00     0.027 C 
BRANCH   3   4
ATOM      4  C   UNL     1      -4.023  33.208  76.439  1.00  0.00    -0.031 C 
ATOM      5  C   UNL     1      -2.880  33.242  75.737  1.00  0.00    -0.028 C 
BRANCH   5   6
ATOM      6  C   UNL     1      -2.879  33.481  74.247  1.00  0.00     0.005 C 
ATOM      7  C   UNL     1      -3.627  34.776  73.909  1.00  0.00     0.012 C 
ATOM      8  C   UNL     1      -3.510  32.294  73.513  1.00  0.00     0.012 C 
ENDBRANCH   5   6
ENDBRANCH   3   4
ENDBRANCH   2   3
ENDBRANCH   1   2
BRANCH   1   9
ATOM      9  C   UNL     1      -4.760  36.611  78.064  1.00  0.00     0.100 C 
BRANCH   9  10
ATOM     10  C   UNL     1      -4.171  37.934  78.457  1.00  0.00     0.220 C 
ATOM     11  O   UNL     1      -3.267  37.970  79.335  1.00  0.00    -0.275 OA
ATOM     12  N   UNL     1      -4.674  39.151  77.888  1.00  0.00    -0.352 N 
ATOM     13  H   UNL     1      -5.324  39.091  77.071  1.00  0.00     0.163 HD
BRANCH  12  14
ATOM     14  C   UNL     1      -4.604  40.422  78.604  1.00  0.00     0.151 C 
BRANCH  14  15
ATOM     15  C   UNL     1      -4.203  41.513  77.649  1.00  0.00    -0.025 A 
ATOM     16  C   UNL     1      -4.908  41.690  76.447  1.00  0.00     0.056 A 
ATOM     17  C   UNL     1      -3.053  42.276  77.890  1.00  0.00     0.009 A 
ATOM     18  C   UNL     1      -4.467  42.623  75.488  1.00  0.00     0.160 A 
ATOM     19  C   UNL     1      -2.621  43.216  76.952  1.00  0.00     0.050 A 
ATOM     20  C   UNL     1      -3.323  43.389  75.752  1.00  0.00     0.157 A 
BRANCH  18  21
ATOM     21  O   UNL     1      -5.125  42.803  74.263  1.00  0.00    -0.493 OA
ATOM     22  C   UNL     1      -5.114  41.859  73.197  1.00  0.00     0.278 C 
ENDBRANCH  18  21
BRANCH  20  23
ATOM     23  O   UNL     1      -2.883  44.315  74.809  1.00  0.00    -0.504 OA
ATOM     24  H   UNL     1      -3.509  45.007  74.412  1.00  0.00     0.293 HD
ENDBRANCH  20  23
ENDBRANCH  14  15
ENDBRANCH  12  14
ENDBRANCH   9  10
ENDBRANCH   1   9
TORSDOF 10
ENDMDL
MODEL 3
REMARK VINA RESULT:    -5.264      3.560      9.083
REMARK INTER + INTRA:          -8.719
REMARK INTER:                  -8.159
REMARK INTRA:                  -0.561
REMARK UNBOUND:                -0.532
REMARK SMILES COc1cc(CNC(=O)CCCCC=CC(C)C)ccc1O
REMARK SMILES IDX 11 1 12 2 13 3 14 4 15 5 16 6 17 7 18 8 10 9 8 10 9 11 7 12
REMARK SMILES IDX 6 14 5 15 4 16 19 17 3 18 20 19 21 20 2 21 1 22 22 23
REMARK H PARENT 7 13 22 24
REMARK Flexibility Score: inf
ROOT
ATOM      1  C   UNL     1      -4.216  36.295  77.199  1.00  0.00     0.010 C 
ENDROOT
BRANCH   1   2
ATOM      2  C   UNL     1      -3.090  35.293  76.886  1.00  0.00     0.005 C 
BRANCH   2   3
ATOM      3  C   UNL     1      -2.806  35.193  75.380  1.00  0.00     0.027 C 
BRANCH   3   4
ATOM      4  C   UNL     1      -3.205  33.857  74.814  1.00  0.00    -0.031 C 
ATOM      5  C   UNL     1      -3.891  33.758  73.665  1.00  0.00    -0.028 C 
BRANCH   5   6
ATOM      6  C   UNL     1      -4.292  32.416  73.102  1.00  0.00     0.005 C 
ATOM      7  C   UNL     1      -5.010  31.578  74.167  1.00  0.00     0.012 C 
ATOM      8  C   UNL     1      -3.064  31.668  72.574  1.00  0.00     0.012 C 
ENDBRANCH   5   6
ENDBRANCH   3   4
ENDBRANCH   2   3
ENDBRANCH   1   2
BRANCH   1   9
ATOM      9  C   UNL     1      -4.179  36.775  78.658  1.00  0.00     0.100 C 
BRANCH   9  10
ATOM     10  C   UNL     1      -4.015  38.264  78.735  1.00  0.00     0.220 C 
ATOM     11  O   UNL     1      -3.304  38.760  79.651  1.00  0.00    -0.275 OA
ATOM     12  N   UNL     1      -4.710  39.121  77.818  1.00  0.00    -0.352 N 
ATOM     13  H   UNL     1      -5.183  38.689  76.991  1.00  0.00     0.163 HD
BRANCH  12  14
ATOM     14  C   UNL     1      -5.081  40.489  78.172  1.00  0.00     0.151 C 
BRANCH  14  15
ATOM     15  C   UNL     1      -4.446  41.445  77.200  1.00  0.00    -0.025 A 
ATOM     16  C   UNL     1      -3.551  42.425  77.660  1.00  0.00     0.056 A 
ATOM     17  C   UNL     1      -4.834  41.445  75.853  1.00  0.00     0.009 A 
ATOM     18  C   UNL     1      -3.048  43.404  76.781  1.00  0.00     0.160 A 
ATOM     19  C   UNL     1      -4.324  42.401  74.973  1.00  0.00     0.050 A 
ATOM     20  C   UNL     1      -3.434  43.381  75.433  1.00  0.00     0.157 A 
BRANCH  18  21
ATOM     21  O   UNL     1      -2.180  44.419  77.211  1.00  0.00    -0.493 OA
ATOM     22  C   UNL     1      -1.501  44.420  78.462  1.00  0.00     0.278 C 
ENDBRANCH  18  21
BRANCH  20  23
ATOM     23  O   UNL     1      -2.938  44.345  74.559  1.00  0.00    -0.504 OA
ATOM     24  H   UNL     1      -3.358  45.265  74.489  1.00  0.00     0.293 HD
ENDBRANCH  20  23
ENDBRANCH  14  15
ENDBRANCH  12  14
ENDBRANCH   9  10
ENDBRANCH   1   9
TORSDOF 10
ENDMDL
MODEL 4
REMARK VINA RESULT:    -4.707     10.453     13.109
REMARK INTER + INTRA:          -7.853
REMARK INTER:                  -7.235
REMARK INTRA:                  -0.618
REMARK UNBOUND:                -0.532
REMARK SMILES COc1cc(CNC(=O)CCCCC=CC(C)C)ccc1O
REMARK SMILES IDX 11 1 12 2 13 3 14 4 15 5 16 6 17 7 18 8 10 9 8 10 9 11 7 12
REMARK SMILES IDX 6 14 5 15 4 16 19 17 3 18 20 19 21 20 2 21 1 22 22 23
REMARK H PARENT 7 13 22 24
REMARK Flexibility Score: inf
ROOT
ATOM      1  C   UNL     1       4.716  31.183  85.267  1.00  0.00     0.010 C 
ENDROOT
BRANCH   1   2
ATOM      2  C   UNL     1       6.156  31.538  85.678  1.00  0.00     0.005 C 
BRANCH   2   3
ATOM      3  C   UNL     1       6.866  32.396  84.619  1.00  0.00     0.027 C 
BRANCH   3   4
ATOM      4  C   UNL     1       7.182  33.778  85.124  1.00  0.00    -0.031 C 
ATOM      5  C   UNL     1       8.340  34.051  85.744  1.00  0.00    -0.028 C 
BRANCH   5   6
ATOM      6  C   UNL     1       8.652  35.438  86.252  1.00  0.00     0.005 C 
ATOM      7  C   UNL     1       9.407  35.366  87.584  1.00  0.00     0.012 C 
ATOM      8  C   UNL     1       7.364  36.252  86.411  1.00  0.00     0.012 C 
ENDBRANCH   5   6
ENDBRANCH   3   4
ENDBRANCH   2   3
ENDBRANCH   1   2
BRANCH   1   9
ATOM      9  C   UNL     1       3.698  32.219  85.764  1.00  0.00     0.100 C 
BRANCH   9  10
ATOM     10  C   UNL     1       2.349  31.994  85.145  1.00  0.00     0.220 C 
ATOM     11  O   UNL     1       2.229  31.148  84.217  1.00  0.00    -0.275 OA
ATOM     12  N   UNL     1       1.219  32.776  85.559  1.00  0.00    -0.352 N 
ATOM     13  H   UNL     1       1.309  33.372  86.413  1.00  0.00     0.163 HD
BRANCH  12  14
ATOM     14  C   UNL     1       0.100  33.047  84.660  1.00  0.00     0.151 C 
BRANCH  14  15
ATOM     15  C   UNL     1      -1.163  32.484  85.252  1.00  0.00    -0.025 A 
ATOM     16  C   UNL     1      -2.343  32.448  84.492  1.00  0.00     0.056 A 
ATOM     17  C   UNL     1      -1.202  32.107  86.602  1.00  0.00     0.009 A 
ATOM     18  C   UNL     1      -3.558  32.041  85.075  1.00  0.00     0.160 A 
ATOM     19  C   UNL     1      -2.401  31.684  87.180  1.00  0.00     0.050 A 
ATOM     20  C   UNL     1      -3.578  31.652  86.421  1.00  0.00     0.157 A 
BRANCH  18  21
ATOM     21  O   UNL     1      -4.763  32.025  84.356  1.00  0.00    -0.493 OA
ATOM     22  C   UNL     1      -4.874  32.316  82.966  1.00  0.00     0.278 C 
ENDBRANCH  18  21
BRANCH  20  23
ATOM     23  O   UNL     1      -4.777  31.246  87.003  1.00  0.00    -0.504 OA
ATOM     24  H   UNL     1      -5.223  31.789  87.734  1.00  0.00     0.293 HD
ENDBRANCH  20  23
ENDBRANCH  14  15
ENDBRANCH  12  14
ENDBRANCH   9  10
ENDBRANCH   1   9
TORSDOF 10
ENDMDL
MODEL 5
REMARK VINA RESULT:    -4.485     11.291     14.362
REMARK INTER + INTRA:          -7.508
REMARK INTER:                  -6.901
REMARK INTRA:                  -0.608
REMARK UNBOUND:                -0.532
REMARK SMILES COc1cc(CNC(=O)CCCCC=CC(C)C)ccc1O
REMARK SMILES IDX 11 1 12 2 13 3 14 4 15 5 16 6 17 7 18 8 10 9 8 10 9 11 7 12
REMARK SMILES IDX 6 14 5 15 4 16 19 17 3 18 20 19 21 20 2 21 1 22 22 23
REMARK H PARENT 7 13 22 24
REMARK Flexibility Score: inf
ROOT
ATOM      1  C   UNL     1       1.465  32.073  85.894  1.00  0.00     0.010 C 
ENDROOT
BRANCH   1   2
ATOM      2  C   UNL     1      -0.060  31.889  85.805  1.00  0.00     0.005 C 
BRANCH   2   3
ATOM      3  C   UNL     1      -0.672  32.683  84.641  1.00  0.00     0.027 C 
BRANCH   3   4
ATOM      4  C   UNL     1      -2.118  32.334  84.412  1.00  0.00    -0.031 C 
ATOM      5  C   UNL     1      -3.087  32.792  85.220  1.00  0.00    -0.028 C 
BRANCH   5   6
ATOM      6  C   UNL     1      -4.535  32.437  84.988  1.00  0.00     0.005 C 
ATOM      7  C   UNL     1      -5.076  31.597  86.151  1.00  0.00     0.012 C 
ATOM      8  C   UNL     1      -4.698  31.682  83.665  1.00  0.00     0.012 C 
ENDBRANCH   5   6
ENDBRANCH   3   4
ENDBRANCH   2   3
ENDBRANCH   1   2
BRANCH   1   9
ATOM      9  C   UNL     1       2.230  30.882  85.298  1.00  0.00     0.100 C 
BRANCH   9  10
ATOM     10  C   UNL     1       3.675  31.220  85.075  1.00  0.00     0.220 C 
ATOM     11  O   UNL     1       4.177  31.056  83.930  1.00  0.00    -0.275 OA
ATOM     12  N   UNL     1       4.494  31.664  86.166  1.00  0.00    -0.352 N 
ATOM     13  H   UNL     1       4.031  31.919  87.068  1.00  0.00     0.163 HD
BRANCH  12  14
ATOM     14  C   UNL     1       5.937  31.439  86.186  1.00  0.00     0.151 C 
BRANCH  14  15
ATOM     15  C   UNL     1       6.649  32.764  86.166  1.00  0.00    -0.025 A 
ATOM     16  C   UNL     1       6.689  33.560  87.323  1.00  0.00     0.056 A 
ATOM     17  C   UNL     1       7.169  33.269  84.966  1.00  0.00     0.009 A 
ATOM     18  C   UNL     1       7.242  34.855  87.283  1.00  0.00     0.160 A 
ATOM     19  C   UNL     1       7.737  34.544  84.926  1.00  0.00     0.050 A 
ATOM     20  C   UNL     1       7.772  35.338  86.079  1.00  0.00     0.157 A 
BRANCH  18  21
ATOM     21  O   UNL     1       7.267  35.690  88.409  1.00  0.00    -0.493 OA
ATOM     22  C   UNL     1       6.122  36.332  88.961  1.00  0.00     0.278 C 
ENDBRANCH  18  21
BRANCH  20  23
ATOM     23  O   UNL     1       8.323  36.617  86.034  1.00  0.00    -0.504 OA
ATOM     24  H   UNL     1       8.806  37.014  86.832  1.00  0.00     0.293 HD
ENDBRANCH  20  23
ENDBRANCH  14  15
ENDBRANCH  12  14
ENDBRANCH   9  10
ENDBRANCH   1   9
TORSDOF 10
ENDMDL
MODEL 6
REMARK VINA RESULT:    -4.386     12.535     15.424
REMARK INTER + INTRA:          -7.353
REMARK INTER:                  -6.634
REMARK INTRA:                  -0.719
REMARK UNBOUND:                -0.532
REMARK SMILES COc1cc(CNC(=O)CCCCC=CC(C)C)ccc1O
REMARK SMILES IDX 11 1 12 2 13 3 14 4 15 5 16 6 17 7 18 8 10 9 8 10 9 11 7 12
REMARK SMILES IDX 6 14 5 15 4 16 19 17 3 18 20 19 21 20 2 21 1 22 22 23
REMARK H PARENT 7 13 22 24
REMARK Flexibility Score: inf
ROOT
ATOM      1  C   UNL     1       3.703  30.886  84.631  1.00  0.00     0.010 C 
ENDROOT
BRANCH   1   2
ATOM      2  C   UNL     1       2.439  31.471  83.976  1.00  0.00     0.005 C 
BRANCH   2   3
ATOM      3  C   UNL     1       1.151  30.896  84.586  1.00  0.00     0.027 C 
BRANCH   3   4
ATOM      4  C   UNL     1       0.453  31.884  85.479  1.00  0.00    -0.031 C 
ATOM      5  C   UNL     1      -0.061  33.026  84.996  1.00  0.00    -0.028 C 
BRANCH   5   6
ATOM      6  C   UNL     1      -0.758  34.016  85.897  1.00  0.00     0.005 C 
ATOM      7  C   UNL     1      -0.186  35.424  85.693  1.00  0.00     0.012 C 
ATOM      8  C   UNL     1      -0.626  33.593  87.363  1.00  0.00     0.012 C 
ENDBRANCH   5   6
ENDBRANCH   3   4
ENDBRANCH   2   3
ENDBRANCH   1   2
BRANCH   1   9
ATOM      9  C   UNL     1       4.990  31.389  83.961  1.00  0.00     0.100 C 
BRANCH   9  10
ATOM     10  C   UNL     1       6.029  31.749  84.982  1.00  0.00     0.220 C 
ATOM     11  O   UNL     1       7.223  31.923  84.613  1.00  0.00    -0.275 OA
ATOM     12  N   UNL     1       5.685  31.832  86.372  1.00  0.00    -0.352 N 
ATOM     13  H   UNL     1       4.674  31.815  86.639  1.00  0.00     0.163 HD
BRANCH  12  14
ATOM     14  C   UNL     1       6.666  31.581  87.425  1.00  0.00     0.151 C 
BRANCH  14  15
ATOM     15  C   UNL     1       7.406  32.854  87.730  1.00  0.00    -0.025 A 
ATOM     16  C   UNL     1       6.705  34.066  87.844  1.00  0.00     0.056 A 
ATOM     17  C   UNL     1       8.807  32.862  87.781  1.00  0.00     0.009 A 
ATOM     18  C   UNL     1       7.398  35.282  88.005  1.00  0.00     0.160 A 
ATOM     19  C   UNL     1       9.498  34.062  87.960  1.00  0.00     0.050 A 
ATOM     20  C   UNL     1       8.798  35.271  88.069  1.00  0.00     0.157 A 
BRANCH  18  21
ATOM     21  O   UNL     1       6.734  36.515  88.087  1.00  0.00    -0.493 OA
ATOM     22  C   UNL     1       5.827  36.872  89.125  1.00  0.00     0.278 C 
ENDBRANCH  18  21
BRANCH  20  23
ATOM     23  O   UNL     1       9.489  36.470  88.231  1.00  0.00    -0.504 OA
ATOM     24  H   UNL     1      10.430  36.592  87.874  1.00  0.00     0.293 HD
ENDBRANCH  20  23
ENDBRANCH  14  15
ENDBRANCH  12  14
ENDBRANCH   9  10
ENDBRANCH   1   9
TORSDOF 10
ENDMDL
MODEL 7
REMARK VINA RESULT:    -4.372     11.555     14.656
REMARK INTER + INTRA:          -7.332
REMARK INTER:                  -6.601
REMARK INTRA:                  -0.731
REMARK UNBOUND:                -0.532
REMARK SMILES COc1cc(CNC(=O)CCCCC=CC(C)C)ccc1O
REMARK SMILES IDX 11 1 12 2 13 3 14 4 15 5 16 6 17 7 18 8 10 9 8 10 9 11 7 12
REMARK SMILES IDX 6 14 5 15 4 16 19 17 3 18 20 19 21 20 2 21 1 22 22 23
REMARK H PARENT 7 13 22 24
REMARK Flexibility Score: inf
ROOT
ATOM      1  C   UNL     1       0.379  33.828  86.541  1.00  0.00     0.010 C 
ENDROOT
BRANCH   1   2
ATOM      2  C   UNL     1       0.376  32.769  85.424  1.00  0.00     0.005 C 
BRANCH   2   3
ATOM      3  C   UNL     1      -0.930  32.782  84.616  1.00  0.00     0.027 C 
BRANCH   3   4
ATOM      4  C   UNL     1      -1.926  31.777  85.126  1.00  0.00    -0.031 C 
ATOM      5  C   UNL     1      -2.695  32.030  86.195  1.00  0.00    -0.028 C 
BRANCH   5   6
ATOM      6  C   UNL     1      -3.691  31.017  86.705  1.00  0.00     0.005 C 
ATOM      7  C   UNL     1      -5.101  31.348  86.202  1.00  0.00     0.012 C 
ATOM      8  C   UNL     1      -3.669  30.967  88.236  1.00  0.00     0.012 C 
ENDBRANCH   5   6
ENDBRANCH   3   4
ENDBRANCH   2   3
ENDBRANCH   1   2
BRANCH   1   9
ATOM      9  C   UNL     1       0.626  33.213  87.926  1.00  0.00     0.100 C 
BRANCH   9  10
ATOM     10  C   UNL     1       2.023  32.677  88.041  1.00  0.00     0.220 C 
ATOM     11  O   UNL     1       2.198  31.490  88.432  1.00  0.00    -0.275 OA
ATOM     12  N   UNL     1       3.151  33.522  87.772  1.00  0.00    -0.352 N 
ATOM     13  H   UNL     1       2.983  34.451  87.324  1.00  0.00     0.163 HD
BRANCH  12  14
ATOM     14  C   UNL     1       4.448  33.299  88.405  1.00  0.00     0.151 C 
BRANCH  14  15
ATOM     15  C   UNL     1       5.542  33.729  87.466  1.00  0.00    -0.025 A 
ATOM     16  C   UNL     1       6.338  34.844  87.776  1.00  0.00     0.056 A 
ATOM     17  C   UNL     1       5.694  33.100  86.223  1.00  0.00     0.009 A 
ATOM     18  C   UNL     1       7.280  35.332  86.849  1.00  0.00     0.160 A 
ATOM     19  C   UNL     1       6.639  33.567  85.308  1.00  0.00     0.050 A 
ATOM     20  C   UNL     1       7.430  34.682  85.617  1.00  0.00     0.157 A 
BRANCH  18  21
ATOM     21  O   UNL     1       8.067  36.462  87.110  1.00  0.00    -0.493 OA
ATOM     22  C   UNL     1       9.169  36.485  88.012  1.00  0.00     0.278 C 
ENDBRANCH  18  21
BRANCH  20  23
ATOM     23  O   UNL     1       8.362  35.158  84.697  1.00  0.00    -0.504 OA
ATOM     24  H   UNL     1       8.919  34.527  84.131  1.00  0.00     0.293 HD
ENDBRANCH  20  23
ENDBRANCH  14  15
ENDBRANCH  12  14
ENDBRANCH   9  10
ENDBRANCH   1   9
TORSDOF 10
ENDMDL
MODEL 8
REMARK VINA RESULT:    -4.064     11.556     14.457
REMARK INTER + INTRA:          -6.853
REMARK INTER:                  -6.151
REMARK INTRA:                  -0.702
REMARK UNBOUND:                -0.532
REMARK SMILES COc1cc(CNC(=O)CCCCC=CC(C)C)ccc1O
REMARK SMILES IDX 11 1 12 2 13 3 14 4 15 5 16 6 17 7 18 8 10 9 8 10 9 11 7 12
REMARK SMILES IDX 6 14 5 15 4 16 19 17 3 18 20 19 21 20 2 21 1 22 22 23
REMARK H PARENT 7 13 22 24
REMARK Flexibility Score: inf
ROOT
ATOM      1  C   UNL     1       0.602  31.687  84.667  1.00  0.00     0.010 C 
ENDROOT
BRANCH   1   2
ATOM      2  C   UNL     1       0.257  32.817  85.653  1.00  0.00     0.005 C 
BRANCH   2   3
ATOM      3  C   UNL     1      -0.849  32.410  86.638  1.00  0.00     0.027 C 
BRANCH   3   4
ATOM      4  C   UNL     1      -2.089  31.930  85.935  1.00  0.00    -0.031 C 
ATOM      5  C   UNL     1      -2.963  32.789  85.387  1.00  0.00    -0.028 C 
BRANCH   5   6
ATOM      6  C   UNL     1      -4.208  32.303  84.685  1.00  0.00     0.005 C 
ATOM      7  C   UNL     1      -3.841  31.527  83.415  1.00  0.00     0.012 C 
ATOM      8  C   UNL     1      -5.125  33.481  84.343  1.00  0.00     0.012 C 
ENDBRANCH   5   6
ENDBRANCH   3   4
ENDBRANCH   2   3
ENDBRANCH   1   2
BRANCH   1   9
ATOM      9  C   UNL     1       2.093  31.672  84.298  1.00  0.00     0.100 C 
BRANCH   9  10
ATOM     10  C   UNL     1       2.956  31.801  85.519  1.00  0.00     0.220 C 
ATOM     11  O   UNL     1       2.953  30.875  86.376  1.00  0.00    -0.275 OA
ATOM     12  N   UNL     1       3.727  32.990  85.743  1.00  0.00    -0.352 N 
ATOM     13  H   UNL     1       3.818  33.680  84.964  1.00  0.00     0.163 HD
BRANCH  12  14
ATOM     14  C   UNL     1       4.079  33.436  87.089  1.00  0.00     0.151 C 
BRANCH  14  15
ATOM     15  C   UNL     1       5.571  33.355  87.266  1.00  0.00    -0.025 A 
ATOM     16  C   UNL     1       6.364  34.501  87.096  1.00  0.00     0.056 A 
ATOM     17  C   UNL     1       6.190  32.115  87.480  1.00  0.00     0.009 A 
ATOM     18  C   UNL     1       7.769  34.412  87.135  1.00  0.00     0.160 A 
ATOM     19  C   UNL     1       7.582  32.024  87.539  1.00  0.00     0.050 A 
ATOM     20  C   UNL     1       8.372  33.168  87.365  1.00  0.00     0.157 A 
BRANCH  18  21
ATOM     21  O   UNL     1       8.594  35.529  86.935  1.00  0.00    -0.493 OA
ATOM     22  C   UNL     1       9.034  36.400  87.972  1.00  0.00     0.278 C 
ENDBRANCH  18  21
BRANCH  20  23
ATOM     23  O   UNL     1       9.762  33.074  87.408  1.00  0.00    -0.504 OA
ATOM     24  H   UNL     1      10.264  32.389  86.854  1.00  0.00     0.293 HD
ENDBRANCH  20  23
ENDBRANCH  14  15
ENDBRANCH  12  14
ENDBRANCH   9  10
ENDBRANCH   1   9
TORSDOF 10
ENDMDL
MODEL 9
REMARK VINA RESULT:    -3.486     10.748     13.918
REMARK INTER + INTRA:          -5.954
REMARK INTER:                  -5.281
REMARK INTRA:                  -0.673
REMARK UNBOUND:                -0.532
REMARK SMILES COc1cc(CNC(=O)CCCCC=CC(C)C)ccc1O
REMARK SMILES IDX 11 1 12 2 13 3 14 4 15 5 16 6 17 7 18 8 10 9 8 10 9 11 7 12
REMARK SMILES IDX 6 14 5 15 4 16 19 17 3 18 20 19 21 20 2 21 1 22 22 23
REMARK H PARENT 7 13 22 24
REMARK Flexibility Score: inf
ROOT
ATOM      1  C   UNL     1       0.081  34.372  86.110  1.00  0.00     0.010 C 
ENDROOT
BRANCH   1   2
ATOM      2  C   UNL     1      -0.683  33.318  85.290  1.00  0.00     0.005 C 
BRANCH   2   3
ATOM      3  C   UNL     1      -1.845  32.698  86.082  1.00  0.00     0.027 C 
BRANCH   3   4
ATOM      4  C   UNL     1      -2.775  31.907  85.203  1.00  0.00    -0.031 C 
ATOM      5  C   UNL     1      -2.555  31.777  83.885  1.00  0.00    -0.028 C 
BRANCH   5   6
ATOM      6  C   UNL     1      -3.492  30.984  83.007  1.00  0.00     0.005 C 
ATOM      7  C   UNL     1      -2.932  30.875  81.584  1.00  0.00     0.012 C 
ATOM      8  C   UNL     1      -4.881  31.629  82.986  1.00  0.00     0.012 C 
ENDBRANCH   5   6
ENDBRANCH   3   4
ENDBRANCH   2   3
ENDBRANCH   1   2
BRANCH   1   9
ATOM      9  C   UNL     1       0.927  33.741  87.225  1.00  0.00     0.100 C 
BRANCH   9  10
ATOM     10  C   UNL     1       1.916  32.760  86.667  1.00  0.00     0.220 C 
ATOM     11  O   UNL     1       1.691  31.524  86.784  1.00  0.00    -0.275 OA
ATOM     12  N   UNL     1       3.134  33.218  86.065  1.00  0.00    -0.352 N 
ATOM     13  H   UNL     1       3.238  34.238  85.860  1.00  0.00     0.163 HD
BRANCH  12  14
ATOM     14  C   UNL     1       4.344  32.400  86.056  1.00  0.00     0.151 C 
BRANCH  14  15
ATOM     15  C   UNL     1       5.552  33.294  86.119  1.00  0.00    -0.025 A 
ATOM     16  C   UNL     1       5.810  34.049  87.275  1.00  0.00     0.056 A 
ATOM     17  C   UNL     1       6.356  33.475  84.986  1.00  0.00     0.009 A 
ATOM     18  C   UNL     1       6.865  34.983  87.300  1.00  0.00     0.160 A 
ATOM     19  C   UNL     1       7.415  34.385  85.011  1.00  0.00     0.050 A 
ATOM     20  C   UNL     1       7.669  35.140  86.163  1.00  0.00     0.157 A 
BRANCH  18  21
ATOM     21  O   UNL     1       7.131  35.778  88.424  1.00  0.00    -0.493 OA
ATOM     22  C   UNL     1       6.401  36.952  88.770  1.00  0.00     0.278 C 
ENDBRANCH  18  21
BRANCH  20  23
ATOM     23  O   UNL     1       8.715  36.060  86.183  1.00  0.00    -0.504 OA
ATOM     24  H   UNL     1       8.618  36.983  85.774  1.00  0.00     0.293 HD
ENDBRANCH  20  23
ENDBRANCH  14  15
ENDBRANCH  12  14
ENDBRANCH   9  10
ENDBRANCH   1   9
TORSDOF 10
ENDMDL
