MODEL 1
REMARK VINA RESULT:    -3.984      0.000      0.000
REMARK INTER + INTRA:          -7.117
REMARK INTER:                  -6.080
REMARK INTRA:                  -1.036
REMARK UNBOUND:                -1.036
REMARK SMILES O=C([O-])CCCCCCCCC(=O)[O-]
REMARK SMILES IDX 7 1 6 2 5 3 4 4 2 5 1 6 3 7 8 8 9 9 10 10 11 11 12 12 13 13
REMARK SMILES IDX 14 14
REMARK H PARENT
REMARK Flexibility Score: inf
ROOT
ATOM      1  C   UNL     1      56.130  13.595  88.893  1.00  0.00     0.000 C 
ENDROOT
BRANCH   1   2
ATOM      2  C   UNL     1      56.314  12.220  89.546  1.00  0.00     0.000 C 
BRANCH   2   3
ATOM      3  C   UNL     1      57.286  11.350  88.735  1.00  0.00     0.006 C 
BRANCH   3   4
ATOM      4  C   UNL     1      58.718  11.416  89.281  1.00  0.00     0.053 C 
BRANCH   4   5
ATOM      5  C   UNL     1      59.009  10.281  90.215  1.00  0.00     0.041 C 
ATOM      6  O   UNL     1      58.147   9.384  90.413  1.00  0.00    -0.550 OA
ATOM      7  O   UNL     1      60.220  10.231  90.892  1.00  0.00    -0.550 OA
ENDBRANCH   4   5
ENDBRANCH   3   4
ENDBRANCH   2   3
ENDBRANCH   1   2
BRANCH   1   8
ATOM      8  C   UNL     1      56.516  14.721  89.859  1.00  0.00     0.000 C 
BRANCH   8   9
ATOM      9  C   UNL     1      57.929  15.238  89.566  1.00  0.00     0.000 C 
BRANCH   9  10
ATOM     10  C   UNL     1      58.817  15.154  90.813  1.00  0.00     0.006 C 
BRANCH  10  11
ATOM     11  C   UNL     1      58.014  14.679  92.028  1.00  0.00     0.053 C 
BRANCH  11  12
ATOM     12  C   UNL     1      58.618  13.438  92.604  1.00  0.00     0.041 C 
ATOM     13  O   UNL     1      59.868  13.336  92.717  1.00  0.00    -0.550 OA
ATOM     14  O   UNL     1      57.804  12.374  92.971  1.00  0.00    -0.550 OA
ENDBRANCH  11  12
ENDBRANCH  10  11
ENDBRANCH   9  10
ENDBRANCH   8   9
ENDBRANCH   1   8
TORSDOF 9
ENDMDL
MODEL 2
REMARK VINA RESULT:    -3.962      2.086      4.165
REMARK INTER + INTRA:          -7.084
REMARK INTER:                  -6.011
REMARK INTRA:                  -1.072
REMARK UNBOUND:                -1.036
REMARK SMILES O=C([O-])CCCCCCCCC(=O)[O-]
REMARK SMILES IDX 7 1 6 2 5 3 4 4 2 5 1 6 3 7 8 8 9 9 10 10 11 11 12 12 13 13
REMARK SMILES IDX 14 14
REMARK H PARENT
REMARK Flexibility Score: inf
ROOT
ATOM      1  C   UNL     1      57.034  14.294  90.841  1.00  0.00     0.000 C 
ENDROOT
BRANCH   1   2
ATOM      2  C   UNL     1      57.677  13.564  92.024  1.00  0.00     0.000 C 
BRANCH   2   3
ATOM      3  C   UNL     1      56.610  12.924  92.924  1.00  0.00     0.006 C 
BRANCH   3   4
ATOM      4  C   UNL     1      56.383  11.444  92.595  1.00  0.00     0.053 C 
BRANCH   4   5
ATOM      5  C   UNL     1      54.958  11.170  92.219  1.00  0.00     0.041 C 
ATOM      6  O   UNL     1      54.243  12.086  91.734  1.00  0.00    -0.550 OA
ATOM      7  O   UNL     1      54.412   9.912  92.437  1.00  0.00    -0.550 OA
ENDBRANCH   4   5
ENDBRANCH   3   4
ENDBRANCH   2   3
ENDBRANCH   1   2
BRANCH   1   8
ATOM      8  C   UNL     1      57.490  13.692  89.507  1.00  0.00     0.000 C 
BRANCH   8   9
ATOM      9  C   UNL     1      56.513  12.613  89.027  1.00  0.00     0.000 C 
BRANCH   9  10
ATOM     10  C   UNL     1      57.257  11.327  88.644  1.00  0.00     0.006 C 
BRANCH  10  11
ATOM     11  C   UNL     1      58.701  11.355  89.155  1.00  0.00     0.053 C 
BRANCH  11  12
ATOM     12  C   UNL     1      58.942  10.228  90.108  1.00  0.00     0.041 C 
ATOM     13  O   UNL     1      58.062   9.342  90.278  1.00  0.00    -0.550 OA
ATOM     14  O   UNL     1      60.117  10.182  90.848  1.00  0.00    -0.550 OA
ENDBRANCH  11  12
ENDBRANCH  10  11
ENDBRANCH   9  10
ENDBRANCH   8   9
ENDBRANCH   1   8
TORSDOF 9
ENDMDL
MODEL 3
REMARK VINA RESULT:    -3.946      1.536      4.706
REMARK INTER + INTRA:          -7.058
REMARK INTER:                  -6.370
REMARK INTRA:                  -0.688
REMARK UNBOUND:                -1.036
REMARK SMILES O=C([O-])CCCCCCCCC(=O)[O-]
REMARK SMILES IDX 7 1 6 2 5 3 4 4 2 5 1 6 3 7 8 8 9 9 10 10 11 11 12 12 13 13
REMARK SMILES IDX 14 14
REMARK H PARENT
REMARK Flexibility Score: inf
ROOT
ATOM      1  C   UNL     1      57.313  14.867  89.225  1.00  0.00     0.000 C 
ENDROOT
BRANCH   1   2
ATOM      2  C   UNL     1      58.711  15.468  89.405  1.00  0.00     0.000 C 
BRANCH   2   3
ATOM      3  C   UNL     1      58.725  16.498  90.545  1.00  0.00     0.006 C 
BRANCH   3   4
ATOM      4  C   UNL     1      59.509  16.002  91.767  1.00  0.00     0.053 C 
BRANCH   4   5
ATOM      5  C   UNL     1      58.613  15.773  92.945  1.00  0.00     0.041 C 
ATOM      6  O   UNL     1      57.362  15.775  92.802  1.00  0.00    -0.550 OA
ATOM      7  O   UNL     1      59.160  15.591  94.209  1.00  0.00    -0.550 OA
ENDBRANCH   4   5
ENDBRANCH   3   4
ENDBRANCH   2   3
ENDBRANCH   1   2
BRANCH   1   8
ATOM      8  C   UNL     1      57.170  13.559  90.011  1.00  0.00     0.000 C 
BRANCH   8   9
ATOM      9  C   UNL     1      56.479  12.481  89.167  1.00  0.00     0.000 C 
BRANCH   9  10
ATOM     10  C   UNL     1      57.494  11.459  88.640  1.00  0.00     0.006 C 
BRANCH  10  11
ATOM     11  C   UNL     1      58.815  11.551  89.408  1.00  0.00     0.053 C 
BRANCH  11  12
ATOM     12  C   UNL     1      59.059  10.296  90.184  1.00  0.00     0.041 C 
ATOM     13  O   UNL     1      58.108   9.507  90.430  1.00  0.00    -0.550 OA
ATOM     14  O   UNL     1      60.327  10.021  90.681  1.00  0.00    -0.550 OA
ENDBRANCH  11  12
ENDBRANCH  10  11
ENDBRANCH   9  10
ENDBRANCH   8   9
ENDBRANCH   1   8
TORSDOF 9
ENDMDL
MODEL 4
REMARK VINA RESULT:    -3.922      2.195      2.777
REMARK INTER + INTRA:          -7.023
REMARK INTER:                  -6.395
REMARK INTRA:                  -0.628
REMARK UNBOUND:                -1.036
REMARK SMILES O=C([O-])CCCCCCCCC(=O)[O-]
REMARK SMILES IDX 7 1 6 2 5 3 4 4 2 5 1 6 3 7 8 8 9 9 10 10 11 11 12 12 13 13
REMARK SMILES IDX 14 14
REMARK H PARENT
REMARK Flexibility Score: inf
ROOT
ATOM      1  C   UNL     1      57.509  14.960  89.501  1.00  0.00     0.000 C 
ENDROOT
BRANCH   1   2
ATOM      2  C   UNL     1      57.320  13.445  89.635  1.00  0.00     0.000 C 
BRANCH   2   3
ATOM      3  C   UNL     1      58.646  12.752  89.982  1.00  0.00     0.006 C 
BRANCH   3   4
ATOM      4  C   UNL     1      58.830  11.435  89.218  1.00  0.00     0.053 C 
BRANCH   4   5
ATOM      5  C   UNL     1      59.069  10.283  90.146  1.00  0.00     0.041 C 
ATOM      6  O   UNL     1      58.151   9.454  90.378  1.00  0.00    -0.550 OA
ATOM      7  O   UNL     1      60.297  10.145  90.779  1.00  0.00    -0.550 OA
ENDBRANCH   4   5
ENDBRANCH   3   4
ENDBRANCH   2   3
ENDBRANCH   1   2
BRANCH   1   8
ATOM      8  C   UNL     1      58.985  15.315  89.292  1.00  0.00     0.000 C 
BRANCH   8   9
ATOM      9  C   UNL     1      59.357  16.594  90.051  1.00  0.00     0.000 C 
BRANCH   9  10
ATOM     10  C   UNL     1      58.848  16.545  91.497  1.00  0.00     0.006 C 
BRANCH  10  11
ATOM     11  C   UNL     1      59.883  15.898  92.422  1.00  0.00     0.053 C 
BRANCH  11  12
ATOM     12  C   UNL     1      60.643  16.946  93.172  1.00  0.00     0.041 C 
ATOM     13  O   UNL     1      60.452  17.106  94.406  1.00  0.00    -0.550 OA
ATOM     14  O   UNL     1      61.527  17.779  92.497  1.00  0.00    -0.550 OA
ENDBRANCH  11  12
ENDBRANCH  10  11
ENDBRANCH   9  10
ENDBRANCH   8   9
ENDBRANCH   1   8
TORSDOF 9
ENDMDL
MODEL 5
REMARK VINA RESULT:    -3.898      1.683      2.215
REMARK INTER + INTRA:          -6.985
REMARK INTER:                  -6.073
REMARK INTRA:                  -0.912
REMARK UNBOUND:                -1.036
REMARK SMILES O=C([O-])CCCCCCCCC(=O)[O-]
REMARK SMILES IDX 7 1 6 2 5 3 4 4 2 5 1 6 3 7 8 8 9 9 10 10 11 11 12 12 13 13
REMARK SMILES IDX 14 14
REMARK H PARENT
REMARK Flexibility Score: inf
ROOT
ATOM      1  C   UNL     1      55.905  12.709  89.725  1.00  0.00     0.000 C 
ENDROOT
BRANCH   1   2
ATOM      2  C   UNL     1      56.694  12.002  88.618  1.00  0.00     0.000 C 
BRANCH   2   3
ATOM      3  C   UNL     1      57.591  10.899  89.198  1.00  0.00     0.006 C 
BRANCH   3   4
ATOM      4  C   UNL     1      59.078  11.275  89.154  1.00  0.00     0.053 C 
BRANCH   4   5
ATOM      5  C   UNL     1      59.730  11.116  90.494  1.00  0.00     0.041 C 
ATOM      6  O   UNL     1      60.825  10.503  90.598  1.00  0.00    -0.550 OA
ATOM      7  O   UNL     1      59.111  11.618  91.631  1.00  0.00    -0.550 OA
ENDBRANCH   4   5
ENDBRANCH   3   4
ENDBRANCH   2   3
ENDBRANCH   1   2
BRANCH   1   8
ATOM      8  C   UNL     1      56.686  13.903  90.283  1.00  0.00     0.000 C 
BRANCH   8   9
ATOM      9  C   UNL     1      57.206  14.798  89.152  1.00  0.00     0.000 C 
BRANCH   9  10
ATOM     10  C   UNL     1      58.551  15.433  89.526  1.00  0.00     0.006 C 
BRANCH  10  11
ATOM     11  C   UNL     1      58.966  15.045  90.948  1.00  0.00     0.053 C 
BRANCH  11  12
ATOM     12  C   UNL     1      59.482  16.238  91.688  1.00  0.00     0.041 C 
ATOM     13  O   UNL     1      60.529  16.148  92.383  1.00  0.00    -0.550 OA
ATOM     14  O   UNL     1      58.780  17.436  91.652  1.00  0.00    -0.550 OA
ENDBRANCH  11  12
ENDBRANCH  10  11
ENDBRANCH   9  10
ENDBRANCH   8   9
ENDBRANCH   1   8
TORSDOF 9
ENDMDL
MODEL 6
REMARK VINA RESULT:    -3.893      2.575      3.159
REMARK INTER + INTRA:          -6.978
REMARK INTER:                  -6.316
REMARK INTRA:                  -0.662
REMARK UNBOUND:                -1.036
REMARK SMILES O=C([O-])CCCCCCCCC(=O)[O-]
REMARK SMILES IDX 7 1 6 2 5 3 4 4 2 5 1 6 3 7 8 8 9 9 10 10 11 11 12 12 13 13
REMARK SMILES IDX 14 14
REMARK H PARENT
REMARK Flexibility Score: inf
ROOT
ATOM      1  C   UNL     1      56.940  13.426  89.713  1.00  0.00     0.000 C 
ENDROOT
BRANCH   1   2
ATOM      2  C   UNL     1      56.248  12.561  88.654  1.00  0.00     0.000 C 
BRANCH   2   3
ATOM      3  C   UNL     1      57.021  11.256  88.417  1.00  0.00     0.006 C 
BRANCH   3   4
ATOM      4  C   UNL     1      58.425  11.292  89.034  1.00  0.00     0.053 C 
BRANCH   4   5
ATOM      5  C   UNL     1      58.600  10.230  90.076  1.00  0.00     0.041 C 
ATOM      6  O   UNL     1      57.598   9.628  90.545  1.00  0.00    -0.550 OA
ATOM      7  O   UNL     1      59.869   9.929  90.554  1.00  0.00    -0.550 OA
ENDBRANCH   4   5
ENDBRANCH   3   4
ENDBRANCH   2   3
ENDBRANCH   1   2
BRANCH   1   8
ATOM      8  C   UNL     1      56.009  13.696  90.900  1.00  0.00     0.000 C 
BRANCH   8   9
ATOM      9  C   UNL     1      55.451  12.387  91.471  1.00  0.00     0.000 C 
BRANCH   9  10
ATOM     10  C   UNL     1      55.968  12.143  92.895  1.00  0.00     0.006 C 
BRANCH  10  11
ATOM     11  C   UNL     1      55.484  10.793  93.431  1.00  0.00     0.053 C 
BRANCH  11  12
ATOM     12  C   UNL     1      55.410  10.818  94.925  1.00  0.00     0.041 C 
ATOM     13  O   UNL     1      56.449  11.019  95.608  1.00  0.00    -0.550 OA
ATOM     14  O   UNL     1      54.202  10.571  95.566  1.00  0.00    -0.550 OA
ENDBRANCH  11  12
ENDBRANCH  10  11
ENDBRANCH   9  10
ENDBRANCH   8   9
ENDBRANCH   1   8
TORSDOF 9
ENDMDL
MODEL 7
REMARK VINA RESULT:    -3.885      2.807      4.210
REMARK INTER + INTRA:          -6.966
REMARK INTER:                  -6.341
REMARK INTRA:                  -0.625
REMARK UNBOUND:                -1.036
REMARK SMILES O=C([O-])CCCCCCCCC(=O)[O-]
REMARK SMILES IDX 7 1 6 2 5 3 4 4 2 5 1 6 3 7 8 8 9 9 10 10 11 11 12 12 13 13
REMARK SMILES IDX 14 14
REMARK H PARENT
REMARK Flexibility Score: inf
ROOT
ATOM      1  C   UNL     1      56.072  13.174  90.593  1.00  0.00     0.000 C 
ENDROOT
BRANCH   1   2
ATOM      2  C   UNL     1      56.072  11.881  91.418  1.00  0.00     0.000 C 
BRANCH   2   3
ATOM      3  C   UNL     1      54.740  11.701  92.160  1.00  0.00     0.006 C 
BRANCH   3   4
ATOM      4  C   UNL     1      54.937  11.179  93.589  1.00  0.00     0.053 C 
BRANCH   4   5
ATOM      5  C   UNL     1      54.640   9.714  93.691  1.00  0.00     0.041 C 
ATOM      6  O   UNL     1      54.384   9.195  94.810  1.00  0.00    -0.550 OA
ATOM      7  O   UNL     1      54.680   8.917  92.555  1.00  0.00    -0.550 OA
ENDBRANCH   4   5
ENDBRANCH   3   4
ENDBRANCH   2   3
ENDBRANCH   1   2
BRANCH   1   8
ATOM      8  C   UNL     1      56.979  13.044  89.365  1.00  0.00     0.000 C 
BRANCH   8   9
ATOM      9  C   UNL     1      57.222  11.572  89.012  1.00  0.00     0.000 C 
BRANCH   9  10
ATOM     10  C   UNL     1      58.723  11.258  88.961  1.00  0.00     0.006 C 
BRANCH  10  11
ATOM     11  C   UNL     1      59.107  10.232  90.030  1.00  0.00     0.053 C 
BRANCH  11  12
ATOM     12  C   UNL     1      60.025  10.845  91.040  1.00  0.00     0.041 C 
ATOM     13  O   UNL     1      61.154  10.334  91.262  1.00  0.00    -0.550 OA
ATOM     14  O   UNL     1      59.614  11.951  91.773  1.00  0.00    -0.550 OA
ENDBRANCH  11  12
ENDBRANCH  10  11
ENDBRANCH   9  10
ENDBRANCH   8   9
ENDBRANCH   1   8
TORSDOF 9
ENDMDL
MODEL 8
REMARK VINA RESULT:    -3.874      2.132      5.261
REMARK INTER + INTRA:          -6.948
REMARK INTER:                  -6.484
REMARK INTRA:                  -0.464
REMARK UNBOUND:                -1.036
REMARK SMILES O=C([O-])CCCCCCCCC(=O)[O-]
REMARK SMILES IDX 7 1 6 2 5 3 4 4 2 5 1 6 3 7 8 8 9 9 10 10 11 11 12 12 13 13
REMARK SMILES IDX 14 14
REMARK H PARENT
REMARK Flexibility Score: inf
ROOT
ATOM      1  C   UNL     1      58.350  15.116  89.448  1.00  0.00     0.000 C 
ENDROOT
BRANCH   1   2
ATOM      2  C   UNL     1      59.136  16.066  90.359  1.00  0.00     0.000 C 
BRANCH   2   3
ATOM      3  C   UNL     1      59.360  15.442  91.744  1.00  0.00     0.006 C 
BRANCH   3   4
ATOM      4  C   UNL     1      59.617  16.500  92.824  1.00  0.00     0.053 C 
BRANCH   4   5
ATOM      5  C   UNL     1      61.039  16.971  92.814  1.00  0.00     0.041 C 
ATOM      6  O   UNL     1      61.341  18.069  92.276  1.00  0.00    -0.550 OA
ATOM      7  O   UNL     1      62.036  16.180  93.368  1.00  0.00    -0.550 OA
ENDBRANCH   4   5
ENDBRANCH   3   4
ENDBRANCH   2   3
ENDBRANCH   1   2
BRANCH   1   8
ATOM      8  C   UNL     1      58.383  13.682  89.987  1.00  0.00     0.000 C 
BRANCH   8   9
ATOM      9  C   UNL     1      57.148  12.895  89.533  1.00  0.00     0.000 C 
BRANCH   9  10
ATOM     10  C   UNL     1      57.553  11.595  88.825  1.00  0.00     0.006 C 
BRANCH  10  11
ATOM     11  C   UNL     1      59.015  11.243  89.116  1.00  0.00     0.053 C 
BRANCH  11  12
ATOM     12  C   UNL     1      59.100  10.179  90.164  1.00  0.00     0.041 C 
ATOM     13  O   UNL     1      60.162  10.021  90.821  1.00  0.00    -0.550 OA
ATOM     14  O   UNL     1      58.023   9.328  90.380  1.00  0.00    -0.550 OA
ENDBRANCH  11  12
ENDBRANCH  10  11
ENDBRANCH   9  10
ENDBRANCH   8   9
ENDBRANCH   1   8
TORSDOF 9
ENDMDL
MODEL 9
REMARK VINA RESULT:    -3.840      3.716      4.957
REMARK INTER + INTRA:          -6.897
REMARK INTER:                  -6.172
REMARK INTRA:                  -0.724
REMARK UNBOUND:                -1.036
REMARK SMILES O=C([O-])CCCCCCCCC(=O)[O-]
REMARK SMILES IDX 7 1 6 2 5 3 4 4 2 5 1 6 3 7 8 8 9 9 10 10 11 11 12 12 13 13
REMARK SMILES IDX 14 14
REMARK H PARENT
REMARK Flexibility Score: inf
ROOT
ATOM      1  C   UNL     1      56.422   9.762  90.960  1.00  0.00     0.000 C 
ENDROOT
BRANCH   1   2
ATOM      2  C   UNL     1      56.289  10.879  92.001  1.00  0.00     0.000 C 
BRANCH   2   3
ATOM      3  C   UNL     1      54.977  10.745  92.789  1.00  0.00     0.006 C 
BRANCH   3   4
ATOM      4  C   UNL     1      54.400   9.325  92.719  1.00  0.00     0.053 C 
BRANCH   4   5
ATOM      5  C   UNL     1      54.245   8.721  94.082  1.00  0.00     0.041 C 
ATOM      6  O   UNL     1      54.014   7.489  94.207  1.00  0.00    -0.550 OA
ATOM      7  O   UNL     1      54.325   9.525  95.211  1.00  0.00    -0.550 OA
ENDBRANCH   4   5
ENDBRANCH   3   4
ENDBRANCH   2   3
ENDBRANCH   1   2
BRANCH   1   8
ATOM      8  C   UNL     1      57.815   9.766  90.322  1.00  0.00     0.000 C 
BRANCH   8   9
ATOM      9  C   UNL     1      58.592  11.032  90.703  1.00  0.00     0.000 C 
BRANCH   9  10
ATOM     10  C   UNL     1      58.738  11.972  89.500  1.00  0.00     0.006 C 
BRANCH  10  11
ATOM     11  C   UNL     1      58.103  13.335  89.787  1.00  0.00     0.053 C 
BRANCH  11  12
ATOM     12  C   UNL     1      56.710  13.390  89.244  1.00  0.00     0.041 C 
ATOM     13  O   UNL     1      56.266  12.443  88.543  1.00  0.00    -0.550 OA
ATOM     14  O   UNL     1      55.919  14.509  89.470  1.00  0.00    -0.550 OA
ENDBRANCH  11  12
ENDBRANCH  10  11
ENDBRANCH   9  10
ENDBRANCH   8   9
ENDBRANCH   1   8
TORSDOF 9
ENDMDL
