MODEL 1
REMARK VINA RESULT:    -4.357      0.000      0.000
REMARK INTER + INTRA:          -6.478
REMARK INTER:                  -6.140
REMARK INTRA:                  -0.338
REMARK UNBOUND:                -0.338
REMARK SMILES CCCCCCCCC(=O)[O-]
REMARK SMILES IDX 6 1 7 2 8 3 9 4 10 5 11 6 5 7 4 8 3 9 2 10 1 11
REMARK H PARENT
REMARK Flexibility Score: inf
ROOT
ATOM      1  C   UNL     1      41.008  18.329  12.166  1.00  0.00     0.000 C 
ENDROOT
BRANCH   1   2
ATOM      2  C   UNL     1      39.950  17.912  11.129  1.00  0.00     0.006 C 
BRANCH   2   3
ATOM      3  C   UNL     1      39.833  18.926   9.983  1.00  0.00     0.053 C 
BRANCH   3   4
ATOM      4  C   UNL     1      41.158  19.183   9.332  1.00  0.00     0.041 C 
ATOM      5  O   UNL     1      41.733  20.292   9.482  1.00  0.00    -0.550 OA
ATOM      6  O   UNL     1      41.771  18.183   8.587  1.00  0.00    -0.550 OA
ENDBRANCH   3   4
ENDBRANCH   2   3
ENDBRANCH   1   2
BRANCH   1   7
ATOM      7  C   UNL     1      42.149  17.307  12.292  1.00  0.00     0.000 C 
BRANCH   7   8
ATOM      8  C   UNL     1      43.507  17.968  12.573  1.00  0.00    -0.000 C 
BRANCH   8   9
ATOM      9  C   UNL     1      44.662  17.005  12.259  1.00  0.00    -0.000 C 
BRANCH   9  10
ATOM     10  C   UNL     1      44.217  15.535  12.234  1.00  0.00    -0.003 C 
ATOM     11  C   UNL     1      45.395  14.560  12.224  1.00  0.00     0.004 C 
ENDBRANCH   9  10
ENDBRANCH   8   9
ENDBRANCH   7   8
ENDBRANCH   1   7
TORSDOF 7
ENDMDL
MODEL 2
REMARK VINA RESULT:    -4.355      1.526      1.789
REMARK INTER + INTRA:          -6.476
REMARK INTER:                  -6.184
REMARK INTRA:                  -0.292
REMARK UNBOUND:                -0.338
REMARK SMILES CCCCCCCCC(=O)[O-]
REMARK SMILES IDX 6 1 7 2 8 3 9 4 10 5 11 6 5 7 4 8 3 9 2 10 1 11
REMARK H PARENT
REMARK Flexibility Score: inf
ROOT
ATOM      1  C   UNL     1      42.117  19.193  12.605  1.00  0.00     0.000 C 
ENDROOT
BRANCH   1   2
ATOM      2  C   UNL     1      40.590  19.027  12.506  1.00  0.00     0.006 C 
BRANCH   2   3
ATOM      3  C   UNL     1      40.187  18.012  11.428  1.00  0.00     0.053 C 
BRANCH   3   4
ATOM      4  C   UNL     1      39.532  18.678  10.257  1.00  0.00     0.041 C 
ATOM      5  O   UNL     1      40.232  19.226   9.366  1.00  0.00    -0.550 OA
ATOM      6  O   UNL     1      38.148  18.661  10.133  1.00  0.00    -0.550 OA
ENDBRANCH   3   4
ENDBRANCH   2   3
ENDBRANCH   1   2
BRANCH   1   7
ATOM      7  C   UNL     1      42.883  18.068  11.891  1.00  0.00     0.000 C 
BRANCH   7   8
ATOM      8  C   UNL     1      43.601  17.128  12.872  1.00  0.00    -0.000 C 
BRANCH   8   9
ATOM      9  C   UNL     1      44.761  16.397  12.181  1.00  0.00    -0.000 C 
BRANCH   9  10
ATOM     10  C   UNL     1      44.613  14.869  12.233  1.00  0.00    -0.003 C 
ATOM     11  C   UNL     1      45.959  14.144  12.257  1.00  0.00     0.004 C 
ENDBRANCH   9  10
ENDBRANCH   8   9
ENDBRANCH   7   8
ENDBRANCH   1   7
TORSDOF 7
ENDMDL
MODEL 3
REMARK VINA RESULT:    -4.299      2.941      5.802
REMARK INTER + INTRA:          -6.397
REMARK INTER:                  -6.117
REMARK INTRA:                  -0.280
REMARK UNBOUND:                -0.338
REMARK SMILES CCCCCCCCC(=O)[O-]
REMARK SMILES IDX 6 1 7 2 8 3 9 4 10 5 11 6 5 7 4 8 3 9 2 10 1 11
REMARK H PARENT
REMARK Flexibility Score: inf
ROOT
ATOM      1  C   UNL     1      40.293  18.995  12.204  1.00  0.00     0.000 C 
ENDROOT
BRANCH   1   2
ATOM      2  C   UNL     1      41.759  18.773  12.619  1.00  0.00     0.006 C 
BRANCH   2   3
ATOM      3  C   UNL     1      42.230  17.340  12.337  1.00  0.00     0.053 C 
BRANCH   3   4
ATOM      4  C   UNL     1      43.725  17.240  12.328  1.00  0.00     0.041 C 
ATOM      5  O   UNL     1      44.429  18.281  12.271  1.00  0.00    -0.550 OA
ATOM      6  O   UNL     1      44.338  15.996  12.418  1.00  0.00    -0.550 OA
ENDBRANCH   3   4
ENDBRANCH   2   3
ENDBRANCH   1   2
BRANCH   1   7
ATOM      7  C   UNL     1      39.902  18.184  10.958  1.00  0.00     0.000 C 
BRANCH   7   8
ATOM      8  C   UNL     1      38.524  18.578  10.405  1.00  0.00    -0.000 C 
BRANCH   8   9
ATOM      9  C   UNL     1      37.592  19.045  11.535  1.00  0.00    -0.000 C 
BRANCH   9  10
ATOM     10  C   UNL     1      36.395  18.105  11.741  1.00  0.00    -0.003 C 
ATOM     11  C   UNL     1      35.090  18.857  12.004  1.00  0.00     0.004 C 
ENDBRANCH   9  10
ENDBRANCH   8   9
ENDBRANCH   7   8
ENDBRANCH   1   7
TORSDOF 7
ENDMDL
MODEL 4
REMARK VINA RESULT:    -4.264      2.943      5.058
REMARK INTER + INTRA:          -6.347
REMARK INTER:                  -5.874
REMARK INTRA:                  -0.473
REMARK UNBOUND:                -0.338
REMARK SMILES CCCCCCCCC(=O)[O-]
REMARK SMILES IDX 6 1 7 2 8 3 9 4 10 5 11 6 5 7 4 8 3 9 2 10 1 11
REMARK H PARENT
REMARK Flexibility Score: inf
ROOT
ATOM      1  C   UNL     1      43.948  18.631  12.209  1.00  0.00     0.000 C 
ENDROOT
BRANCH   1   2
ATOM      2  C   UNL     1      43.372  20.056  12.131  1.00  0.00     0.006 C 
BRANCH   2   3
ATOM      3  C   UNL     1      43.637  20.858  13.412  1.00  0.00     0.053 C 
BRANCH   3   4
ATOM      4  C   UNL     1      42.365  21.349  14.033  1.00  0.00     0.041 C 
ATOM      5  O   UNL     1      42.229  22.566  14.322  1.00  0.00    -0.550 OA
ATOM      6  O   UNL     1      41.317  20.465  14.260  1.00  0.00    -0.550 OA
ENDBRANCH   3   4
ENDBRANCH   2   3
ENDBRANCH   1   2
BRANCH   1   7
ATOM      7  C   UNL     1      43.008  17.578  11.601  1.00  0.00     0.000 C 
BRANCH   7   8
ATOM      8  C   UNL     1      41.603  17.613  12.221  1.00  0.00    -0.000 C 
BRANCH   8   9
ATOM      9  C   UNL     1      40.535  17.865  11.146  1.00  0.00    -0.000 C 
BRANCH   9  10
ATOM     10  C   UNL     1      39.563  18.990  11.530  1.00  0.00    -0.003 C 
ATOM     11  C   UNL     1      38.315  19.020  10.647  1.00  0.00     0.004 C 
ENDBRANCH   9  10
ENDBRANCH   8   9
ENDBRANCH   7   8
ENDBRANCH   1   7
TORSDOF 7
ENDMDL
MODEL 5
REMARK VINA RESULT:    -4.261      2.614      3.804
REMARK INTER + INTRA:          -6.343
REMARK INTER:                  -5.755
REMARK INTRA:                  -0.587
REMARK UNBOUND:                -0.338
REMARK SMILES CCCCCCCCC(=O)[O-]
REMARK SMILES IDX 6 1 7 2 8 3 9 4 10 5 11 6 5 7 4 8 3 9 2 10 1 11
REMARK H PARENT
REMARK Flexibility Score: inf
ROOT
ATOM      1  C   UNL     1      41.678  17.474  12.211  1.00  0.00     0.000 C 
ENDROOT
BRANCH   1   2
ATOM      2  C   UNL     1      40.691  17.993  11.150  1.00  0.00     0.006 C 
BRANCH   2   3
ATOM      3  C   UNL     1      39.625  18.916  11.753  1.00  0.00     0.053 C 
BRANCH   3   4
ATOM      4  C   UNL     1      38.285  18.708  11.115  1.00  0.00     0.041 C 
ATOM      5  O   UNL     1      38.191  18.572   9.867  1.00  0.00    -0.550 OA
ATOM      6  O   UNL     1      37.144  18.629  11.905  1.00  0.00    -0.550 OA
ENDBRANCH   3   4
ENDBRANCH   2   3
ENDBRANCH   1   2
BRANCH   1   7
ATOM      7  C   UNL     1      43.130  17.455  11.709  1.00  0.00     0.000 C 
BRANCH   7   8
ATOM      8  C   UNL     1      44.024  18.462  12.448  1.00  0.00    -0.000 C 
BRANCH   8   9
ATOM      9  C   UNL     1      43.643  19.905  12.084  1.00  0.00    -0.000 C 
BRANCH   9  10
ATOM     10  C   UNL     1      43.544  20.819  13.314  1.00  0.00    -0.003 C 
ATOM     11  C   UNL     1      42.129  20.885  13.891  1.00  0.00     0.004 C 
ENDBRANCH   9  10
ENDBRANCH   8   9
ENDBRANCH   7   8
ENDBRANCH   1   7
TORSDOF 7
ENDMDL
MODEL 6
REMARK VINA RESULT:    -4.195      2.384      5.074
REMARK INTER + INTRA:          -6.250
REMARK INTER:                  -5.713
REMARK INTRA:                  -0.537
REMARK UNBOUND:                -0.338
REMARK SMILES CCCCCCCCC(=O)[O-]
REMARK SMILES IDX 6 1 7 2 8 3 9 4 10 5 11 6 5 7 4 8 3 9 2 10 1 11
REMARK H PARENT
REMARK Flexibility Score: inf
ROOT
ATOM      1  C   UNL     1      40.487  19.058  12.397  1.00  0.00     0.000 C 
ENDROOT
BRANCH   1   2
ATOM      2  C   UNL     1      41.968  18.695  12.607  1.00  0.00     0.006 C 
BRANCH   2   3
ATOM      3  C   UNL     1      42.263  17.233  12.247  1.00  0.00     0.053 C 
BRANCH   3   4
ATOM      4  C   UNL     1      43.736  16.961  12.196  1.00  0.00     0.041 C 
ATOM      5  O   UNL     1      44.556  17.915  12.178  1.00  0.00    -0.550 OA
ATOM      6  O   UNL     1      44.201  15.652  12.205  1.00  0.00    -0.550 OA
ENDBRANCH   3   4
ENDBRANCH   2   3
ENDBRANCH   1   2
BRANCH   1   7
ATOM      7  C   UNL     1      39.810  18.183  11.330  1.00  0.00     0.000 C 
BRANCH   7   8
ATOM      8  C   UNL     1      39.262  19.005  10.154  1.00  0.00    -0.000 C 
BRANCH   8   9
ATOM      9  C   UNL     1      40.405  19.630   9.340  1.00  0.00    -0.000 C 
BRANCH   9  10
ATOM     10  C   UNL     1      40.308  21.161   9.261  1.00  0.00    -0.003 C 
ATOM     11  C   UNL     1      41.597  21.859   9.693  1.00  0.00     0.004 C 
ENDBRANCH   9  10
ENDBRANCH   8   9
ENDBRANCH   7   8
ENDBRANCH   1   7
TORSDOF 7
ENDMDL
MODEL 7
REMARK VINA RESULT:    -4.188     15.871     16.495
REMARK INTER + INTRA:          -6.240
REMARK INTER:                  -5.920
REMARK INTRA:                  -0.319
REMARK UNBOUND:                -0.338
REMARK SMILES CCCCCCCCC(=O)[O-]
REMARK SMILES IDX 6 1 7 2 8 3 9 4 10 5 11 6 5 7 4 8 3 9 2 10 1 11
REMARK H PARENT
REMARK Flexibility Score: inf
ROOT
ATOM      1  C   UNL     1      33.172   5.502  16.206  1.00  0.00     0.000 C 
ENDROOT
BRANCH   1   2
ATOM      2  C   UNL     1      32.177   6.562  16.713  1.00  0.00     0.006 C 
BRANCH   2   3
ATOM      3  C   UNL     1      31.108   5.959  17.634  1.00  0.00     0.053 C 
BRANCH   3   4
ATOM      4  C   UNL     1      31.260   6.435  19.046  1.00  0.00     0.041 C 
ATOM      5  O   UNL     1      32.314   6.187  19.689  1.00  0.00    -0.550 OA
ATOM      6  O   UNL     1      30.251   7.184  19.640  1.00  0.00    -0.550 OA
ENDBRANCH   3   4
ENDBRANCH   2   3
ENDBRANCH   1   2
BRANCH   1   7
ATOM      7  C   UNL     1      34.571   5.662  16.821  1.00  0.00     0.000 C 
BRANCH   7   8
ATOM      8  C   UNL     1      35.583   4.654  16.256  1.00  0.00    -0.000 C 
BRANCH   8   9
ATOM      9  C   UNL     1      35.601   4.696  14.721  1.00  0.00    -0.000 C 
BRANCH   9  10
ATOM     10  C   UNL     1      36.502   3.612  14.110  1.00  0.00    -0.003 C 
ATOM     11  C   UNL     1      37.726   3.304  14.972  1.00  0.00     0.004 C 
ENDBRANCH   9  10
ENDBRANCH   8   9
ENDBRANCH   7   8
ENDBRANCH   1   7
TORSDOF 7
ENDMDL
MODEL 8
REMARK VINA RESULT:    -4.153     15.370     16.496
REMARK INTER + INTRA:          -6.190
REMARK INTER:                  -5.878
REMARK INTRA:                  -0.312
REMARK UNBOUND:                -0.338
REMARK SMILES CCCCCCCCC(=O)[O-]
REMARK SMILES IDX 6 1 7 2 8 3 9 4 10 5 11 6 5 7 4 8 3 9 2 10 1 11
REMARK H PARENT
REMARK Flexibility Score: inf
ROOT
ATOM      1  C   UNL     1      35.308   5.532  16.712  1.00  0.00     0.000 C 
ENDROOT
BRANCH   1   2
ATOM      2  C   UNL     1      35.172   4.346  15.741  1.00  0.00     0.006 C 
BRANCH   2   3
ATOM      3  C   UNL     1      35.588   4.718  14.311  1.00  0.00     0.053 C 
BRANCH   3   4
ATOM      4  C   UNL     1      36.498   3.689  13.714  1.00  0.00     0.041 C 
ATOM      5  O   UNL     1      37.467   3.237  14.378  1.00  0.00    -0.550 OA
ATOM      6  O   UNL     1      36.254   3.205  12.434  1.00  0.00    -0.550 OA
ENDBRANCH   3   4
ENDBRANCH   2   3
ENDBRANCH   1   2
BRANCH   1   7
ATOM      7  C   UNL     1      33.987   5.871  17.422  1.00  0.00     0.000 C 
BRANCH   7   8
ATOM      8  C   UNL     1      32.788   5.884  16.463  1.00  0.00    -0.000 C 
BRANCH   8   9
ATOM      9  C   UNL     1      31.545   6.477  17.145  1.00  0.00    -0.000 C 
BRANCH   9  10
ATOM     10  C   UNL     1      31.536   6.244  18.664  1.00  0.00    -0.003 C 
ATOM     11  C   UNL     1      30.445   7.041  19.378  1.00  0.00     0.004 C 
ENDBRANCH   9  10
ENDBRANCH   8   9
ENDBRANCH   7   8
ENDBRANCH   1   7
TORSDOF 7
ENDMDL
MODEL 9
REMARK VINA RESULT:    -4.140      3.096      5.212
REMARK INTER + INTRA:          -6.173
REMARK INTER:                  -5.423
REMARK INTRA:                  -0.751
REMARK UNBOUND:                -0.338
REMARK SMILES CCCCCCCCC(=O)[O-]
REMARK SMILES IDX 6 1 7 2 8 3 9 4 10 5 11 6 5 7 4 8 3 9 2 10 1 11
REMARK H PARENT
REMARK Flexibility Score: inf
ROOT
ATOM      1  C   UNL     1      41.079  17.849  11.513  1.00  0.00     0.000 C 
ENDROOT
BRANCH   1   2
ATOM      2  C   UNL     1      41.980  18.512  12.571  1.00  0.00     0.006 C 
BRANCH   2   3
ATOM      3  C   UNL     1      41.282  19.683  13.275  1.00  0.00     0.053 C 
BRANCH   3   4
ATOM      4  C   UNL     1      42.259  20.738  13.696  1.00  0.00     0.041 C 
ATOM      5  O   UNL     1      43.429  20.739  13.234  1.00  0.00    -0.550 OA
ATOM      6  O   UNL     1      41.863  21.739  14.575  1.00  0.00    -0.550 OA
ENDBRANCH   3   4
ENDBRANCH   2   3
ENDBRANCH   1   2
BRANCH   1   7
ATOM      7  C   UNL     1      39.645  18.402  11.528  1.00  0.00     0.000 C 
BRANCH   7   8
ATOM      8  C   UNL     1      39.199  18.923  10.154  1.00  0.00    -0.000 C 
BRANCH   8   9
ATOM      9  C   UNL     1      40.379  19.545   9.393  1.00  0.00    -0.000 C 
BRANCH   9  10
ATOM     10  C   UNL     1      40.360  21.081   9.423  1.00  0.00    -0.003 C 
ATOM     11  C   UNL     1      41.669  21.679   9.941  1.00  0.00     0.004 C 
ENDBRANCH   9  10
ENDBRANCH   8   9
ENDBRANCH   7   8
ENDBRANCH   1   7
TORSDOF 7
ENDMDL
