MODEL 1
REMARK VINA RESULT:    -4.294      0.000      0.000
REMARK INTER + INTRA:          -8.352
REMARK INTER:                  -6.553
REMARK INTRA:                  -1.799
REMARK UNBOUND:                -1.799
REMARK SMILES OC[C@@H]1O[C@@H](O[C@]2(CO)O[C@H](CO)[C@H](O)[C@@H]2O)[C@@H](O)[C@H](O)[C@H]1O
REMARK SMILES IDX 6 1 5 2 3 3 22 4 4 5 20 6 18 7 2 8 1 9 23 11 21 13 19 15
REMARK SMILES IDX 7 17 16 18 10 19 14 20 11 21 8 22 9 23 17 25 15 27 12 29
REMARK SMILES IDX 13 30
REMARK H PARENT 1 10 23 12 21 14 19 16 9 24 17 26 15 28 13 31
REMARK Flexibility Score: inf
ROOT
ATOM      1  O   UNL     1      63.072  15.682   0.367  1.00  0.00    -0.313 OA
ENDROOT
BRANCH   1   2
ATOM      2  C   UNL     1      62.707  15.209   1.661  1.00  0.00     0.285 C 
ATOM      3  C   UNL     1      63.792  17.020   2.705  1.00  0.00     0.178 C 
ATOM      4  C   UNL     1      64.914  16.118   3.277  1.00  0.00     0.177 C 
ATOM      5  O   UNL     1      62.580  16.291   2.573  1.00  0.00    -0.341 OA
ATOM      6  C   UNL     1      65.105  14.879   2.388  1.00  0.00     0.179 C 
ATOM      7  C   UNL     1      63.747  14.191   2.164  1.00  0.00     0.202 C 
BRANCH   3   8
ATOM      8  C   UNL     1      63.539  18.215   3.633  1.00  0.00     0.191 C 
BRANCH   8   9
ATOM      9  O   UNL     1      64.493  19.211   3.391  1.00  0.00    -0.394 OA
ATOM     10  H   UNL     1      64.868  19.021   2.492  1.00  0.00     0.210 HD
ENDBRANCH   8   9
ENDBRANCH   3   8
BRANCH   4  11
ATOM     11  O   UNL     1      66.125  16.822   3.404  1.00  0.00    -0.387 OA
ATOM     12  H   UNL     1      66.489  16.964   2.492  1.00  0.00     0.211 HD
ENDBRANCH   4  11
BRANCH   6  13
ATOM     13  O   UNL     1      65.997  13.994   3.016  1.00  0.00    -0.387 OA
ATOM     14  H   UNL     1      66.625  14.547   3.551  1.00  0.00     0.211 HD
ENDBRANCH   6  13
BRANCH   7  15
ATOM     15  O   UNL     1      63.876  13.157   1.223  1.00  0.00    -0.385 OA
ATOM     16  H   UNL     1      63.309  12.406   1.537  1.00  0.00     0.211 HD
ENDBRANCH   7  15
ENDBRANCH   1   2
BRANCH   1  17
ATOM     17  C   UNL     1      62.049  15.544  -0.616  1.00  0.00     0.224 C 
ATOM     18  C   UNL     1      62.703  15.481  -2.014  1.00  0.00     0.208 C 
ATOM     19  O   UNL     1      61.351  14.321  -0.425  1.00  0.00    -0.337 OA
ATOM     20  C   UNL     1      62.850  13.999  -2.258  1.00  0.00     0.180 C 
ATOM     21  C   UNL     1      61.614  13.479  -1.529  1.00  0.00     0.179 C 
BRANCH  17  22
ATOM     22  C   UNL     1      61.049  16.727  -0.553  1.00  0.00     0.225 C 
BRANCH  22  23
ATOM     23  O   UNL     1      61.724  17.950  -0.427  1.00  0.00    -0.391 OA
ATOM     24  H   UNL     1      61.849  18.109   0.543  1.00  0.00     0.210 HD
ENDBRANCH  22  23
ENDBRANCH  17  22
BRANCH  18  25
ATOM     25  O   UNL     1      63.906  16.208  -2.131  1.00  0.00    -0.385 OA
ATOM     26  H   UNL     1      64.643  15.588  -2.366  1.00  0.00     0.211 HD
ENDBRANCH  18  25
BRANCH  20  27
ATOM     27  O   UNL     1      64.025  13.496  -1.671  1.00  0.00    -0.387 OA
ATOM     28  H   UNL     1      63.857  13.443  -0.695  1.00  0.00     0.211 HD
ENDBRANCH  20  27
BRANCH  21  29
ATOM     29  C   UNL     1      61.730  12.019  -1.065  1.00  0.00     0.191 C 
BRANCH  29  30
ATOM     30  O   UNL     1      62.014  11.174  -2.147  1.00  0.00    -0.394 OA
ATOM     31  H   UNL     1      62.857  10.700  -1.923  1.00  0.00     0.210 HD
ENDBRANCH  29  30
ENDBRANCH  21  29
ENDBRANCH   1  17
TORSDOF 13
ENDMDL
MODEL 2
REMARK VINA RESULT:    -4.287      2.499      5.751
REMARK INTER + INTRA:          -8.341
REMARK INTER:                  -6.391
REMARK INTRA:                  -1.950
REMARK UNBOUND:                -1.799
REMARK SMILES OC[C@@H]1O[C@@H](O[C@]2(CO)O[C@H](CO)[C@H](O)[C@@H]2O)[C@@H](O)[C@H](O)[C@H]1O
REMARK SMILES IDX 6 1 5 2 3 3 22 4 4 5 20 6 18 7 2 8 1 9 23 11 21 13 19 15
REMARK SMILES IDX 7 17 16 18 10 19 14 20 11 21 8 22 9 23 17 25 15 27 12 29
REMARK SMILES IDX 13 30
REMARK H PARENT 1 10 23 12 21 14 19 16 9 24 17 26 15 28 13 31
REMARK Flexibility Score: inf
ROOT
ATOM      1  O   UNL     1      60.924  15.579   0.702  1.00  0.00    -0.313 OA
ENDROOT
BRANCH   1   2
ATOM      2  C   UNL     1      61.117  15.697  -0.705  1.00  0.00     0.285 C 
ATOM      3  C   UNL     1      61.328  13.363  -0.941  1.00  0.00     0.178 C 
ATOM      4  C   UNL     1      62.840  13.456  -1.266  1.00  0.00     0.177 C 
ATOM      5  O   UNL     1      60.649  14.534  -1.374  1.00  0.00    -0.341 OA
ATOM      6  C   UNL     1      63.444  14.716  -0.627  1.00  0.00     0.179 C 
ATOM      7  C   UNL     1      62.604  15.945  -1.016  1.00  0.00     0.202 C 
BRANCH   3   8
ATOM      8  C   UNL     1      60.700  12.153  -1.646  1.00  0.00     0.191 C 
BRANCH   8   9
ATOM      9  O   UNL     1      61.593  11.646  -2.598  1.00  0.00    -0.394 OA
ATOM     10  H   UNL     1      61.543  10.657  -2.524  1.00  0.00     0.210 HD
ENDBRANCH   8   9
ENDBRANCH   3   8
BRANCH   4  11
ATOM     11  O   UNL     1      63.529  12.308  -0.835  1.00  0.00    -0.387 OA
ATOM     12  H   UNL     1      64.464  12.377  -1.161  1.00  0.00     0.211 HD
ENDBRANCH   4  11
BRANCH   6  13
ATOM     13  O   UNL     1      64.766  14.872  -1.078  1.00  0.00    -0.387 OA
ATOM     14  H   UNL     1      65.107  13.965  -1.292  1.00  0.00     0.211 HD
ENDBRANCH   6  13
BRANCH   7  15
ATOM     15  O   UNL     1      63.043  17.077  -0.310  1.00  0.00    -0.385 OA
ATOM     16  H   UNL     1      63.141  17.810  -0.971  1.00  0.00     0.211 HD
ENDBRANCH   7  15
ENDBRANCH   1   2
BRANCH   1  17
ATOM     17  C   UNL     1      59.772  16.259   1.195  1.00  0.00     0.224 C 
ATOM     18  C   UNL     1      60.047  16.725   2.642  1.00  0.00     0.208 C 
ATOM     19  O   UNL     1      59.527  17.425   0.420  1.00  0.00    -0.337 OA
ATOM     20  C   UNL     1      60.548  18.137   2.460  1.00  0.00     0.180 C 
ATOM     21  C   UNL     1      59.736  18.558   1.237  1.00  0.00     0.179 C 
BRANCH  17  22
ATOM     22  C   UNL     1      58.524  15.342   1.163  1.00  0.00     0.225 C 
BRANCH  22  23
ATOM     23  O   UNL     1      57.886  15.403  -0.084  1.00  0.00    -0.391 OA
ATOM     24  H   UNL     1      58.577  15.209  -0.769  1.00  0.00     0.210 HD
ENDBRANCH  22  23
ENDBRANCH  17  22
BRANCH  18  25
ATOM     25  O   UNL     1      60.921  15.891   3.369  1.00  0.00    -0.385 OA
ATOM     26  H   UNL     1      61.479  16.447   3.973  1.00  0.00     0.211 HD
ENDBRANCH  18  25
BRANCH  20  27
ATOM     27  O   UNL     1      61.925  18.160   2.177  1.00  0.00    -0.387 OA
ATOM     28  H   UNL     1      62.327  17.385   2.649  1.00  0.00     0.211 HD
ENDBRANCH  20  27
BRANCH  21  29
ATOM     29  C   UNL     1      60.379  19.689   0.419  1.00  0.00     0.191 C 
BRANCH  29  30
ATOM     30  O   UNL     1      61.250  19.170  -0.549  1.00  0.00    -0.394 OA
ATOM     31  H   UNL     1      61.915  19.882  -0.743  1.00  0.00     0.210 HD
ENDBRANCH  29  30
ENDBRANCH  21  29
ENDBRANCH   1  17
TORSDOF 13
ENDMDL
MODEL 3
REMARK VINA RESULT:    -4.261      1.983      5.695
REMARK INTER + INTRA:          -8.301
REMARK INTER:                  -6.280
REMARK INTRA:                  -2.021
REMARK UNBOUND:                -1.799
REMARK SMILES OC[C@@H]1O[C@@H](O[C@]2(CO)O[C@H](CO)[C@H](O)[C@@H]2O)[C@@H](O)[C@H](O)[C@H]1O
REMARK SMILES IDX 6 1 5 2 3 3 22 4 4 5 20 6 18 7 2 8 1 9 23 11 21 13 19 15
REMARK SMILES IDX 7 17 16 18 10 19 14 20 11 21 8 22 9 23 17 25 15 27 12 29
REMARK SMILES IDX 13 30
REMARK H PARENT 1 10 23 12 21 14 19 16 9 24 17 26 15 28 13 31
REMARK Flexibility Score: inf
ROOT
ATOM      1  O   UNL     1      61.984  15.835   1.203  1.00  0.00    -0.313 OA
ENDROOT
BRANCH   1   2
ATOM      2  C   UNL     1      61.098  15.249   0.252  1.00  0.00     0.285 C 
ATOM      3  C   UNL     1      62.561  13.438  -0.100  1.00  0.00     0.178 C 
ATOM      4  C   UNL     1      62.925  13.911  -1.529  1.00  0.00     0.177 C 
ATOM      5  O   UNL     1      61.239  13.836   0.239  1.00  0.00    -0.341 OA
ATOM      6  C   UNL     1      62.759  15.434  -1.643  1.00  0.00     0.179 C 
ATOM      7  C   UNL     1      61.360  15.838  -1.146  1.00  0.00     0.202 C 
BRANCH   3   8
ATOM      8  C   UNL     1      62.644  11.909  -0.003  1.00  0.00     0.191 C 
BRANCH   8   9
ATOM      9  O   UNL     1      62.729  11.358  -1.287  1.00  0.00    -0.394 OA
ATOM     10  H   UNL     1      61.904  10.821  -1.413  1.00  0.00     0.210 HD
ENDBRANCH   8   9
ENDBRANCH   3   8
BRANCH   4  11
ATOM     11  O   UNL     1      64.235  13.533  -1.876  1.00  0.00    -0.387 OA
ATOM     12  H   UNL     1      64.499  14.059  -2.676  1.00  0.00     0.211 HD
ENDBRANCH   4  11
BRANCH   6  13
ATOM     13  O   UNL     1      62.923  15.816  -2.985  1.00  0.00    -0.387 OA
ATOM     14  H   UNL     1      62.269  15.292  -3.517  1.00  0.00     0.211 HD
ENDBRANCH   6  13
BRANCH   7  15
ATOM     15  O   UNL     1      61.250  17.237  -1.088  1.00  0.00    -0.385 OA
ATOM     16  H   UNL     1      61.857  17.546  -0.366  1.00  0.00     0.211 HD
ENDBRANCH   7  15
ENDBRANCH   1   2
BRANCH   1  17
ATOM     17  C   UNL     1      61.379  16.141   2.457  1.00  0.00     0.224 C 
ATOM     18  C   UNL     1      61.966  17.468   2.985  1.00  0.00     0.208 C 
ATOM     19  O   UNL     1      59.982  16.339   2.288  1.00  0.00    -0.337 OA
ATOM     20  C   UNL     1      60.981  18.500   2.492  1.00  0.00     0.180 C 
ATOM     21  C   UNL     1      59.686  17.694   2.558  1.00  0.00     0.179 C 
BRANCH  17  22
ATOM     22  C   UNL     1      61.622  15.009   3.487  1.00  0.00     0.225 C 
BRANCH  22  23
ATOM     23  O   UNL     1      62.957  14.997   3.918  1.00  0.00    -0.391 OA
ATOM     24  H   UNL     1      63.435  14.342   3.348  1.00  0.00     0.210 HD
ENDBRANCH  22  23
ENDBRANCH  17  22
BRANCH  18  25
ATOM     25  O   UNL     1      63.300  17.713   2.600  1.00  0.00    -0.385 OA
ATOM     26  H   UNL     1      63.828  16.878   2.694  1.00  0.00     0.211 HD
ENDBRANCH  18  25
BRANCH  20  27
ATOM     27  O   UNL     1      61.262  18.887   1.169  1.00  0.00    -0.387 OA
ATOM     28  H   UNL     1      60.816  18.227   0.578  1.00  0.00     0.211 HD
ENDBRANCH  20  27
BRANCH  21  29
ATOM     29  C   UNL     1      58.588  18.195   1.607  1.00  0.00     0.191 C 
BRANCH  29  30
ATOM     30  O   UNL     1      58.796  17.712   0.308  1.00  0.00    -0.394 OA
ATOM     31  H   UNL     1      59.356  16.896   0.394  1.00  0.00     0.210 HD
ENDBRANCH  29  30
ENDBRANCH  21  29
ENDBRANCH   1  17
TORSDOF 13
ENDMDL
MODEL 4
REMARK VINA RESULT:    -4.250      2.451      5.563
REMARK INTER + INTRA:          -8.285
REMARK INTER:                  -6.215
REMARK INTRA:                  -2.070
REMARK UNBOUND:                -1.799
REMARK SMILES OC[C@@H]1O[C@@H](O[C@]2(CO)O[C@H](CO)[C@H](O)[C@@H]2O)[C@@H](O)[C@H](O)[C@H]1O
REMARK SMILES IDX 6 1 5 2 3 3 22 4 4 5 20 6 18 7 2 8 1 9 23 11 21 13 19 15
REMARK SMILES IDX 7 17 16 18 10 19 14 20 11 21 8 22 9 23 17 25 15 27 12 29
REMARK SMILES IDX 13 30
REMARK H PARENT 1 10 23 12 21 14 19 16 9 24 17 26 15 28 13 31
REMARK Flexibility Score: inf
ROOT
ATOM      1  O   UNL     1      62.015  17.743   2.185  1.00  0.00    -0.313 OA
ENDROOT
BRANCH   1   2
ATOM      2  C   UNL     1      61.502  16.631   1.457  1.00  0.00     0.285 C 
ATOM      3  C   UNL     1      63.343  15.295   2.065  1.00  0.00     0.178 C 
ATOM      4  C   UNL     1      63.914  15.292   0.625  1.00  0.00     0.177 C 
ATOM      5  O   UNL     1      61.927  15.409   2.043  1.00  0.00    -0.341 OA
ATOM      6  C   UNL     1      63.471  16.558  -0.124  1.00  0.00     0.179 C 
ATOM      7  C   UNL     1      61.945  16.714  -0.016  1.00  0.00     0.202 C 
BRANCH   3   8
ATOM      8  C   UNL     1      63.711  13.994   2.791  1.00  0.00     0.191 C 
BRANCH   8   9
ATOM      9  O   UNL     1      63.995  12.994   1.853  1.00  0.00    -0.394 OA
ATOM     10  H   UNL     1      64.841  12.568   2.152  1.00  0.00     0.210 HD
ENDBRANCH   8   9
ENDBRANCH   3   8
BRANCH   4  11
ATOM     11  O   UNL     1      65.318  15.190   0.630  1.00  0.00    -0.387 OA
ATOM     12  H   UNL     1      65.645  15.572   1.486  1.00  0.00     0.211 HD
ENDBRANCH   4  11
BRANCH   6  13
ATOM     13  O   UNL     1      63.851  16.451  -1.473  1.00  0.00    -0.387 OA
ATOM     14  H   UNL     1      64.817  16.224  -1.484  1.00  0.00     0.211 HD
ENDBRANCH   6  13
BRANCH   7  15
ATOM     15  O   UNL     1      61.543  17.949  -0.552  1.00  0.00    -0.385 OA
ATOM     16  H   UNL     1      62.367  18.476  -0.714  1.00  0.00     0.211 HD
ENDBRANCH   7  15
ENDBRANCH   1   2
BRANCH   1  17
ATOM     17  C   UNL     1      61.087  18.323   3.100  1.00  0.00     0.224 C 
ATOM     18  C   UNL     1      61.366  19.838   3.203  1.00  0.00     0.208 C 
ATOM     19  O   UNL     1      59.762  18.173   2.609  1.00  0.00    -0.337 OA
ATOM     20  C   UNL     1      60.419  20.432   2.188  1.00  0.00     0.180 C 
ATOM     21  C   UNL     1      59.252  19.454   2.300  1.00  0.00     0.179 C 
BRANCH  17  22
ATOM     22  C   UNL     1      61.199  17.668   4.500  1.00  0.00     0.225 C 
BRANCH  22  23
ATOM     23  O   UNL     1      61.920  18.486   5.383  1.00  0.00    -0.391 OA
ATOM     24  H   UNL     1      62.865  18.465   5.084  1.00  0.00     0.210 HD
ENDBRANCH  22  23
ENDBRANCH  17  22
BRANCH  18  25
ATOM     25  O   UNL     1      62.716  20.199   3.015  1.00  0.00    -0.385 OA
ATOM     26  H   UNL     1      62.884  20.349   2.049  1.00  0.00     0.211 HD
ENDBRANCH  18  25
BRANCH  20  27
ATOM     27  O   UNL     1      60.972  20.405   0.895  1.00  0.00    -0.387 OA
ATOM     28  H   UNL     1      61.790  20.965   0.922  1.00  0.00     0.211 HD
ENDBRANCH  20  27
BRANCH  21  29
ATOM     29  C   UNL     1      58.372  19.385   1.043  1.00  0.00     0.191 C 
BRANCH  29  30
ATOM     30  O   UNL     1      58.934  18.525   0.089  1.00  0.00    -0.394 OA
ATOM     31  H   UNL     1      59.557  17.926   0.579  1.00  0.00     0.210 HD
ENDBRANCH  29  30
ENDBRANCH  21  29
ENDBRANCH   1  17
TORSDOF 13
ENDMDL
MODEL 5
REMARK VINA RESULT:    -4.197      2.474      4.987
REMARK INTER + INTRA:          -8.204
REMARK INTER:                  -6.174
REMARK INTRA:                  -2.030
REMARK UNBOUND:                -1.799
REMARK SMILES OC[C@@H]1O[C@@H](O[C@]2(CO)O[C@H](CO)[C@H](O)[C@@H]2O)[C@@H](O)[C@H](O)[C@H]1O
REMARK SMILES IDX 6 1 5 2 3 3 22 4 4 5 20 6 18 7 2 8 1 9 23 11 21 13 19 15
REMARK SMILES IDX 7 17 16 18 10 19 14 20 11 21 8 22 9 23 17 25 15 27 12 29
REMARK SMILES IDX 13 30
REMARK H PARENT 1 10 23 12 21 14 19 16 9 24 17 26 15 28 13 31
REMARK Flexibility Score: inf
ROOT
ATOM      1  O   UNL     1      61.661  17.652   1.183  1.00  0.00    -0.313 OA
ENDROOT
BRANCH   1   2
ATOM      2  C   UNL     1      61.579  16.238   1.022  1.00  0.00     0.285 C 
ATOM      3  C   UNL     1      63.917  16.012   1.192  1.00  0.00     0.178 C 
ATOM      4  C   UNL     1      64.065  15.636  -0.304  1.00  0.00     0.177 C 
ATOM      5  O   UNL     1      62.654  15.594   1.691  1.00  0.00    -0.341 OA
ATOM      6  C   UNL     1      62.916  16.246  -1.122  1.00  0.00     0.179 C 
ATOM      7  C   UNL     1      61.570  15.876  -0.474  1.00  0.00     0.202 C 
BRANCH   3   8
ATOM      8  C   UNL     1      65.013  15.338   2.026  1.00  0.00     0.191 C 
BRANCH   8   9
ATOM      9  O   UNL     1      66.124  16.185   2.119  1.00  0.00    -0.394 OA
ATOM     10  H   UNL     1      66.336  16.258   3.087  1.00  0.00     0.210 HD
ENDBRANCH   8   9
ENDBRANCH   3   8
BRANCH   4  11
ATOM     11  O   UNL     1      65.307  16.053  -0.817  1.00  0.00    -0.387 OA
ATOM     12  H   UNL     1      65.955  15.313  -0.679  1.00  0.00     0.211 HD
ENDBRANCH   4  11
BRANCH   6  13
ATOM     13  O   UNL     1      62.972  15.750  -2.435  1.00  0.00    -0.387 OA
ATOM     14  H   UNL     1      62.061  15.845  -2.819  1.00  0.00     0.211 HD
ENDBRANCH   6  13
BRANCH   7  15
ATOM     15  O   UNL     1      60.521  16.559  -1.111  1.00  0.00    -0.385 OA
ATOM     16  H   UNL     1      60.619  17.519  -0.881  1.00  0.00     0.211 HD
ENDBRANCH   7  15
ENDBRANCH   1   2
BRANCH   1  17
ATOM     17  C   UNL     1      60.865  18.168   2.247  1.00  0.00     0.224 C 
ATOM     18  C   UNL     1      60.308  19.547   1.831  1.00  0.00     0.208 C 
ATOM     19  O   UNL     1      59.749  17.318   2.477  1.00  0.00    -0.337 OA
ATOM     20  C   UNL     1      58.953  19.212   1.255  1.00  0.00     0.180 C 
ATOM     21  C   UNL     1      58.573  18.020   2.131  1.00  0.00     0.179 C 
BRANCH  17  22
ATOM     22  C   UNL     1      61.692  18.304   3.550  1.00  0.00     0.225 C 
BRANCH  22  23
ATOM     23  O   UNL     1      62.824  19.106   3.348  1.00  0.00    -0.391 OA
ATOM     24  H   UNL     1      62.904  19.246   2.369  1.00  0.00     0.210 HD
ENDBRANCH  22  23
ENDBRANCH  17  22
BRANCH  18  25
ATOM     25  O   UNL     1      61.142  20.277   0.958  1.00  0.00    -0.385 OA
ATOM     26  H   UNL     1      62.088  20.038   1.131  1.00  0.00     0.211 HD
ENDBRANCH  18  25
BRANCH  20  27
ATOM     27  O   UNL     1      59.050  18.829  -0.095  1.00  0.00    -0.387 OA
ATOM     28  H   UNL     1      59.193  17.848  -0.104  1.00  0.00     0.211 HD
ENDBRANCH  20  27
BRANCH  21  29
ATOM     29  C   UNL     1      57.558  17.066   1.482  1.00  0.00     0.191 C 
BRANCH  29  30
ATOM     30  O   UNL     1      58.152  16.341   0.441  1.00  0.00    -0.394 OA
ATOM     31  H   UNL     1      57.445  15.754   0.063  1.00  0.00     0.210 HD
ENDBRANCH  29  30
ENDBRANCH  21  29
ENDBRANCH   1  17
TORSDOF 13
ENDMDL
MODEL 6
REMARK VINA RESULT:    -4.183      2.540      5.323
REMARK INTER + INTRA:          -8.182
REMARK INTER:                  -6.345
REMARK INTRA:                  -1.837
REMARK UNBOUND:                -1.799
REMARK SMILES OC[C@@H]1O[C@@H](O[C@]2(CO)O[C@H](CO)[C@H](O)[C@@H]2O)[C@@H](O)[C@H](O)[C@H]1O
REMARK SMILES IDX 6 1 5 2 3 3 22 4 4 5 20 6 18 7 2 8 1 9 23 11 21 13 19 15
REMARK SMILES IDX 7 17 16 18 10 19 14 20 11 21 8 22 9 23 17 25 15 27 12 29
REMARK SMILES IDX 13 30
REMARK H PARENT 1 10 23 12 21 14 19 16 9 24 17 26 15 28 13 31
REMARK Flexibility Score: inf
ROOT
ATOM      1  O   UNL     1      61.176  15.936   0.012  1.00  0.00    -0.313 OA
ENDROOT
BRANCH   1   2
ATOM      2  C   UNL     1      60.672  16.120   1.332  1.00  0.00     0.285 C 
ATOM      3  C   UNL     1      58.527  16.648   0.514  1.00  0.00     0.178 C 
ATOM      4  C   UNL     1      58.652  18.135   0.929  1.00  0.00     0.177 C 
ATOM      5  O   UNL     1      59.284  15.819   1.386  1.00  0.00    -0.341 OA
ATOM      6  C   UNL     1      60.129  18.559   0.953  1.00  0.00     0.179 C 
ATOM      7  C   UNL     1      60.937  17.562   1.802  1.00  0.00     0.202 C 
BRANCH   3   8
ATOM      8  C   UNL     1      57.063  16.196   0.570  1.00  0.00     0.191 C 
BRANCH   8   9
ATOM      9  O   UNL     1      56.359  16.740  -0.512  1.00  0.00    -0.394 OA
ATOM     10  H   UNL     1      55.651  17.314  -0.120  1.00  0.00     0.210 HD
ENDBRANCH   8   9
ENDBRANCH   3   8
BRANCH   4  11
ATOM     11  O   UNL     1      57.915  18.971   0.070  1.00  0.00    -0.387 OA
ATOM     12  H   UNL     1      58.451  19.102  -0.756  1.00  0.00     0.211 HD
ENDBRANCH   4  11
BRANCH   6  13
ATOM     13  O   UNL     1      60.229  19.850   1.498  1.00  0.00    -0.387 OA
ATOM     14  H   UNL     1      60.753  19.770   2.338  1.00  0.00     0.211 HD
ENDBRANCH   6  13
BRANCH   7  15
ATOM     15  O   UNL     1      62.310  17.839   1.700  1.00  0.00    -0.385 OA
ATOM     16  H   UNL     1      62.428  18.434   0.916  1.00  0.00     0.211 HD
ENDBRANCH   7  15
ENDBRANCH   1   2
BRANCH   1  17
ATOM     17  C   UNL     1      62.072  14.836  -0.125  1.00  0.00     0.224 C 
ATOM     18  C   UNL     1      63.055  15.131  -1.279  1.00  0.00     0.208 C 
ATOM     19  O   UNL     1      62.847  14.689   1.058  1.00  0.00    -0.337 OA
ATOM     20  C   UNL     1      64.241  15.743  -0.572  1.00  0.00     0.180 C 
ATOM     21  C   UNL     1      64.195  14.978   0.749  1.00  0.00     0.179 C 
BRANCH  17  22
ATOM     22  C   UNL     1      61.304  13.520  -0.409  1.00  0.00     0.225 C 
BRANCH  22  23
ATOM     23  O   UNL     1      61.436  13.139  -1.752  1.00  0.00    -0.391 OA
ATOM     24  H   UNL     1      61.234  13.942  -2.298  1.00  0.00     0.210 HD
ENDBRANCH  22  23
ENDBRANCH  17  22
BRANCH  18  25
ATOM     25  O   UNL     1      62.523  15.931  -2.311  1.00  0.00    -0.385 OA
ATOM     26  H   UNL     1      62.319  16.834  -1.956  1.00  0.00     0.211 HD
ENDBRANCH  18  25
BRANCH  20  27
ATOM     27  O   UNL     1      64.057  17.121  -0.359  1.00  0.00    -0.387 OA
ATOM     28  H   UNL     1      63.443  17.210   0.415  1.00  0.00     0.211 HD
ENDBRANCH  20  27
BRANCH  21  29
ATOM     29  C   UNL     1      64.861  15.715   1.921  1.00  0.00     0.191 C 
BRANCH  29  30
ATOM     30  O   UNL     1      66.107  16.232   1.541  1.00  0.00    -0.394 OA
ATOM     31  H   UNL     1      66.725  15.459   1.466  1.00  0.00     0.210 HD
ENDBRANCH  29  30
ENDBRANCH  21  29
ENDBRANCH   1  17
TORSDOF 13
ENDMDL
MODEL 7
REMARK VINA RESULT:    -4.020      2.405      5.489
REMARK INTER + INTRA:          -7.934
REMARK INTER:                  -5.920
REMARK INTRA:                  -2.014
REMARK UNBOUND:                -1.799
REMARK SMILES OC[C@@H]1O[C@@H](O[C@]2(CO)O[C@H](CO)[C@H](O)[C@@H]2O)[C@@H](O)[C@H](O)[C@H]1O
REMARK SMILES IDX 6 1 5 2 3 3 22 4 4 5 20 6 18 7 2 8 1 9 23 11 21 13 19 15
REMARK SMILES IDX 7 17 16 18 10 19 14 20 11 21 8 22 9 23 17 25 15 27 12 29
REMARK SMILES IDX 13 30
REMARK H PARENT 1 10 23 12 21 14 19 16 9 24 17 26 15 28 13 31
REMARK Flexibility Score: inf
ROOT
ATOM      1  O   UNL     1      61.811  15.271  -0.162  1.00  0.00    -0.313 OA
ENDROOT
BRANCH   1   2
ATOM      2  C   UNL     1      61.338  15.559   1.152  1.00  0.00     0.285 C 
ATOM      3  C   UNL     1      59.262  14.543   0.702  1.00  0.00     0.178 C 
ATOM      4  C   UNL     1      58.511  15.898   0.713  1.00  0.00     0.177 C 
ATOM      5  O   UNL     1      60.389  14.587   1.567  1.00  0.00    -0.341 OA
ATOM      6  C   UNL     1      59.465  17.038   0.323  1.00  0.00     0.179 C 
ATOM      7  C   UNL     1      60.730  16.972   1.196  1.00  0.00     0.202 C 
BRANCH   3   8
ATOM      8  C   UNL     1      58.337  13.413   1.172  1.00  0.00     0.191 C 
BRANCH   8   9
ATOM      9  O   UNL     1      57.278  13.947   1.916  1.00  0.00    -0.394 OA
ATOM     10  H   UNL     1      57.654  14.720   2.414  1.00  0.00     0.210 HD
ENDBRANCH   8   9
ENDBRANCH   3   8
BRANCH   4  11
ATOM     11  O   UNL     1      57.397  15.874  -0.147  1.00  0.00    -0.387 OA
ATOM     12  H   UNL     1      57.564  16.528  -0.875  1.00  0.00     0.211 HD
ENDBRANCH   4  11
BRANCH   6  13
ATOM     13  O   UNL     1      58.812  18.268   0.510  1.00  0.00    -0.387 OA
ATOM     14  H   UNL     1      59.308  18.754   1.220  1.00  0.00     0.211 HD
ENDBRANCH   6  13
BRANCH   7  15
ATOM     15  O   UNL     1      61.681  17.901   0.744  1.00  0.00    -0.385 OA
ATOM     16  H   UNL     1      62.566  17.587   1.061  1.00  0.00     0.211 HD
ENDBRANCH   7  15
ENDBRANCH   1   2
BRANCH   1  17
ATOM     17  C   UNL     1      63.045  14.559  -0.197  1.00  0.00     0.224 C 
ATOM     18  C   UNL     1      63.888  15.077  -1.384  1.00  0.00     0.208 C 
ATOM     19  O   UNL     1      63.789  14.813   0.987  1.00  0.00    -0.337 OA
ATOM     20  C   UNL     1      64.756  16.138  -0.751  1.00  0.00     0.180 C 
ATOM     21  C   UNL     1      64.951  15.537   0.639  1.00  0.00     0.179 C 
BRANCH  17  22
ATOM     22  C   UNL     1      62.808  13.034  -0.344  1.00  0.00     0.225 C 
BRANCH  22  23
ATOM     23  O   UNL     1      63.533  12.513  -1.425  1.00  0.00    -0.391 OA
ATOM     24  H   UNL     1      63.008  11.750  -1.779  1.00  0.00     0.210 HD
ENDBRANCH  22  23
ENDBRANCH  17  22
BRANCH  18  25
ATOM     25  O   UNL     1      63.133  15.529  -2.485  1.00  0.00    -0.385 OA
ATOM     26  H   UNL     1      63.744  15.896  -3.175  1.00  0.00     0.211 HD
ENDBRANCH  18  25
BRANCH  20  27
ATOM     27  O   UNL     1      64.084  17.371  -0.673  1.00  0.00    -0.387 OA
ATOM     28  H   UNL     1      64.238  17.835  -1.536  1.00  0.00     0.211 HD
ENDBRANCH  20  27
BRANCH  21  29
ATOM     29  C   UNL     1      65.277  16.572   1.727  1.00  0.00     0.191 C 
BRANCH  29  30
ATOM     30  O   UNL     1      64.128  17.288   2.091  1.00  0.00    -0.394 OA
ATOM     31  H   UNL     1      64.165  17.400   3.078  1.00  0.00     0.210 HD
ENDBRANCH  29  30
ENDBRANCH  21  29
ENDBRANCH   1  17
TORSDOF 13
ENDMDL
MODEL 8
REMARK VINA RESULT:    -3.859     12.432     14.622
REMARK INTER + INTRA:          -7.689
REMARK INTER:                  -5.720
REMARK INTRA:                  -1.968
REMARK UNBOUND:                -1.799
REMARK SMILES OC[C@@H]1O[C@@H](O[C@]2(CO)O[C@H](CO)[C@H](O)[C@@H]2O)[C@@H](O)[C@H](O)[C@H]1O
REMARK SMILES IDX 6 1 5 2 3 3 22 4 4 5 20 6 18 7 2 8 1 9 23 11 21 13 19 15
REMARK SMILES IDX 7 17 16 18 10 19 14 20 11 21 8 22 9 23 17 25 15 27 12 29
REMARK SMILES IDX 13 30
REMARK H PARENT 1 10 23 12 21 14 19 16 9 24 17 26 15 28 13 31
REMARK Flexibility Score: inf
ROOT
ATOM      1  O   UNL     1      59.340   5.577   8.824  1.00  0.00    -0.313 OA
ENDROOT
BRANCH   1   2
ATOM      2  C   UNL     1      57.975   5.168   8.822  1.00  0.00     0.285 C 
ATOM      3  C   UNL     1      57.578   6.262   6.774  1.00  0.00     0.178 C 
ATOM      4  C   UNL     1      56.696   7.348   7.438  1.00  0.00     0.177 C 
ATOM      5  O   UNL     1      57.492   5.038   7.492  1.00  0.00    -0.341 OA
ATOM      6  C   UNL     1      57.102   7.538   8.908  1.00  0.00     0.179 C 
ATOM      7  C   UNL     1      57.121   6.173   9.618  1.00  0.00     0.202 C 
BRANCH   3   8
ATOM      8  C   UNL     1      57.123   6.008   5.332  1.00  0.00     0.191 C 
BRANCH   8   9
ATOM      9  O   UNL     1      55.752   6.268   5.217  1.00  0.00    -0.394 OA
ATOM     10  H   UNL     1      55.288   5.455   5.549  1.00  0.00     0.210 HD
ENDBRANCH   8   9
ENDBRANCH   3   8
BRANCH   4  11
ATOM     11  O   UNL     1      56.778   8.570   6.745  1.00  0.00    -0.387 OA
ATOM     12  H   UNL     1      55.887   9.006   6.794  1.00  0.00     0.211 HD
ENDBRANCH   4  11
BRANCH   6  13
ATOM     13  O   UNL     1      56.181   8.395   9.533  1.00  0.00    -0.387 OA
ATOM     14  H   UNL     1      55.949   9.101   8.875  1.00  0.00     0.211 HD
ENDBRANCH   6  13
BRANCH   7  15
ATOM     15  O   UNL     1      57.648   6.306  10.913  1.00  0.00    -0.385 OA
ATOM     16  H   UNL     1      56.905   6.605  11.498  1.00  0.00     0.211 HD
ENDBRANCH   7  15
ENDBRANCH   1   2
BRANCH   1  17
ATOM     17  C   UNL     1      60.267   4.521   9.064  1.00  0.00     0.224 C 
ATOM     18  C   UNL     1      61.503   5.095   9.790  1.00  0.00     0.208 C 
ATOM     19  O   UNL     1      59.688   3.550   9.926  1.00  0.00    -0.337 OA
ATOM     20  C   UNL     1      61.182   4.866  11.248  1.00  0.00     0.180 C 
ATOM     21  C   UNL     1      60.392   3.564  11.151  1.00  0.00     0.179 C 
BRANCH  17  22
ATOM     22  C   UNL     1      60.700   3.845   7.738  1.00  0.00     0.225 C 
BRANCH  22  23
ATOM     23  O   UNL     1      59.803   2.831   7.373  1.00  0.00    -0.391 OA
ATOM     24  H   UNL     1      59.896   2.111   8.048  1.00  0.00     0.210 HD
ENDBRANCH  22  23
ENDBRANCH  17  22
BRANCH  18  25
ATOM     25  O   UNL     1      61.802   6.435   9.468  1.00  0.00    -0.385 OA
ATOM     26  H   UNL     1      60.962   6.961   9.439  1.00  0.00     0.211 HD
ENDBRANCH  18  25
BRANCH  20  27
ATOM     27  O   UNL     1      60.382   5.900  11.765  1.00  0.00    -0.387 OA
ATOM     28  H   UNL     1      60.260   6.560  11.035  1.00  0.00     0.211 HD
ENDBRANCH  20  27
BRANCH  21  29
ATOM     29  C   UNL     1      59.423   3.332  12.321  1.00  0.00     0.191 C 
BRANCH  29  30
ATOM     30  O   UNL     1      58.176   3.918  12.057  1.00  0.00    -0.394 OA
ATOM     31  H   UNL     1      57.673   3.911  12.914  1.00  0.00     0.210 HD
ENDBRANCH  29  30
ENDBRANCH  21  29
ENDBRANCH   1  17
TORSDOF 13
ENDMDL
MODEL 9
REMARK VINA RESULT:    -3.837      1.915      5.470
REMARK INTER + INTRA:          -7.654
REMARK INTER:                  -5.907
REMARK INTRA:                  -1.747
REMARK UNBOUND:                -1.799
REMARK SMILES OC[C@@H]1O[C@@H](O[C@]2(CO)O[C@H](CO)[C@H](O)[C@@H]2O)[C@@H](O)[C@H](O)[C@H]1O
REMARK SMILES IDX 6 1 5 2 3 3 22 4 4 5 20 6 18 7 2 8 1 9 23 11 21 13 19 15
REMARK SMILES IDX 7 17 16 18 10 19 14 20 11 21 8 22 9 23 17 25 15 27 12 29
REMARK SMILES IDX 13 30
REMARK H PARENT 1 10 23 12 21 14 19 16 9 24 17 26 15 28 13 31
REMARK Flexibility Score: inf
ROOT
ATOM      1  O   UNL     1      62.017  14.356   0.239  1.00  0.00    -0.313 OA
ENDROOT
BRANCH   1   2
ATOM      2  C   UNL     1      61.686  14.013  -1.104  1.00  0.00     0.285 C 
ATOM      3  C   UNL     1      60.115  12.415  -0.382  1.00  0.00     0.178 C 
ATOM      4  C   UNL     1      60.988  11.228  -0.859  1.00  0.00     0.177 C 
ATOM      5  O   UNL     1      60.342  13.561  -1.190  1.00  0.00    -0.341 OA
ATOM      6  C   UNL     1      62.473  11.625  -0.853  1.00  0.00     0.179 C 
ATOM      7  C   UNL     1      62.658  12.940  -1.630  1.00  0.00     0.202 C 
BRANCH   3   8
ATOM      8  C   UNL     1      58.626  12.053  -0.465  1.00  0.00     0.191 C 
BRANCH   8   9
ATOM      9  O   UNL     1      58.419  11.144  -1.510  1.00  0.00    -0.394 OA
ATOM     10  H   UNL     1      58.173  11.687  -2.304  1.00  0.00     0.210 HD
ENDBRANCH   8   9
ENDBRANCH   3   8
BRANCH   4  11
ATOM     11  O   UNL     1      60.783  10.086  -0.062  1.00  0.00    -0.387 OA
ATOM     12  H   UNL     1      61.321  10.194   0.765  1.00  0.00     0.211 HD
ENDBRANCH   4  11
BRANCH   6  13
ATOM     13  O   UNL     1      63.226  10.600  -1.452  1.00  0.00    -0.387 OA
ATOM     14  H   UNL     1      63.734  10.152  -0.726  1.00  0.00     0.211 HD
ENDBRANCH   6  13
BRANCH   7  15
ATOM     15  O   UNL     1      63.977  13.402  -1.495  1.00  0.00    -0.385 OA
ATOM     16  H   UNL     1      64.076  13.727  -0.563  1.00  0.00     0.211 HD
ENDBRANCH   7  15
ENDBRANCH   1   2
BRANCH   1  17
ATOM     17  C   UNL     1      62.182  15.754   0.463  1.00  0.00     0.224 C 
ATOM     18  C   UNL     1      63.025  15.961   1.740  1.00  0.00     0.208 C 
ATOM     19  O   UNL     1      62.904  16.338  -0.614  1.00  0.00    -0.337 OA
ATOM     20  C   UNL     1      64.431  16.090   1.208  1.00  0.00     0.180 C 
ATOM     21  C   UNL     1      64.155  16.779  -0.127  1.00  0.00     0.179 C 
BRANCH  17  22
ATOM     22  C   UNL     1      60.812  16.462   0.613  1.00  0.00     0.225 C 
BRANCH  22  23
ATOM     23  O   UNL     1      60.560  17.309  -0.476  1.00  0.00    -0.391 OA
ATOM     24  H   UNL     1      61.115  18.120  -0.341  1.00  0.00     0.210 HD
ENDBRANCH  22  23
ENDBRANCH  17  22
BRANCH  18  25
ATOM     25  O   UNL     1      62.867  14.954   2.715  1.00  0.00    -0.385 OA
ATOM     26  H   UNL     1      63.537  15.085   3.434  1.00  0.00     0.211 HD
ENDBRANCH  18  25
BRANCH  20  27
ATOM     27  O   UNL     1      65.022  14.830   1.007  1.00  0.00    -0.387 OA
ATOM     28  H   UNL     1      64.410  14.160   1.409  1.00  0.00     0.211 HD
ENDBRANCH  20  27
BRANCH  21  29
ATOM     29  C   UNL     1      65.245  16.552  -1.185  1.00  0.00     0.191 C 
BRANCH  29  30
ATOM     30  O   UNL     1      64.676  16.219  -2.422  1.00  0.00    -0.394 OA
ATOM     31  H   UNL     1      63.859  16.777  -2.519  1.00  0.00     0.210 HD
ENDBRANCH  29  30
ENDBRANCH  21  29
ENDBRANCH   1  17
TORSDOF 13
ENDMDL
