MODEL 1
REMARK VINA RESULT:    -6.714      0.000      0.000
REMARK INTER + INTRA:         -11.198
REMARK INTER:                  -9.854
REMARK INTRA:                  -1.344
REMARK UNBOUND:                -1.344
REMARK SMILES Cc1cc2c(C(C)C)c(O)c(O)c(C=O)c2c(O)c1-c1c(C)cc2c(C(C)C)c(O)c(O)c(C=O)c2c1O
REMARK SMILES IDX 1 1 2 2 3 3 4 4 16 5 13 6 11 7 9 8 5 9 17 10 19 11 20 12
REMARK SMILES IDX 37 13 21 14 36 15 23 16 22 17 24 18 33 19 25 20 31 21 29 22
REMARK SMILES IDX 38 23 34 25 35 26 26 27 27 28 28 29 32 30 30 32 18 34 6 36
REMARK SMILES IDX 7 37 8 38 14 39 15 40 10 41 12 43
REMARK H PARENT 38 24 32 31 30 33 18 35 10 42 12 44
REMARK Flexibility Score: inf
ROOT
ATOM      1  C   UNL     1      57.628  22.096  22.052  1.00  0.00     0.045 C 
ATOM      2  C   UNL     1      56.392  22.080  22.919  1.00  0.00    -0.039 A 
ATOM      3  C   UNL     1      55.700  23.270  23.149  1.00  0.00     0.013 A 
ATOM      4  C   UNL     1      54.539  23.315  23.945  1.00  0.00    -0.006 A 
ATOM      5  C   UNL     1      54.159  22.140  24.659  1.00  0.00     0.039 A 
ATOM      6  C   UNL     1      53.142  22.234  25.654  1.00  0.00     0.072 A 
ATOM      7  C   UNL     1      52.488  23.462  25.869  1.00  0.00     0.169 A 
ATOM      8  C   UNL     1      52.800  24.582  25.102  1.00  0.00     0.162 A 
ATOM      9  C   UNL     1      53.762  24.511  24.064  1.00  0.00     0.008 A 
ATOM     10  C   UNL     1      54.791  20.904  24.332  1.00  0.00     0.132 A 
ATOM     11  C   UNL     1      55.910  20.883  23.472  1.00  0.00     0.031 A 
ENDROOT
BRANCH  11  12
ATOM     12  C   UNL     1      56.589  19.599  23.158  1.00  0.00     0.031 A 
ATOM     13  C   UNL     1      56.043  18.720  22.200  1.00  0.00     0.132 A 
ATOM     14  C   UNL     1      57.787  19.269  23.810  1.00  0.00    -0.039 A 
ATOM     15  C   UNL     1      56.674  17.469  21.919  1.00  0.00     0.039 A 
ATOM     16  C   UNL     1      58.446  18.086  23.480  1.00  0.00     0.013 A 
ATOM     17  C   UNL     1      58.405  20.206  24.820  1.00  0.00     0.045 C 
ATOM     18  C   UNL     1      57.926  17.168  22.544  1.00  0.00    -0.006 A 
ATOM     19  C   UNL     1      56.108  16.523  21.012  1.00  0.00     0.072 A 
ATOM     20  C   UNL     1      58.629  15.962  22.212  1.00  0.00     0.008 A 
ATOM     21  C   UNL     1      56.806  15.339  20.701  1.00  0.00     0.169 A 
ATOM     22  C   UNL     1      58.058  15.082  21.265  1.00  0.00     0.162 A 
BRANCH  13  23
ATOM     23  O   UNL     1      54.888  19.105  21.509  1.00  0.00    -0.507 OA
ATOM     24  H   UNL     1      54.090  19.551  21.943  1.00  0.00     0.293 HD
ENDBRANCH  13  23
BRANCH  19  25
ATOM     25  C   UNL     1      54.771  16.719  20.412  1.00  0.00     0.264 C 
ATOM     26  O   UNL     1      54.651  16.998  19.190  1.00  0.00    -0.298 OA
ENDBRANCH  19  25
BRANCH  20  27
ATOM     27  C   UNL     1      59.997  15.574  22.813  1.00  0.00     0.017 C 
ATOM     28  C   UNL     1      61.133  16.474  22.299  1.00  0.00     0.012 C 
ATOM     29  C   UNL     1      59.988  15.422  24.349  1.00  0.00     0.012 C 
ENDBRANCH  20  27
BRANCH  21  30
ATOM     30  O   UNL     1      56.264  14.371  19.847  1.00  0.00    -0.504 OA
ATOM     31  H   UNL     1      55.766  13.549  20.160  1.00  0.00     0.293 HD
ENDBRANCH  21  30
BRANCH  22  32
ATOM     32  O   UNL     1      58.743  13.920  20.890  1.00  0.00    -0.504 OA
ATOM     33  H   UNL     1      59.442  13.476  21.474  1.00  0.00     0.293 HD
ENDBRANCH  22  32
ENDBRANCH  11  12
BRANCH  10  34
ATOM     34  O   UNL     1      54.282  19.699  24.827  1.00  0.00    -0.507 OA
ATOM     35  H   UNL     1      54.468  19.349  25.759  1.00  0.00     0.293 HD
ENDBRANCH  10  34
BRANCH   9  36
ATOM     36  C   UNL     1      53.845  25.678  23.063  1.00  0.00     0.017 C 
ATOM     37  C   UNL     1      55.147  26.478  23.207  1.00  0.00     0.012 C 
ATOM     38  C   UNL     1      53.543  25.294  21.599  1.00  0.00     0.012 C 
ENDBRANCH   9  36
BRANCH   6  39
ATOM     39  C   UNL     1      52.826  21.119  26.570  1.00  0.00     0.264 C 
ATOM     40  O   UNL     1      51.708  20.543  26.515  1.00  0.00    -0.298 OA
ENDBRANCH   6  39
BRANCH   8  41
ATOM     41  O   UNL     1      52.143  25.774  25.431  1.00  0.00    -0.504 OA
ATOM     42  H   UNL     1      51.497  25.873  26.203  1.00  0.00     0.293 HD
ENDBRANCH   8  41
BRANCH   7  43
ATOM     43  O   UNL     1      51.521  23.615  26.871  1.00  0.00    -0.504 OA
ATOM     44  H   UNL     1      50.597  23.206  26.833  1.00  0.00     0.293 HD
ENDBRANCH   7  43
TORSDOF 11
ENDMDL
MODEL 2
REMARK VINA RESULT:    -6.475      0.664      8.944
REMARK INTER + INTRA:         -10.848
REMARK INTER:                  -9.176
REMARK INTRA:                  -1.672
REMARK UNBOUND:                -1.344
REMARK SMILES Cc1cc2c(C(C)C)c(O)c(O)c(C=O)c2c(O)c1-c1c(C)cc2c(C(C)C)c(O)c(O)c(C=O)c2c1O
REMARK SMILES IDX 1 1 2 2 3 3 4 4 16 5 13 6 11 7 9 8 5 9 17 10 19 11 20 12
REMARK SMILES IDX 37 13 21 14 36 15 23 16 22 17 24 18 33 19 25 20 31 21 29 22
REMARK SMILES IDX 38 23 34 25 35 26 26 27 27 28 28 29 32 30 30 32 18 34 6 36
REMARK SMILES IDX 7 37 8 38 14 39 15 40 10 41 12 43
REMARK H PARENT 38 24 32 31 30 33 18 35 10 42 12 44
REMARK Flexibility Score: inf
ROOT
ATOM      1  C   UNL     1      58.280  20.235  24.504  1.00  0.00     0.045 C 
ATOM      2  C   UNL     1      57.690  19.324  23.454  1.00  0.00    -0.039 A 
ATOM      3  C   UNL     1      58.306  18.101  23.182  1.00  0.00     0.013 A 
ATOM      4  C   UNL     1      57.798  17.210  22.218  1.00  0.00    -0.006 A 
ATOM      5  C   UNL     1      56.721  17.646  21.391  1.00  0.00     0.039 A 
ATOM      6  C   UNL     1      56.361  16.862  20.255  1.00  0.00     0.072 A 
ATOM      7  C   UNL     1      57.026  15.646  20.006  1.00  0.00     0.169 A 
ATOM      8  C   UNL     1      58.014  15.183  20.872  1.00  0.00     0.162 A 
ATOM      9  C   UNL     1      58.356  15.904  22.043  1.00  0.00     0.008 A 
ATOM     10  C   UNL     1      56.021  18.836  21.746  1.00  0.00     0.132 A 
ATOM     11  C   UNL     1      56.516  19.674  22.768  1.00  0.00     0.031 A 
ENDROOT
BRANCH  11  12
ATOM     12  C   UNL     1      55.805  20.932  23.115  1.00  0.00     0.031 A 
ATOM     13  C   UNL     1      54.845  20.946  24.148  1.00  0.00     0.132 A 
ATOM     14  C   UNL     1      56.105  22.113  22.420  1.00  0.00    -0.039 A 
ATOM     15  C   UNL     1      54.134  22.146  24.463  1.00  0.00     0.039 A 
ATOM     16  C   UNL     1      55.471  23.302  22.779  1.00  0.00     0.013 A 
ATOM     17  C   UNL     1      57.148  22.130  21.328  1.00  0.00     0.045 C 
ATOM     18  C   UNL     1      54.489  23.358  23.790  1.00  0.00    -0.006 A 
ATOM     19  C   UNL     1      53.102  22.177  25.449  1.00  0.00     0.072 A 
ATOM     20  C   UNL     1      53.859  24.596  24.148  1.00  0.00     0.008 A 
ATOM     21  C   UNL     1      52.487  23.398  25.786  1.00  0.00     0.169 A 
ATOM     22  C   UNL     1      52.883  24.589  25.171  1.00  0.00     0.162 A 
BRANCH  13  23
ATOM     23  O   UNL     1      54.618  19.773  24.877  1.00  0.00    -0.507 OA
ATOM     24  H   UNL     1      54.716  18.840  24.496  1.00  0.00     0.293 HD
ENDBRANCH  13  23
BRANCH  19  25
ATOM     25  C   UNL     1      52.613  20.948  26.107  1.00  0.00     0.264 C 
ATOM     26  O   UNL     1      52.776  20.774  27.343  1.00  0.00    -0.298 OA
ENDBRANCH  19  25
BRANCH  20  27
ATOM     27  C   UNL     1      54.201  25.954  23.498  1.00  0.00     0.017 C 
ATOM     28  C   UNL     1      55.672  26.345  23.713  1.00  0.00     0.012 C 
ATOM     29  C   UNL     1      53.745  26.078  22.029  1.00  0.00     0.012 C 
ENDBRANCH  20  27
BRANCH  21  30
ATOM     30  O   UNL     1      51.445  23.462  26.719  1.00  0.00    -0.504 OA
ATOM     31  H   UNL     1      50.893  22.667  27.012  1.00  0.00     0.293 HD
ENDBRANCH  21  30
BRANCH  22  32
ATOM     32  O   UNL     1      52.284  25.790  25.572  1.00  0.00    -0.504 OA
ATOM     33  H   UNL     1      51.284  25.897  25.694  1.00  0.00     0.293 HD
ENDBRANCH  22  32
ENDBRANCH  11  12
BRANCH  10  34
ATOM     34  O   UNL     1      54.818  19.163  21.112  1.00  0.00    -0.507 OA
ATOM     35  H   UNL     1      54.738  19.849  20.373  1.00  0.00     0.293 HD
ENDBRANCH  10  34
BRANCH   9  36
ATOM     36  C   UNL     1      59.222  15.203  23.107  1.00  0.00     0.017 C 
ATOM     37  C   UNL     1      60.663  15.731  23.125  1.00  0.00     0.012 C 
ATOM     38  C   UNL     1      58.593  15.146  24.514  1.00  0.00     0.012 C 
ENDBRANCH   9  36
BRANCH   6  39
ATOM     39  C   UNL     1      55.396  17.335  19.242  1.00  0.00     0.264 C 
ATOM     40  O   UNL     1      54.275  16.775  19.116  1.00  0.00    -0.298 OA
ENDBRANCH   6  39
BRANCH   8  41
ATOM     41  O   UNL     1      58.663  13.996  20.509  1.00  0.00    -0.504 OA
ATOM     42  H   UNL     1      58.810  13.214  21.133  1.00  0.00     0.293 HD
ENDBRANCH   8  41
BRANCH   7  43
ATOM     43  O   UNL     1      56.743  14.871  18.875  1.00  0.00    -0.504 OA
ATOM     44  H   UNL     1      57.449  14.450  18.286  1.00  0.00     0.293 HD
ENDBRANCH   7  43
TORSDOF 11
ENDMDL
MODEL 3
REMARK VINA RESULT:    -6.244      1.531      9.019
REMARK INTER + INTRA:         -10.509
REMARK INTER:                  -8.936
REMARK INTRA:                  -1.573
REMARK UNBOUND:                -1.344
REMARK SMILES Cc1cc2c(C(C)C)c(O)c(O)c(C=O)c2c(O)c1-c1c(C)cc2c(C(C)C)c(O)c(O)c(C=O)c2c1O
REMARK SMILES IDX 1 1 2 2 3 3 4 4 16 5 13 6 11 7 9 8 5 9 17 10 19 11 20 12
REMARK SMILES IDX 37 13 21 14 36 15 23 16 22 17 24 18 33 19 25 20 31 21 29 22
REMARK SMILES IDX 38 23 34 25 35 26 26 27 27 28 28 29 32 30 30 32 18 34 6 36
REMARK SMILES IDX 7 37 8 38 14 39 15 40 10 41 12 43
REMARK H PARENT 38 24 32 31 30 33 18 35 10 42 12 44
REMARK Flexibility Score: inf
ROOT
ATOM      1  C   UNL     1      57.790  19.613  25.233  1.00  0.00     0.045 C 
ATOM      2  C   UNL     1      57.305  18.802  24.056  1.00  0.00    -0.039 A 
ATOM      3  C   UNL     1      58.042  17.695  23.633  1.00  0.00     0.013 A 
ATOM      4  C   UNL     1      57.636  16.900  22.545  1.00  0.00    -0.006 A 
ATOM      5  C   UNL     1      56.526  17.338  21.762  1.00  0.00     0.039 A 
ATOM      6  C   UNL     1      56.258  16.687  20.522  1.00  0.00     0.072 A 
ATOM      7  C   UNL     1      57.044  15.589  20.124  1.00  0.00     0.169 A 
ATOM      8  C   UNL     1      58.066  15.110  20.940  1.00  0.00     0.162 A 
ATOM      9  C   UNL     1      58.323  15.693  22.206  1.00  0.00     0.008 A 
ATOM     10  C   UNL     1      55.708  18.393  22.260  1.00  0.00     0.132 A 
ATOM     11  C   UNL     1      56.107  19.126  23.398  1.00  0.00     0.031 A 
ENDROOT
BRANCH  11  12
ATOM     12  C   UNL     1      55.270  20.248  23.898  1.00  0.00     0.031 A 
ATOM     13  C   UNL     1      55.555  21.575  23.514  1.00  0.00     0.132 A 
ATOM     14  C   UNL     1      54.183  19.981  24.743  1.00  0.00    -0.039 A 
ATOM     15  C   UNL     1      54.774  22.661  24.017  1.00  0.00     0.039 A 
ATOM     16  C   UNL     1      53.371  21.030  25.172  1.00  0.00     0.013 A 
ATOM     17  C   UNL     1      53.841  18.566  25.147  1.00  0.00     0.045 C 
ATOM     18  C   UNL     1      53.632  22.374  24.831  1.00  0.00    -0.006 A 
ATOM     19  C   UNL     1      55.082  24.020  23.711  1.00  0.00     0.072 A 
ATOM     20  C   UNL     1      52.775  23.435  25.276  1.00  0.00     0.008 A 
ATOM     21  C   UNL     1      54.236  25.053  24.160  1.00  0.00     0.169 A 
ATOM     22  C   UNL     1      53.087  24.761  24.899  1.00  0.00     0.162 A 
BRANCH  13  23
ATOM     23  O   UNL     1      56.598  21.808  22.609  1.00  0.00    -0.507 OA
ATOM     24  H   UNL     1      57.168  21.079  22.200  1.00  0.00     0.293 HD
ENDBRANCH  13  23
BRANCH  19  25
ATOM     25  C   UNL     1      56.302  24.396  22.966  1.00  0.00     0.264 C 
ATOM     26  O   UNL     1      56.228  24.804  21.777  1.00  0.00    -0.298 OA
ENDBRANCH  19  25
BRANCH  20  27
ATOM     27  C   UNL     1      51.507  23.215  26.128  1.00  0.00     0.017 C 
ATOM     28  C   UNL     1      50.312  22.750  25.280  1.00  0.00     0.012 C 
ATOM     29  C   UNL     1      51.738  22.347  27.383  1.00  0.00     0.012 C 
ENDBRANCH  20  27
BRANCH  21  30
ATOM     30  O   UNL     1      54.528  26.400  23.912  1.00  0.00    -0.504 OA
ATOM     31  H   UNL     1      54.083  26.956  23.194  1.00  0.00     0.293 HD
ENDBRANCH  21  30
BRANCH  22  32
ATOM     32  O   UNL     1      52.244  25.812  25.282  1.00  0.00    -0.504 OA
ATOM     33  H   UNL     1      51.239  25.714  25.367  1.00  0.00     0.293 HD
ENDBRANCH  22  32
ENDBRANCH  11  12
BRANCH  10  34
ATOM     34  O   UNL     1      54.483  18.684  21.651  1.00  0.00    -0.507 OA
ATOM     35  H   UNL     1      54.394  19.076  20.722  1.00  0.00     0.293 HD
ENDBRANCH  10  34
BRANCH   9  36
ATOM     36  C   UNL     1      59.247  14.941  23.182  1.00  0.00     0.017 C 
ATOM     37  C   UNL     1      60.671  15.514  23.197  1.00  0.00     0.012 C 
ATOM     38  C   UNL     1      58.668  14.752  24.600  1.00  0.00     0.012 C 
ENDBRANCH   9  36
BRANCH   6  39
ATOM     39  C   UNL     1      55.258  17.198  19.561  1.00  0.00     0.264 C 
ATOM     40  O   UNL     1      54.174  16.583  19.378  1.00  0.00    -0.298 OA
ENDBRANCH   6  39
BRANCH   8  41
ATOM     41  O   UNL     1      58.835  14.055  20.432  1.00  0.00    -0.504 OA
ATOM     42  H   UNL     1      58.544  13.454  19.673  1.00  0.00     0.293 HD
ENDBRANCH   8  41
BRANCH   7  43
ATOM     43  O   UNL     1      56.850  14.954  18.891  1.00  0.00    -0.504 OA
ATOM     44  H   UNL     1      56.000  14.473  18.629  1.00  0.00     0.293 HD
ENDBRANCH   7  43
TORSDOF 11
ENDMDL
MODEL 4
REMARK VINA RESULT:    -6.015      2.783      8.879
REMARK INTER + INTRA:         -10.172
REMARK INTER:                  -8.571
REMARK INTRA:                  -1.601
REMARK UNBOUND:                -1.344
REMARK SMILES Cc1cc2c(C(C)C)c(O)c(O)c(C=O)c2c(O)c1-c1c(C)cc2c(C(C)C)c(O)c(O)c(C=O)c2c1O
REMARK SMILES IDX 1 1 2 2 3 3 4 4 16 5 13 6 11 7 9 8 5 9 17 10 19 11 20 12
REMARK SMILES IDX 37 13 21 14 36 15 23 16 22 17 24 18 33 19 25 20 31 21 29 22
REMARK SMILES IDX 38 23 34 25 35 26 26 27 27 28 28 29 32 30 30 32 18 34 6 36
REMARK SMILES IDX 7 37 8 38 14 39 15 40 10 41 12 43
REMARK H PARENT 38 24 32 31 30 33 18 35 10 42 12 44
REMARK Flexibility Score: inf
ROOT
ATOM      1  C   UNL     1      54.540  17.423  22.495  1.00  0.00     0.045 C 
ATOM      2  C   UNL     1      55.831  18.201  22.422  1.00  0.00    -0.039 A 
ATOM      3  C   UNL     1      57.011  17.542  22.070  1.00  0.00     0.013 A 
ATOM      4  C   UNL     1      58.244  18.217  21.982  1.00  0.00    -0.006 A 
ATOM      5  C   UNL     1      58.307  19.573  22.419  1.00  0.00     0.039 A 
ATOM      6  C   UNL     1      59.584  20.190  22.570  1.00  0.00     0.072 A 
ATOM      7  C   UNL     1      60.749  19.479  22.226  1.00  0.00     0.169 A 
ATOM      8  C   UNL     1      60.671  18.187  21.711  1.00  0.00     0.162 A 
ATOM      9  C   UNL     1      59.417  17.564  21.490  1.00  0.00     0.008 A 
ATOM     10  C   UNL     1      57.090  20.274  22.662  1.00  0.00     0.132 A 
ATOM     11  C   UNL     1      55.860  19.582  22.673  1.00  0.00     0.031 A 
ENDROOT
BRANCH  11  12
ATOM     12  C   UNL     1      54.595  20.307  22.960  1.00  0.00     0.031 A 
ATOM     13  C   UNL     1      54.135  20.438  24.287  1.00  0.00     0.132 A 
ATOM     14  C   UNL     1      53.865  20.875  21.906  1.00  0.00    -0.039 A 
ATOM     15  C   UNL     1      52.902  21.105  24.566  1.00  0.00     0.039 A 
ATOM     16  C   UNL     1      52.704  21.595  22.183  1.00  0.00     0.013 A 
ATOM     17  C   UNL     1      54.351  20.771  20.480  1.00  0.00     0.045 C 
ATOM     18  C   UNL     1      52.195  21.732  23.492  1.00  0.00    -0.006 A 
ATOM     19  C   UNL     1      52.369  21.188  25.888  1.00  0.00     0.072 A 
ATOM     20  C   UNL     1      51.004  22.488  23.752  1.00  0.00     0.008 A 
ATOM     21  C   UNL     1      51.195  21.927  26.129  1.00  0.00     0.169 A 
ATOM     22  C   UNL     1      50.545  22.592  25.085  1.00  0.00     0.162 A 
BRANCH  13  23
ATOM     23  O   UNL     1      54.919  19.927  25.329  1.00  0.00    -0.507 OA
ATOM     24  H   UNL     1      55.049  20.390  26.220  1.00  0.00     0.293 HD
ENDBRANCH  13  23
BRANCH  19  25
ATOM     25  C   UNL     1      52.988  20.477  27.026  1.00  0.00     0.264 C 
ATOM     26  O   UNL     1      52.763  19.254  27.218  1.00  0.00    -0.298 OA
ENDBRANCH  19  25
BRANCH  20  27
ATOM     27  C   UNL     1      50.197  23.223  22.661  1.00  0.00     0.017 C 
ATOM     28  C   UNL     1      50.983  24.394  22.048  1.00  0.00     0.012 C 
ATOM     29  C   UNL     1      49.575  22.287  21.603  1.00  0.00     0.012 C 
ENDBRANCH  20  27
BRANCH  21  30
ATOM     30  O   UNL     1      50.622  21.999  27.405  1.00  0.00    -0.504 OA
ATOM     31  H   UNL     1      51.116  22.296  28.235  1.00  0.00     0.293 HD
ENDBRANCH  21  30
BRANCH  22  32
ATOM     32  O   UNL     1      49.410  23.359  25.374  1.00  0.00    -0.504 OA
ATOM     33  H   UNL     1      49.362  24.358  25.218  1.00  0.00     0.293 HD
ENDBRANCH  22  32
ENDBRANCH  11  12
BRANCH  10  34
ATOM     34  O   UNL     1      57.100  21.660  22.852  1.00  0.00    -0.507 OA
ATOM     35  H   UNL     1      57.944  22.217  22.904  1.00  0.00     0.293 HD
ENDBRANCH  10  34
BRANCH   9  36
ATOM     36  C   UNL     1      59.380  16.276  20.646  1.00  0.00     0.017 C 
ATOM     37  C   UNL     1      59.842  16.511  19.201  1.00  0.00     0.012 C 
ATOM     38  C   UNL     1      60.066  15.058  21.298  1.00  0.00     0.012 C 
ENDBRANCH   9  36
BRANCH   6  39
ATOM     39  C   UNL     1      59.752  21.516  23.200  1.00  0.00     0.264 C 
ATOM     40  O   UNL     1      60.079  22.517  22.508  1.00  0.00    -0.298 OA
ENDBRANCH   6  39
BRANCH   8  41
ATOM     41  O   UNL     1      61.884  17.536  21.457  1.00  0.00    -0.504 OA
ATOM     42  H   UNL     1      61.986  16.745  20.834  1.00  0.00     0.293 HD
ENDBRANCH   8  41
BRANCH   7  43
ATOM     43  O   UNL     1      62.025  20.025  22.408  1.00  0.00    -0.504 OA
ATOM     44  H   UNL     1      62.199  20.937  22.808  1.00  0.00     0.293 HD
ENDBRANCH   7  43
TORSDOF 11
ENDMDL
MODEL 5
REMARK VINA RESULT:    -5.929      2.756      3.918
REMARK INTER + INTRA:         -10.047
REMARK INTER:                  -8.564
REMARK INTRA:                  -1.482
REMARK UNBOUND:                -1.344
REMARK SMILES Cc1cc2c(C(C)C)c(O)c(O)c(C=O)c2c(O)c1-c1c(C)cc2c(C(C)C)c(O)c(O)c(C=O)c2c1O
REMARK SMILES IDX 1 1 2 2 3 3 4 4 16 5 13 6 11 7 9 8 5 9 17 10 19 11 20 12
REMARK SMILES IDX 37 13 21 14 36 15 23 16 22 17 24 18 33 19 25 20 31 21 29 22
REMARK SMILES IDX 38 23 34 25 35 26 26 27 27 28 28 29 32 30 30 32 18 34 6 36
REMARK SMILES IDX 7 37 8 38 14 39 15 40 10 41 12 43
REMARK H PARENT 38 24 32 31 30 33 18 35 10 42 12 44
REMARK Flexibility Score: inf
ROOT
ATOM      1  C   UNL     1      54.632  21.528  20.696  1.00  0.00     0.045 C 
ATOM      2  C   UNL     1      53.987  21.379  22.053  1.00  0.00    -0.039 A 
ATOM      3  C   UNL     1      52.783  22.034  22.318  1.00  0.00     0.013 A 
ATOM      4  C   UNL     1      52.135  21.927  23.563  1.00  0.00    -0.006 A 
ATOM      5  C   UNL     1      52.814  21.261  24.627  1.00  0.00     0.039 A 
ATOM      6  C   UNL     1      52.289  21.359  25.949  1.00  0.00     0.072 A 
ATOM      7  C   UNL     1      51.083  22.051  26.172  1.00  0.00     0.169 A 
ATOM      8  C   UNL     1      50.379  22.619  25.113  1.00  0.00     0.162 A 
ATOM      9  C   UNL     1      50.838  22.490  23.779  1.00  0.00     0.008 A 
ATOM     10  C   UNL     1      53.978  20.496  24.325  1.00  0.00     0.132 A 
ATOM     11  C   UNL     1      54.564  20.567  23.043  1.00  0.00     0.031 A 
ENDROOT
BRANCH  11  12
ATOM     12  C   UNL     1      55.798  19.796  22.740  1.00  0.00     0.031 A 
ATOM     13  C   UNL     1      57.064  20.406  22.850  1.00  0.00     0.132 A 
ATOM     14  C   UNL     1      55.699  18.450  22.356  1.00  0.00    -0.039 A 
ATOM     15  C   UNL     1      58.252  19.679  22.528  1.00  0.00     0.039 A 
ATOM     16  C   UNL     1      56.860  17.716  22.118  1.00  0.00     0.013 A 
ATOM     17  C   UNL     1      54.356  17.767  22.257  1.00  0.00     0.045 C 
ATOM     18  C   UNL     1      58.146  18.291  22.195  1.00  0.00    -0.006 A 
ATOM     19  C   UNL     1      59.543  20.288  22.554  1.00  0.00     0.072 A 
ATOM     20  C   UNL     1      59.326  17.512  21.956  1.00  0.00     0.008 A 
ATOM     21  C   UNL     1      60.693  19.513  22.310  1.00  0.00     0.169 A 
ATOM     22  C   UNL     1      60.587  18.144  22.050  1.00  0.00     0.162 A 
BRANCH  13  23
ATOM     23  O   UNL     1      57.142  21.727  23.307  1.00  0.00    -0.507 OA
ATOM     24  H   UNL     1      56.965  22.008  24.264  1.00  0.00     0.293 HD
ENDBRANCH  13  23
BRANCH  19  25
ATOM     25  C   UNL     1      59.718  21.737  22.786  1.00  0.00     0.264 C 
ATOM     26  O   UNL     1      60.122  22.165  23.899  1.00  0.00    -0.298 OA
ENDBRANCH  19  25
BRANCH  20  27
ATOM     27  C   UNL     1      59.307  16.004  21.624  1.00  0.00     0.017 C 
ATOM     28  C   UNL     1      58.727  15.164  22.773  1.00  0.00     0.012 C 
ATOM     29  C   UNL     1      58.683  15.672  20.252  1.00  0.00     0.012 C 
ENDBRANCH  20  27
BRANCH  21  30
ATOM     30  O   UNL     1      61.972  20.083  22.290  1.00  0.00    -0.504 OA
ATOM     31  H   UNL     1      62.231  20.919  22.796  1.00  0.00     0.293 HD
ENDBRANCH  21  30
BRANCH  22  32
ATOM     32  O   UNL     1      61.757  17.397  21.866  1.00  0.00    -0.504 OA
ATOM     33  H   UNL     1      61.793  16.390  21.962  1.00  0.00     0.293 HD
ENDBRANCH  22  32
ENDBRANCH  11  12
BRANCH  10  34
ATOM     34  O   UNL     1      54.525  19.637  25.284  1.00  0.00    -0.507 OA
ATOM     35  H   UNL     1      55.464  19.260  25.234  1.00  0.00     0.293 HD
ENDBRANCH  10  34
BRANCH   9  36
ATOM     36  C   UNL     1      49.877  22.866  22.635  1.00  0.00     0.017 C 
ATOM     37  C   UNL     1      50.270  24.183  21.952  1.00  0.00     0.012 C 
ATOM     38  C   UNL     1      49.602  21.732  21.626  1.00  0.00     0.012 C 
ENDBRANCH   9  36
BRANCH   6  39
ATOM     39  C   UNL     1      53.027  20.869  27.131  1.00  0.00     0.264 C 
ATOM     40  O   UNL     1      52.936  19.664  27.488  1.00  0.00    -0.298 OA
ENDBRANCH   6  39
BRANCH   8  41
ATOM     41  O   UNL     1      49.224  23.341  25.440  1.00  0.00    -0.504 OA
ATOM     42  H   UNL     1      48.507  23.011  26.073  1.00  0.00     0.293 HD
ENDBRANCH   8  41
BRANCH   7  43
ATOM     43  O   UNL     1      50.558  22.218  27.460  1.00  0.00    -0.504 OA
ATOM     44  H   UNL     1      51.037  21.942  28.306  1.00  0.00     0.293 HD
ENDBRANCH   7  43
TORSDOF 11
ENDMDL
MODEL 6
REMARK VINA RESULT:    -5.827      3.361      9.120
REMARK INTER + INTRA:          -9.897
REMARK INTER:                  -8.193
REMARK INTRA:                  -1.703
REMARK UNBOUND:                -1.344
REMARK SMILES Cc1cc2c(C(C)C)c(O)c(O)c(C=O)c2c(O)c1-c1c(C)cc2c(C(C)C)c(O)c(O)c(C=O)c2c1O
REMARK SMILES IDX 1 1 2 2 3 3 4 4 16 5 13 6 11 7 9 8 5 9 17 10 19 11 20 12
REMARK SMILES IDX 37 13 21 14 36 15 23 16 22 17 24 18 33 19 25 20 31 21 29 22
REMARK SMILES IDX 38 23 34 25 35 26 26 27 27 28 28 29 32 30 30 32 18 34 6 36
REMARK SMILES IDX 7 37 8 38 14 39 15 40 10 41 12 43
REMARK H PARENT 38 24 32 31 30 33 18 35 10 42 12 44
REMARK Flexibility Score: inf
ROOT
ATOM      1  C   UNL     1      52.676  19.025  26.120  1.00  0.00     0.045 C 
ATOM      2  C   UNL     1      52.799  18.217  24.851  1.00  0.00    -0.039 A 
ATOM      3  C   UNL     1      52.547  16.844  24.883  1.00  0.00     0.013 A 
ATOM      4  C   UNL     1      52.642  16.041  23.730  1.00  0.00    -0.006 A 
ATOM      5  C   UNL     1      53.165  16.625  22.538  1.00  0.00     0.039 A 
ATOM      6  C   UNL     1      53.499  15.776  21.443  1.00  0.00     0.072 A 
ATOM      7  C   UNL     1      53.249  14.393  21.529  1.00  0.00     0.169 A 
ATOM      8  C   UNL     1      52.652  13.845  22.663  1.00  0.00     0.162 A 
ATOM      9  C   UNL     1      52.251  14.666  23.746  1.00  0.00     0.008 A 
ATOM     10  C   UNL     1      53.307  18.042  22.473  1.00  0.00     0.132 A 
ATOM     11  C   UNL     1      53.134  18.828  23.632  1.00  0.00     0.031 A 
ENDROOT
BRANCH  11  12
ATOM     12  C   UNL     1      53.317  20.303  23.571  1.00  0.00     0.031 A 
ATOM     13  C   UNL     1      54.571  20.877  23.864  1.00  0.00     0.132 A 
ATOM     14  C   UNL     1      52.238  21.121  23.206  1.00  0.00    -0.039 A 
ATOM     15  C   UNL     1      54.743  22.296  23.840  1.00  0.00     0.039 A 
ATOM     16  C   UNL     1      52.424  22.499  23.104  1.00  0.00     0.013 A 
ATOM     17  C   UNL     1      50.893  20.528  22.862  1.00  0.00     0.045 C 
ATOM     18  C   UNL     1      53.655  23.119  23.408  1.00  0.00    -0.006 A 
ATOM     19  C   UNL     1      55.977  22.915  24.205  1.00  0.00     0.072 A 
ATOM     20  C   UNL     1      53.825  24.538  23.285  1.00  0.00     0.008 A 
ATOM     21  C   UNL     1      56.128  24.310  24.086  1.00  0.00     0.169 A 
ATOM     22  C   UNL     1      55.082  25.101  23.602  1.00  0.00     0.162 A 
BRANCH  13  23
ATOM     23  O   UNL     1      55.651  20.035  24.152  1.00  0.00    -0.507 OA
ATOM     24  H   UNL     1      55.786  19.123  23.734  1.00  0.00     0.293 HD
ENDBRANCH  13  23
BRANCH  19  25
ATOM     25  C   UNL     1      57.107  22.139  24.758  1.00  0.00     0.264 C 
ATOM     26  O   UNL     1      58.153  21.959  24.082  1.00  0.00    -0.298 OA
ENDBRANCH  19  25
BRANCH  20  27
ATOM     27  C   UNL     1      52.717  25.496  22.798  1.00  0.00     0.017 C 
ATOM     28  C   UNL     1      52.387  25.294  21.310  1.00  0.00     0.012 C 
ATOM     29  C   UNL     1      51.466  25.519  23.702  1.00  0.00     0.012 C 
ENDBRANCH  20  27
BRANCH  21  30
ATOM     30  O   UNL     1      57.309  24.956  24.471  1.00  0.00    -0.504 OA
ATOM     31  H   UNL     1      57.776  24.810  25.356  1.00  0.00     0.293 HD
ENDBRANCH  21  30
BRANCH  22  32
ATOM     32  O   UNL     1      55.289  26.477  23.449  1.00  0.00    -0.504 OA
ATOM     33  H   UNL     1      55.089  27.153  24.176  1.00  0.00     0.293 HD
ENDBRANCH  22  32
ENDBRANCH  11  12
BRANCH  10  34
ATOM     34  O   UNL     1      53.580  18.669  21.252  1.00  0.00    -0.507 OA
ATOM     35  H   UNL     1      52.865  18.983  20.608  1.00  0.00     0.293 HD
ENDBRANCH  10  34
BRANCH   9  36
ATOM     36  C   UNL     1      51.333  14.058  24.823  1.00  0.00     0.017 C 
ATOM     37  C   UNL     1      49.978  13.616  24.252  1.00  0.00     0.012 C 
ATOM     38  C   UNL     1      51.994  12.970  25.694  1.00  0.00     0.012 C 
ENDBRANCH   9  36
BRANCH   6  39
ATOM     39  C   UNL     1      54.222  16.268  20.253  1.00  0.00     0.264 C 
ATOM     40  O   UNL     1      53.638  16.357  19.140  1.00  0.00    -0.298 OA
ENDBRANCH   6  39
BRANCH   8  41
ATOM     41  O   UNL     1      52.501  12.453  22.684  1.00  0.00    -0.504 OA
ATOM     42  H   UNL     1      53.142  11.804  22.247  1.00  0.00     0.293 HD
ENDBRANCH   8  41
BRANCH   7  43
ATOM     43  O   UNL     1      53.610  13.514  20.501  1.00  0.00    -0.504 OA
ATOM     44  H   UNL     1      53.943  13.811  19.593  1.00  0.00     0.293 HD
ENDBRANCH   7  43
TORSDOF 11
ENDMDL
MODEL 7
REMARK VINA RESULT:    -5.746      3.584     10.205
REMARK INTER + INTRA:          -9.777
REMARK INTER:                  -8.216
REMARK INTRA:                  -1.562
REMARK UNBOUND:                -1.344
REMARK SMILES Cc1cc2c(C(C)C)c(O)c(O)c(C=O)c2c(O)c1-c1c(C)cc2c(C(C)C)c(O)c(O)c(C=O)c2c1O
REMARK SMILES IDX 1 1 2 2 3 3 4 4 16 5 13 6 11 7 9 8 5 9 17 10 19 11 20 12
REMARK SMILES IDX 37 13 21 14 36 15 23 16 22 17 24 18 33 19 25 20 31 21 29 22
REMARK SMILES IDX 38 23 34 25 35 26 26 27 27 28 28 29 32 30 30 32 18 34 6 36
REMARK SMILES IDX 7 37 8 38 14 39 15 40 10 41 12 43
REMARK H PARENT 38 24 32 31 30 33 18 35 10 42 12 44
REMARK Flexibility Score: inf
ROOT
ATOM      1  C   UNL     1      54.527  22.653  24.729  1.00  0.00     0.045 C 
ATOM      2  C   UNL     1      55.663  22.594  23.737  1.00  0.00    -0.039 A 
ATOM      3  C   UNL     1      56.629  21.594  23.859  1.00  0.00     0.013 A 
ATOM      4  C   UNL     1      57.709  21.488  22.960  1.00  0.00    -0.006 A 
ATOM      5  C   UNL     1      57.898  22.527  22.001  1.00  0.00     0.039 A 
ATOM      6  C   UNL     1      59.113  22.564  21.256  1.00  0.00     0.072 A 
ATOM      7  C   UNL     1      60.071  21.547  21.429  1.00  0.00     0.169 A 
ATOM      8  C   UNL     1      59.836  20.486  22.301  1.00  0.00     0.162 A 
ATOM      9  C   UNL     1      58.615  20.382  23.012  1.00  0.00     0.008 A 
ATOM     10  C   UNL     1      56.853  23.475  21.801  1.00  0.00     0.132 A 
ATOM     11  C   UNL     1      55.747  23.510  22.676  1.00  0.00     0.031 A 
ENDROOT
BRANCH  11  12
ATOM     12  C   UNL     1      54.674  24.521  22.487  1.00  0.00     0.031 A 
ATOM     13  C   UNL     1      54.743  25.765  23.149  1.00  0.00     0.132 A 
ATOM     14  C   UNL     1      53.597  24.240  21.634  1.00  0.00    -0.039 A 
ATOM     15  C   UNL     1      53.698  26.728  22.997  1.00  0.00     0.039 A 
ATOM     16  C   UNL     1      52.616  25.208  21.422  1.00  0.00     0.013 A 
ATOM     17  C   UNL     1      53.514  22.926  20.894  1.00  0.00     0.045 C 
ATOM     18  C   UNL     1      52.634  26.457  22.079  1.00  0.00    -0.006 A 
ATOM     19  C   UNL     1      53.698  27.964  23.712  1.00  0.00     0.072 A 
ATOM     20  C   UNL     1      51.619  27.441  21.836  1.00  0.00     0.008 A 
ATOM     21  C   UNL     1      52.692  28.919  23.468  1.00  0.00     0.169 A 
ATOM     22  C   UNL     1      51.692  28.674  22.523  1.00  0.00     0.162 A 
BRANCH  13  23
ATOM     23  O   UNL     1      55.866  26.052  23.935  1.00  0.00    -0.507 OA
ATOM     24  H   UNL     1      56.193  25.464  24.692  1.00  0.00     0.293 HD
ENDBRANCH  13  23
BRANCH  19  25
ATOM     25  C   UNL     1      54.706  28.266  24.750  1.00  0.00     0.264 C 
ATOM     26  O   UNL     1      54.352  28.661  25.892  1.00  0.00    -0.298 OA
ENDBRANCH  19  25
BRANCH  20  27
ATOM     27  C   UNL     1      50.455  27.246  20.841  1.00  0.00     0.017 C 
ATOM     28  C   UNL     1      50.952  26.964  19.414  1.00  0.00     0.012 C 
ATOM     29  C   UNL     1      49.381  26.247  21.321  1.00  0.00     0.012 C 
ENDBRANCH  20  27
BRANCH  21  30
ATOM     30  O   UNL     1      52.638  30.125  24.178  1.00  0.00    -0.504 OA
ATOM     31  H   UNL     1      53.052  30.269  25.088  1.00  0.00     0.293 HD
ENDBRANCH  21  30
BRANCH  22  32
ATOM     32  O   UNL     1      50.740  29.670  22.272  1.00  0.00    -0.504 OA
ATOM     33  H   UNL     1      50.756  30.257  21.447  1.00  0.00     0.293 HD
ENDBRANCH  22  32
ENDBRANCH  11  12
BRANCH  10  34
ATOM     34  O   UNL     1      56.895  24.352  20.711  1.00  0.00    -0.507 OA
ATOM     35  H   UNL     1      57.708  24.480  20.122  1.00  0.00     0.293 HD
ENDBRANCH  10  34
BRANCH   9  36
ATOM     36  C   UNL     1      58.288  19.051  23.714  1.00  0.00     0.017 C 
ATOM     37  C   UNL     1      58.264  19.188  25.243  1.00  0.00     0.012 C 
ATOM     38  C   UNL     1      57.046  18.320  23.163  1.00  0.00     0.012 C 
ENDBRANCH   9  36
BRANCH   6  39
ATOM     39  C   UNL     1      59.475  23.706  20.391  1.00  0.00     0.264 C 
ATOM     40  O   UNL     1      59.486  23.580  19.137  1.00  0.00    -0.298 OA
ENDBRANCH   6  39
BRANCH   8  41
ATOM     41  O   UNL     1      60.872  19.556  22.455  1.00  0.00    -0.504 OA
ATOM     42  H   UNL     1      60.835  18.602  22.120  1.00  0.00     0.293 HD
ENDBRANCH   8  41
BRANCH   7  43
ATOM     43  O   UNL     1      61.301  21.572  20.759  1.00  0.00    -0.504 OA
ATOM     44  H   UNL     1      61.583  20.889  20.070  1.00  0.00     0.293 HD
ENDBRANCH   7  43
TORSDOF 11
ENDMDL
MODEL 8
REMARK VINA RESULT:    -5.677      3.534      6.029
REMARK INTER + INTRA:          -9.677
REMARK INTER:                  -8.056
REMARK INTRA:                  -1.621
REMARK UNBOUND:                -1.344
REMARK SMILES Cc1cc2c(C(C)C)c(O)c(O)c(C=O)c2c(O)c1-c1c(C)cc2c(C(C)C)c(O)c(O)c(C=O)c2c1O
REMARK SMILES IDX 1 1 2 2 3 3 4 4 16 5 13 6 11 7 9 8 5 9 17 10 19 11 20 12
REMARK SMILES IDX 37 13 21 14 36 15 23 16 22 17 24 18 33 19 25 20 31 21 29 22
REMARK SMILES IDX 38 23 34 25 35 26 26 27 27 28 28 29 32 30 30 32 18 34 6 36
REMARK SMILES IDX 7 37 8 38 14 39 15 40 10 41 12 43
REMARK H PARENT 38 24 32 31 30 33 18 35 10 42 12 44
REMARK Flexibility Score: inf
ROOT
ATOM      1  C   UNL     1      58.108  19.785  24.810  1.00  0.00     0.045 C 
ATOM      2  C   UNL     1      56.922  19.372  23.973  1.00  0.00    -0.039 A 
ATOM      3  C   UNL     1      55.658  19.302  24.561  1.00  0.00     0.013 A 
ATOM      4  C   UNL     1      54.515  18.926  23.829  1.00  0.00    -0.006 A 
ATOM      5  C   UNL     1      54.689  18.454  22.494  1.00  0.00     0.039 A 
ATOM      6  C   UNL     1      53.587  17.841  21.829  1.00  0.00     0.072 A 
ATOM      7  C   UNL     1      52.336  17.770  22.470  1.00  0.00     0.169 A 
ATOM      8  C   UNL     1      52.151  18.318  23.738  1.00  0.00     0.162 A 
ATOM      9  C   UNL     1      53.207  18.989  24.404  1.00  0.00     0.008 A 
ATOM     10  C   UNL     1      55.953  18.638  21.860  1.00  0.00     0.132 A 
ATOM     11  C   UNL     1      57.064  19.086  22.606  1.00  0.00     0.031 A 
ENDROOT
BRANCH  11  12
ATOM     12  C   UNL     1      58.390  19.245  21.953  1.00  0.00     0.031 A 
ATOM     13  C   UNL     1      58.785  20.498  21.440  1.00  0.00     0.132 A 
ATOM     14  C   UNL     1      59.255  18.145  21.861  1.00  0.00    -0.039 A 
ATOM     15  C   UNL     1      60.044  20.649  20.781  1.00  0.00     0.039 A 
ATOM     16  C   UNL     1      60.517  18.308  21.290  1.00  0.00     0.013 A 
ATOM     17  C   UNL     1      58.866  16.800  22.427  1.00  0.00     0.045 C 
ATOM     18  C   UNL     1      60.945  19.537  20.745  1.00  0.00    -0.006 A 
ATOM     19  C   UNL     1      60.442  21.882  20.182  1.00  0.00     0.072 A 
ATOM     20  C   UNL     1      62.252  19.683  20.173  1.00  0.00     0.008 A 
ATOM     21  C   UNL     1      61.726  22.009  19.617  1.00  0.00     0.169 A 
ATOM     22  C   UNL     1      62.625  20.939  19.644  1.00  0.00     0.162 A 
BRANCH  13  23
ATOM     23  O   UNL     1      57.935  21.597  21.610  1.00  0.00    -0.507 OA
ATOM     24  H   UNL     1      56.926  21.532  21.660  1.00  0.00     0.293 HD
ENDBRANCH  13  23
BRANCH  19  25
ATOM     25  C   UNL     1      59.525  23.037  20.090  1.00  0.00     0.264 C 
ATOM     26  O   UNL     1      59.684  24.043  20.829  1.00  0.00    -0.298 OA
ENDBRANCH  19  25
BRANCH  20  27
ATOM     27  C   UNL     1      63.298  18.548  20.120  1.00  0.00     0.017 C 
ATOM     28  C   UNL     1      63.522  17.901  21.497  1.00  0.00     0.012 C 
ATOM     29  C   UNL     1      63.052  17.520  18.996  1.00  0.00     0.012 C 
ENDBRANCH  20  27
BRANCH  21  30
ATOM     30  O   UNL     1      62.137  23.191  18.988  1.00  0.00    -0.504 OA
ATOM     31  H   UNL     1      61.577  23.706  18.323  1.00  0.00     0.293 HD
ENDBRANCH  21  30
BRANCH  22  32
ATOM     32  O   UNL     1      63.910  21.122  19.119  1.00  0.00    -0.504 OA
ATOM     33  H   UNL     1      64.455  21.963  19.267  1.00  0.00     0.293 HD
ENDBRANCH  22  32
ENDBRANCH  11  12
BRANCH  10  34
ATOM     34  O   UNL     1      56.092  18.416  20.486  1.00  0.00    -0.507 OA
ATOM     35  H   UNL     1      56.585  17.626  20.090  1.00  0.00     0.293 HD
ENDBRANCH  10  34
BRANCH   9  36
ATOM     36  C   UNL     1      52.869  19.829  25.650  1.00  0.00     0.017 C 
ATOM     37  C   UNL     1      53.346  19.165  26.949  1.00  0.00     0.012 C 
ATOM     38  C   UNL     1      53.278  21.313  25.556  1.00  0.00     0.012 C 
ENDBRANCH   9  36
BRANCH   6  39
ATOM     39  C   UNL     1      53.730  17.153  20.530  1.00  0.00     0.264 C 
ATOM     40  O   UNL     1      53.233  17.649  19.484  1.00  0.00    -0.298 OA
ENDBRANCH   6  39
BRANCH   8  41
ATOM     41  O   UNL     1      50.890  18.144  24.322  1.00  0.00    -0.504 OA
ATOM     42  H   UNL     1      50.166  18.850  24.333  1.00  0.00     0.293 HD
ENDBRANCH   8  41
BRANCH   7  43
ATOM     43  O   UNL     1      51.240  17.130  21.878  1.00  0.00    -0.504 OA
ATOM     44  H   UNL     1      50.734  17.494  21.082  1.00  0.00     0.293 HD
ENDBRANCH   7  43
TORSDOF 11
ENDMDL
MODEL 9
REMARK VINA RESULT:    -5.614      3.508      7.832
REMARK INTER + INTRA:          -9.583
REMARK INTER:                  -8.206
REMARK INTRA:                  -1.378
REMARK UNBOUND:                -1.344
REMARK SMILES Cc1cc2c(C(C)C)c(O)c(O)c(C=O)c2c(O)c1-c1c(C)cc2c(C(C)C)c(O)c(O)c(C=O)c2c1O
REMARK SMILES IDX 1 1 2 2 3 3 4 4 16 5 13 6 11 7 9 8 5 9 17 10 19 11 20 12
REMARK SMILES IDX 37 13 21 14 36 15 23 16 22 17 24 18 33 19 25 20 31 21 29 22
REMARK SMILES IDX 38 23 34 25 35 26 26 27 27 28 28 29 32 30 30 32 18 34 6 36
REMARK SMILES IDX 7 37 8 38 14 39 15 40 10 41 12 43
REMARK H PARENT 38 24 32 31 30 33 18 35 10 42 12 44
REMARK Flexibility Score: inf
ROOT
ATOM      1  C   UNL     1      58.999  17.451  23.378  1.00  0.00     0.045 C 
ATOM      2  C   UNL     1      59.328  18.583  22.435  1.00  0.00    -0.039 A 
ATOM      3  C   UNL     1      60.593  18.642  21.848  1.00  0.00     0.013 A 
ATOM      4  C   UNL     1      60.955  19.672  20.959  1.00  0.00    -0.006 A 
ATOM      5  C   UNL     1      60.054  20.764  20.782  1.00  0.00     0.039 A 
ATOM      6  C   UNL     1      60.503  21.925  20.087  1.00  0.00     0.072 A 
ATOM      7  C   UNL     1      61.797  21.950  19.532  1.00  0.00     0.169 A 
ATOM      8  C   UNL     1      62.637  20.842  19.629  1.00  0.00     0.162 A 
ATOM      9  C   UNL     1      62.203  19.650  20.260  1.00  0.00     0.008 A 
ATOM     10  C   UNL     1      58.724  20.645  21.283  1.00  0.00     0.132 A 
ATOM     11  C   UNL     1      58.372  19.561  22.115  1.00  0.00     0.031 A 
ENDROOT
BRANCH  11  12
ATOM     12  C   UNL     1      56.995  19.455  22.665  1.00  0.00     0.031 A 
ATOM     13  C   UNL     1      56.043  18.620  22.044  1.00  0.00     0.132 A 
ATOM     14  C   UNL     1      56.649  20.179  23.815  1.00  0.00    -0.039 A 
ATOM     15  C   UNL     1      54.708  18.540  22.549  1.00  0.00     0.039 A 
ATOM     16  C   UNL     1      55.371  20.041  24.356  1.00  0.00     0.013 A 
ATOM     17  C   UNL     1      57.659  21.059  24.513  1.00  0.00     0.045 C 
ATOM     18  C   UNL     1      54.381  19.235  23.756  1.00  0.00    -0.006 A 
ATOM     19  C   UNL     1      53.699  17.765  21.901  1.00  0.00     0.072 A 
ATOM     20  C   UNL     1      53.077  19.101  24.338  1.00  0.00     0.008 A 
ATOM     21  C   UNL     1      52.421  17.648  22.479  1.00  0.00     0.169 A 
ATOM     22  C   UNL     1      52.127  18.277  23.692  1.00  0.00     0.162 A 
BRANCH  13  23
ATOM     23  O   UNL     1      56.434  17.850  20.942  1.00  0.00    -0.507 OA
ATOM     24  H   UNL     1      56.706  18.237  20.047  1.00  0.00     0.293 HD
ENDBRANCH  13  23
BRANCH  19  25
ATOM     25  C   UNL     1      53.935  17.108  20.598  1.00  0.00     0.264 C 
ATOM     26  O   UNL     1      54.059  15.857  20.524  1.00  0.00    -0.298 OA
ENDBRANCH  19  25
BRANCH  20  27
ATOM     27  C   UNL     1      52.648  19.787  25.653  1.00  0.00     0.017 C 
ATOM     28  C   UNL     1      53.418  19.245  26.868  1.00  0.00     0.012 C 
ATOM     29  C   UNL     1      52.633  21.329  25.579  1.00  0.00     0.012 C 
ENDBRANCH  20  27
BRANCH  21  30
ATOM     30  O   UNL     1      51.395  16.929  21.853  1.00  0.00    -0.504 OA
ATOM     31  H   UNL     1      50.671  17.347  21.285  1.00  0.00     0.293 HD
ENDBRANCH  21  30
BRANCH  22  32
ATOM     32  O   UNL     1      50.861  18.093  24.262  1.00  0.00    -0.504 OA
ATOM     33  H   UNL     1      50.011  18.465  23.856  1.00  0.00     0.293 HD
ENDBRANCH  22  32
ENDBRANCH  11  12
BRANCH  10  34
ATOM     34  O   UNL     1      57.748  21.579  20.921  1.00  0.00    -0.507 OA
ATOM     35  H   UNL     1      57.248  21.560  20.041  1.00  0.00     0.293 HD
ENDBRANCH  10  34
BRANCH   9  36
ATOM     36  C   UNL     1      63.045  18.374  20.071  1.00  0.00     0.017 C 
ATOM     37  C   UNL     1      63.468  17.751  21.409  1.00  0.00     0.012 C 
ATOM     38  C   UNL     1      62.439  17.340  19.100  1.00  0.00     0.012 C 
ENDBRANCH   9  36
BRANCH   6  39
ATOM     39  C   UNL     1      59.709  23.169  20.029  1.00  0.00     0.264 C 
ATOM     40  O   UNL     1      59.694  23.964  21.006  1.00  0.00    -0.298 OA
ENDBRANCH   6  39
BRANCH   8  41
ATOM     41  O   UNL     1      63.927  20.982  19.103  1.00  0.00    -0.504 OA
ATOM     42  H   UNL     1      64.276  21.826  18.669  1.00  0.00     0.293 HD
ENDBRANCH   8  41
BRANCH   7  43
ATOM     43  O   UNL     1      62.300  23.086  18.888  1.00  0.00    -0.504 OA
ATOM     44  H   UNL     1      61.811  23.970  18.834  1.00  0.00     0.293 HD
ENDBRANCH   7  43
TORSDOF 11
ENDMDL
