MODEL 1
REMARK VINA RESULT:    -3.967      0.000      0.000
REMARK INTER + INTRA:          -4.083
REMARK INTER:                  -4.083
REMARK INTRA:                   0.000
REMARK UNBOUND:                 0.000
REMARK SMILES Oc1ccc2[nH]ccc2c1
REMARK SMILES IDX 3 1 4 2 5 3 9 4 8 5 7 6 6 7 10 8 2 9 1 11
REMARK H PARENT 6 10 1 12
REMARK Flexibility Score: inf
ROOT
ATOM      1  C   UNL     1      39.322  44.054  12.206  1.00  0.00     0.048 A 
ATOM      2  C   UNL     1      39.329  42.899  13.011  1.00  0.00     0.030 A 
ATOM      3  C   UNL     1      39.601  41.679  12.394  1.00  0.00     0.046 A 
ATOM      4  C   UNL     1      39.854  41.591  11.051  1.00  0.00     0.003 A 
ATOM      5  C   UNL     1      40.081  40.264  10.761  1.00  0.00     0.028 A 
ATOM      6  C   UNL     1      39.950  39.599  11.976  1.00  0.00     0.083 A 
ATOM      7  N   UNL     1      39.656  40.467  12.971  1.00  0.00    -0.361 N 
ATOM      8  C   UNL     1      39.854  42.714  10.227  1.00  0.00     0.056 A 
ATOM      9  C   UNL     1      39.584  43.964  10.816  1.00  0.00     0.116 A 
ATOM     10  H   UNL     1      39.505  40.239  13.978  1.00  0.00     0.166 HD
ENDROOT
BRANCH   9  11
ATOM     11  O   UNL     1      39.577  45.107  10.021  1.00  0.00    -0.508 OA
ATOM     12  H   UNL     1      39.962  45.101   9.084  1.00  0.00     0.293 HD
ENDBRANCH   9  11
TORSDOF 1
ENDMDL
MODEL 2
REMARK VINA RESULT:    -3.867     11.919     13.418
REMARK INTER + INTRA:          -3.980
REMARK INTER:                  -3.980
REMARK INTRA:                   0.000
REMARK UNBOUND:                 0.000
REMARK SMILES Oc1ccc2[nH]ccc2c1
REMARK SMILES IDX 3 1 4 2 5 3 9 4 8 5 7 6 6 7 10 8 2 9 1 11
REMARK H PARENT 6 10 1 12
REMARK Flexibility Score: inf
ROOT
ATOM      1  C   UNL     1      38.062  57.343  12.221  1.00  0.00     0.048 A 
ATOM      2  C   UNL     1      37.360  56.216  12.687  1.00  0.00     0.030 A 
ATOM      3  C   UNL     1      38.053  55.011  12.780  1.00  0.00     0.046 A 
ATOM      4  C   UNL     1      39.374  54.911  12.433  1.00  0.00     0.003 A 
ATOM      5  C   UNL     1      39.755  53.603  12.637  1.00  0.00     0.028 A 
ATOM      6  C   UNL     1      38.615  52.962  13.111  1.00  0.00     0.083 A 
ATOM      7  N   UNL     1      37.577  53.826  13.195  1.00  0.00    -0.361 N 
ATOM      8  C   UNL     1      40.098  56.007  11.968  1.00  0.00     0.056 A 
ATOM      9  C   UNL     1      39.429  57.242  11.862  1.00  0.00     0.116 A 
ATOM     10  H   UNL     1      36.608  53.611  13.519  1.00  0.00     0.166 HD
ENDROOT
BRANCH   9  11
ATOM     11  O   UNL     1      40.124  58.357  11.401  1.00  0.00    -0.508 OA
ATOM     12  H   UNL     1      39.935  59.284  11.763  1.00  0.00     0.293 HD
ENDBRANCH   9  11
TORSDOF 1
ENDMDL
MODEL 3
REMARK VINA RESULT:    -3.755      1.371      2.753
REMARK INTER + INTRA:          -3.865
REMARK INTER:                  -3.865
REMARK INTRA:                   0.000
REMARK UNBOUND:                 0.000
REMARK SMILES Oc1ccc2[nH]ccc2c1
REMARK SMILES IDX 3 1 4 2 5 3 9 4 8 5 7 6 6 7 10 8 2 9 1 11
REMARK H PARENT 6 10 1 12
REMARK Flexibility Score: inf
ROOT
ATOM      1  C   UNL     1      39.890  41.193  10.695  1.00  0.00     0.048 A 
ATOM      2  C   UNL     1      40.111  40.718  12.002  1.00  0.00     0.030 A 
ATOM      3  C   UNL     1      39.653  41.496  13.063  1.00  0.00     0.046 A 
ATOM      4  C   UNL     1      39.007  42.686  12.857  1.00  0.00     0.003 A 
ATOM      5  C   UNL     1      38.688  43.201  14.095  1.00  0.00     0.028 A 
ATOM      6  C   UNL     1      39.171  42.270  15.010  1.00  0.00     0.083 A 
ATOM      7  N   UNL     1      39.760  41.231  14.375  1.00  0.00    -0.361 N 
ATOM      8  C   UNL     1      38.772  43.185  11.578  1.00  0.00     0.056 A 
ATOM      9  C   UNL     1      39.221  42.424  10.481  1.00  0.00     0.116 A 
ATOM     10  H   UNL     1      40.204  40.397  14.818  1.00  0.00     0.166 HD
ENDROOT
BRANCH   9  11
ATOM     11  O   UNL     1      39.002  42.894   9.189  1.00  0.00    -0.508 OA
ATOM     12  H   UNL     1      39.016  43.885   8.977  1.00  0.00     0.293 HD
ENDBRANCH   9  11
TORSDOF 1
ENDMDL
MODEL 4
REMARK VINA RESULT:    -3.675     11.684     13.251
REMARK INTER + INTRA:          -3.783
REMARK INTER:                  -3.783
REMARK INTRA:                   0.000
REMARK UNBOUND:                 0.000
REMARK SMILES Oc1ccc2[nH]ccc2c1
REMARK SMILES IDX 3 1 4 2 5 3 9 4 8 5 7 6 6 7 10 8 2 9 1 11
REMARK H PARENT 6 10 1 12
REMARK Flexibility Score: inf
ROOT
ATOM      1  C   UNL     1      39.555  56.881  12.000  1.00  0.00     0.048 A 
ATOM      2  C   UNL     1      40.125  55.594  12.033  1.00  0.00     0.030 A 
ATOM      3  C   UNL     1      39.361  54.559  12.567  1.00  0.00     0.046 A 
ATOM      4  C   UNL     1      38.096  54.771  13.048  1.00  0.00     0.003 A 
ATOM      5  C   UNL     1      37.618  53.560  13.500  1.00  0.00     0.028 A 
ATOM      6  C   UNL     1      38.647  52.653  13.263  1.00  0.00     0.083 A 
ATOM      7  N   UNL     1      39.709  53.268  12.694  1.00  0.00    -0.361 N 
ATOM      8  C   UNL     1      37.503  56.032  13.030  1.00  0.00     0.056 A 
ATOM      9  C   UNL     1      38.246  57.102  12.496  1.00  0.00     0.116 A 
ATOM     10  H   UNL     1      40.612  52.826  12.412  1.00  0.00     0.166 HD
ENDROOT
BRANCH   9  11
ATOM     11  O   UNL     1      37.684  58.375  12.463  1.00  0.00    -0.508 OA
ATOM     12  H   UNL     1      36.925  58.601  11.831  1.00  0.00     0.293 HD
ENDBRANCH   9  11
TORSDOF 1
ENDMDL
MODEL 5
REMARK VINA RESULT:    -3.655      2.618      4.142
REMARK INTER + INTRA:          -3.762
REMARK INTER:                  -3.762
REMARK INTRA:                   0.000
REMARK UNBOUND:                 0.000
REMARK SMILES Oc1ccc2[nH]ccc2c1
REMARK SMILES IDX 3 1 4 2 5 3 9 4 8 5 7 6 6 7 10 8 2 9 1 11
REMARK H PARENT 6 10 1 12
REMARK Flexibility Score: inf
ROOT
ATOM      1  C   UNL     1      39.381  41.240  10.533  1.00  0.00     0.048 A 
ATOM      2  C   UNL     1      39.497  42.377   9.712  1.00  0.00     0.030 A 
ATOM      3  C   UNL     1      39.750  43.601  10.328  1.00  0.00     0.046 A 
ATOM      4  C   UNL     1      39.884  43.709  11.687  1.00  0.00     0.003 A 
ATOM      5  C   UNL     1      40.125  45.035  11.973  1.00  0.00     0.028 A 
ATOM      6  C   UNL     1      40.125  45.678  10.739  1.00  0.00     0.083 A 
ATOM      7  N   UNL     1      39.895  44.798   9.737  1.00  0.00    -0.361 N 
ATOM      8  C   UNL     1      39.774  42.604  12.528  1.00  0.00     0.056 A 
ATOM      9  C   UNL     1      39.520  41.350  11.940  1.00  0.00     0.116 A 
ATOM     10  H   UNL     1      39.842  45.010   8.717  1.00  0.00     0.166 HD
ENDROOT
BRANCH   9  11
ATOM     11  O   UNL     1      39.405  40.225  12.751  1.00  0.00    -0.508 OA
ATOM     12  H   UNL     1      40.192  39.608  12.914  1.00  0.00     0.293 HD
ENDBRANCH   9  11
TORSDOF 1
ENDMDL
MODEL 6
REMARK VINA RESULT:    -3.503     12.791     14.402
REMARK INTER + INTRA:          -3.606
REMARK INTER:                  -3.606
REMARK INTRA:                   0.000
REMARK UNBOUND:                 0.000
REMARK SMILES Oc1ccc2[nH]ccc2c1
REMARK SMILES IDX 3 1 4 2 5 3 9 4 8 5 7 6 6 7 10 8 2 9 1 11
REMARK H PARENT 6 10 1 12
REMARK Flexibility Score: inf
ROOT
ATOM      1  C   UNL     1      38.134  58.018  12.937  1.00  0.00     0.048 A 
ATOM      2  C   UNL     1      37.783  56.855  12.225  1.00  0.00     0.030 A 
ATOM      3  C   UNL     1      37.750  55.650  12.923  1.00  0.00     0.046 A 
ATOM      4  C   UNL     1      38.047  55.583  14.259  1.00  0.00     0.003 A 
ATOM      5  C   UNL     1      37.924  54.265  14.642  1.00  0.00     0.028 A 
ATOM      6  C   UNL     1      37.548  53.585  13.488  1.00  0.00     0.083 A 
ATOM      7  N   UNL     1      37.444  54.435  12.440  1.00  0.00    -0.361 N 
ATOM      8  C   UNL     1      38.398  56.714  14.992  1.00  0.00     0.056 A 
ATOM      9  C   UNL     1      38.441  57.950  14.319  1.00  0.00     0.116 A 
ATOM     10  H   UNL     1      37.179  54.192  11.461  1.00  0.00     0.166 HD
ENDROOT
BRANCH   9  11
ATOM     11  O   UNL     1      38.788  59.100  15.023  1.00  0.00    -0.508 OA
ATOM     12  H   UNL     1      38.107  59.606  15.577  1.00  0.00     0.293 HD
ENDBRANCH   9  11
TORSDOF 1
ENDMDL
MODEL 7
REMARK VINA RESULT:    -3.476     12.755     14.518
REMARK INTER + INTRA:          -3.577
REMARK INTER:                  -3.577
REMARK INTRA:                   0.000
REMARK UNBOUND:                 0.000
REMARK SMILES Oc1ccc2[nH]ccc2c1
REMARK SMILES IDX 3 1 4 2 5 3 9 4 8 5 7 6 6 7 10 8 2 9 1 11
REMARK H PARENT 6 10 1 12
REMARK Flexibility Score: inf
ROOT
ATOM      1  C   UNL     1      37.546  54.942  12.397  1.00  0.00     0.048 A 
ATOM      2  C   UNL     1      37.440  56.336  12.563  1.00  0.00     0.030 A 
ATOM      3  C   UNL     1      37.667  56.858  13.834  1.00  0.00     0.046 A 
ATOM      4  C   UNL     1      37.984  56.055  14.897  1.00  0.00     0.003 A 
ATOM      5  C   UNL     1      38.143  56.871  15.996  1.00  0.00     0.028 A 
ATOM      6  C   UNL     1      37.909  58.160  15.529  1.00  0.00     0.083 A 
ATOM      7  N   UNL     1      37.618  58.148  14.207  1.00  0.00    -0.361 N 
ATOM      8  C   UNL     1      38.096  54.673  14.768  1.00  0.00     0.056 A 
ATOM      9  C   UNL     1      37.873  54.109  13.497  1.00  0.00     0.116 A 
ATOM     10  H   UNL     1      37.401  58.972  13.606  1.00  0.00     0.166 HD
ENDROOT
BRANCH   9  11
ATOM     11  O   UNL     1      37.977  52.730  13.333  1.00  0.00    -0.508 OA
ATOM     12  H   UNL     1      38.641  52.183  13.869  1.00  0.00     0.293 HD
ENDBRANCH   9  11
TORSDOF 1
ENDMDL
MODEL 8
REMARK VINA RESULT:    -3.384     12.045     13.578
REMARK INTER + INTRA:          -3.483
REMARK INTER:                  -3.483
REMARK INTRA:                   0.000
REMARK UNBOUND:                 0.000
REMARK SMILES Oc1ccc2[nH]ccc2c1
REMARK SMILES IDX 3 1 4 2 5 3 9 4 8 5 7 6 6 7 10 8 2 9 1 11
REMARK H PARENT 6 10 1 12
REMARK Flexibility Score: inf
ROOT
ATOM      1  C   UNL     1      38.049  57.410  14.188  1.00  0.00     0.048 A 
ATOM      2  C   UNL     1      38.231  56.457  15.207  1.00  0.00     0.030 A 
ATOM      3  C   UNL     1      38.078  55.112  14.874  1.00  0.00     0.046 A 
ATOM      4  C   UNL     1      37.760  54.717  13.601  1.00  0.00     0.003 A 
ATOM      5  C   UNL     1      37.683  53.341  13.605  1.00  0.00     0.028 A 
ATOM      6  C   UNL     1      37.966  52.965  14.914  1.00  0.00     0.083 A 
ATOM      7  N   UNL     1      38.206  54.050  15.686  1.00  0.00    -0.361 N 
ATOM      8  C   UNL     1      37.573  55.635  12.571  1.00  0.00     0.056 A 
ATOM      9  C   UNL     1      37.720  57.003  12.871  1.00  0.00     0.116 A 
ATOM     10  H   UNL     1      38.442  54.056  16.702  1.00  0.00     0.166 HD
ENDROOT
BRANCH   9  11
ATOM     11  O   UNL     1      37.539  57.947  11.863  1.00  0.00    -0.508 OA
ATOM     12  H   UNL     1      37.944  57.821  10.943  1.00  0.00     0.293 HD
ENDBRANCH   9  11
TORSDOF 1
ENDMDL
MODEL 9
REMARK VINA RESULT:    -3.332     11.968     13.680
REMARK INTER + INTRA:          -3.429
REMARK INTER:                  -3.429
REMARK INTRA:                   0.000
REMARK UNBOUND:                 0.000
REMARK SMILES Oc1ccc2[nH]ccc2c1
REMARK SMILES IDX 3 1 4 2 5 3 9 4 8 5 7 6 6 7 10 8 2 9 1 11
REMARK H PARENT 6 10 1 12
REMARK Flexibility Score: inf
ROOT
ATOM      1  C   UNL     1      38.198  53.541  13.261  1.00  0.00     0.048 A 
ATOM      2  C   UNL     1      37.481  54.722  13.530  1.00  0.00     0.030 A 
ATOM      3  C   UNL     1      38.011  55.924  13.063  1.00  0.00     0.046 A 
ATOM      4  C   UNL     1      39.189  55.969  12.365  1.00  0.00     0.003 A 
ATOM      5  C   UNL     1      39.431  57.289  12.053  1.00  0.00     0.028 A 
ATOM      6  C   UNL     1      38.358  57.993  12.592  1.00  0.00     0.083 A 
ATOM      7  N   UNL     1      37.494  57.155  13.209  1.00  0.00    -0.361 N 
ATOM      8  C   UNL     1      39.922  54.819  12.083  1.00  0.00     0.056 A 
ATOM      9  C   UNL     1      39.416  53.586  12.539  1.00  0.00     0.116 A 
ATOM     10  H   UNL     1      36.608  57.416  13.695  1.00  0.00     0.166 HD
ENDROOT
BRANCH   9  11
ATOM     11  O   UNL     1      40.125  52.417  12.273  1.00  0.00    -0.508 OA
ATOM     12  H   UNL     1      39.903  51.835  11.474  1.00  0.00     0.293 HD
ENDBRANCH   9  11
TORSDOF 1
ENDMDL
