MODEL 1
REMARK VINA RESULT:    -4.698      0.000      0.000
REMARK INTER + INTRA:          -9.425
REMARK INTER:                  -8.269
REMARK INTRA:                  -1.156
REMARK UNBOUND:                -1.156
REMARK SMILES CCCCCCCCCCCCCCC(=O)[O-]
REMARK SMILES IDX 9 1 10 2 11 3 12 4 13 5 14 6 15 7 16 8 17 9 8 10 7 11 6 12
REMARK SMILES IDX 5 13 4 14 3 15 2 16 1 17
REMARK H PARENT
REMARK Flexibility Score: inf
ROOT
ATOM      1  C   UNL     1       6.447   6.696  18.200  1.00  0.00     0.000 C 
ENDROOT
BRANCH   1   2
ATOM      2  C   UNL     1       6.221   5.236  18.634  1.00  0.00     0.000 C 
BRANCH   2   3
ATOM      3  C   UNL     1       7.438   4.558  19.291  1.00  0.00     0.000 C 
BRANCH   3   4
ATOM      4  C   UNL     1       7.201   3.073  19.602  1.00  0.00     0.000 C 
BRANCH   4   5
ATOM      5  C   UNL     1       5.721   2.807  19.916  1.00  0.00     0.006 C 
BRANCH   5   6
ATOM      6  C   UNL     1       5.489   2.481  21.397  1.00  0.00     0.053 C 
BRANCH   6   7
ATOM      7  C   UNL     1       4.513   3.428  22.027  1.00  0.00     0.041 C 
ATOM      8  O   UNL     1       4.189   4.490  21.435  1.00  0.00    -0.550 OA
ATOM      9  O   UNL     1       3.989   3.153  23.285  1.00  0.00    -0.550 OA
ENDBRANCH   6   7
ENDBRANCH   5   6
ENDBRANCH   4   5
ENDBRANCH   3   4
ENDBRANCH   2   3
ENDBRANCH   1   2
BRANCH   1  10
ATOM     10  C   UNL     1       6.518   6.864  16.675  1.00  0.00     0.000 C 
BRANCH  10  11
ATOM     11  C   UNL     1       6.531   5.501  15.971  1.00  0.00    -0.000 C 
BRANCH  11  12
ATOM     12  C   UNL     1       7.835   5.302  15.184  1.00  0.00    -0.000 C 
BRANCH  12  13
ATOM     13  C   UNL     1       9.082   5.684  15.998  1.00  0.00    -0.000 C 
BRANCH  13  14
ATOM     14  C   UNL     1       9.830   6.888  15.407  1.00  0.00    -0.000 C 
BRANCH  14  15
ATOM     15  C   UNL     1      10.846   6.434  14.348  1.00  0.00    -0.000 C 
BRANCH  15  16
ATOM     16  C   UNL     1      10.451   6.862  12.926  1.00  0.00    -0.003 C 
ATOM     17  C   UNL     1       9.889   5.708  12.096  1.00  0.00     0.004 C 
ENDBRANCH  15  16
ENDBRANCH  14  15
ENDBRANCH  13  14
ENDBRANCH  12  13
ENDBRANCH  11  12
ENDBRANCH  10  11
ENDBRANCH   1  10
TORSDOF 13
ENDMDL
MODEL 2
REMARK VINA RESULT:    -4.683      3.441      7.410
REMARK INTER + INTRA:          -9.398
REMARK INTER:                  -7.690
REMARK INTRA:                  -1.708
REMARK UNBOUND:                -1.156
REMARK SMILES CCCCCCCCCCCCCCC(=O)[O-]
REMARK SMILES IDX 9 1 10 2 11 3 12 4 13 5 14 6 15 7 16 8 17 9 8 10 7 11 6 12
REMARK SMILES IDX 5 13 4 14 3 15 2 16 1 17
REMARK H PARENT
REMARK Flexibility Score: inf
ROOT
ATOM      1  C   UNL     1       6.567   7.207  17.966  1.00  0.00     0.000 C 
ENDROOT
BRANCH   1   2
ATOM      2  C   UNL     1       6.052   6.908  16.547  1.00  0.00     0.000 C 
BRANCH   2   3
ATOM      3  C   UNL     1       5.822   5.417  16.240  1.00  0.00     0.000 C 
BRANCH   3   4
ATOM      4  C   UNL     1       6.707   4.897  15.098  1.00  0.00     0.000 C 
BRANCH   4   5
ATOM      5  C   UNL     1       8.194   4.990  15.469  1.00  0.00     0.006 C 
BRANCH   5   6
ATOM      6  C   UNL     1       9.088   5.216  14.242  1.00  0.00     0.053 C 
BRANCH   6   7
ATOM      7  C   UNL     1       9.923   6.452  14.384  1.00  0.00     0.041 C 
ATOM      8  O   UNL     1      10.689   6.809  13.451  1.00  0.00    -0.550 OA
ATOM      9  O   UNL     1       9.881   7.190  15.561  1.00  0.00    -0.550 OA
ENDBRANCH   6   7
ENDBRANCH   5   6
ENDBRANCH   4   5
ENDBRANCH   3   4
ENDBRANCH   2   3
ENDBRANCH   1   2
BRANCH   1  10
ATOM     10  C   UNL     1       6.326   6.051  18.948  1.00  0.00     0.000 C 
BRANCH  10  11
ATOM     11  C   UNL     1       7.646   5.369  19.330  1.00  0.00    -0.000 C 
BRANCH  11  12
ATOM     12  C   UNL     1       7.523   3.842  19.229  1.00  0.00    -0.000 C 
BRANCH  12  13
ATOM     13  C   UNL     1       6.063   3.361  19.262  1.00  0.00    -0.000 C 
BRANCH  13  14
ATOM     14  C   UNL     1       5.852   2.172  20.211  1.00  0.00    -0.000 C 
BRANCH  14  15
ATOM     15  C   UNL     1       5.345   2.648  21.580  1.00  0.00    -0.000 C 
BRANCH  15  16
ATOM     16  C   UNL     1       4.452   3.895  21.480  1.00  0.00    -0.003 C 
ATOM     17  C   UNL     1       4.945   5.047  22.356  1.00  0.00     0.004 C 
ENDBRANCH  15  16
ENDBRANCH  14  15
ENDBRANCH  13  14
ENDBRANCH  12  13
ENDBRANCH  11  12
ENDBRANCH  10  11
ENDBRANCH   1  10
TORSDOF 13
ENDMDL
MODEL 3
REMARK VINA RESULT:    -4.648      2.020      3.105
REMARK INTER + INTRA:          -9.336
REMARK INTER:                  -7.164
REMARK INTRA:                  -2.172
REMARK UNBOUND:                -1.156
REMARK SMILES CCCCCCCCCCCCCCC(=O)[O-]
REMARK SMILES IDX 9 1 10 2 11 3 12 4 13 5 14 6 15 7 16 8 17 9 8 10 7 11 6 12
REMARK SMILES IDX 5 13 4 14 3 15 2 16 1 17
REMARK H PARENT
REMARK Flexibility Score: inf
ROOT
ATOM      1  C   UNL     1       7.596   4.251  19.163  1.00  0.00     0.000 C 
ENDROOT
BRANCH   1   2
ATOM      2  C   UNL     1       6.160   3.714  19.287  1.00  0.00     0.000 C 
BRANCH   2   3
ATOM      3  C   UNL     1       6.020   2.409  20.094  1.00  0.00     0.000 C 
BRANCH   3   4
ATOM      4  C   UNL     1       5.177   2.578  21.365  1.00  0.00     0.000 C 
BRANCH   4   5
ATOM      5  C   UNL     1       4.513   3.963  21.405  1.00  0.00     0.006 C 
BRANCH   5   6
ATOM      6  C   UNL     1       4.824   4.722  22.701  1.00  0.00     0.053 C 
BRANCH   6   7
ATOM      7  C   UNL     1       6.030   5.599  22.555  1.00  0.00     0.041 C 
ATOM      8  O   UNL     1       5.895   6.824  22.300  1.00  0.00    -0.550 OA
ATOM      9  O   UNL     1       7.304   5.056  22.667  1.00  0.00    -0.550 OA
ENDBRANCH   6   7
ENDBRANCH   5   6
ENDBRANCH   4   5
ENDBRANCH   3   4
ENDBRANCH   2   3
ENDBRANCH   1   2
BRANCH   1  10
ATOM     10  C   UNL     1       7.671   5.784  19.225  1.00  0.00     0.000 C 
BRANCH  10  11
ATOM     11  C   UNL     1       6.368   6.418  18.723  1.00  0.00    -0.000 C 
BRANCH  11  12
ATOM     12  C   UNL     1       6.499   6.857  17.258  1.00  0.00    -0.000 C 
BRANCH  12  13
ATOM     13  C   UNL     1       5.812   5.885  16.285  1.00  0.00    -0.000 C 
BRANCH  13  14
ATOM     14  C   UNL     1       6.814   5.088  15.437  1.00  0.00    -0.000 C 
BRANCH  14  15
ATOM     15  C   UNL     1       8.215   5.711  15.515  1.00  0.00    -0.000 C 
BRANCH  15  16
ATOM     16  C   UNL     1       9.293   4.696  15.926  1.00  0.00    -0.003 C 
ATOM     17  C   UNL     1      10.443   5.337  16.702  1.00  0.00     0.004 C 
ENDBRANCH  15  16
ENDBRANCH  14  15
ENDBRANCH  13  14
ENDBRANCH  12  13
ENDBRANCH  11  12
ENDBRANCH  10  11
ENDBRANCH   1  10
TORSDOF 13
ENDMDL
MODEL 4
REMARK VINA RESULT:    -4.597      1.654      3.798
REMARK INTER + INTRA:          -9.247
REMARK INTER:                  -7.409
REMARK INTRA:                  -1.838
REMARK UNBOUND:                -1.156
REMARK SMILES CCCCCCCCCCCCCCC(=O)[O-]
REMARK SMILES IDX 9 1 10 2 11 3 12 4 13 5 14 6 15 7 16 8 17 9 8 10 7 11 6 12
REMARK SMILES IDX 5 13 4 14 3 15 2 16 1 17
REMARK H PARENT
REMARK Flexibility Score: inf
ROOT
ATOM      1  C   UNL     1       9.538   5.582  16.284  1.00  0.00     0.000 C 
ENDROOT
BRANCH   1   2
ATOM      2  C   UNL     1       8.267   6.289  15.781  1.00  0.00     0.000 C 
BRANCH   2   3
ATOM      3  C   UNL     1       6.981   5.446  15.856  1.00  0.00     0.000 C 
BRANCH   3   4
ATOM      4  C   UNL     1       5.953   6.007  16.848  1.00  0.00     0.000 C 
BRANCH   4   5
ATOM      5  C   UNL     1       6.454   5.874  18.294  1.00  0.00     0.006 C 
BRANCH   5   6
ATOM      6  C   UNL     1       6.801   4.424  18.659  1.00  0.00     0.053 C 
BRANCH   6   7
ATOM      7  C   UNL     1       5.886   3.883  19.714  1.00  0.00     0.041 C 
ATOM      8  O   UNL     1       5.279   4.667  20.489  1.00  0.00    -0.550 OA
ATOM      9  O   UNL     1       5.728   2.510  19.862  1.00  0.00    -0.550 OA
ENDBRANCH   6   7
ENDBRANCH   5   6
ENDBRANCH   4   5
ENDBRANCH   3   4
ENDBRANCH   2   3
ENDBRANCH   1   2
BRANCH   1  10
ATOM     10  C   UNL     1      10.830   6.211  15.740  1.00  0.00     0.000 C 
BRANCH  10  11
ATOM     11  C   UNL     1      10.538   7.104  14.528  1.00  0.00    -0.000 C 
BRANCH  11  12
ATOM     12  C   UNL     1      11.039   6.451  13.231  1.00  0.00    -0.000 C 
BRANCH  12  13
ATOM     13  C   UNL     1       9.895   6.091  12.269  1.00  0.00    -0.000 C 
BRANCH  13  14
ATOM     14  C   UNL     1       9.678   4.576  12.146  1.00  0.00    -0.000 C 
BRANCH  14  15
ATOM     15  C   UNL     1       8.274   4.183  12.628  1.00  0.00    -0.000 C 
BRANCH  15  16
ATOM     16  C   UNL     1       8.262   2.853  13.398  1.00  0.00    -0.003 C 
ATOM     17  C   UNL     1       9.572   2.589  14.141  1.00  0.00     0.004 C 
ENDBRANCH  15  16
ENDBRANCH  14  15
ENDBRANCH  13  14
ENDBRANCH  12  13
ENDBRANCH  11  12
ENDBRANCH  10  11
ENDBRANCH   1  10
TORSDOF 13
ENDMDL
MODEL 5
REMARK VINA RESULT:    -4.571      3.734      7.568
REMARK INTER + INTRA:          -9.201
REMARK INTER:                  -7.507
REMARK INTRA:                  -1.694
REMARK UNBOUND:                -1.156
REMARK SMILES CCCCCCCCCCCCCCC(=O)[O-]
REMARK SMILES IDX 9 1 10 2 11 3 12 4 13 5 14 6 15 7 16 8 17 9 8 10 7 11 6 12
REMARK SMILES IDX 5 13 4 14 3 15 2 16 1 17
REMARK H PARENT
REMARK Flexibility Score: inf
ROOT
ATOM      1  C   UNL     1       7.437   4.123  19.124  1.00  0.00     0.000 C 
ENDROOT
BRANCH   1   2
ATOM      2  C   UNL     1       6.154   4.692  18.492  1.00  0.00     0.000 C 
BRANCH   2   3
ATOM      3  C   UNL     1       6.329   6.041  17.769  1.00  0.00     0.000 C 
BRANCH   3   4
ATOM      4  C   UNL     1       6.155   5.932  16.248  1.00  0.00     0.000 C 
BRANCH   4   5
ATOM      5  C   UNL     1       7.441   5.421  15.583  1.00  0.00     0.006 C 
BRANCH   5   6
ATOM      6  C   UNL     1       8.665   6.270  15.950  1.00  0.00     0.053 C 
BRANCH   6   7
ATOM      7  C   UNL     1       9.609   6.411  14.795  1.00  0.00     0.041 C 
ATOM      8  O   UNL     1      10.560   7.234  14.852  1.00  0.00    -0.550 OA
ATOM      9  O   UNL     1       9.419   5.658  13.643  1.00  0.00    -0.550 OA
ENDBRANCH   6   7
ENDBRANCH   5   6
ENDBRANCH   4   5
ENDBRANCH   3   4
ENDBRANCH   2   3
ENDBRANCH   1   2
BRANCH   1  10
ATOM     10  C   UNL     1       7.178   2.886  19.996  1.00  0.00     0.000 C 
BRANCH  10  11
ATOM     11  C   UNL     1       5.676   2.686  20.235  1.00  0.00    -0.000 C 
BRANCH  11  12
ATOM     12  C   UNL     1       5.395   2.339  21.704  1.00  0.00    -0.000 C 
BRANCH  12  13
ATOM     13  C   UNL     1       4.421   3.324  22.370  1.00  0.00    -0.000 C 
BRANCH  13  14
ATOM     14  C   UNL     1       4.621   4.770  21.891  1.00  0.00    -0.000 C 
BRANCH  14  15
ATOM     15  C   UNL     1       5.710   5.474  22.713  1.00  0.00    -0.000 C 
BRANCH  15  16
ATOM     16  C   UNL     1       6.518   6.485  21.883  1.00  0.00    -0.003 C 
ATOM     17  C   UNL     1       5.629   7.464  21.118  1.00  0.00     0.004 C 
ENDBRANCH  15  16
ENDBRANCH  14  15
ENDBRANCH  13  14
ENDBRANCH  12  13
ENDBRANCH  11  12
ENDBRANCH  10  11
ENDBRANCH   1  10
TORSDOF 13
ENDMDL
MODEL 6
REMARK VINA RESULT:    -4.534      3.304      5.319
REMARK INTER + INTRA:          -9.135
REMARK INTER:                  -7.109
REMARK INTRA:                  -2.026
REMARK UNBOUND:                -1.156
REMARK SMILES CCCCCCCCCCCCCCC(=O)[O-]
REMARK SMILES IDX 9 1 10 2 11 3 12 4 13 5 14 6 15 7 16 8 17 9 8 10 7 11 6 12
REMARK SMILES IDX 5 13 4 14 3 15 2 16 1 17
REMARK H PARENT
REMARK Flexibility Score: inf
ROOT
ATOM      1  C   UNL     1       4.465   3.474  21.806  1.00  0.00     0.000 C 
ENDROOT
BRANCH   1   2
ATOM      2  C   UNL     1       4.290   4.976  21.522  1.00  0.00     0.000 C 
BRANCH   2   3
ATOM      3  C   UNL     1       5.524   5.844  21.831  1.00  0.00     0.000 C 
BRANCH   3   4
ATOM      4  C   UNL     1       5.450   7.239  21.193  1.00  0.00     0.000 C 
BRANCH   4   5
ATOM      5  C   UNL     1       6.771   7.595  20.496  1.00  0.00     0.006 C 
BRANCH   5   6
ATOM      6  C   UNL     1       7.988   6.987  21.207  1.00  0.00     0.053 C 
BRANCH   6   7
ATOM      7  C   UNL     1       8.657   7.979  22.108  1.00  0.00     0.041 C 
ATOM      8  O   UNL     1       9.262   7.589  23.141  1.00  0.00    -0.550 OA
ATOM      9  O   UNL     1       8.585   9.337  21.825  1.00  0.00    -0.550 OA
ENDBRANCH   6   7
ENDBRANCH   5   6
ENDBRANCH   4   5
ENDBRANCH   3   4
ENDBRANCH   2   3
ENDBRANCH   1   2
BRANCH   1  10
ATOM     10  C   UNL     1       5.864   2.954  21.443  1.00  0.00     0.000 C 
BRANCH  10  11
ATOM     11  C   UNL     1       6.020   2.810  19.923  1.00  0.00    -0.000 C 
BRANCH  11  12
ATOM     12  C   UNL     1       7.393   3.320  19.462  1.00  0.00    -0.000 C 
BRANCH  12  13
ATOM     13  C   UNL     1       7.290   4.535  18.525  1.00  0.00    -0.000 C 
BRANCH  13  14
ATOM     14  C   UNL     1       5.850   4.806  18.063  1.00  0.00    -0.000 C 
BRANCH  14  15
ATOM     15  C   UNL     1       5.834   5.420  16.656  1.00  0.00    -0.000 C 
BRANCH  15  16
ATOM     16  C   UNL     1       6.904   6.508  16.471  1.00  0.00    -0.003 C 
ATOM     17  C   UNL     1       6.389   7.907  16.806  1.00  0.00     0.004 C 
ENDBRANCH  15  16
ENDBRANCH  14  15
ENDBRANCH  13  14
ENDBRANCH  12  13
ENDBRANCH  11  12
ENDBRANCH  10  11
ENDBRANCH   1  10
TORSDOF 13
ENDMDL
MODEL 7
REMARK VINA RESULT:    -4.531      3.435      6.959
REMARK INTER + INTRA:          -9.131
REMARK INTER:                  -7.138
REMARK INTRA:                  -1.993
REMARK UNBOUND:                -1.156
REMARK SMILES CCCCCCCCCCCCCCC(=O)[O-]
REMARK SMILES IDX 9 1 10 2 11 3 12 4 13 5 14 6 15 7 16 8 17 9 8 10 7 11 6 12
REMARK SMILES IDX 5 13 4 14 3 15 2 16 1 17
REMARK H PARENT
REMARK Flexibility Score: inf
ROOT
ATOM      1  C   UNL     1       7.390   3.149  19.924  1.00  0.00     0.000 C 
ENDROOT
BRANCH   1   2
ATOM      2  C   UNL     1       7.551   4.527  19.257  1.00  0.00     0.000 C 
BRANCH   2   3
ATOM      3  C   UNL     1       6.334   5.000  18.442  1.00  0.00     0.000 C 
BRANCH   3   4
ATOM      4  C   UNL     1       6.427   6.476  18.028  1.00  0.00     0.000 C 
BRANCH   4   5
ATOM      5  C   UNL     1       6.423   6.619  16.499  1.00  0.00     0.006 C 
BRANCH   5   6
ATOM      6  C   UNL     1       6.504   5.262  15.786  1.00  0.00     0.053 C 
BRANCH   6   7
ATOM      7  C   UNL     1       7.840   5.053  15.142  1.00  0.00     0.041 C 
ATOM      8  O   UNL     1       8.835   5.727  15.515  1.00  0.00    -0.550 OA
ATOM      9  O   UNL     1       7.978   4.136  14.106  1.00  0.00    -0.550 OA
ENDBRANCH   6   7
ENDBRANCH   5   6
ENDBRANCH   4   5
ENDBRANCH   3   4
ENDBRANCH   2   3
ENDBRANCH   1   2
BRANCH   1  10
ATOM     10  C   UNL     1       5.937   2.653  19.934  1.00  0.00     0.000 C 
BRANCH  10  11
ATOM     11  C   UNL     1       5.334   2.745  21.342  1.00  0.00    -0.000 C 
BRANCH  11  12
ATOM     12  C   UNL     1       4.388   3.948  21.457  1.00  0.00    -0.000 C 
BRANCH  12  13
ATOM     13  C   UNL     1       5.057   5.169  22.109  1.00  0.00    -0.000 C 
BRANCH  13  14
ATOM     14  C   UNL     1       4.759   6.478  21.363  1.00  0.00    -0.000 C 
BRANCH  14  15
ATOM     15  C   UNL     1       5.949   7.444  21.455  1.00  0.00    -0.000 C 
BRANCH  15  16
ATOM     16  C   UNL     1       7.146   6.840  22.208  1.00  0.00    -0.003 C 
ATOM     17  C   UNL     1       8.479   7.111  21.512  1.00  0.00     0.004 C 
ENDBRANCH  15  16
ENDBRANCH  14  15
ENDBRANCH  13  14
ENDBRANCH  12  13
ENDBRANCH  11  12
ENDBRANCH  10  11
ENDBRANCH   1  10
TORSDOF 13
ENDMDL
MODEL 8
REMARK VINA RESULT:    -4.514      2.361      4.331
REMARK INTER + INTRA:          -9.101
REMARK INTER:                  -7.233
REMARK INTRA:                  -1.868
REMARK UNBOUND:                -1.156
REMARK SMILES CCCCCCCCCCCCCCC(=O)[O-]
REMARK SMILES IDX 9 1 10 2 11 3 12 4 13 5 14 6 15 7 16 8 17 9 8 10 7 11 6 12
REMARK SMILES IDX 5 13 4 14 3 15 2 16 1 17
REMARK H PARENT
REMARK Flexibility Score: inf
ROOT
ATOM      1  C   UNL     1       5.645   2.702  20.234  1.00  0.00     0.000 C 
ENDROOT
BRANCH   1   2
ATOM      2  C   UNL     1       5.347   2.557  21.737  1.00  0.00     0.000 C 
BRANCH   2   3
ATOM      3  C   UNL     1       4.830   3.835  22.424  1.00  0.00     0.000 C 
BRANCH   3   4
ATOM      4  C   UNL     1       4.217   4.839  21.437  1.00  0.00     0.000 C 
BRANCH   4   5
ATOM      5  C   UNL     1       4.925   6.199  21.526  1.00  0.00     0.006 C 
BRANCH   5   6
ATOM      6  C   UNL     1       6.269   6.110  22.262  1.00  0.00     0.053 C 
BRANCH   6   7
ATOM      7  C   UNL     1       7.166   7.259  21.920  1.00  0.00     0.041 C 
ATOM      8  O   UNL     1       8.156   7.087  21.163  1.00  0.00    -0.550 OA
ATOM      9  O   UNL     1       6.928   8.515  22.466  1.00  0.00    -0.550 OA
ENDBRANCH   6   7
ENDBRANCH   5   6
ENDBRANCH   4   5
ENDBRANCH   3   4
ENDBRANCH   2   3
ENDBRANCH   1   2
BRANCH   1  10
ATOM     10  C   UNL     1       7.147   2.787  19.926  1.00  0.00     0.000 C 
BRANCH  10  11
ATOM     11  C   UNL     1       7.497   4.122  19.256  1.00  0.00    -0.000 C 
BRANCH  11  12
ATOM     12  C   UNL     1       6.293   4.679  18.482  1.00  0.00    -0.000 C 
BRANCH  12  13
ATOM     13  C   UNL     1       6.403   6.191  18.224  1.00  0.00    -0.000 C 
BRANCH  13  14
ATOM     14  C   UNL     1       6.360   6.542  16.729  1.00  0.00    -0.000 C 
BRANCH  14  15
ATOM     15  C   UNL     1       6.206   5.275  15.874  1.00  0.00    -0.000 C 
BRANCH  15  16
ATOM     16  C   UNL     1       7.489   4.921  15.105  1.00  0.00    -0.003 C 
ATOM     17  C   UNL     1       8.656   5.849  15.442  1.00  0.00     0.004 C 
ENDBRANCH  15  16
ENDBRANCH  14  15
ENDBRANCH  13  14
ENDBRANCH  12  13
ENDBRANCH  11  12
ENDBRANCH  10  11
ENDBRANCH   1  10
TORSDOF 13
ENDMDL
MODEL 9
REMARK VINA RESULT:    -4.512      1.798      3.608
REMARK INTER + INTRA:          -9.096
REMARK INTER:                  -7.320
REMARK INTRA:                  -1.776
REMARK UNBOUND:                -1.156
REMARK SMILES CCCCCCCCCCCCCCC(=O)[O-]
REMARK SMILES IDX 9 1 10 2 11 3 12 4 13 5 14 6 15 7 16 8 17 9 8 10 7 11 6 12
REMARK SMILES IDX 5 13 4 14 3 15 2 16 1 17
REMARK H PARENT
REMARK Flexibility Score: inf
ROOT
ATOM      1  C   UNL     1       8.607   4.639  16.097  1.00  0.00     0.000 C 
ENDROOT
BRANCH   1   2
ATOM      2  C   UNL     1       7.436   5.322  15.368  1.00  0.00     0.000 C 
BRANCH   2   3
ATOM      3  C   UNL     1       6.224   5.657  16.257  1.00  0.00     0.000 C 
BRANCH   3   4
ATOM      4  C   UNL     1       6.332   7.037  16.921  1.00  0.00     0.000 C 
BRANCH   4   5
ATOM      5  C   UNL     1       6.524   6.903  18.439  1.00  0.00     0.006 C 
BRANCH   5   6
ATOM      6  C   UNL     1       6.316   5.463  18.928  1.00  0.00     0.053 C 
BRANCH   6   7
ATOM      7  C   UNL     1       6.032   5.411  20.398  1.00  0.00     0.041 C 
ATOM      8  O   UNL     1       6.785   4.758  21.166  1.00  0.00    -0.550 OA
ATOM      9  O   UNL     1       4.915   6.056  20.915  1.00  0.00    -0.550 OA
ENDBRANCH   6   7
ENDBRANCH   5   6
ENDBRANCH   4   5
ENDBRANCH   3   4
ENDBRANCH   2   3
ENDBRANCH   1   2
BRANCH   1  10
ATOM     10  C   UNL     1       9.844   5.541  16.221  1.00  0.00     0.000 C 
BRANCH  10  11
ATOM     11  C   UNL     1       9.730   6.762  15.300  1.00  0.00    -0.000 C 
BRANCH  11  12
ATOM     12  C   UNL     1      10.863   6.775  14.263  1.00  0.00    -0.000 C 
BRANCH  12  13
ATOM     13  C   UNL     1      10.343   6.882  12.820  1.00  0.00    -0.000 C 
BRANCH  13  14
ATOM     14  C   UNL     1       9.573   5.631  12.373  1.00  0.00    -0.000 C 
BRANCH  14  15
ATOM     15  C   UNL     1      10.424   4.367  12.564  1.00  0.00    -0.000 C 
BRANCH  15  16
ATOM     16  C   UNL     1       9.663   3.080  12.204  1.00  0.00    -0.003 C 
ATOM     17  C   UNL     1       8.198   3.119  12.641  1.00  0.00     0.004 C 
ENDBRANCH  15  16
ENDBRANCH  14  15
ENDBRANCH  13  14
ENDBRANCH  12  13
ENDBRANCH  11  12
ENDBRANCH  10  11
ENDBRANCH   1  10
TORSDOF 13
ENDMDL
