MODEL 1
REMARK VINA RESULT:    -3.903      0.000      0.000
REMARK INTER + INTRA:          -7.720
REMARK INTER:                  -6.185
REMARK INTRA:                  -1.535
REMARK UNBOUND:                -1.535
REMARK SMILES CCCCCCCCCCCC(=O)[O-]
REMARK SMILES IDX 7 1 8 2 9 3 10 4 11 5 12 6 13 7 14 8 6 9 5 10 4 11 3 12 2 13
REMARK SMILES IDX 1 14
REMARK H PARENT
REMARK Flexibility Score: inf
ROOT
ATOM      1  C   UNL     1      -6.883  37.948  19.532  1.00  0.00     0.000 C 
ENDROOT
BRANCH   1   2
ATOM      2  C   UNL     1      -5.500  37.746  18.894  1.00  0.00     0.000 C 
BRANCH   2   3
ATOM      3  C   UNL     1      -4.570  38.952  19.098  1.00  0.00     0.000 C 
BRANCH   3   4
ATOM      4  C   UNL     1      -3.107  38.562  18.862  1.00  0.00     0.006 C 
BRANCH   4   5
ATOM      5  C   UNL     1      -2.926  37.042  18.914  1.00  0.00     0.053 C 
BRANCH   5   6
ATOM      6  C   UNL     1      -2.267  36.549  17.666  1.00  0.00     0.041 C 
ATOM      7  O   UNL     1      -1.075  36.146  17.696  1.00  0.00    -0.550 OA
ATOM      8  O   UNL     1      -2.984  36.488  16.478  1.00  0.00    -0.550 OA
ENDBRANCH   5   6
ENDBRANCH   4   5
ENDBRANCH   3   4
ENDBRANCH   2   3
ENDBRANCH   1   2
BRANCH   1   9
ATOM      9  C   UNL     1      -6.989  39.268  20.311  1.00  0.00     0.000 C 
BRANCH   9  10
ATOM     10  C   UNL     1      -7.501  39.023  21.737  1.00  0.00    -0.000 C 
BRANCH  10  11
ATOM     11  C   UNL     1      -6.645  38.008  22.516  1.00  0.00    -0.000 C 
BRANCH  11  12
ATOM     12  C   UNL     1      -5.271  38.533  22.984  1.00  0.00    -0.000 C 
BRANCH  12  13
ATOM     13  C   UNL     1      -4.062  37.736  22.466  1.00  0.00    -0.003 C 
ATOM     14  C   UNL     1      -4.366  36.252  22.265  1.00  0.00     0.004 C 
ENDBRANCH  12  13
ENDBRANCH  11  12
ENDBRANCH  10  11
ENDBRANCH   9  10
ENDBRANCH   1   9
TORSDOF 10
ENDMDL
MODEL 2
REMARK VINA RESULT:    -3.867      1.088      1.634
REMARK INTER + INTRA:          -7.662
REMARK INTER:                  -6.214
REMARK INTRA:                  -1.448
REMARK UNBOUND:                -1.535
REMARK SMILES CCCCCCCCCCCC(=O)[O-]
REMARK SMILES IDX 7 1 8 2 9 3 10 4 11 5 12 6 13 7 14 8 6 9 5 10 4 11 3 12 2 13
REMARK SMILES IDX 1 14
REMARK H PARENT
REMARK Flexibility Score: inf
ROOT
ATOM      1  C   UNL     1      -6.154  39.778  20.249  1.00  0.00     0.000 C 
ENDROOT
BRANCH   1   2
ATOM      2  C   UNL     1      -6.931  38.727  19.440  1.00  0.00     0.000 C 
BRANCH   2   3
ATOM      3  C   UNL     1      -6.009  37.721  18.735  1.00  0.00     0.000 C 
BRANCH   3   4
ATOM      4  C   UNL     1      -4.599  38.296  18.562  1.00  0.00     0.006 C 
BRANCH   4   5
ATOM      5  C   UNL     1      -3.774  37.448  17.589  1.00  0.00     0.053 C 
BRANCH   5   6
ATOM      6  C   UNL     1      -2.584  36.863  18.282  1.00  0.00     0.041 C 
ATOM      7  O   UNL     1      -2.126  37.406  19.321  1.00  0.00    -0.550 OA
ATOM      8  O   UNL     1      -2.012  35.690  17.808  1.00  0.00    -0.550 OA
ENDBRANCH   5   6
ENDBRANCH   4   5
ENDBRANCH   3   4
ENDBRANCH   2   3
ENDBRANCH   1   2
BRANCH   1   9
ATOM      9  C   UNL     1      -6.894  40.210  21.523  1.00  0.00     0.000 C 
BRANCH   9  10
ATOM     10  C   UNL     1      -7.575  39.011  22.196  1.00  0.00    -0.000 C 
BRANCH  10  11
ATOM     11  C   UNL     1      -6.612  38.183  23.066  1.00  0.00    -0.000 C 
BRANCH  11  12
ATOM     12  C   UNL     1      -6.236  36.801  22.493  1.00  0.00    -0.000 C 
BRANCH  12  13
ATOM     13  C   UNL     1      -4.753  36.637  22.117  1.00  0.00    -0.003 C 
ATOM     14  C   UNL     1      -3.893  37.825  22.545  1.00  0.00     0.004 C 
ENDBRANCH  12  13
ENDBRANCH  11  12
ENDBRANCH  10  11
ENDBRANCH   9  10
ENDBRANCH   1   9
TORSDOF 10
ENDMDL
MODEL 3
REMARK VINA RESULT:    -3.691      1.161      2.836
REMARK INTER + INTRA:          -7.384
REMARK INTER:                  -5.960
REMARK INTRA:                  -1.423
REMARK UNBOUND:                -1.535
REMARK SMILES CCCCCCCCCCCC(=O)[O-]
REMARK SMILES IDX 7 1 8 2 9 3 10 4 11 5 12 6 13 7 14 8 6 9 5 10 4 11 3 12 2 13
REMARK SMILES IDX 1 14
REMARK H PARENT
REMARK Flexibility Score: inf
ROOT
ATOM      1  C   UNL     1      -4.579  36.701  22.145  1.00  0.00     0.000 C 
ENDROOT
BRANCH   1   2
ATOM      2  C   UNL     1      -3.794  38.019  22.236  1.00  0.00     0.000 C 
BRANCH   2   3
ATOM      3  C   UNL     1      -2.960  38.300  20.977  1.00  0.00     0.000 C 
BRANCH   3   4
ATOM      4  C   UNL     1      -3.225  37.245  19.897  1.00  0.00     0.006 C 
BRANCH   4   5
ATOM      5  C   UNL     1      -2.185  37.333  18.776  1.00  0.00     0.053 C 
BRANCH   5   6
ATOM      6  C   UNL     1      -2.832  37.746  17.492  1.00  0.00     0.041 C 
ATOM      7  O   UNL     1      -3.597  38.746  17.462  1.00  0.00    -0.550 OA
ATOM      8  O   UNL     1      -2.552  37.058  16.319  1.00  0.00    -0.550 OA
ENDBRANCH   5   6
ENDBRANCH   4   5
ENDBRANCH   3   4
ENDBRANCH   2   3
ENDBRANCH   1   2
BRANCH   1   9
ATOM      9  C   UNL     1      -6.047  36.856  22.572  1.00  0.00     0.000 C 
BRANCH   9  10
ATOM     10  C   UNL     1      -6.371  38.320  22.902  1.00  0.00    -0.000 C 
BRANCH  10  11
ATOM     11  C   UNL     1      -7.482  38.903  22.010  1.00  0.00    -0.000 C 
BRANCH  11  12
ATOM     12  C   UNL     1      -7.000  39.892  20.928  1.00  0.00    -0.000 C 
BRANCH  12  13
ATOM     13  C   UNL     1      -6.253  39.247  19.748  1.00  0.00    -0.003 C 
ATOM     14  C   UNL     1      -6.944  37.992  19.217  1.00  0.00     0.004 C 
ENDBRANCH  12  13
ENDBRANCH  11  12
ENDBRANCH  10  11
ENDBRANCH   9  10
ENDBRANCH   1   9
TORSDOF 10
ENDMDL
MODEL 4
REMARK VINA RESULT:    -3.662      2.307      4.585
REMARK INTER + INTRA:          -7.337
REMARK INTER:                  -6.142
REMARK INTRA:                  -1.195
REMARK UNBOUND:                -1.535
REMARK SMILES CCCCCCCCCCCC(=O)[O-]
REMARK SMILES IDX 7 1 8 2 9 3 10 4 11 5 12 6 13 7 14 8 6 9 5 10 4 11 3 12 2 13
REMARK SMILES IDX 1 14
REMARK H PARENT
REMARK Flexibility Score: inf
ROOT
ATOM      1  C   UNL     1      -6.752  38.122  19.623  1.00  0.00     0.000 C 
ENDROOT
BRANCH   1   2
ATOM      2  C   UNL     1      -7.063  39.364  20.473  1.00  0.00     0.000 C 
BRANCH   2   3
ATOM      3  C   UNL     1      -7.526  39.009  21.894  1.00  0.00     0.000 C 
BRANCH   3   4
ATOM      4  C   UNL     1      -6.562  38.016  22.553  1.00  0.00     0.006 C 
BRANCH   4   5
ATOM      5  C   UNL     1      -5.283  38.719  23.019  1.00  0.00     0.053 C 
BRANCH   5   6
ATOM      6  C   UNL     1      -4.096  37.829  22.826  1.00  0.00     0.041 C 
ATOM      7  O   UNL     1      -3.003  38.100  23.389  1.00  0.00    -0.550 OA
ATOM      8  O   UNL     1      -4.210  36.673  22.065  1.00  0.00    -0.550 OA
ENDBRANCH   5   6
ENDBRANCH   4   5
ENDBRANCH   3   4
ENDBRANCH   2   3
ENDBRANCH   1   2
BRANCH   1   9
ATOM      9  C   UNL     1      -5.330  38.143  19.041  1.00  0.00     0.000 C 
BRANCH   9  10
ATOM     10  C   UNL     1      -4.591  39.426  19.445  1.00  0.00    -0.000 C 
BRANCH  10  11
ATOM     11  C   UNL     1      -3.105  39.414  19.044  1.00  0.00    -0.000 C 
BRANCH  11  12
ATOM     12  C   UNL     1      -2.306  38.188  19.534  1.00  0.00    -0.000 C 
BRANCH  12  13
ATOM     13  C   UNL     1      -1.414  37.527  18.469  1.00  0.00    -0.003 C 
ATOM     14  C   UNL     1      -2.039  36.272  17.861  1.00  0.00     0.004 C 
ENDBRANCH  12  13
ENDBRANCH  11  12
ENDBRANCH  10  11
ENDBRANCH   9  10
ENDBRANCH   1   9
TORSDOF 10
ENDMDL
MODEL 5
REMARK VINA RESULT:    -3.656      1.281      2.366
REMARK INTER + INTRA:          -7.328
REMARK INTER:                  -5.876
REMARK INTRA:                  -1.452
REMARK UNBOUND:                -1.535
REMARK SMILES CCCCCCCCCCCC(=O)[O-]
REMARK SMILES IDX 7 1 8 2 9 3 10 4 11 5 12 6 13 7 14 8 6 9 5 10 4 11 3 12 2 13
REMARK SMILES IDX 1 14
REMARK H PARENT
REMARK Flexibility Score: inf
ROOT
ATOM      1  C   UNL     1      -7.870  39.260  21.509  1.00  0.00     0.000 C 
ENDROOT
BRANCH   1   2
ATOM      2  C   UNL     1      -7.050  39.246  20.210  1.00  0.00     0.000 C 
BRANCH   2   3
ATOM      3  C   UNL     1      -6.937  37.842  19.595  1.00  0.00     0.000 C 
BRANCH   3   4
ATOM      4  C   UNL     1      -5.785  37.776  18.587  1.00  0.00     0.006 C 
BRANCH   4   5
ATOM      5  C   UNL     1      -4.679  38.772  18.949  1.00  0.00     0.053 C 
BRANCH   5   6
ATOM      6  C   UNL     1      -3.364  38.317  18.401  1.00  0.00     0.041 C 
ATOM      7  O   UNL     1      -2.929  38.793  17.320  1.00  0.00    -0.550 OA
ATOM      8  O   UNL     1      -2.594  37.403  19.110  1.00  0.00    -0.550 OA
ENDBRANCH   5   6
ENDBRANCH   4   5
ENDBRANCH   3   4
ENDBRANCH   2   3
ENDBRANCH   1   2
BRANCH   1   9
ATOM      9  C   UNL     1      -7.032  38.888  22.742  1.00  0.00     0.000 C 
BRANCH   9  10
ATOM     10  C   UNL     1      -6.034  40.004  23.083  1.00  0.00    -0.000 C 
BRANCH  10  11
ATOM     11  C   UNL     1      -4.666  39.465  23.541  1.00  0.00    -0.000 C 
BRANCH  11  12
ATOM     12  C   UNL     1      -3.884  38.675  22.472  1.00  0.00    -0.000 C 
BRANCH  12  13
ATOM     13  C   UNL     1      -3.675  37.184  22.791  1.00  0.00    -0.003 C 
ATOM     14  C   UNL     1      -4.461  36.259  21.864  1.00  0.00     0.004 C 
ENDBRANCH  12  13
ENDBRANCH  11  12
ENDBRANCH  10  11
ENDBRANCH   9  10
ENDBRANCH   1   9
TORSDOF 10
ENDMDL
MODEL 6
REMARK VINA RESULT:    -3.613      3.035      4.778
REMARK INTER + INTRA:          -7.260
REMARK INTER:                  -5.891
REMARK INTRA:                  -1.369
REMARK UNBOUND:                -1.535
REMARK SMILES CCCCCCCCCCCC(=O)[O-]
REMARK SMILES IDX 7 1 8 2 9 3 10 4 11 5 12 6 13 7 14 8 6 9 5 10 4 11 3 12 2 13
REMARK SMILES IDX 1 14
REMARK H PARENT
REMARK Flexibility Score: inf
ROOT
ATOM      1  C   UNL     1      -7.089  39.269  20.237  1.00  0.00     0.000 C 
ENDROOT
BRANCH   1   2
ATOM      2  C   UNL     1      -7.610  39.231  21.682  1.00  0.00     0.000 C 
BRANCH   2   3
ATOM      3  C   UNL     1      -6.590  38.638  22.665  1.00  0.00     0.000 C 
BRANCH   3   4
ATOM      4  C   UNL     1      -5.905  39.743  23.478  1.00  0.00     0.006 C 
BRANCH   4   5
ATOM      5  C   UNL     1      -4.600  40.188  22.810  1.00  0.00     0.053 C 
BRANCH   5   6
ATOM      6  C   UNL     1      -3.422  39.761  23.626  1.00  0.00     0.041 C 
ATOM      7  O   UNL     1      -3.339  38.577  24.048  1.00  0.00    -0.550 OA
ATOM      8  O   UNL     1      -2.389  40.655  23.877  1.00  0.00    -0.550 OA
ENDBRANCH   5   6
ENDBRANCH   4   5
ENDBRANCH   3   4
ENDBRANCH   2   3
ENDBRANCH   1   2
BRANCH   1   9
ATOM      9  C   UNL     1      -7.140  37.894  19.553  1.00  0.00     0.000 C 
BRANCH   9  10
ATOM     10  C   UNL     1      -6.048  37.774  18.481  1.00  0.00    -0.000 C 
BRANCH  10  11
ATOM     11  C   UNL     1      -4.757  38.526  18.853  1.00  0.00    -0.000 C 
BRANCH  11  12
ATOM     12  C   UNL     1      -3.557  37.625  19.212  1.00  0.00    -0.000 C 
BRANCH  12  13
ATOM     13  C   UNL     1      -3.317  37.434  20.719  1.00  0.00    -0.003 C 
ATOM     14  C   UNL     1      -4.181  36.328  21.326  1.00  0.00     0.004 C 
ENDBRANCH  12  13
ENDBRANCH  11  12
ENDBRANCH  10  11
ENDBRANCH   9  10
ENDBRANCH   1   9
TORSDOF 10
ENDMDL
MODEL 7
REMARK VINA RESULT:    -3.606      3.230      4.755
REMARK INTER + INTRA:          -7.249
REMARK INTER:                  -5.508
REMARK INTRA:                  -1.742
REMARK UNBOUND:                -1.535
REMARK SMILES CCCCCCCCCCCC(=O)[O-]
REMARK SMILES IDX 7 1 8 2 9 3 10 4 11 5 12 6 13 7 14 8 6 9 5 10 4 11 3 12 2 13
REMARK SMILES IDX 1 14
REMARK H PARENT
REMARK Flexibility Score: inf
ROOT
ATOM      1  C   UNL     1      -2.719  38.339  19.806  1.00  0.00     0.000 C 
ENDROOT
BRANCH   1   2
ATOM      2  C   UNL     1      -3.420  39.495  19.076  1.00  0.00     0.000 C 
BRANCH   2   3
ATOM      3  C   UNL     1      -4.013  40.532  20.042  1.00  0.00     0.000 C 
BRANCH   3   4
ATOM      4  C   UNL     1      -3.199  40.603  21.338  1.00  0.00     0.006 C 
BRANCH   4   5
ATOM      5  C   UNL     1      -4.094  40.390  22.563  1.00  0.00     0.053 C 
BRANCH   5   6
ATOM      6  C   UNL     1      -3.368  39.614  23.615  1.00  0.00     0.041 C 
ATOM      7  O   UNL     1      -2.246  39.102  23.363  1.00  0.00    -0.550 OA
ATOM      8  O   UNL     1      -3.907  39.497  24.890  1.00  0.00    -0.550 OA
ENDBRANCH   5   6
ENDBRANCH   4   5
ENDBRANCH   3   4
ENDBRANCH   2   3
ENDBRANCH   1   2
BRANCH   1   9
ATOM      9  C   UNL     1      -3.584  37.071  19.876  1.00  0.00     0.000 C 
BRANCH   9  10
ATOM     10  C   UNL     1      -4.124  36.854  21.297  1.00  0.00    -0.000 C 
BRANCH  10  11
ATOM     11  C   UNL     1      -5.639  37.107  21.408  1.00  0.00    -0.000 C 
BRANCH  11  12
ATOM     12  C   UNL     1      -6.353  37.392  20.070  1.00  0.00    -0.000 C 
BRANCH  12  13
ATOM     13  C   UNL     1      -7.134  38.717  20.022  1.00  0.00    -0.003 C 
ATOM     14  C   UNL     1      -7.502  39.244  21.408  1.00  0.00     0.004 C 
ENDBRANCH  12  13
ENDBRANCH  11  12
ENDBRANCH  10  11
ENDBRANCH   9  10
ENDBRANCH   1   9
TORSDOF 10
ENDMDL
MODEL 8
REMARK VINA RESULT:    -3.589      1.746      2.051
REMARK INTER + INTRA:          -7.221
REMARK INTER:                  -5.787
REMARK INTRA:                  -1.435
REMARK UNBOUND:                -1.535
REMARK SMILES CCCCCCCCCCCC(=O)[O-]
REMARK SMILES IDX 7 1 8 2 9 3 10 4 11 5 12 6 13 7 14 8 6 9 5 10 4 11 3 12 2 13
REMARK SMILES IDX 1 14
REMARK H PARENT
REMARK Flexibility Score: inf
ROOT
ATOM      1  C   UNL     1      -6.866  37.917  19.414  1.00  0.00     0.000 C 
ENDROOT
BRANCH   1   2
ATOM      2  C   UNL     1      -5.727  37.758  18.395  1.00  0.00     0.000 C 
BRANCH   2   3
ATOM      3  C   UNL     1      -4.453  38.511  18.807  1.00  0.00     0.000 C 
BRANCH   3   4
ATOM      4  C   UNL     1      -3.226  37.951  18.080  1.00  0.00     0.006 C 
BRANCH   4   5
ATOM      5  C   UNL     1      -2.087  37.664  19.064  1.00  0.00     0.053 C 
BRANCH   5   6
ATOM      6  C   UNL     1      -1.544  38.941  19.623  1.00  0.00     0.041 C 
ATOM      7  O   UNL     1      -1.113  39.838  18.851  1.00  0.00    -0.550 OA
ATOM      8  O   UNL     1      -1.558  39.161  20.994  1.00  0.00    -0.550 OA
ENDBRANCH   5   6
ENDBRANCH   4   5
ENDBRANCH   3   4
ENDBRANCH   2   3
ENDBRANCH   1   2
BRANCH   1   9
ATOM      9  C   UNL     1      -6.668  39.128  20.340  1.00  0.00     0.000 C 
BRANCH   9  10
ATOM     10  C   UNL     1      -7.341  38.894  21.699  1.00  0.00    -0.000 C 
BRANCH  10  11
ATOM     11  C   UNL     1      -6.345  38.485  22.799  1.00  0.00    -0.000 C 
BRANCH  11  12
ATOM     12  C   UNL     1      -4.857  38.624  22.418  1.00  0.00    -0.000 C 
BRANCH  12  13
ATOM     13  C   UNL     1      -3.996  37.381  22.702  1.00  0.00    -0.003 C 
ATOM     14  C   UNL     1      -4.243  36.244  21.712  1.00  0.00     0.004 C 
ENDBRANCH  12  13
ENDBRANCH  11  12
ENDBRANCH  10  11
ENDBRANCH   9  10
ENDBRANCH   1   9
TORSDOF 10
ENDMDL
MODEL 9
REMARK VINA RESULT:    -3.588      1.399      3.143
REMARK INTER + INTRA:          -7.221
REMARK INTER:                  -5.493
REMARK INTRA:                  -1.729
REMARK UNBOUND:                -1.535
REMARK SMILES CCCCCCCCCCCC(=O)[O-]
REMARK SMILES IDX 7 1 8 2 9 3 10 4 11 5 12 6 13 7 14 8 6 9 5 10 4 11 3 12 2 13
REMARK SMILES IDX 1 14
REMARK H PARENT
REMARK Flexibility Score: inf
ROOT
ATOM      1  C   UNL     1      -2.870  38.946  22.302  1.00  0.00     0.000 C 
ENDROOT
BRANCH   1   2
ATOM      2  C   UNL     1      -3.627  40.259  22.045  1.00  0.00     0.000 C 
BRANCH   2   3
ATOM      3  C   UNL     1      -4.029  40.433  20.573  1.00  0.00     0.000 C 
BRANCH   3   4
ATOM      4  C   UNL     1      -3.171  39.548  19.662  1.00  0.00     0.006 C 
BRANCH   4   5
ATOM      5  C   UNL     1      -4.020  38.907  18.559  1.00  0.00     0.053 C 
BRANCH   5   6
ATOM      6  C   UNL     1      -3.468  37.570  18.181  1.00  0.00     0.041 C 
ATOM      7  O   UNL     1      -2.689  36.963  18.963  1.00  0.00    -0.550 OA
ATOM      8  O   UNL     1      -3.852  36.971  16.989  1.00  0.00    -0.550 OA
ENDBRANCH   5   6
ENDBRANCH   4   5
ENDBRANCH   3   4
ENDBRANCH   2   3
ENDBRANCH   1   2
BRANCH   1   9
ATOM      9  C   UNL     1      -3.721  37.908  23.049  1.00  0.00     0.000 C 
BRANCH   9  10
ATOM     10  C   UNL     1      -4.176  36.788  22.103  1.00  0.00    -0.000 C 
BRANCH  10  11
ATOM     11  C   UNL     1      -5.583  37.025  21.526  1.00  0.00    -0.000 C 
BRANCH  11  12
ATOM     12  C   UNL     1      -6.559  37.763  22.465  1.00  0.00    -0.000 C 
BRANCH  12  13
ATOM     13  C   UNL     1      -7.337  38.920  21.813  1.00  0.00    -0.003 C 
ATOM     14  C   UNL     1      -7.314  38.869  20.286  1.00  0.00     0.004 C 
ENDBRANCH  12  13
ENDBRANCH  11  12
ENDBRANCH  10  11
ENDBRANCH   9  10
ENDBRANCH   1   9
TORSDOF 10
ENDMDL
