MODEL 1
REMARK VINA RESULT:    -3.663      0.000      0.000
REMARK INTER + INTRA:          -4.157
REMARK INTER:                  -4.092
REMARK INTRA:                  -0.065
REMARK UNBOUND:                -0.065
REMARK SMILES CCCC(=O)[O-]
REMARK SMILES IDX 3 1 4 2 5 3 6 4 2 5 1 6
REMARK H PARENT
REMARK Flexibility Score: inf
ROOT
ATOM      1  C   UNL     1      64.932 149.983   3.853  1.00  0.00     0.052 C 
ENDROOT
BRANCH   1   2
ATOM      2  C   UNL     1      64.698 149.303   5.165  1.00  0.00     0.041 C 
ATOM      3  O   UNL     1      65.671 149.000   5.904  1.00  0.00    -0.550 OA
ATOM      4  O   UNL     1      63.402 149.048   5.594  1.00  0.00    -0.550 OA
ENDBRANCH   1   2
BRANCH   1   5
ATOM      5  C   UNL     1      64.201 151.328   3.808  1.00  0.00     0.003 C 
ATOM      6  C   UNL     1      64.950 152.390   4.607  1.00  0.00     0.004 C 
ENDBRANCH   1   5
TORSDOF 2
ENDMDL
MODEL 2
REMARK VINA RESULT:    -3.571      2.105      2.919
REMARK INTER + INTRA:          -4.054
REMARK INTER:                  -3.985
REMARK INTRA:                  -0.069
REMARK UNBOUND:                -0.065
REMARK SMILES CCCC(=O)[O-]
REMARK SMILES IDX 3 1 4 2 5 3 6 4 2 5 1 6
REMARK H PARENT
REMARK Flexibility Score: inf
ROOT
ATOM      1  C   UNL     1      65.053 149.866   3.962  1.00  0.00     0.052 C 
ENDROOT
BRANCH   1   2
ATOM      2  C   UNL     1      64.585 151.287   3.955  1.00  0.00     0.041 C 
ATOM      3  O   UNL     1      65.242 152.172   4.564  1.00  0.00    -0.550 OA
ATOM      4  O   UNL     1      63.451 151.643   3.236  1.00  0.00    -0.550 OA
ENDBRANCH   1   2
BRANCH   1   5
ATOM      5  C   UNL     1      65.142 149.337   5.396  1.00  0.00     0.003 C 
ATOM      6  C   UNL     1      63.753 149.136   5.996  1.00  0.00     0.004 C 
ENDBRANCH   1   5
TORSDOF 2
ENDMDL
MODEL 3
REMARK VINA RESULT:    -3.421      2.211      3.042
REMARK INTER + INTRA:          -3.886
REMARK INTER:                  -3.848
REMARK INTRA:                  -0.038
REMARK UNBOUND:                -0.065
REMARK SMILES CCCC(=O)[O-]
REMARK SMILES IDX 3 1 4 2 5 3 6 4 2 5 1 6
REMARK H PARENT
REMARK Flexibility Score: inf
ROOT
ATOM      1  C   UNL     1      64.991 151.217   4.223  1.00  0.00     0.052 C 
ENDROOT
BRANCH   1   2
ATOM      2  C   UNL     1      63.574 151.694   4.243  1.00  0.00     0.041 C 
ATOM      3  O   UNL     1      63.056 152.097   5.317  1.00  0.00    -0.550 OA
ATOM      4  O   UNL     1      62.839 151.739   3.064  1.00  0.00    -0.550 OA
ENDBRANCH   1   2
BRANCH   1   5
ATOM      5  C   UNL     1      65.042 149.687   4.212  1.00  0.00     0.003 C 
ATOM      6  C   UNL     1      65.295 149.134   5.612  1.00  0.00     0.004 C 
ENDBRANCH   1   5
TORSDOF 2
ENDMDL
MODEL 4
REMARK VINA RESULT:    -3.314      2.146      3.125
REMARK INTER + INTRA:          -3.767
REMARK INTER:                  -3.715
REMARK INTRA:                  -0.052
REMARK UNBOUND:                -0.065
REMARK SMILES CCCC(=O)[O-]
REMARK SMILES IDX 3 1 4 2 5 3 6 4 2 5 1 6
REMARK H PARENT
REMARK Flexibility Score: inf
ROOT
ATOM      1  C   UNL     1      63.793 151.526   3.556  1.00  0.00     0.052 C 
ENDROOT
BRANCH   1   2
ATOM      2  C   UNL     1      62.562 151.518   4.406  1.00  0.00     0.041 C 
ATOM      3  O   UNL     1      61.434 151.315   3.886  1.00  0.00    -0.550 OA
ATOM      4  O   UNL     1      62.666 151.685   5.782  1.00  0.00    -0.550 OA
ENDBRANCH   1   2
BRANCH   1   5
ATOM      5  C   UNL     1      64.985 150.959   4.331  1.00  0.00     0.003 C 
ATOM      6  C   UNL     1      65.032 149.437   4.235  1.00  0.00     0.004 C 
ENDBRANCH   1   5
TORSDOF 2
ENDMDL
MODEL 5
REMARK VINA RESULT:    -3.098     16.625     17.318
REMARK INTER + INTRA:          -3.525
REMARK INTER:                  -3.520
REMARK INTRA:                  -0.005
REMARK UNBOUND:                -0.065
REMARK SMILES CCCC(=O)[O-]
REMARK SMILES IDX 3 1 4 2 5 3 6 4 2 5 1 6
REMARK H PARENT
REMARK Flexibility Score: inf
ROOT
ATOM      1  C   UNL     1      69.927 138.576  -7.841  1.00  0.00     0.052 C 
ENDROOT
BRANCH   1   2
ATOM      2  C   UNL     1      69.985 138.756  -6.357  1.00  0.00     0.041 C 
ATOM      3  O   UNL     1      71.096 138.779  -5.765  1.00  0.00    -0.550 OA
ATOM      4  O   UNL     1      68.815 138.947  -5.634  1.00  0.00    -0.550 OA
ENDBRANCH   1   2
BRANCH   1   5
ATOM      5  C   UNL     1      69.912 139.935  -8.546  1.00  0.00     0.003 C 
ATOM      6  C   UNL     1      69.509 139.791 -10.011  1.00  0.00     0.004 C 
ENDBRANCH   1   5
TORSDOF 2
ENDMDL
MODEL 6
REMARK VINA RESULT:    -3.067      2.174      2.653
REMARK INTER + INTRA:          -3.490
REMARK INTER:                  -3.485
REMARK INTRA:                  -0.005
REMARK UNBOUND:                -0.065
REMARK SMILES CCCC(=O)[O-]
REMARK SMILES IDX 3 1 4 2 5 3 6 4 2 5 1 6
REMARK H PARENT
REMARK Flexibility Score: inf
ROOT
ATOM      1  C   UNL     1      63.889 151.489   3.540  1.00  0.00     0.052 C 
ENDROOT
BRANCH   1   2
ATOM      2  C   UNL     1      64.524 151.441   4.894  1.00  0.00     0.041 C 
ATOM      3  O   UNL     1      65.182 152.427   5.319  1.00  0.00    -0.550 OA
ATOM      4  O   UNL     1      64.348 150.328   5.706  1.00  0.00    -0.550 OA
ENDBRANCH   1   2
BRANCH   1   5
ATOM      5  C   UNL     1      62.364 151.548   3.665  1.00  0.00     0.003 C 
ATOM      6  C   UNL     1      61.718 151.941   2.340  1.00  0.00     0.004 C 
ENDBRANCH   1   5
TORSDOF 2
ENDMDL
MODEL 7
REMARK VINA RESULT:    -3.061     17.004     17.699
REMARK INTER + INTRA:          -3.484
REMARK INTER:                  -3.478
REMARK INTRA:                  -0.007
REMARK UNBOUND:                -0.065
REMARK SMILES CCCC(=O)[O-]
REMARK SMILES IDX 3 1 4 2 5 3 6 4 2 5 1 6
REMARK H PARENT
REMARK Flexibility Score: inf
ROOT
ATOM      1  C   UNL     1      70.225 138.083  -7.046  1.00  0.00     0.052 C 
ENDROOT
BRANCH   1   2
ATOM      2  C   UNL     1      70.189 139.082  -8.159  1.00  0.00     0.041 C 
ATOM      3  O   UNL     1      69.345 138.967  -9.086  1.00  0.00    -0.550 OA
ATOM      4  O   UNL     1      71.054 140.169  -8.147  1.00  0.00    -0.550 OA
ENDBRANCH   1   2
BRANCH   1   5
ATOM      5  C   UNL     1      69.434 138.595  -5.839  1.00  0.00     0.003 C 
ATOM      6  C   UNL     1      68.934 137.439  -4.978  1.00  0.00     0.004 C 
ENDBRANCH   1   5
TORSDOF 2
ENDMDL
MODEL 8
REMARK VINA RESULT:    -3.030      1.468      2.110
REMARK INTER + INTRA:          -3.450
REMARK INTER:                  -3.433
REMARK INTRA:                  -0.016
REMARK UNBOUND:                -0.065
REMARK SMILES CCCC(=O)[O-]
REMARK SMILES IDX 3 1 4 2 5 3 6 4 2 5 1 6
REMARK H PARENT
REMARK Flexibility Score: inf
ROOT
ATOM      1  C   UNL     1      64.023 150.313   5.674  1.00  0.00     0.052 C 
ENDROOT
BRANCH   1   2
ATOM      2  C   UNL     1      62.866 149.406   5.397  1.00  0.00     0.041 C 
ATOM      3  O   UNL     1      61.757 149.884   5.041  1.00  0.00    -0.550 OA
ATOM      4  O   UNL     1      63.027 148.029   5.484  1.00  0.00    -0.550 OA
ENDBRANCH   1   2
BRANCH   1   5
ATOM      5  C   UNL     1      64.701 150.732   4.366  1.00  0.00     0.003 C 
ATOM      6  C   UNL     1      65.072 152.212   4.388  1.00  0.00     0.004 C 
ENDBRANCH   1   5
TORSDOF 2
ENDMDL
MODEL 9
REMARK VINA RESULT:    -3.015      5.870      6.797
REMARK INTER + INTRA:          -3.432
REMARK INTER:                  -3.418
REMARK INTRA:                  -0.014
REMARK UNBOUND:                -0.065
REMARK SMILES CCCC(=O)[O-]
REMARK SMILES IDX 3 1 4 2 5 3 6 4 2 5 1 6
REMARK H PARENT
REMARK Flexibility Score: inf
ROOT
ATOM      1  C   UNL     1      59.957 152.771   2.523  1.00  0.00     0.052 C 
ENDROOT
BRANCH   1   2
ATOM      2  C   UNL     1      59.339 153.760   1.586  1.00  0.00     0.041 C 
ATOM      3  O   UNL     1      59.762 153.862   0.405  1.00  0.00    -0.550 OA
ATOM      4  O   UNL     1      58.262 154.533   2.001  1.00  0.00    -0.550 OA
ENDBRANCH   1   2
BRANCH   1   5
ATOM      5  C   UNL     1      61.256 152.215   1.935  1.00  0.00     0.003 C 
ATOM      6  C   UNL     1      62.213 151.768   3.036  1.00  0.00     0.004 C 
ENDBRANCH   1   5
TORSDOF 2
ENDMDL
