MODEL 1
REMARK VINA RESULT:    -1.981      0.000      0.000
REMARK INTER + INTRA:          -4.789
REMARK INTER:                  -3.719
REMARK INTRA:                  -1.070
REMARK UNBOUND:                -1.070
REMARK SMILES O=C([O-])CCCCCCCCCCCCCCC(=O)[O-]
REMARK SMILES IDX 10 1 9 2 8 3 7 4 6 5 5 6 4 7 2 8 1 9 3 10 11 11 12 12 13 13
REMARK SMILES IDX 14 14 15 15 16 16 17 17 18 18 19 19 20 20
REMARK H PARENT
REMARK Flexibility Score: inf
ROOT
ATOM      1  C   UNL     1      -8.039  -5.667  -6.848  1.00  0.00     0.000 C 
ENDROOT
BRANCH   1   2
ATOM      2  C   UNL     1      -8.482  -6.837  -5.952  1.00  0.00     0.000 C 
BRANCH   2   3
ATOM      3  C   UNL     1      -8.311  -8.202  -6.637  1.00  0.00     0.000 C 
BRANCH   3   4
ATOM      4  C   UNL     1      -8.178  -9.359  -5.630  1.00  0.00     0.000 C 
BRANCH   4   5
ATOM      5  C   UNL     1      -7.097  -9.096  -4.569  1.00  0.00     0.000 C 
BRANCH   5   6
ATOM      6  C   UNL     1      -5.959 -10.125  -4.618  1.00  0.00     0.006 C 
BRANCH   6   7
ATOM      7  C   UNL     1      -5.261 -10.105  -5.981  1.00  0.00     0.053 C 
BRANCH   7   8
ATOM      8  C   UNL     1      -3.789  -9.896  -5.814  1.00  0.00     0.041 C 
ATOM      9  O   UNL     1      -3.036  -9.854  -6.822  1.00  0.00    -0.550 OA
ATOM     10  O   UNL     1      -3.241  -9.796  -4.541  1.00  0.00    -0.550 OA
ENDBRANCH   7   8
ENDBRANCH   6   7
ENDBRANCH   5   6
ENDBRANCH   4   5
ENDBRANCH   3   4
ENDBRANCH   2   3
ENDBRANCH   1   2
BRANCH   1  11
ATOM     11  C   UNL     1      -9.136  -5.231  -7.832  1.00  0.00     0.000 C 
BRANCH  11  12
ATOM     12  C   UNL     1      -9.903  -6.422  -8.434  1.00  0.00     0.000 C 
BRANCH  12  13
ATOM     13  C   UNL     1      -9.397  -6.805  -9.833  1.00  0.00     0.000 C 
BRANCH  13  14
ATOM     14  C   UNL     1      -9.520  -8.311 -10.116  1.00  0.00     0.000 C 
BRANCH  14  15
ATOM     15  C   UNL     1      -8.163  -9.040 -10.000  1.00  0.00     0.000 C 
BRANCH  15  16
ATOM     16  C   UNL     1      -6.953  -8.087 -10.004  1.00  0.00     0.006 C 
BRANCH  16  17
ATOM     17  C   UNL     1      -5.997  -8.288  -8.819  1.00  0.00     0.053 C 
BRANCH  17  18
ATOM     18  C   UNL     1      -4.572  -8.024  -9.202  1.00  0.00     0.041 C 
ATOM     19  O   UNL     1      -3.949  -7.050  -8.707  1.00  0.00    -0.550 OA
ATOM     20  O   UNL     1      -3.937  -8.848 -10.124  1.00  0.00    -0.550 OA
ENDBRANCH  17  18
ENDBRANCH  16  17
ENDBRANCH  15  16
ENDBRANCH  14  15
ENDBRANCH  13  14
ENDBRANCH  12  13
ENDBRANCH  11  12
ENDBRANCH   1  11
TORSDOF 15
ENDMDL
MODEL 2
REMARK VINA RESULT:    -1.876      2.624      4.478
REMARK INTER + INTRA:          -4.591
REMARK INTER:                  -3.249
REMARK INTRA:                  -1.342
REMARK UNBOUND:                -1.070
REMARK SMILES O=C([O-])CCCCCCCCCCCCCCC(=O)[O-]
REMARK SMILES IDX 10 1 9 2 8 3 7 4 6 5 5 6 4 7 2 8 1 9 3 10 11 11 12 12 13 13
REMARK SMILES IDX 14 14 15 15 16 16 17 17 18 18 19 19 20 20
REMARK H PARENT
REMARK Flexibility Score: inf
ROOT
ATOM      1  C   UNL     1      -7.087  -8.950  -4.507  1.00  0.00     0.000 C 
ENDROOT
BRANCH   1   2
ATOM      2  C   UNL     1      -6.846  -7.666  -5.320  1.00  0.00     0.000 C 
BRANCH   2   3
ATOM      3  C   UNL     1      -5.542  -7.717  -6.132  1.00  0.00     0.000 C 
BRANCH   3   4
ATOM      4  C   UNL     1      -4.846  -9.087  -6.051  1.00  0.00     0.000 C 
BRANCH   4   5
ATOM      5  C   UNL     1      -4.422  -9.617  -7.431  1.00  0.00     0.000 C 
BRANCH   5   6
ATOM      6  C   UNL     1      -5.389  -9.198  -8.547  1.00  0.00     0.006 C 
BRANCH   6   7
ATOM      7  C   UNL     1      -4.778  -9.459  -9.927  1.00  0.00     0.053 C 
BRANCH   7   8
ATOM      8  C   UNL     1      -3.309  -9.182  -9.911  1.00  0.00     0.041 C 
ATOM      9  O   UNL     1      -2.484 -10.124 -10.040  1.00  0.00    -0.550 OA
ATOM     10  O   UNL     1      -2.847  -7.887  -9.706  1.00  0.00    -0.550 OA
ENDBRANCH   7   8
ENDBRANCH   6   7
ENDBRANCH   5   6
ENDBRANCH   4   5
ENDBRANCH   3   4
ENDBRANCH   2   3
ENDBRANCH   1   2
BRANCH   1  11
ATOM     11  C   UNL     1      -8.281  -9.764  -5.030  1.00  0.00     0.000 C 
BRANCH  11  12
ATOM     12  C   UNL     1      -8.160 -10.102  -6.527  1.00  0.00     0.000 C 
BRANCH  12  13
ATOM     13  C   UNL     1      -9.289  -9.485  -7.366  1.00  0.00     0.000 C 
BRANCH  13  14
ATOM     14  C   UNL     1      -8.785  -8.393  -8.325  1.00  0.00     0.000 C 
BRANCH  14  15
ATOM     15  C   UNL     1      -9.777  -8.125  -9.478  1.00  0.00     0.000 C 
BRANCH  15  16
ATOM     16  C   UNL     1     -10.125  -6.635  -9.654  1.00  0.00     0.006 C 
BRANCH  16  17
ATOM     17  C   UNL     1      -9.267  -5.689  -8.799  1.00  0.00     0.053 C 
BRANCH  17  18
ATOM     18  C   UNL     1      -9.763  -4.276  -8.865  1.00  0.00     0.041 C 
ATOM     19  O   UNL     1      -9.931  -3.610  -7.810  1.00  0.00    -0.550 OA
ATOM     20  O   UNL     1     -10.059  -3.700 -10.095  1.00  0.00    -0.550 OA
ENDBRANCH  17  18
ENDBRANCH  16  17
ENDBRANCH  15  16
ENDBRANCH  14  15
ENDBRANCH  13  14
ENDBRANCH  12  13
ENDBRANCH  11  12
ENDBRANCH   1  11
TORSDOF 15
ENDMDL
MODEL 3
REMARK VINA RESULT:    -1.681      2.046      4.758
REMARK INTER + INTRA:          -4.225
REMARK INTER:                  -3.621
REMARK INTRA:                  -0.604
REMARK UNBOUND:                -1.070
REMARK SMILES O=C([O-])CCCCCCCCCCCCCCC(=O)[O-]
REMARK SMILES IDX 10 1 9 2 8 3 7 4 6 5 5 6 4 7 2 8 1 9 3 10 11 11 12 12 13 13
REMARK SMILES IDX 14 14 15 15 16 16 17 17 18 18 19 19 20 20
REMARK H PARENT
REMARK Flexibility Score: inf
ROOT
ATOM      1  C   UNL     1      -9.855  -6.076  -6.308  1.00  0.00     0.000 C 
ENDROOT
BRANCH   1   2
ATOM      2  C   UNL     1      -8.685  -5.332  -6.976  1.00  0.00     0.000 C 
BRANCH   2   3
ATOM      3  C   UNL     1      -9.154  -4.145  -7.833  1.00  0.00     0.000 C 
BRANCH   3   4
ATOM      4  C   UNL     1     -10.125  -4.565  -8.950  1.00  0.00     0.000 C 
BRANCH   4   5
ATOM      5  C   UNL     1     -10.082  -6.076  -9.232  1.00  0.00     0.000 C 
BRANCH   5   6
ATOM      6  C   UNL     1      -8.889  -6.479 -10.110  1.00  0.00     0.006 C 
BRANCH   6   7
ATOM      7  C   UNL     1      -8.052  -7.567  -9.430  1.00  0.00     0.053 C 
BRANCH   7   8
ATOM      8  C   UNL     1      -8.570  -8.925  -9.783  1.00  0.00     0.041 C 
ATOM      9  O   UNL     1      -7.770  -9.859 -10.054  1.00  0.00    -0.550 OA
ATOM     10  O   UNL     1      -9.940  -9.148  -9.861  1.00  0.00    -0.550 OA
ENDBRANCH   7   8
ENDBRANCH   6   7
ENDBRANCH   5   6
ENDBRANCH   4   5
ENDBRANCH   3   4
ENDBRANCH   2   3
ENDBRANCH   1   2
BRANCH   1  11
ATOM     11  C   UNL     1      -9.400  -7.339  -5.561  1.00  0.00     0.000 C 
BRANCH  11  12
ATOM     12  C   UNL     1      -9.966  -8.631  -6.178  1.00  0.00     0.000 C 
BRANCH  12  13
ATOM     13  C   UNL     1      -9.247  -9.891  -5.673  1.00  0.00     0.000 C 
BRANCH  13  14
ATOM     14  C   UNL     1      -7.922  -9.573  -4.961  1.00  0.00     0.000 C 
BRANCH  14  15
ATOM     15  C   UNL     1      -6.707  -9.687  -5.907  1.00  0.00     0.000 C 
BRANCH  15  16
ATOM     16  C   UNL     1      -6.331  -8.357  -6.587  1.00  0.00     0.006 C 
BRANCH  16  17
ATOM     17  C   UNL     1      -4.854  -7.968  -6.424  1.00  0.00     0.053 C 
BRANCH  17  18
ATOM     18  C   UNL     1      -4.053  -8.301  -7.646  1.00  0.00     0.041 C 
ATOM     19  O   UNL     1      -4.038  -7.518  -8.631  1.00  0.00    -0.550 OA
ATOM     20  O   UNL     1      -3.336  -9.490  -7.704  1.00  0.00    -0.550 OA
ENDBRANCH  17  18
ENDBRANCH  16  17
ENDBRANCH  15  16
ENDBRANCH  14  15
ENDBRANCH  13  14
ENDBRANCH  12  13
ENDBRANCH  11  12
ENDBRANCH   1  11
TORSDOF 15
ENDMDL
MODEL 4
REMARK VINA RESULT:    -1.364      2.242      4.842
REMARK INTER + INTRA:          -3.630
REMARK INTER:                  -4.441
REMARK INTRA:                   0.811
REMARK UNBOUND:                -1.070
REMARK SMILES O=C([O-])CCCCCCCCCCCCCCC(=O)[O-]
REMARK SMILES IDX 10 1 9 2 8 3 7 4 6 5 5 6 4 7 2 8 1 9 3 10 11 11 12 12 13 13
REMARK SMILES IDX 14 14 15 15 16 16 17 17 18 18 19 19 20 20
REMARK H PARENT
REMARK Flexibility Score: inf
ROOT
ATOM      1  C   UNL     1      -8.828  -6.819  -6.029  1.00  0.00     0.000 C 
ENDROOT
BRANCH   1   2
ATOM      2  C   UNL     1      -9.841  -5.763  -5.554  1.00  0.00     0.000 C 
BRANCH   2   3
ATOM      3  C   UNL     1      -9.888  -4.534  -6.476  1.00  0.00     0.000 C 
BRANCH   3   4
ATOM      4  C   UNL     1      -9.481  -4.863  -7.924  1.00  0.00     0.000 C 
BRANCH   4   5
ATOM      5  C   UNL     1      -9.395  -6.376  -8.184  1.00  0.00     0.000 C 
BRANCH   5   6
ATOM      6  C   UNL     1      -9.332  -6.716  -9.679  1.00  0.00     0.006 C 
BRANCH   6   7
ATOM      7  C   UNL     1     -10.113  -7.998  -9.983  1.00  0.00     0.053 C 
BRANCH   7   8
ATOM      8  C   UNL     1      -9.577  -9.140  -9.179  1.00  0.00     0.041 C 
ATOM      9  O   UNL     1     -10.099  -9.437  -8.072  1.00  0.00    -0.550 OA
ATOM     10  O   UNL     1      -8.469  -9.849  -9.629  1.00  0.00    -0.550 OA
ENDBRANCH   7   8
ENDBRANCH   6   7
ENDBRANCH   5   6
ENDBRANCH   4   5
ENDBRANCH   3   4
ENDBRANCH   2   3
ENDBRANCH   1   2
BRANCH   1  11
ATOM     11  C   UNL     1      -8.031  -7.435  -4.868  1.00  0.00     0.000 C 
BRANCH  11  12
ATOM     12  C   UNL     1      -7.586  -8.880  -5.154  1.00  0.00     0.000 C 
BRANCH  12  13
ATOM     13  C   UNL     1      -6.193  -8.954  -5.799  1.00  0.00     0.000 C 
BRANCH  13  14
ATOM     14  C   UNL     1      -5.582  -7.565  -6.050  1.00  0.00     0.000 C 
BRANCH  14  15
ATOM     15  C   UNL     1      -5.525  -7.215  -7.553  1.00  0.00     0.000 C 
BRANCH  15  16
ATOM     16  C   UNL     1      -4.091  -7.118  -8.106  1.00  0.00     0.006 C 
BRANCH  16  17
ATOM     17  C   UNL     1      -3.859  -7.935  -9.386  1.00  0.00     0.053 C 
BRANCH  17  18
ATOM     18  C   UNL     1      -3.908  -9.409  -9.121  1.00  0.00     0.041 C 
ATOM     19  O   UNL     1      -2.847 -10.055  -8.918  1.00  0.00    -0.550 OA
ATOM     20  O   UNL     1      -5.128 -10.075  -9.118  1.00  0.00    -0.550 OA
ENDBRANCH  17  18
ENDBRANCH  16  17
ENDBRANCH  15  16
ENDBRANCH  14  15
ENDBRANCH  13  14
ENDBRANCH  12  13
ENDBRANCH  11  12
ENDBRANCH   1  11
TORSDOF 15
ENDMDL
MODEL 5
REMARK VINA RESULT:    -0.699      1.547      2.054
REMARK INTER + INTRA:          -2.382
REMARK INTER:                  -3.218
REMARK INTRA:                   0.835
REMARK UNBOUND:                -1.070
REMARK SMILES O=C([O-])CCCCCCCCCCCCCCC(=O)[O-]
REMARK SMILES IDX 10 1 9 2 8 3 7 4 6 5 5 6 4 7 2 8 1 9 3 10 11 11 12 12 13 13
REMARK SMILES IDX 14 14 15 15 16 16 17 17 18 18 19 19 20 20
REMARK H PARENT
REMARK Flexibility Score: inf
ROOT
ATOM      1  C   UNL     1      -9.421  -5.375  -6.280  1.00  0.00     0.000 C 
ENDROOT
BRANCH   1   2
ATOM      2  C   UNL     1      -9.977  -6.783  -6.001  1.00  0.00     0.000 C 
BRANCH   2   3
ATOM      3  C   UNL     1      -9.937  -7.689  -7.242  1.00  0.00     0.000 C 
BRANCH   3   4
ATOM      4  C   UNL     1     -10.023  -9.184  -6.888  1.00  0.00     0.000 C 
BRANCH   4   5
ATOM      5  C   UNL     1      -9.905  -9.440  -5.377  1.00  0.00     0.000 C 
BRANCH   5   6
ATOM      6  C   UNL     1      -8.480  -9.226  -4.850  1.00  0.00     0.006 C 
BRANCH   6   7
ATOM      7  C   UNL     1      -7.461  -9.992  -5.698  1.00  0.00     0.053 C 
BRANCH   7   8
ATOM      8  C   UNL     1      -6.094  -9.409  -5.528  1.00  0.00     0.041 C 
ATOM      9  O   UNL     1      -5.148 -10.125  -5.106  1.00  0.00    -0.550 OA
ATOM     10  O   UNL     1      -5.874  -8.063  -5.791  1.00  0.00    -0.550 OA
ENDBRANCH   7   8
ENDBRANCH   6   7
ENDBRANCH   5   6
ENDBRANCH   4   5
ENDBRANCH   3   4
ENDBRANCH   2   3
ENDBRANCH   1   2
BRANCH   1  11
ATOM     11  C   UNL     1     -10.108  -4.697  -7.476  1.00  0.00     0.000 C 
BRANCH  11  12
ATOM     12  C   UNL     1      -9.838  -5.422  -8.806  1.00  0.00     0.000 C 
BRANCH  12  13
ATOM     13  C   UNL     1      -8.378  -5.880  -8.944  1.00  0.00     0.000 C 
BRANCH  13  14
ATOM     14  C   UNL     1      -8.242  -7.200  -9.722  1.00  0.00     0.000 C 
BRANCH  14  15
ATOM     15  C   UNL     1      -7.212  -8.154  -9.078  1.00  0.00     0.000 C 
BRANCH  15  16
ATOM     16  C   UNL     1      -5.987  -8.426  -9.971  1.00  0.00     0.006 C 
BRANCH  16  17
ATOM     17  C   UNL     1      -5.066  -9.537  -9.444  1.00  0.00     0.053 C 
BRANCH  17  18
ATOM     18  C   UNL     1      -3.875  -8.978  -8.724  1.00  0.00     0.041 C 
ATOM     19  O   UNL     1      -3.434  -9.543  -7.690  1.00  0.00    -0.550 OA
ATOM     20  O   UNL     1      -3.265  -7.819  -9.188  1.00  0.00    -0.550 OA
ENDBRANCH  17  18
ENDBRANCH  16  17
ENDBRANCH  15  16
ENDBRANCH  14  15
ENDBRANCH  13  14
ENDBRANCH  12  13
ENDBRANCH  11  12
ENDBRANCH   1  11
TORSDOF 15
ENDMDL
MODEL 6
REMARK VINA RESULT:    -0.681      2.860      4.332
REMARK INTER + INTRA:          -2.347
REMARK INTER:                  -2.867
REMARK INTRA:                   0.520
REMARK UNBOUND:                -1.070
REMARK SMILES O=C([O-])CCCCCCCCCCCCCCC(=O)[O-]
REMARK SMILES IDX 10 1 9 2 8 3 7 4 6 5 5 6 4 7 2 8 1 9 3 10 11 11 12 12 13 13
REMARK SMILES IDX 14 14 15 15 16 16 17 17 18 18 19 19 20 20
REMARK H PARENT
REMARK Flexibility Score: inf
ROOT
ATOM      1  C   UNL     1      -4.697  -7.440  -7.003  1.00  0.00     0.000 C 
ENDROOT
BRANCH   1   2
ATOM      2  C   UNL     1      -5.951  -8.196  -6.531  1.00  0.00     0.000 C 
BRANCH   2   3
ATOM      3  C   UNL     1      -6.753  -7.410  -5.481  1.00  0.00     0.000 C 
BRANCH   3   4
ATOM      4  C   UNL     1      -8.251  -7.760  -5.494  1.00  0.00     0.000 C 
BRANCH   4   5
ATOM      5  C   UNL     1      -8.611  -8.774  -6.592  1.00  0.00     0.000 C 
BRANCH   5   6
ATOM      6  C   UNL     1      -9.065 -10.125  -6.023  1.00  0.00     0.006 C 
BRANCH   6   7
ATOM      7  C   UNL     1      -9.918  -9.932  -4.766  1.00  0.00     0.053 C 
BRANCH   7   8
ATOM      8  C   UNL     1      -9.068 -10.020  -3.538  1.00  0.00     0.041 C 
ATOM      9  O   UNL     1      -7.817 -10.120  -3.638  1.00  0.00    -0.550 OA
ATOM     10  O   UNL     1      -9.662 -10.039  -2.281  1.00  0.00    -0.550 OA
ENDBRANCH   7   8
ENDBRANCH   6   7
ENDBRANCH   5   6
ENDBRANCH   4   5
ENDBRANCH   3   4
ENDBRANCH   2   3
ENDBRANCH   1   2
BRANCH   1  11
ATOM     11  C   UNL     1      -4.926  -6.681  -8.319  1.00  0.00     0.000 C 
BRANCH  11  12
ATOM     12  C   UNL     1      -5.272  -7.616  -9.492  1.00  0.00     0.000 C 
BRANCH  12  13
ATOM     13  C   UNL     1      -5.720  -9.010  -9.024  1.00  0.00     0.000 C 
BRANCH  13  14
ATOM     14  C   UNL     1      -7.050  -9.449  -9.659  1.00  0.00     0.000 C 
BRANCH  14  15
ATOM     15  C   UNL     1      -7.948  -8.247 -10.024  1.00  0.00     0.000 C 
BRANCH  15  16
ATOM     16  C   UNL     1      -9.442  -8.488  -9.735  1.00  0.00     0.006 C 
BRANCH  16  17
ATOM     17  C   UNL     1     -10.111  -7.364  -8.930  1.00  0.00     0.053 C 
BRANCH  17  18
ATOM     18  C   UNL     1      -9.378  -6.064  -9.074  1.00  0.00     0.041 C 
ATOM     19  O   UNL     1      -8.483  -5.743  -8.250  1.00  0.00    -0.550 OA
ATOM     20  O   UNL     1      -9.699  -5.198 -10.112  1.00  0.00    -0.550 OA
ENDBRANCH  17  18
ENDBRANCH  16  17
ENDBRANCH  15  16
ENDBRANCH  14  15
ENDBRANCH  13  14
ENDBRANCH  12  13
ENDBRANCH  11  12
ENDBRANCH   1  11
TORSDOF 15
ENDMDL
