MODEL 1
REMARK VINA RESULT:     1.338      0.000      0.000
REMARK INTER + INTRA:           3.126
REMARK INTER:                   1.807
REMARK INTRA:                   1.319
REMARK UNBOUND:                 1.319
REMARK SMILES COc1ccc(-c2cc(=O)c3c(OC)c(OC)c(OC)c(OC)c3o2)cc1
REMARK SMILES IDX 7 1 8 2 9 3 10 4 11 5 24 6 25 7 21 8 18 9 15 10 12 11 6 12
REMARK SMILES IDX 3 13 4 14 27 15 5 16 26 17 2 18 1 19 22 20 23 21 13 22 14 23
REMARK SMILES IDX 19 24 20 25 16 26 17 27
REMARK H PARENT
REMARK Flexibility Score: inf
ROOT
ATOM      1  C   UNL     1       1.641 -14.295 -18.165  1.00  0.00     0.138 A 
ATOM      2  C   UNL     1       1.884 -13.434 -19.245  1.00  0.00     0.100 A 
ATOM      3  C   UNL     1       2.543 -12.225 -19.025  1.00  0.00     0.197 A 
ATOM      4  O   UNL     1       2.732 -11.447 -20.001  1.00  0.00    -0.289 OA
ATOM      5  C   UNL     1       2.962 -11.885 -17.721  1.00  0.00     0.115 A 
ATOM      6  C   UNL     1       2.656 -12.791 -16.680  1.00  0.00     0.188 A 
ATOM      7  O   UNL     1       2.025 -13.933 -16.943  1.00  0.00    -0.452 OA
ATOM      8  C   UNL     1       3.012 -12.501 -15.359  1.00  0.00     0.209 A 
ATOM      9  C   UNL     1       3.676 -11.294 -15.052  1.00  0.00     0.211 A 
ATOM     10  C   UNL     1       3.944 -10.365 -16.069  1.00  0.00     0.208 A 
ATOM     11  C   UNL     1       3.651 -10.687 -17.416  1.00  0.00     0.179 A 
ENDROOT
BRANCH   1  12
ATOM     12  C   UNL     1       0.954 -15.599 -18.340  1.00  0.00     0.018 A 
ATOM     13  C   UNL     1      -0.404 -18.058 -18.609  1.00  0.00     0.118 A 
ATOM     14  C   UNL     1       0.982 -18.031 -18.421  1.00  0.00     0.047 A 
ATOM     15  C   UNL     1      -1.113 -16.846 -18.664  1.00  0.00     0.047 A 
ATOM     16  C   UNL     1       1.658 -16.816 -18.282  1.00  0.00     0.016 A 
ATOM     17  C   UNL     1      -0.439 -15.629 -18.526  1.00  0.00     0.016 A 
BRANCH  13  18
ATOM     18  O   UNL     1      -1.034 -19.307 -18.734  1.00  0.00    -0.497 OA
ATOM     19  C   UNL     1      -1.675 -19.995 -17.663  1.00  0.00     0.278 C 
ENDBRANCH  13  18
ENDBRANCH   1  12
BRANCH   8  20
ATOM     20  O   UNL     1       2.662 -13.403 -14.354  1.00  0.00    -0.490 OA
ATOM     21  C   UNL     1       1.485 -13.211 -13.567  1.00  0.00     0.278 C 
ENDBRANCH   8  20
BRANCH  11  22
ATOM     22  O   UNL     1       4.081  -9.844 -18.442  1.00  0.00    -0.492 OA
ATOM     23  C   UNL     1       5.152 -10.230 -19.300  1.00  0.00     0.278 C 
ENDBRANCH  11  22
BRANCH   9  24
ATOM     24  O   UNL     1       4.068 -10.954 -13.746  1.00  0.00    -0.490 OA
ATOM     25  C   UNL     1       5.121 -10.047 -13.416  1.00  0.00     0.279 C 
ENDBRANCH   9  24
BRANCH  10  26
ATOM     26  O   UNL     1       4.516  -9.140 -15.682  1.00  0.00    -0.490 OA
ATOM     27  C   UNL     1       3.797  -7.921 -15.487  1.00  0.00     0.278 C 
ENDBRANCH  10  26
TORSDOF 6
ENDMDL
