MODEL 1
REMARK VINA RESULT:    -3.765      0.000      0.000
REMARK INTER + INTRA:         -11.542
REMARK INTER:                  -8.167
REMARK INTRA:                  -3.375
REMARK UNBOUND:                -3.375
REMARK SMILES C[C@@H]1O[C@H](OC[C@H]2O[C@H](Oc3c(-c4ccc(OCCO)c(OCCO)c4)oc4cc(OCCO)cc(O)c4c3=O)[C@@H](O)[C@H](O)[C@H]2O)[C@@H](O)[C@H](O)[C@@H]1O
REMARK SMILES IDX 11 1 12 2 27 3 28 4 29 5 30 6 35 7 36 8 38 9 39 10 40 11
REMARK SMILES IDX 10 12 9 13 7 14 45 15 8 16 43 17 41 18 6 19 5 20 4 21 1 22
REMARK SMILES IDX 2 23 51 24 3 25 49 26 47 27 52 28 50 30 48 32 46 34 44 36
REMARK SMILES IDX 42 38 13 40 26 41 14 42 21 43 15 44 16 45 22 46 23 47 24 48
REMARK SMILES IDX 25 49 17 51 18 52 19 53 20 54 37 56 31 58 32 59 33 60 34 61
REMARK H PARENT 52 29 50 31 48 33 46 35 44 37 42 39 25 50 20 55 37 57 34 62
REMARK Flexibility Score: inf
ROOT
ATOM      1  C   UNL     1      24.763  13.069   7.468  1.00  0.00     0.214 A 
ATOM      2  C   UNL     1      25.621  12.374   8.342  1.00  0.00     0.180 A 
ATOM      3  O   UNL     1      25.871  11.082   8.162  1.00  0.00    -0.452 OA
ATOM      4  C   UNL     1      25.275  10.346   7.244  1.00  0.00     0.146 A 
ATOM      5  C   UNL     1      25.466   8.964   7.269  1.00  0.00     0.094 A 
ATOM      6  C   UNL     1      24.656   8.135   6.498  1.00  0.00     0.126 A 
ATOM      7  C   UNL     1      23.818   8.700   5.523  1.00  0.00     0.093 A 
ATOM      8  C   UNL     1      23.670  10.092   5.434  1.00  0.00     0.134 A 
ATOM      9  C   UNL     1      24.356  10.925   6.351  1.00  0.00     0.111 A 
ATOM     10  C   UNL     1      24.064  12.299   6.515  1.00  0.00     0.239 A 
ATOM     11  O   UNL     1      23.067  12.792   5.924  1.00  0.00    -0.285 OA
ENDROOT
BRANCH   1  12
ATOM     12  O   UNL     1      24.471  14.426   7.708  1.00  0.00    -0.454 OA
BRANCH  12  13
ATOM     13  C   UNL     1      24.886  15.577   6.941  1.00  0.00     0.339 C 
ATOM     14  C   UNL     1      25.945  17.705   7.040  1.00  0.00     0.180 C 
ATOM     15  C   UNL     1      27.146  17.327   6.115  1.00  0.00     0.177 C 
ATOM     16  O   UNL     1      25.466  16.572   7.775  1.00  0.00    -0.332 OA
ATOM     17  C   UNL     1      27.181  15.822   5.740  1.00  0.00     0.180 C 
ATOM     18  C   UNL     1      25.771  15.177   5.710  1.00  0.00     0.214 C 
BRANCH  14  19
ATOM     19  C   UNL     1      24.828  18.527   6.336  1.00  0.00     0.198 C 
BRANCH  19  20
ATOM     20  O   UNL     1      23.602  18.437   7.046  1.00  0.00    -0.347 OA
BRANCH  20  21
ATOM     21  C   UNL     1      22.501  18.389   6.154  1.00  0.00     0.281 C 
ATOM     22  C   UNL     1      22.164  16.868   2.831  1.00  0.00     0.041 C 
ATOM     23  C   UNL     1      21.872  17.875   3.948  1.00  0.00     0.150 C 
ATOM     24  C   UNL     1      20.403  17.776   4.486  1.00  0.00     0.174 C 
ATOM     25  O   UNL     1      22.846  17.686   4.971  1.00  0.00    -0.344 OA
ATOM     26  C   UNL     1      20.376  16.993   5.810  1.00  0.00     0.179 C 
ATOM     27  C   UNL     1      21.318  17.673   6.847  1.00  0.00     0.202 C 
BRANCH  24  28
ATOM     28  O   UNL     1      19.535  17.176   3.549  1.00  0.00    -0.388 OA
ATOM     29  H   UNL     1      18.620  17.223   3.928  1.00  0.00     0.211 HD
ENDBRANCH  24  28
BRANCH  26  30
ATOM     30  O   UNL     1      20.784  15.673   5.564  1.00  0.00    -0.387 OA
ATOM     31  H   UNL     1      21.578  15.504   6.134  1.00  0.00     0.211 HD
ENDBRANCH  26  30
BRANCH  27  32
ATOM     32  O   UNL     1      20.595  18.614   7.596  1.00  0.00    -0.385 OA
ATOM     33  H   UNL     1      20.202  19.261   6.956  1.00  0.00     0.211 HD
ENDBRANCH  27  32
ENDBRANCH  20  21
ENDBRANCH  19  20
ENDBRANCH  14  19
BRANCH  15  34
ATOM     34  O   UNL     1      27.234  18.126   4.962  1.00  0.00    -0.387 OA
ATOM     35  H   UNL     1      28.010  18.728   5.057  1.00  0.00     0.211 HD
ENDBRANCH  15  34
BRANCH  17  36
ATOM     36  O   UNL     1      28.054  15.123   6.588  1.00  0.00    -0.387 OA
ATOM     37  H   UNL     1      28.589  14.492   6.032  1.00  0.00     0.211 HD
ENDBRANCH  17  36
BRANCH  18  38
ATOM     38  O   UNL     1      25.115  15.585   4.533  1.00  0.00    -0.384 OA
ATOM     39  H   UNL     1      25.213  16.572   4.456  1.00  0.00     0.211 HD
ENDBRANCH  18  38
ENDBRANCH  12  13
ENDBRANCH   1  12
BRANCH   2  40
ATOM     40  C   UNL     1      26.082  12.933   9.618  1.00  0.00     0.025 A 
ATOM     41  C   UNL     1      27.004  13.982   9.548  1.00  0.00     0.062 A 
ATOM     42  C   UNL     1      25.474  12.627  10.843  1.00  0.00     0.016 A 
ATOM     43  C   UNL     1      27.277  14.785  10.663  1.00  0.00     0.162 A 
ATOM     44  C   UNL     1      25.757  13.408  11.974  1.00  0.00     0.051 A 
ATOM     45  C   UNL     1      26.648  14.505  11.883  1.00  0.00     0.161 A 
BRANCH  43  46
ATOM     46  O   UNL     1      28.125  15.906  10.575  1.00  0.00    -0.487 OA
BRANCH  46  47
ATOM     47  C   UNL     1      27.800  17.088   9.842  1.00  0.00     0.258 C 
BRANCH  47  48
ATOM     48  C   UNL     1      26.999  18.044  10.726  1.00  0.00     0.197 C 
BRANCH  48  49
ATOM     49  O   UNL     1      25.626  17.857  10.528  1.00  0.00    -0.393 OA
ATOM     50  H   UNL     1      25.258  18.735  10.241  1.00  0.00     0.210 HD
ENDBRANCH  48  49
ENDBRANCH  47  48
ENDBRANCH  46  47
ENDBRANCH  43  46
BRANCH  45  51
ATOM     51  O   UNL     1      26.906  15.373  12.956  1.00  0.00    -0.487 OA
BRANCH  51  52
ATOM     52  C   UNL     1      26.015  15.616  14.042  1.00  0.00     0.258 C 
BRANCH  52  53
ATOM     53  C   UNL     1      25.589  17.079  14.003  1.00  0.00     0.197 C 
BRANCH  53  54
ATOM     54  O   UNL     1      24.466  17.230  13.180  1.00  0.00    -0.393 OA
ATOM     55  H   UNL     1      24.418  18.201  12.965  1.00  0.00     0.210 HD
ENDBRANCH  53  54
ENDBRANCH  52  53
ENDBRANCH  51  52
ENDBRANCH  45  51
ENDBRANCH   2  40
BRANCH   8  56
ATOM     56  O   UNL     1      22.822  10.629   4.467  1.00  0.00    -0.507 OA
ATOM     57  H   UNL     1      22.668  10.159   3.584  1.00  0.00     0.293 HD
ENDBRANCH   8  56
BRANCH   6  58
ATOM     58  O   UNL     1      24.594   6.763   6.795  1.00  0.00    -0.491 OA
BRANCH  58  59
ATOM     59  C   UNL     1      25.755   6.074   7.277  1.00  0.00     0.257 C 
BRANCH  59  60
ATOM     60  C   UNL     1      26.656   5.674   6.101  1.00  0.00     0.197 C 
BRANCH  60  61
ATOM     61  O   UNL     1      26.114   6.142   4.885  1.00  0.00    -0.393 OA
ATOM     62  H   UNL     1      26.885   6.315   4.272  1.00  0.00     0.210 HD
ENDBRANCH  60  61
ENDBRANCH  59  60
ENDBRANCH  58  59
ENDBRANCH   6  58
TORSDOF 25
ENDMDL
MODEL 2
REMARK VINA RESULT:    -3.561      1.654      2.117
REMARK INTER + INTRA:         -11.099
REMARK INTER:                  -7.864
REMARK INTRA:                  -3.236
REMARK UNBOUND:                -3.375
REMARK SMILES C[C@@H]1O[C@H](OC[C@H]2O[C@H](Oc3c(-c4ccc(OCCO)c(OCCO)c4)oc4cc(OCCO)cc(O)c4c3=O)[C@@H](O)[C@H](O)[C@H]2O)[C@@H](O)[C@H](O)[C@@H]1O
REMARK SMILES IDX 11 1 12 2 27 3 28 4 29 5 30 6 35 7 36 8 38 9 39 10 40 11
REMARK SMILES IDX 10 12 9 13 7 14 45 15 8 16 43 17 41 18 6 19 5 20 4 21 1 22
REMARK SMILES IDX 2 23 51 24 3 25 49 26 47 27 52 28 50 30 48 32 46 34 44 36
REMARK SMILES IDX 42 38 13 40 26 41 14 42 21 43 15 44 16 45 22 46 23 47 24 48
REMARK SMILES IDX 25 49 17 51 18 52 19 53 20 54 37 56 31 58 32 59 33 60 34 61
REMARK H PARENT 52 29 50 31 48 33 46 35 44 37 42 39 25 50 20 55 37 57 34 62
REMARK Flexibility Score: inf
ROOT
ATOM      1  C   UNL     1      25.412  11.946   8.347  1.00  0.00     0.214 A 
ATOM      2  C   UNL     1      26.330  11.729   9.393  1.00  0.00     0.180 A 
ATOM      3  O   UNL     1      27.004  10.588   9.477  1.00  0.00    -0.452 OA
ATOM      4  C   UNL     1      26.800   9.560   8.677  1.00  0.00     0.146 A 
ATOM      5  C   UNL     1      27.421   8.347   8.976  1.00  0.00     0.094 A 
ATOM      6  C   UNL     1      27.026   7.182   8.324  1.00  0.00     0.126 A 
ATOM      7  C   UNL     1      26.182   7.270   7.205  1.00  0.00     0.093 A 
ATOM      8  C   UNL     1      25.605   8.496   6.844  1.00  0.00     0.134 A 
ATOM      9  C   UNL     1      25.863   9.645   7.632  1.00  0.00     0.111 A 
ATOM     10  C   UNL     1      25.125  10.845   7.512  1.00  0.00     0.239 A 
ATOM     11  O   UNL     1      24.106  10.871   6.773  1.00  0.00    -0.285 OA
ENDROOT
BRANCH   1  12
ATOM     12  O   UNL     1      24.669  13.142   8.306  1.00  0.00    -0.454 OA
BRANCH  12  13
ATOM     13  C   UNL     1      24.874  14.290   7.455  1.00  0.00     0.339 C 
ATOM     14  C   UNL     1      25.756  16.496   7.338  1.00  0.00     0.180 C 
ATOM     15  C   UNL     1      26.841  16.177   6.260  1.00  0.00     0.177 C 
ATOM     16  O   UNL     1      25.482  15.360   8.167  1.00  0.00    -0.332 OA
ATOM     17  C   UNL     1      26.947  14.665   5.927  1.00  0.00     0.180 C 
ATOM     18  C   UNL     1      25.605  13.912   6.120  1.00  0.00     0.214 C 
BRANCH  14  19
ATOM     19  C   UNL     1      24.486  17.199   6.779  1.00  0.00     0.198 C 
BRANCH  19  20
ATOM     20  O   UNL     1      24.258  16.839   5.425  1.00  0.00    -0.347 OA
BRANCH  20  21
ATOM     21  C   UNL     1      22.870  16.754   5.150  1.00  0.00     0.281 C 
ATOM     22  C   UNL     1      20.288  14.513   6.487  1.00  0.00     0.041 C 
ATOM     23  C   UNL     1      20.959  15.417   5.447  1.00  0.00     0.150 C 
ATOM     24  C   UNL     1      20.121  16.702   5.128  1.00  0.00     0.174 C 
ATOM     25  O   UNL     1      22.271  15.718   5.913  1.00  0.00    -0.344 OA
ATOM     26  C   UNL     1      20.699  17.913   5.880  1.00  0.00     0.179 C 
ATOM     27  C   UNL     1      22.199  18.102   5.505  1.00  0.00     0.202 C 
BRANCH  24  28
ATOM     28  O   UNL     1      18.756  16.538   5.449  1.00  0.00    -0.388 OA
ATOM     29  H   UNL     1      18.716  16.071   6.322  1.00  0.00     0.211 HD
ENDBRANCH  24  28
BRANCH  26  30
ATOM     30  O   UNL     1      20.560  17.696   7.260  1.00  0.00    -0.387 OA
ATOM     31  H   UNL     1      19.588  17.688   7.456  1.00  0.00     0.211 HD
ENDBRANCH  26  30
BRANCH  27  32
ATOM     32  O   UNL     1      22.304  18.964   4.403  1.00  0.00    -0.385 OA
ATOM     33  H   UNL     1      21.916  19.836   4.672  1.00  0.00     0.211 HD
ENDBRANCH  27  32
ENDBRANCH  20  21
ENDBRANCH  19  20
ENDBRANCH  14  19
BRANCH  15  34
ATOM     34  O   UNL     1      26.697  16.933   5.084  1.00  0.00    -0.387 OA
ATOM     35  H   UNL     1      26.127  17.714   5.282  1.00  0.00     0.211 HD
ENDBRANCH  15  34
BRANCH  17  36
ATOM     36  O   UNL     1      27.987  14.071   6.660  1.00  0.00    -0.387 OA
ATOM     37  H   UNL     1      28.811  14.090   6.100  1.00  0.00     0.211 HD
ENDBRANCH  17  36
BRANCH  18  38
ATOM     38  O   UNL     1      24.758  14.219   5.039  1.00  0.00    -0.384 OA
ATOM     39  H   UNL     1      24.987  15.134   4.723  1.00  0.00     0.211 HD
ENDBRANCH  18  38
ENDBRANCH  12  13
ENDBRANCH   1  12
BRANCH   2  40
ATOM     40  C   UNL     1      26.420  12.603  10.568  1.00  0.00     0.025 A 
ATOM     41  C   UNL     1      27.328  13.664  10.494  1.00  0.00     0.062 A 
ATOM     42  C   UNL     1      25.495  12.556  11.620  1.00  0.00     0.016 A 
ATOM     43  C   UNL     1      27.283  14.724  11.408  1.00  0.00     0.162 A 
ATOM     44  C   UNL     1      25.455  13.600  12.557  1.00  0.00     0.051 A 
ATOM     45  C   UNL     1      26.340  14.699  12.444  1.00  0.00     0.161 A 
BRANCH  43  46
ATOM     46  O   UNL     1      28.125  15.845  11.281  1.00  0.00    -0.487 OA
BRANCH  46  47
ATOM     47  C   UNL     1      27.982  16.829  10.255  1.00  0.00     0.258 C 
BRANCH  47  48
ATOM     48  C   UNL     1      26.836  17.779  10.601  1.00  0.00     0.197 C 
BRANCH  48  49
ATOM     49  O   UNL     1      27.013  18.312  11.883  1.00  0.00    -0.393 OA
ATOM     50  H   UNL     1      27.586  19.118  11.779  1.00  0.00     0.210 HD
ENDBRANCH  48  49
ENDBRANCH  47  48
ENDBRANCH  46  47
ENDBRANCH  43  46
BRANCH  45  51
ATOM     51  O   UNL     1      26.291  15.811  13.300  1.00  0.00    -0.487 OA
BRANCH  51  52
ATOM     52  C   UNL     1      25.448  15.926  14.444  1.00  0.00     0.258 C 
BRANCH  52  53
ATOM     53  C   UNL     1      24.054  16.333  13.981  1.00  0.00     0.197 C 
BRANCH  53  54
ATOM     54  O   UNL     1      23.085  15.731  14.794  1.00  0.00    -0.393 OA
ATOM     55  H   UNL     1      22.954  14.817  14.422  1.00  0.00     0.210 HD
ENDBRANCH  53  54
ENDBRANCH  52  53
ENDBRANCH  51  52
ENDBRANCH  45  51
ENDBRANCH   2  40
BRANCH   8  56
ATOM     56  O   UNL     1      24.759   8.555   5.738  1.00  0.00    -0.507 OA
ATOM     57  H   UNL     1      24.307   9.420   5.468  1.00  0.00     0.293 HD
ENDBRANCH   8  56
BRANCH   6  58
ATOM     58  O   UNL     1      27.374   5.936   8.870  1.00  0.00    -0.491 OA
BRANCH  58  59
ATOM     59  C   UNL     1      28.125   4.990   8.097  1.00  0.00     0.257 C 
BRANCH  59  60
ATOM     60  C   UNL     1      27.545   3.581   8.282  1.00  0.00     0.197 C 
BRANCH  60  61
ATOM     61  O   UNL     1      26.691   3.255   7.208  1.00  0.00    -0.393 OA
ATOM     62  H   UNL     1      25.876   3.828   7.301  1.00  0.00     0.210 HD
ENDBRANCH  60  61
ENDBRANCH  59  60
ENDBRANCH  58  59
ENDBRANCH   6  58
TORSDOF 25
ENDMDL
MODEL 3
REMARK VINA RESULT:    -2.821      1.939      6.103
REMARK INTER + INTRA:          -9.495
REMARK INTER:                  -9.813
REMARK INTRA:                   0.319
REMARK UNBOUND:                -3.375
REMARK SMILES C[C@@H]1O[C@H](OC[C@H]2O[C@H](Oc3c(-c4ccc(OCCO)c(OCCO)c4)oc4cc(OCCO)cc(O)c4c3=O)[C@@H](O)[C@H](O)[C@H]2O)[C@@H](O)[C@H](O)[C@@H]1O
REMARK SMILES IDX 11 1 12 2 27 3 28 4 29 5 30 6 35 7 36 8 38 9 39 10 40 11
REMARK SMILES IDX 10 12 9 13 7 14 45 15 8 16 43 17 41 18 6 19 5 20 4 21 1 22
REMARK SMILES IDX 2 23 51 24 3 25 49 26 47 27 52 28 50 30 48 32 46 34 44 36
REMARK SMILES IDX 42 38 13 40 26 41 14 42 21 43 15 44 16 45 22 46 23 47 24 48
REMARK SMILES IDX 25 49 17 51 18 52 19 53 20 54 37 56 31 58 32 59 33 60 34 61
REMARK H PARENT 52 29 50 31 48 33 46 35 44 37 42 39 25 50 20 55 37 57 34 62
REMARK Flexibility Score: inf
ROOT
ATOM      1  C   UNL     1      26.261  12.340   8.546  1.00  0.00     0.214 A 
ATOM      2  C   UNL     1      25.268  12.105   7.576  1.00  0.00     0.180 A 
ATOM      3  O   UNL     1      24.886  10.868   7.282  1.00  0.00    -0.452 OA
ATOM      4  C   UNL     1      25.459   9.791   7.781  1.00  0.00     0.146 A 
ATOM      5  C   UNL     1      25.110   8.545   7.258  1.00  0.00     0.094 A 
ATOM      6  C   UNL     1      25.875   7.422   7.563  1.00  0.00     0.126 A 
ATOM      7  C   UNL     1      26.840   7.500   8.580  1.00  0.00     0.093 A 
ATOM      8  C   UNL     1      27.153   8.732   9.171  1.00  0.00     0.134 A 
ATOM      9  C   UNL     1      26.501   9.907   8.718  1.00  0.00     0.111 A 
ATOM     10  C   UNL     1      26.935  11.209   9.055  1.00  0.00     0.239 A 
ATOM     11  O   UNL     1      28.023  11.356   9.673  1.00  0.00    -0.285 OA
ENDROOT
BRANCH   1  12
ATOM     12  O   UNL     1      26.688  13.657   8.806  1.00  0.00    -0.454 OA
BRANCH  12  13
ATOM     13  C   UNL     1      26.847  14.307  10.085  1.00  0.00     0.339 C 
ATOM     14  C   UNL     1      25.990  15.987  11.535  1.00  0.00     0.180 C 
ATOM     15  C   UNL     1      25.585  15.011  12.687  1.00  0.00     0.177 C 
ATOM     16  O   UNL     1      25.902  15.357  10.252  1.00  0.00    -0.332 OA
ATOM     17  C   UNL     1      25.752  13.515  12.309  1.00  0.00     0.180 C 
ATOM     18  C   UNL     1      26.879  13.280  11.269  1.00  0.00     0.214 C 
BRANCH  14  19
ATOM     19  C   UNL     1      27.323  16.750  11.782  1.00  0.00     0.198 C 
BRANCH  19  20
ATOM     20  O   UNL     1      27.105  18.152  11.839  1.00  0.00    -0.347 OA
BRANCH  20  21
ATOM     21  C   UNL     1      26.710  18.655  10.573  1.00  0.00     0.281 C 
ATOM     22  C   UNL     1      28.124  18.125   7.227  1.00  0.00     0.041 C 
ATOM     23  C   UNL     1      27.383  18.886   8.333  1.00  0.00     0.150 C 
ATOM     24  C   UNL     1      25.870  19.122   7.997  1.00  0.00     0.174 C 
ATOM     25  O   UNL     1      27.570  18.173   9.552  1.00  0.00    -0.344 OA
ATOM     26  C   UNL     1      24.995  18.102   8.745  1.00  0.00     0.179 C 
ATOM     27  C   UNL     1      25.262  18.197  10.277  1.00  0.00     0.202 C 
BRANCH  24  28
ATOM     28  O   UNL     1      25.617  19.054   6.610  1.00  0.00    -0.388 OA
ATOM     29  H   UNL     1      24.910  19.719   6.409  1.00  0.00     0.211 HD
ENDBRANCH  24  28
BRANCH  26  30
ATOM     30  O   UNL     1      25.296  16.815   8.272  1.00  0.00    -0.387 OA
ATOM     31  H   UNL     1      25.250  16.202   9.050  1.00  0.00     0.211 HD
ENDBRANCH  26  30
BRANCH  27  32
ATOM     32  O   UNL     1      24.370  19.115  10.854  1.00  0.00    -0.385 OA
ATOM     33  H   UNL     1      24.413  19.947  10.316  1.00  0.00     0.211 HD
ENDBRANCH  27  32
ENDBRANCH  20  21
ENDBRANCH  19  20
ENDBRANCH  14  19
BRANCH  15  34
ATOM     34  O   UNL     1      26.230  15.287  13.904  1.00  0.00    -0.387 OA
ATOM     35  H   UNL     1      25.720  15.988  14.376  1.00  0.00     0.211 HD
ENDBRANCH  15  34
BRANCH  17  36
ATOM     36  O   UNL     1      24.529  12.976  11.880  1.00  0.00    -0.387 OA
ATOM     37  H   UNL     1      23.816  13.290  12.501  1.00  0.00     0.211 HD
ENDBRANCH  17  36
BRANCH  18  38
ATOM     38  O   UNL     1      28.121  13.384  11.922  1.00  0.00    -0.384 OA
ATOM     39  H   UNL     1      28.293  12.523  12.390  1.00  0.00     0.211 HD
ENDBRANCH  18  38
ENDBRANCH  12  13
ENDBRANCH   1  12
BRANCH   2  40
ATOM     40  C   UNL     1      24.783  13.149   6.665  1.00  0.00     0.025 A 
ATOM     41  C   UNL     1      23.398  13.231   6.484  1.00  0.00     0.062 A 
ATOM     42  C   UNL     1      25.606  14.174   6.179  1.00  0.00     0.016 A 
ATOM     43  C   UNL     1      22.809  14.356   5.894  1.00  0.00     0.162 A 
ATOM     44  C   UNL     1      25.030  15.295   5.564  1.00  0.00     0.051 A 
ATOM     45  C   UNL     1      23.623  15.399   5.435  1.00  0.00     0.161 A 
BRANCH  43  46
ATOM     46  O   UNL     1      21.411  14.492   5.801  1.00  0.00    -0.487 OA
BRANCH  46  47
ATOM     47  C   UNL     1      20.502  14.035   6.804  1.00  0.00     0.258 C 
BRANCH  47  48
ATOM     48  C   UNL     1      19.176  14.785   6.686  1.00  0.00     0.197 C 
BRANCH  48  49
ATOM     49  O   UNL     1      18.647  15.045   7.956  1.00  0.00    -0.393 OA
ATOM     50  H   UNL     1      18.225  14.199   8.266  1.00  0.00     0.210 HD
ENDBRANCH  48  49
ENDBRANCH  47  48
ENDBRANCH  46  47
ENDBRANCH  43  46
BRANCH  45  51
ATOM     51  O   UNL     1      22.985  16.532   4.906  1.00  0.00    -0.487 OA
BRANCH  51  52
ATOM     52  C   UNL     1      22.612  17.685   5.657  1.00  0.00     0.258 C 
BRANCH  52  53
ATOM     53  C   UNL     1      22.032  18.721   4.701  1.00  0.00     0.197 C 
BRANCH  53  54
ATOM     54  O   UNL     1      22.414  18.425   3.386  1.00  0.00    -0.393 OA
ATOM     55  H   UNL     1      21.740  18.871   2.804  1.00  0.00     0.210 HD
ENDBRANCH  53  54
ENDBRANCH  52  53
ENDBRANCH  51  52
ENDBRANCH  45  51
ENDBRANCH   2  40
BRANCH   8  56
ATOM     56  O   UNL     1      28.124   8.786  10.169  1.00  0.00    -0.507 OA
ATOM     57  H   UNL     1      27.936   9.222  11.062  1.00  0.00     0.293 HD
ENDBRANCH   8  56
BRANCH   6  58
ATOM     58  O   UNL     1      25.757   6.272   6.766  1.00  0.00    -0.491 OA
BRANCH  58  59
ATOM     59  C   UNL     1      26.908   5.466   6.483  1.00  0.00     0.257 C 
BRANCH  59  60
ATOM     60  C   UNL     1      27.255   4.599   7.701  1.00  0.00     0.197 C 
BRANCH  60  61
ATOM     61  O   UNL     1      26.521   3.395   7.673  1.00  0.00    -0.393 OA
ATOM     62  H   UNL     1      26.941   2.784   8.344  1.00  0.00     0.210 HD
ENDBRANCH  60  61
ENDBRANCH  59  60
ENDBRANCH  58  59
ENDBRANCH   6  58
TORSDOF 25
ENDMDL
MODEL 4
REMARK VINA RESULT:    -2.393      1.786      2.674
REMARK INTER + INTRA:          -8.565
REMARK INTER:                  -6.639
REMARK INTRA:                  -1.926
REMARK UNBOUND:                -3.375
REMARK SMILES C[C@@H]1O[C@H](OC[C@H]2O[C@H](Oc3c(-c4ccc(OCCO)c(OCCO)c4)oc4cc(OCCO)cc(O)c4c3=O)[C@@H](O)[C@H](O)[C@H]2O)[C@@H](O)[C@H](O)[C@@H]1O
REMARK SMILES IDX 11 1 12 2 27 3 28 4 29 5 30 6 35 7 36 8 38 9 39 10 40 11
REMARK SMILES IDX 10 12 9 13 7 14 45 15 8 16 43 17 41 18 6 19 5 20 4 21 1 22
REMARK SMILES IDX 2 23 51 24 3 25 49 26 47 27 52 28 50 30 48 32 46 34 44 36
REMARK SMILES IDX 42 38 13 40 26 41 14 42 21 43 15 44 16 45 22 46 23 47 24 48
REMARK SMILES IDX 25 49 17 51 18 52 19 53 20 54 37 56 31 58 32 59 33 60 34 61
REMARK H PARENT 52 29 50 31 48 33 46 35 44 37 42 39 25 50 20 55 37 57 34 62
REMARK Flexibility Score: inf
ROOT
ATOM      1  C   UNL     1      24.900  12.155   7.358  1.00  0.00     0.214 A 
ATOM      2  C   UNL     1      25.943  11.964   8.284  1.00  0.00     0.180 A 
ATOM      3  O   UNL     1      26.558  10.792   8.380  1.00  0.00    -0.452 OA
ATOM      4  C   UNL     1      26.187   9.717   7.712  1.00  0.00     0.146 A 
ATOM      5  C   UNL     1      26.777   8.494   8.033  1.00  0.00     0.094 A 
ATOM      6  C   UNL     1      26.231   7.308   7.549  1.00  0.00     0.126 A 
ATOM      7  C   UNL     1      25.244   7.359   6.552  1.00  0.00     0.093 A 
ATOM      8  C   UNL     1      24.689   8.587   6.162  1.00  0.00     0.134 A 
ATOM      9  C   UNL     1      25.118   9.778   6.800  1.00  0.00     0.111 A 
ATOM     10  C   UNL     1      24.438  11.010   6.672  1.00  0.00     0.239 A 
ATOM     11  O   UNL     1      23.327  11.043   6.079  1.00  0.00    -0.285 OA
ENDROOT
BRANCH   1  12
ATOM     12  O   UNL     1      24.225  13.390   7.309  1.00  0.00    -0.454 OA
BRANCH  12  13
ATOM     13  C   UNL     1      24.464  14.502   6.419  1.00  0.00     0.339 C 
ATOM     14  C   UNL     1      23.709  16.655   5.746  1.00  0.00     0.180 C 
ATOM     15  C   UNL     1      25.002  17.419   6.179  1.00  0.00     0.177 C 
ATOM     16  O   UNL     1      23.470  15.509   6.570  1.00  0.00    -0.332 OA
ATOM     17  C   UNL     1      26.014  16.526   6.942  1.00  0.00     0.180 C 
ATOM     18  C   UNL     1      25.936  15.035   6.523  1.00  0.00     0.214 C 
BRANCH  14  19
ATOM     19  C   UNL     1      23.613  16.375   4.219  1.00  0.00     0.198 C 
BRANCH  19  20
ATOM     20  O   UNL     1      23.491  17.584   3.485  1.00  0.00    -0.347 OA
BRANCH  20  21
ATOM     21  C   UNL     1      22.131  17.866   3.196  1.00  0.00     0.281 C 
ATOM     22  C   UNL     1      19.711  16.106   1.069  1.00  0.00     0.041 C 
ATOM     23  C   UNL     1      20.344  17.312   1.773  1.00  0.00     0.150 C 
ATOM     24  C   UNL     1      19.404  17.943   2.857  1.00  0.00     0.174 C 
ATOM     25  O   UNL     1      21.598  16.896   2.307  1.00  0.00    -0.344 OA
ATOM     26  C   UNL     1      19.829  17.480   4.262  1.00  0.00     0.179 C 
ATOM     27  C   UNL     1      21.320  17.852   4.513  1.00  0.00     0.202 C 
BRANCH  24  28
ATOM     28  O   UNL     1      18.047  17.626   2.632  1.00  0.00    -0.388 OA
ATOM     29  H   UNL     1      17.979  16.638   2.602  1.00  0.00     0.211 HD
ENDBRANCH  24  28
BRANCH  26  30
ATOM     30  O   UNL     1      19.644  16.092   4.355  1.00  0.00    -0.387 OA
ATOM     31  H   UNL     1      19.360  15.776   3.459  1.00  0.00     0.211 HD
ENDBRANCH  26  30
BRANCH  27  32
ATOM     32  O   UNL     1      21.395  19.122   5.105  1.00  0.00    -0.385 OA
ATOM     33  H   UNL     1      22.100  19.630   4.626  1.00  0.00     0.211 HD
ENDBRANCH  27  32
ENDBRANCH  20  21
ENDBRANCH  19  20
ENDBRANCH  14  19
BRANCH  15  34
ATOM     34  O   UNL     1      25.635  18.089   5.118  1.00  0.00    -0.387 OA
ATOM     35  H   UNL     1      25.964  17.416   4.476  1.00  0.00     0.211 HD
ENDBRANCH  15  34
BRANCH  17  36
ATOM     36  O   UNL     1      25.864  16.684   8.329  1.00  0.00    -0.387 OA
ATOM     37  H   UNL     1      25.768  15.780   8.737  1.00  0.00     0.211 HD
ENDBRANCH  17  36
BRANCH  18  38
ATOM     38  O   UNL     1      26.557  14.887   5.269  1.00  0.00    -0.384 OA
ATOM     39  H   UNL     1      25.874  14.553   4.627  1.00  0.00     0.211 HD
ENDBRANCH  18  38
ENDBRANCH  12  13
ENDBRANCH   1  12
BRANCH   2  40
ATOM     40  C   UNL     1      26.245  12.924   9.352  1.00  0.00     0.025 A 
ATOM     41  C   UNL     1      25.459  12.847  10.506  1.00  0.00     0.062 A 
ATOM     42  C   UNL     1      27.397  13.722   9.351  1.00  0.00     0.016 A 
ATOM     43  C   UNL     1      25.842  13.490  11.690  1.00  0.00     0.162 A 
ATOM     44  C   UNL     1      27.780  14.391  10.523  1.00  0.00     0.051 A 
ATOM     45  C   UNL     1      27.011  14.263  11.706  1.00  0.00     0.161 A 
BRANCH  43  46
ATOM     46  O   UNL     1      25.114  13.334  12.884  1.00  0.00    -0.487 OA
BRANCH  46  47
ATOM     47  C   UNL     1      24.211  14.316  13.395  1.00  0.00     0.258 C 
BRANCH  47  48
ATOM     48  C   UNL     1      23.992  14.093  14.891  1.00  0.00     0.197 C 
BRANCH  48  49
ATOM     49  O   UNL     1      22.749  13.491  15.118  1.00  0.00    -0.393 OA
ATOM     50  H   UNL     1      22.898  12.509  15.080  1.00  0.00     0.210 HD
ENDBRANCH  48  49
ENDBRANCH  47  48
ENDBRANCH  46  47
ENDBRANCH  43  46
BRANCH  45  51
ATOM     51  O   UNL     1      27.388  14.839  12.929  1.00  0.00    -0.487 OA
BRANCH  51  52
ATOM     52  C   UNL     1      28.117  16.056  13.069  1.00  0.00     0.258 C 
BRANCH  52  53
ATOM     53  C   UNL     1      27.129  17.189  13.323  1.00  0.00     0.197 C 
BRANCH  53  54
ATOM     54  O   UNL     1      26.297  16.865  14.403  1.00  0.00    -0.393 OA
ATOM     55  H   UNL     1      25.910  17.729  14.710  1.00  0.00     0.210 HD
ENDBRANCH  53  54
ENDBRANCH  52  53
ENDBRANCH  51  52
ENDBRANCH  45  51
ENDBRANCH   2  40
BRANCH   8  56
ATOM     56  O   UNL     1      23.700   8.611   5.181  1.00  0.00    -0.507 OA
ATOM     57  H   UNL     1      22.960   7.922   5.165  1.00  0.00     0.293 HD
ENDBRANCH   8  56
BRANCH   6  58
ATOM     58  O   UNL     1      26.584   6.091   8.154  1.00  0.00    -0.491 OA
BRANCH  58  59
ATOM     59  C   UNL     1      27.899   5.548   7.977  1.00  0.00     0.257 C 
BRANCH  59  60
ATOM     60  C   UNL     1      27.844   4.015   8.017  1.00  0.00     0.197 C 
BRANCH  60  61
ATOM     61  O   UNL     1      27.262   3.512   6.834  1.00  0.00    -0.393 OA
ATOM     62  H   UNL     1      26.464   2.975   7.110  1.00  0.00     0.210 HD
ENDBRANCH  60  61
ENDBRANCH  59  60
ENDBRANCH  58  59
ENDBRANCH   6  58
TORSDOF 25
ENDMDL
MODEL 5
REMARK VINA RESULT:    -1.919      2.559      7.641
REMARK INTER + INTRA:          -7.538
REMARK INTER:                  -7.328
REMARK INTRA:                  -0.209
REMARK UNBOUND:                -3.375
REMARK SMILES C[C@@H]1O[C@H](OC[C@H]2O[C@H](Oc3c(-c4ccc(OCCO)c(OCCO)c4)oc4cc(OCCO)cc(O)c4c3=O)[C@@H](O)[C@H](O)[C@H]2O)[C@@H](O)[C@H](O)[C@@H]1O
REMARK SMILES IDX 11 1 12 2 27 3 28 4 29 5 30 6 35 7 36 8 38 9 39 10 40 11
REMARK SMILES IDX 10 12 9 13 7 14 45 15 8 16 43 17 41 18 6 19 5 20 4 21 1 22
REMARK SMILES IDX 2 23 51 24 3 25 49 26 47 27 52 28 50 30 48 32 46 34 44 36
REMARK SMILES IDX 42 38 13 40 26 41 14 42 21 43 15 44 16 45 22 46 23 47 24 48
REMARK SMILES IDX 25 49 17 51 18 52 19 53 20 54 37 56 31 58 32 59 33 60 34 61
REMARK H PARENT 52 29 50 31 48 33 46 35 44 37 42 39 25 50 20 55 37 57 34 62
REMARK Flexibility Score: inf
ROOT
ATOM      1  C   UNL     1      24.327  15.342   6.303  1.00  0.00     0.214 A 
ATOM      2  C   UNL     1      24.596  14.200   7.083  1.00  0.00     0.180 A 
ATOM      3  O   UNL     1      25.170  14.314   8.274  1.00  0.00    -0.452 OA
ATOM      4  C   UNL     1      25.613  15.454   8.765  1.00  0.00     0.146 A 
ATOM      5  C   UNL     1      26.371  15.429   9.935  1.00  0.00     0.094 A 
ATOM      6  C   UNL     1      27.076  16.561  10.334  1.00  0.00     0.126 A 
ATOM      7  C   UNL     1      26.831  17.788   9.696  1.00  0.00     0.093 A 
ATOM      8  C   UNL     1      26.011  17.846   8.559  1.00  0.00     0.134 A 
ATOM      9  C   UNL     1      25.448  16.652   8.045  1.00  0.00     0.111 A 
ATOM     10  C   UNL     1      24.842  16.569   6.771  1.00  0.00     0.239 A 
ATOM     11  O   UNL     1      24.914  17.555   5.989  1.00  0.00    -0.285 OA
ENDROOT
BRANCH   1  12
ATOM     12  O   UNL     1      23.766  15.195   5.020  1.00  0.00    -0.454 OA
BRANCH  12  13
ATOM     13  C   UNL     1      22.704  15.966   4.417  1.00  0.00     0.339 C 
ATOM     14  C   UNL     1      20.828  17.365   4.846  1.00  0.00     0.180 C 
ATOM     15  C   UNL     1      21.415  18.635   4.150  1.00  0.00     0.177 C 
ATOM     16  O   UNL     1      21.858  16.543   5.405  1.00  0.00    -0.332 OA
ATOM     17  C   UNL     1      22.890  18.461   3.701  1.00  0.00     0.180 C 
ATOM     18  C   UNL     1      23.244  16.990   3.360  1.00  0.00     0.214 C 
BRANCH  14  19
ATOM     19  C   UNL     1      19.788  16.589   3.987  1.00  0.00     0.198 C 
BRANCH  19  20
ATOM     20  O   UNL     1      19.774  17.065   2.649  1.00  0.00    -0.347 OA
BRANCH  20  21
ATOM     21  C   UNL     1      18.493  16.897   2.065  1.00  0.00     0.281 C 
ATOM     22  C   UNL     1      15.577  19.125   1.987  1.00  0.00     0.041 C 
ATOM     23  C   UNL     1      16.317  17.783   1.987  1.00  0.00     0.150 C 
ATOM     24  C   UNL     1      16.141  16.993   0.644  1.00  0.00     0.174 C 
ATOM     25  O   UNL     1      17.684  18.039   2.299  1.00  0.00    -0.344 OA
ATOM     26  C   UNL     1      17.391  17.161  -0.237  1.00  0.00     0.179 C 
ATOM     27  C   UNL     1      18.655  16.690   0.541  1.00  0.00     0.202 C 
BRANCH  24  28
ATOM     28  O   UNL     1      14.990  17.399  -0.063  1.00  0.00    -0.388 OA
ATOM     29  H   UNL     1      14.390  16.612  -0.121  1.00  0.00     0.211 HD
ENDBRANCH  24  28
BRANCH  26  30
ATOM     30  O   UNL     1      17.510  18.512  -0.600  1.00  0.00    -0.387 OA
ATOM     31  H   UNL     1      16.934  19.030   0.019  1.00  0.00     0.211 HD
ENDBRANCH  26  30
BRANCH  27  32
ATOM     32  O   UNL     1      18.882  15.328   0.290  1.00  0.00    -0.385 OA
ATOM     33  H   UNL     1      19.626  15.267  -0.361  1.00  0.00     0.211 HD
ENDBRANCH  27  32
ENDBRANCH  20  21
ENDBRANCH  19  20
ENDBRANCH  14  19
BRANCH  15  34
ATOM     34  O   UNL     1      20.626  19.103   3.086  1.00  0.00    -0.387 OA
ATOM     35  H   UNL     1      20.431  18.344   2.485  1.00  0.00     0.211 HD
ENDBRANCH  15  34
BRANCH  17  36
ATOM     36  O   UNL     1      23.764  18.997   4.660  1.00  0.00    -0.387 OA
ATOM     37  H   UNL     1      24.651  19.136   4.228  1.00  0.00     0.211 HD
ENDBRANCH  17  36
BRANCH  18  38
ATOM     38  O   UNL     1      22.692  16.675   2.105  1.00  0.00    -0.384 OA
ATOM     39  H   UNL     1      23.044  15.785   1.831  1.00  0.00     0.211 HD
ENDBRANCH  18  38
ENDBRANCH  12  13
ENDBRANCH   1  12
BRANCH   2  40
ATOM     40  C   UNL     1      24.508  12.835   6.552  1.00  0.00     0.025 A 
ATOM     41  C   UNL     1      25.159  11.834   7.281  1.00  0.00     0.062 A 
ATOM     42  C   UNL     1      23.632  12.479   5.517  1.00  0.00     0.016 A 
ATOM     43  C   UNL     1      24.895  10.479   7.049  1.00  0.00     0.162 A 
ATOM     44  C   UNL     1      23.377  11.123   5.259  1.00  0.00     0.051 A 
ATOM     45  C   UNL     1      23.995  10.116   6.038  1.00  0.00     0.161 A 
BRANCH  43  46
ATOM     46  O   UNL     1      25.467   9.469   7.846  1.00  0.00    -0.487 OA
BRANCH  46  47
ATOM     47  C   UNL     1      25.662   9.588   9.256  1.00  0.00     0.258 C 
BRANCH  47  48
ATOM     48  C   UNL     1      26.411   8.365   9.783  1.00  0.00     0.197 C 
BRANCH  48  49
ATOM     49  O   UNL     1      27.664   8.737  10.284  1.00  0.00    -0.393 OA
ATOM     50  H   UNL     1      27.713   9.728  10.219  1.00  0.00     0.210 HD
ENDBRANCH  48  49
ENDBRANCH  47  48
ENDBRANCH  46  47
ENDBRANCH  43  46
BRANCH  45  51
ATOM     51  O   UNL     1      23.715   8.749   5.883  1.00  0.00    -0.487 OA
BRANCH  51  52
ATOM     52  C   UNL     1      24.681   7.747   5.575  1.00  0.00     0.258 C 
BRANCH  52  53
ATOM     53  C   UNL     1      24.254   6.440   6.234  1.00  0.00     0.197 C 
BRANCH  53  54
ATOM     54  O   UNL     1      22.881   6.472   6.514  1.00  0.00    -0.393 OA
ATOM     55  H   UNL     1      22.496   5.677   6.055  1.00  0.00     0.210 HD
ENDBRANCH  53  54
ENDBRANCH  52  53
ENDBRANCH  51  52
ENDBRANCH  45  51
ENDBRANCH   2  40
BRANCH   8  56
ATOM     56  O   UNL     1      25.794  19.072   7.934  1.00  0.00    -0.507 OA
ATOM     57  H   UNL     1      25.124  19.737   8.301  1.00  0.00     0.293 HD
ENDBRANCH   8  56
BRANCH   6  58
ATOM     58  O   UNL     1      28.109  16.433  11.278  1.00  0.00    -0.491 OA
BRANCH  58  59
ATOM     59  C   UNL     1      27.843  15.870  12.570  1.00  0.00     0.257 C 
BRANCH  59  60
ATOM     60  C   UNL     1      27.384  16.970  13.538  1.00  0.00     0.197 C 
BRANCH  60  61
ATOM     61  O   UNL     1      26.676  16.408  14.621  1.00  0.00    -0.393 OA
ATOM     62  H   UNL     1      26.211  17.162  15.085  1.00  0.00     0.210 HD
ENDBRANCH  60  61
ENDBRANCH  59  60
ENDBRANCH  58  59
ENDBRANCH   6  58
TORSDOF 25
ENDMDL
MODEL 6
REMARK VINA RESULT:    -1.648     17.080     19.989
REMARK INTER + INTRA:          -6.949
REMARK INTER:                  -5.617
REMARK INTRA:                  -1.332
REMARK UNBOUND:                -3.375
REMARK SMILES C[C@@H]1O[C@H](OC[C@H]2O[C@H](Oc3c(-c4ccc(OCCO)c(OCCO)c4)oc4cc(OCCO)cc(O)c4c3=O)[C@@H](O)[C@H](O)[C@H]2O)[C@@H](O)[C@H](O)[C@@H]1O
REMARK SMILES IDX 11 1 12 2 27 3 28 4 29 5 30 6 35 7 36 8 38 9 39 10 40 11
REMARK SMILES IDX 10 12 9 13 7 14 45 15 8 16 43 17 41 18 6 19 5 20 4 21 1 22
REMARK SMILES IDX 2 23 51 24 3 25 49 26 47 27 52 28 50 30 48 32 46 34 44 36
REMARK SMILES IDX 42 38 13 40 26 41 14 42 21 43 15 44 16 45 22 46 23 47 24 48
REMARK SMILES IDX 25 49 17 51 18 52 19 53 20 54 37 56 31 58 32 59 33 60 34 61
REMARK H PARENT 52 29 50 31 48 33 46 35 44 37 42 39 25 50 20 55 37 57 34 62
REMARK Flexibility Score: inf
ROOT
ATOM      1  C   UNL     1      14.222   2.515   2.532  1.00  0.00     0.214 A 
ATOM      2  C   UNL     1      13.179   3.089   3.284  1.00  0.00     0.180 A 
ATOM      3  O   UNL     1      12.969   2.723   4.542  1.00  0.00    -0.452 OA
ATOM      4  C   UNL     1      13.631   1.751   5.139  1.00  0.00     0.146 A 
ATOM      5  C   UNL     1      13.199   1.320   6.393  1.00  0.00     0.094 A 
ATOM      6  C   UNL     1      13.694   0.135   6.932  1.00  0.00     0.126 A 
ATOM      7  C   UNL     1      14.796  -0.491   6.327  1.00  0.00     0.093 A 
ATOM      8  C   UNL     1      15.292  -0.026   5.100  1.00  0.00     0.134 A 
ATOM      9  C   UNL     1      14.659   1.069   4.463  1.00  0.00     0.111 A 
ATOM     10  C   UNL     1      14.909   1.431   3.119  1.00  0.00     0.239 A 
ATOM     11  O   UNL     1      15.623   0.681   2.402  1.00  0.00    -0.285 OA
ENDROOT
BRANCH   1  12
ATOM     12  O   UNL     1      14.394   2.879   1.182  1.00  0.00    -0.454 OA
BRANCH  12  13
ATOM     13  C   UNL     1      13.996   2.146   0.003  1.00  0.00     0.339 C 
ATOM     14  C   UNL     1      12.272   1.835  -1.606  1.00  0.00     0.180 C 
ATOM     15  C   UNL     1      13.118   2.298  -2.836  1.00  0.00     0.177 C 
ATOM     16  O   UNL     1      12.679   2.498  -0.404  1.00  0.00    -0.332 OA
ATOM     17  C   UNL     1      14.508   2.865  -2.444  1.00  0.00     0.180 C 
ATOM     18  C   UNL     1      15.066   2.241  -1.139  1.00  0.00     0.214 C 
BRANCH  14  19
ATOM     19  C   UNL     1      12.135   0.291  -1.469  1.00  0.00     0.198 C 
BRANCH  19  20
ATOM     20  O   UNL     1      10.788  -0.119  -1.650  1.00  0.00    -0.347 OA
BRANCH  20  21
ATOM     21  C   UNL     1      10.249  -0.633  -0.444  1.00  0.00     0.281 C 
ATOM     22  C   UNL     1      11.238  -0.100   3.051  1.00  0.00     0.041 C 
ATOM     23  C   UNL     1      10.647  -0.866   1.861  1.00  0.00     0.150 C 
ATOM     24  C   UNL     1       9.109  -1.124   2.010  1.00  0.00     0.174 C 
ATOM     25  O   UNL     1      10.972  -0.145   0.675  1.00  0.00    -0.344 OA
ATOM     26  C   UNL     1       8.317  -0.112   1.163  1.00  0.00     0.179 C 
ATOM     27  C   UNL     1       8.769  -0.197  -0.324  1.00  0.00     0.202 C 
BRANCH  24  28
ATOM     28  O   UNL     1       8.688  -1.065   3.355  1.00  0.00    -0.388 OA
ATOM     29  H   UNL     1       9.398  -0.594   3.862  1.00  0.00     0.211 HD
ENDBRANCH  24  28
BRANCH  26  30
ATOM     30  O   UNL     1       8.541   1.177   1.673  1.00  0.00    -0.387 OA
ATOM     31  H   UNL     1       9.374   1.513   1.255  1.00  0.00     0.211 HD
ENDBRANCH  26  30
BRANCH  27  32
ATOM     32  O   UNL     1       7.967  -1.124  -1.008  1.00  0.00    -0.385 OA
ATOM     33  H   UNL     1       8.022  -1.982  -0.516  1.00  0.00     0.211 HD
ENDBRANCH  27  32
ENDBRANCH  20  21
ENDBRANCH  19  20
ENDBRANCH  14  19
BRANCH  15  34
ATOM     34  O   UNL     1      13.248   1.310  -3.827  1.00  0.00    -0.387 OA
ATOM     35  H   UNL     1      14.210   1.156  -3.990  1.00  0.00     0.211 HD
ENDBRANCH  15  34
BRANCH  17  36
ATOM     36  O   UNL     1      14.467   4.267  -2.374  1.00  0.00    -0.387 OA
ATOM     37  H   UNL     1      13.608   4.573  -2.777  1.00  0.00     0.211 HD
ENDBRANCH  17  36
BRANCH  18  38
ATOM     38  O   UNL     1      15.534   0.945  -1.425  1.00  0.00    -0.384 OA
ATOM     39  H   UNL     1      15.304   0.360  -0.654  1.00  0.00     0.211 HD
ENDBRANCH  18  38
ENDBRANCH  12  13
ENDBRANCH   1  12
BRANCH   2  40
ATOM     40  C   UNL     1      12.122   3.910   2.681  1.00  0.00     0.025 A 
ATOM     41  C   UNL     1      11.373   3.319   1.659  1.00  0.00     0.062 A 
ATOM     42  C   UNL     1      11.700   5.127   3.234  1.00  0.00     0.016 A 
ATOM     43  C   UNL     1      10.165   3.879   1.227  1.00  0.00     0.162 A 
ATOM     44  C   UNL     1      10.503   5.712   2.793  1.00  0.00     0.051 A 
ATOM     45  C   UNL     1       9.719   5.078   1.798  1.00  0.00     0.161 A 
BRANCH  43  46
ATOM     46  O   UNL     1       9.353   3.237   0.272  1.00  0.00    -0.487 OA
BRANCH  46  47
ATOM     47  C   UNL     1       9.234   3.670  -1.084  1.00  0.00     0.258 C 
BRANCH  47  48
ATOM     48  C   UNL     1      10.542   4.313  -1.543  1.00  0.00     0.197 C 
BRANCH  48  49
ATOM     49  O   UNL     1      10.284   5.360  -2.436  1.00  0.00    -0.393 OA
ATOM     50  H   UNL     1       9.507   5.078  -2.987  1.00  0.00     0.210 HD
ENDBRANCH  48  49
ENDBRANCH  47  48
ENDBRANCH  46  47
ENDBRANCH  43  46
BRANCH  45  51
ATOM     51  O   UNL     1       8.474   5.571   1.377  1.00  0.00    -0.487 OA
BRANCH  51  52
ATOM     52  C   UNL     1       8.246   6.875   0.849  1.00  0.00     0.258 C 
BRANCH  52  53
ATOM     53  C   UNL     1       8.927   6.974  -0.511  1.00  0.00     0.197 C 
BRANCH  53  54
ATOM     54  O   UNL     1       7.983   6.810  -1.533  1.00  0.00    -0.393 OA
ATOM     55  H   UNL     1       7.256   7.460  -1.333  1.00  0.00     0.210 HD
ENDBRANCH  53  54
ENDBRANCH  52  53
ENDBRANCH  51  52
ENDBRANCH  45  51
ENDBRANCH   2  40
BRANCH   8  56
ATOM     56  O   UNL     1      16.378  -0.673   4.513  1.00  0.00    -0.507 OA
ATOM     57  H   UNL     1      16.452  -1.682   4.514  1.00  0.00     0.293 HD
ENDBRANCH   8  56
BRANCH   6  58
ATOM     58  O   UNL     1      13.006  -0.480   7.991  1.00  0.00    -0.491 OA
BRANCH  58  59
ATOM     59  C   UNL     1      11.858   0.152   8.572  1.00  0.00     0.257 C 
BRANCH  59  60
ATOM     60  C   UNL     1      10.603  -0.690   8.303  1.00  0.00     0.197 C 
BRANCH  60  61
ATOM     61  O   UNL     1       9.791  -0.746   9.455  1.00  0.00    -0.393 OA
ATOM     62  H   UNL     1       9.093  -1.442   9.284  1.00  0.00     0.210 HD
ENDBRANCH  60  61
ENDBRANCH  59  60
ENDBRANCH  58  59
ENDBRANCH   6  58
TORSDOF 25
ENDMDL
MODEL 7
REMARK VINA RESULT:    -1.632     14.926     19.218
REMARK INTER + INTRA:          -6.914
REMARK INTER:                  -7.713
REMARK INTRA:                   0.799
REMARK UNBOUND:                -3.375
REMARK SMILES C[C@@H]1O[C@H](OC[C@H]2O[C@H](Oc3c(-c4ccc(OCCO)c(OCCO)c4)oc4cc(OCCO)cc(O)c4c3=O)[C@@H](O)[C@H](O)[C@H]2O)[C@@H](O)[C@H](O)[C@@H]1O
REMARK SMILES IDX 11 1 12 2 27 3 28 4 29 5 30 6 35 7 36 8 38 9 39 10 40 11
REMARK SMILES IDX 10 12 9 13 7 14 45 15 8 16 43 17 41 18 6 19 5 20 4 21 1 22
REMARK SMILES IDX 2 23 51 24 3 25 49 26 47 27 52 28 50 30 48 32 46 34 44 36
REMARK SMILES IDX 42 38 13 40 26 41 14 42 21 43 15 44 16 45 22 46 23 47 24 48
REMARK SMILES IDX 25 49 17 51 18 52 19 53 20 54 37 56 31 58 32 59 33 60 34 61
REMARK H PARENT 52 29 50 31 48 33 46 35 44 37 42 39 25 50 20 55 37 57 34 62
REMARK Flexibility Score: inf
ROOT
ATOM      1  C   UNL     1      13.705   2.047   3.733  1.00  0.00     0.214 A 
ATOM      2  C   UNL     1      13.244   0.829   4.268  1.00  0.00     0.180 A 
ATOM      3  O   UNL     1      13.955   0.176   5.179  1.00  0.00    -0.452 OA
ATOM      4  C   UNL     1      15.159   0.548   5.568  1.00  0.00     0.146 A 
ATOM      5  C   UNL     1      15.894  -0.314   6.382  1.00  0.00     0.094 A 
ATOM      6  C   UNL     1      17.251  -0.085   6.592  1.00  0.00     0.126 A 
ATOM      7  C   UNL     1      17.817   1.134   6.186  1.00  0.00     0.093 A 
ATOM      8  C   UNL     1      17.070   2.048   5.429  1.00  0.00     0.134 A 
ATOM      9  C   UNL     1      15.742   1.721   5.056  1.00  0.00     0.111 A 
ATOM     10  C   UNL     1      15.014   2.441   4.082  1.00  0.00     0.239 A 
ATOM     11  O   UNL     1      15.598   3.333   3.411  1.00  0.00    -0.285 OA
ENDROOT
BRANCH   1  12
ATOM     12  O   UNL     1      12.960   2.696   2.729  1.00  0.00    -0.454 OA
BRANCH  12  13
ATOM     13  C   UNL     1      13.081   2.555   1.297  1.00  0.00     0.339 C 
ATOM     14  C   UNL     1      13.413   3.715  -0.753  1.00  0.00     0.180 C 
ATOM     15  C   UNL     1      14.766   3.019  -1.111  1.00  0.00     0.177 C 
ATOM     16  O   UNL     1      13.230   3.820   0.663  1.00  0.00    -0.332 OA
ATOM     17  C   UNL     1      15.304   2.107   0.023  1.00  0.00     0.180 C 
ATOM     18  C   UNL     1      14.175   1.505   0.898  1.00  0.00     0.214 C 
BRANCH  14  19
ATOM     19  C   UNL     1      12.181   3.148  -1.515  1.00  0.00     0.198 C 
BRANCH  19  20
ATOM     20  O   UNL     1      11.376   2.349  -0.662  1.00  0.00    -0.347 OA
BRANCH  20  21
ATOM     21  C   UNL     1      10.304   3.104  -0.122  1.00  0.00     0.281 C 
ATOM     22  C   UNL     1      10.245   5.626   2.546  1.00  0.00     0.041 C 
ATOM     23  C   UNL     1       9.685   4.506   1.661  1.00  0.00     0.150 C 
ATOM     24  C   UNL     1       8.500   4.985   0.754  1.00  0.00     0.174 C 
ATOM     25  O   UNL     1      10.767   3.962   0.910  1.00  0.00    -0.344 OA
ATOM     26  C   UNL     1       8.999   5.242  -0.679  1.00  0.00     0.179 C 
ATOM     27  C   UNL     1       9.668   3.955  -1.246  1.00  0.00     0.202 C 
BRANCH  24  28
ATOM     28  O   UNL     1       7.875   6.142   1.265  1.00  0.00    -0.388 OA
ATOM     29  H   UNL     1       6.961   6.173   0.882  1.00  0.00     0.211 HD
ENDBRANCH  24  28
BRANCH  26  30
ATOM     30  O   UNL     1       9.917   6.304  -0.653  1.00  0.00    -0.387 OA
ATOM     31  H   UNL     1      10.757   5.952  -0.262  1.00  0.00     0.211 HD
ENDBRANCH  26  30
BRANCH  27  32
ATOM     32  O   UNL     1       8.707   3.179  -1.912  1.00  0.00    -0.385 OA
ATOM     33  H   UNL     1       8.330   3.737  -2.640  1.00  0.00     0.211 HD
ENDBRANCH  27  32
ENDBRANCH  20  21
ENDBRANCH  19  20
ENDBRANCH  14  19
BRANCH  15  34
ATOM     34  O   UNL     1      14.728   2.321  -2.331  1.00  0.00    -0.387 OA
ATOM     35  H   UNL     1      15.175   2.869  -3.018  1.00  0.00     0.211 HD
ENDBRANCH  15  34
BRANCH  17  36
ATOM     36  O   UNL     1      16.253   2.793   0.798  1.00  0.00    -0.387 OA
ATOM     37  H   UNL     1      17.092   2.256   0.808  1.00  0.00     0.211 HD
ENDBRANCH  17  36
BRANCH  18  38
ATOM     38  O   UNL     1      13.558   0.463   0.181  1.00  0.00    -0.384 OA
ATOM     39  H   UNL     1      13.580  -0.354   0.749  1.00  0.00     0.211 HD
ENDBRANCH  18  38
ENDBRANCH  12  13
ENDBRANCH   1  12
BRANCH   2  40
ATOM     40  C   UNL     1      12.116   0.084   3.695  1.00  0.00     0.025 A 
ATOM     41  C   UNL     1      10.854   0.336   4.243  1.00  0.00     0.062 A 
ATOM     42  C   UNL     1      12.222  -0.658   2.511  1.00  0.00     0.016 A 
ATOM     43  C   UNL     1       9.685  -0.074   3.590  1.00  0.00     0.162 A 
ATOM     44  C   UNL     1      11.058  -1.096   1.859  1.00  0.00     0.051 A 
ATOM     45  C   UNL     1       9.781  -0.788   2.389  1.00  0.00     0.161 A 
BRANCH  43  46
ATOM     46  O   UNL     1       8.409   0.264   4.081  1.00  0.00    -0.487 OA
BRANCH  46  47
ATOM     47  C   UNL     1       7.909  -0.166   5.347  1.00  0.00     0.258 C 
BRANCH  47  48
ATOM     48  C   UNL     1       9.060  -0.667   6.219  1.00  0.00     0.197 C 
BRANCH  48  49
ATOM     49  O   UNL     1       8.714  -0.596   7.574  1.00  0.00    -0.393 OA
ATOM     50  H   UNL     1       7.761  -0.872   7.638  1.00  0.00     0.210 HD
ENDBRANCH  48  49
ENDBRANCH  47  48
ENDBRANCH  46  47
ENDBRANCH  43  46
BRANCH  45  51
ATOM     51  O   UNL     1       8.583  -1.125   1.739  1.00  0.00    -0.487 OA
BRANCH  51  52
ATOM     52  C   UNL     1       8.361  -1.032   0.334  1.00  0.00     0.258 C 
BRANCH  52  53
ATOM     53  C   UNL     1       8.430   0.435  -0.073  1.00  0.00     0.197 C 
BRANCH  53  54
ATOM     54  O   UNL     1       8.178   0.563  -1.445  1.00  0.00    -0.393 OA
ATOM     55  H   UNL     1       7.530   1.314  -1.530  1.00  0.00     0.210 HD
ENDBRANCH  53  54
ENDBRANCH  52  53
ENDBRANCH  51  52
ENDBRANCH  45  51
ENDBRANCH   2  40
BRANCH   8  56
ATOM     56  O   UNL     1      17.658   3.245   5.026  1.00  0.00    -0.507 OA
ATOM     57  H   UNL     1      17.167   4.126   5.114  1.00  0.00     0.293 HD
ENDBRANCH   8  56
BRANCH   6  58
ATOM     58  O   UNL     1      18.056  -1.125   7.088  1.00  0.00    -0.491 OA
BRANCH  58  59
ATOM     59  C   UNL     1      19.127  -0.841   7.998  1.00  0.00     0.257 C 
BRANCH  59  60
ATOM     60  C   UNL     1      20.340  -0.300   7.229  1.00  0.00     0.197 C 
BRANCH  60  61
ATOM     61  O   UNL     1      20.995   0.697   7.980  1.00  0.00    -0.393 OA
ATOM     62  H   UNL     1      20.707   1.579   7.605  1.00  0.00     0.210 HD
ENDBRANCH  60  61
ENDBRANCH  59  60
ENDBRANCH  58  59
ENDBRANCH   6  58
TORSDOF 25
ENDMDL
