MODEL 1
REMARK VINA RESULT:    27.673      0.000      0.000
REMARK INTER + INTRA:          50.155
REMARK INTER:                  41.424
REMARK INTRA:                   8.731
REMARK UNBOUND:                 8.731
REMARK SMILES C=C(CC[C@@H](C(=O)[O-])[C@@H]1[C@@H](O)C[C@]2(C)C3=C(CC[C@]12C)[C@@]1(C)CC[C@@H](OC(C)=O)C(C)(C)[C@@H]1CC3)C(C)C
REMARK SMILES IDX 4 1 5 2 6 3 7 4 8 5 9 6 10 7 19 8 12 9 13 10 18 11 20 12
REMARK SMILES IDX 14 13 15 14 17 15 16 16 35 17 21 18 34 19 33 20 23 21 22 22
REMARK SMILES IDX 30 23 24 24 25 25 31 26 32 27 11 28 26 30 27 31 29 32 28 33
REMARK SMILES IDX 3 34 2 35 1 36 36 37 37 38 38 39
REMARK H PARENT 11 29
REMARK Flexibility Score: inf
ROOT
ATOM      1  C   UNL     1      13.485  16.929  27.770  1.00  0.00     0.014 C 
ENDROOT
BRANCH   1   2
ATOM      2  C   UNL     1      14.984  16.579  27.517  1.00  0.00     0.042 C 
BRANCH   2   3
ATOM      3  C   UNL     1      15.199  15.154  27.069  1.00  0.00     0.045 C 
ATOM      4  O   UNL     1      15.202  14.873  25.843  1.00  0.00    -0.550 OA
ATOM      5  O   UNL     1      15.335  14.128  27.997  1.00  0.00    -0.550 OA
ENDBRANCH   2   3
BRANCH   2   6
ATOM      6  C   UNL     1      15.784  17.675  26.708  1.00  0.00     0.033 C 
ATOM      7  C   UNL     1      15.647  19.141  27.192  1.00  0.00     0.119 C 
ATOM      8  C   UNL     1      15.557  17.722  25.159  1.00  0.00    -0.017 C 
ATOM      9  C   UNL     1      15.781  20.029  25.941  1.00  0.00     0.043 C 
ATOM     10  C   UNL     1      16.141  19.119  24.744  1.00  0.00    -0.003 C 
ATOM     11  C   UNL     1      14.049  17.697  24.812  1.00  0.00     0.012 C 
ATOM     12  C   UNL     1      16.262  16.517  24.470  1.00  0.00     0.013 C 
ATOM     13  C   UNL     1      17.693  19.063  24.612  1.00  0.00     0.017 C 
ATOM     14  C   UNL     1      15.555  19.711  23.440  1.00  0.00    -0.064 C 
ATOM     15  C   UNL     1      13.818  17.894  23.315  1.00  0.00     0.032 C 
ATOM     16  C   UNL     1      14.569  19.074  22.724  1.00  0.00    -0.064 C 
ATOM     17  C   UNL     1      15.993  21.126  23.054  1.00  0.00     0.032 C 
ATOM     18  C   UNL     1      14.367  19.447  21.232  1.00  0.00    -0.008 C 
ATOM     19  C   UNL     1      15.637  21.595  21.637  1.00  0.00     0.009 C 
ATOM     20  C   UNL     1      14.307  21.006  21.119  1.00  0.00     0.009 C 
ATOM     21  C   UNL     1      13.033  18.886  20.683  1.00  0.00     0.015 C 
ATOM     22  C   UNL     1      15.562  18.802  20.461  1.00  0.00     0.016 C 
ATOM     23  C   UNL     1      13.818  21.651  19.739  1.00  0.00     0.005 C 
ATOM     24  C   UNL     1      12.832  19.231  19.213  1.00  0.00     0.047 C 
ATOM     25  C   UNL     1      12.779  20.740  18.938  1.00  0.00     0.182 C 
ATOM     26  C   UNL     1      15.005  21.991  18.782  1.00  0.00     0.015 C 
ATOM     27  C   UNL     1      13.153  23.026  20.061  1.00  0.00     0.015 C 
BRANCH   7  28
ATOM     28  O   UNL     1      16.655  19.446  28.124  1.00  0.00    -0.393 OA
ATOM     29  H   UNL     1      16.203  19.824  28.926  1.00  0.00     0.210 HD
ENDBRANCH   7  28
BRANCH  25  30
ATOM     30  O   UNL     1      11.417  21.182  19.089  1.00  0.00    -0.462 OA
BRANCH  30  31
ATOM     31  C   UNL     1      11.065  22.523  19.248  1.00  0.00     0.302 C 
ATOM     32  O   UNL     1      10.933  23.031  20.395  1.00  0.00    -0.253 OA
ATOM     33  C   UNL     1      10.888  23.379  18.039  1.00  0.00     0.139 C 
ENDBRANCH  30  31
ENDBRANCH  25  30
ENDBRANCH   2   6
ENDBRANCH   1   2
BRANCH   1  34
ATOM     34  C   UNL     1      12.486  15.791  28.110  1.00  0.00     0.031 C 
BRANCH  34  35
ATOM     35  C   UNL     1      12.368  14.669  27.082  1.00  0.00    -0.075 C 
ATOM     36  C   UNL     1      12.739  13.424  27.440  1.00  0.00     0.008 C 
BRANCH  35  37
ATOM     37  C   UNL     1      12.065  14.954  25.607  1.00  0.00     0.008 C 
ATOM     38  C   UNL     1      11.752  16.435  25.379  1.00  0.00     0.012 C 
ATOM     39  C   UNL     1      10.941  14.075  25.031  1.00  0.00     0.012 C 
ENDBRANCH  35  37
ENDBRANCH  34  35
ENDBRANCH   1  34
TORSDOF 9
ENDMDL
