MODEL 1
REMARK VINA RESULT:    -2.330      0.000      0.000
REMARK INTER + INTRA:          -3.272
REMARK INTER:                  -2.875
REMARK INTRA:                  -0.398
REMARK UNBOUND:                -0.398
REMARK SMILES CCCCC(=O)CC
REMARK SMILES IDX 4 1 3 2 2 3 1 4 5 5 6 6 7 7 8 8
REMARK H PARENT
REMARK Flexibility Score: inf
ROOT
ATOM      1  C   UNL     1     138.598 148.064 138.999  1.00  0.00     0.075 C 
ENDROOT
BRANCH   1   2
ATOM      2  C   UNL     1     139.764 148.120 138.006  1.00  0.00     0.008 C 
BRANCH   2   3
ATOM      3  C   UNL     1     139.571 147.102 136.875  1.00  0.00    -0.003 C 
ATOM      4  C   UNL     1     139.469 145.682 137.425  1.00  0.00     0.004 C 
ENDBRANCH   2   3
ENDBRANCH   1   2
BRANCH   1   5
ATOM      5  C   UNL     1     137.354 148.663 138.395  1.00  0.00     0.132 C 
ATOM      6  O   UNL     1     137.398 149.792 137.929  1.00  0.00    -0.300 OA
BRANCH   5   7
ATOM      7  C   UNL     1     136.059 147.897 138.356  1.00  0.00     0.072 C 
ATOM      8  C   UNL     1     136.190 146.569 139.094  1.00  0.00     0.012 C 
ENDBRANCH   5   7
ENDBRANCH   1   5
TORSDOF 4
ENDMDL
MODEL 2
REMARK VINA RESULT:    -2.322      0.906      3.086
REMARK INTER + INTRA:          -3.263
REMARK INTER:                  -3.004
REMARK INTRA:                  -0.258
REMARK UNBOUND:                -0.398
REMARK SMILES CCCCC(=O)CC
REMARK SMILES IDX 4 1 3 2 2 3 1 4 5 5 6 6 7 7 8 8
REMARK H PARENT
REMARK Flexibility Score: inf
ROOT
ATOM      1  C   UNL     1     137.712 148.074 139.029  1.00  0.00     0.075 C 
ENDROOT
BRANCH   1   2
ATOM      2  C   UNL     1     136.327 147.639 138.537  1.00  0.00     0.008 C 
BRANCH   2   3
ATOM      3  C   UNL     1     135.852 146.382 139.275  1.00  0.00    -0.003 C 
ATOM      4  C   UNL     1     136.893 145.269 139.194  1.00  0.00     0.004 C 
ENDBRANCH   2   3
ENDBRANCH   1   2
BRANCH   1   5
ATOM      5  C   UNL     1     138.416 148.895 137.981  1.00  0.00     0.132 C 
ATOM      6  O   UNL     1     137.921 149.949 137.611  1.00  0.00    -0.300 OA
BRANCH   5   7
ATOM      7  C   UNL     1     139.720 148.441 137.380  1.00  0.00     0.072 C 
ATOM      8  C   UNL     1     140.017 146.993 137.755  1.00  0.00     0.012 C 
ENDBRANCH   5   7
ENDBRANCH   1   5
TORSDOF 4
ENDMDL
MODEL 3
REMARK VINA RESULT:    -2.319     13.632     15.584
REMARK INTER + INTRA:          -3.259
REMARK INTER:                  -2.861
REMARK INTRA:                  -0.397
REMARK UNBOUND:                -0.398
REMARK SMILES CCCCC(=O)CC
REMARK SMILES IDX 4 1 3 2 2 3 1 4 5 5 6 6 7 7 8 8
REMARK H PARENT
REMARK Flexibility Score: inf
ROOT
ATOM      1  C   UNL     1     143.018 133.255 138.958  1.00  0.00     0.075 C 
ENDROOT
BRANCH   1   2
ATOM      2  C   UNL     1     141.863 133.210 137.953  1.00  0.00     0.008 C 
BRANCH   2   3
ATOM      3  C   UNL     1     142.029 134.288 136.875  1.00  0.00    -0.003 C 
ATOM      4  C   UNL     1     142.014 135.685 137.488  1.00  0.00     0.004 C 
ENDBRANCH   2   3
ENDBRANCH   1   2
BRANCH   1   5
ATOM      5  C   UNL     1     144.281 132.710 138.344  1.00  0.00     0.132 C 
ATOM      6  O   UNL     1     144.287 131.574 137.892  1.00  0.00    -0.300 OA
BRANCH   5   7
ATOM      7  C   UNL     1     145.536 133.538 138.275  1.00  0.00     0.072 C 
ATOM      8  C   UNL     1     145.392 134.814 139.096  1.00  0.00     0.012 C 
ENDBRANCH   5   7
ENDBRANCH   1   5
TORSDOF 4
ENDMDL
MODEL 4
REMARK VINA RESULT:    -2.285     14.117     15.318
REMARK INTER + INTRA:          -3.217
REMARK INTER:                  -2.975
REMARK INTRA:                  -0.241
REMARK UNBOUND:                -0.398
REMARK SMILES CCCCC(=O)CC
REMARK SMILES IDX 4 1 3 2 2 3 1 4 5 5 6 6 7 7 8 8
REMARK H PARENT
REMARK Flexibility Score: inf
ROOT
ATOM      1  C   UNL     1     143.848 133.467 139.052  1.00  0.00     0.075 C 
ENDROOT
BRANCH   1   2
ATOM      2  C   UNL     1     145.257 133.840 138.581  1.00  0.00     0.008 C 
BRANCH   2   3
ATOM      3  C   UNL     1     145.792 135.052 139.353  1.00  0.00    -0.003 C 
ATOM      4  C   UNL     1     144.855 136.249 139.215  1.00  0.00     0.004 C 
ENDBRANCH   2   3
ENDBRANCH   1   2
BRANCH   1   5
ATOM      5  C   UNL     1     143.127 132.670 137.997  1.00  0.00     0.132 C 
ATOM      6  O   UNL     1     143.580 131.591 137.645  1.00  0.00    -0.300 OA
BRANCH   5   7
ATOM      7  C   UNL     1     141.857 133.178 137.366  1.00  0.00     0.072 C 
ATOM      8  C   UNL     1     142.006 134.635 136.941  1.00  0.00     0.012 C 
ENDBRANCH   5   7
ENDBRANCH   1   5
TORSDOF 4
ENDMDL
MODEL 5
REMARK VINA RESULT:    -2.283      9.636     10.884
REMARK INTER + INTRA:          -3.214
REMARK INTER:                  -2.810
REMARK INTRA:                  -0.404
REMARK UNBOUND:                -0.398
REMARK SMILES CCCCC(=O)CC
REMARK SMILES IDX 4 1 3 2 2 3 1 4 5 5 6 6 7 7 8 8
REMARK H PARENT
REMARK Flexibility Score: inf
ROOT
ATOM      1  C   UNL     1     133.549 138.594 139.052  1.00  0.00     0.075 C 
ENDROOT
BRANCH   1   2
ATOM      2  C   UNL     1     133.504 139.736 138.030  1.00  0.00     0.008 C 
BRANCH   2   3
ATOM      3  C   UNL     1     134.488 139.484 136.881  1.00  0.00    -0.003 C 
ATOM      4  C   UNL     1     135.927 139.456 137.386  1.00  0.00     0.004 C 
ENDBRANCH   2   3
ENDBRANCH   1   2
BRANCH   1   5
ATOM      5  C   UNL     1     132.952 137.338 138.475  1.00  0.00     0.132 C 
ATOM      6  O   UNL     1     131.797 137.351 138.078  1.00  0.00    -0.300 OA
BRANCH   5   7
ATOM      7  C   UNL     1     133.753 136.066 138.378  1.00  0.00     0.072 C 
ATOM      8  C   UNL     1     135.074 136.197 139.128  1.00  0.00     0.012 C 
ENDBRANCH   5   7
ENDBRANCH   1   5
TORSDOF 4
ENDMDL
MODEL 6
REMARK VINA RESULT:    -2.282     13.492     14.907
REMARK INTER + INTRA:          -3.213
REMARK INTER:                  -2.845
REMARK INTRA:                  -0.368
REMARK UNBOUND:                -0.398
REMARK SMILES CCCCC(=O)CC
REMARK SMILES IDX 4 1 3 2 2 3 1 4 5 5 6 6 7 7 8 8
REMARK H PARENT
REMARK Flexibility Score: inf
ROOT
ATOM      1  C   UNL     1     143.635 133.687 139.225  1.00  0.00     0.075 C 
ENDROOT
BRANCH   1   2
ATOM      2  C   UNL     1     142.775 133.273 138.026  1.00  0.00     0.008 C 
BRANCH   2   3
ATOM      3  C   UNL     1     142.087 134.489 137.396  1.00  0.00    -0.003 C 
ATOM      4  C   UNL     1     141.412 135.351 138.459  1.00  0.00     0.004 C 
ENDBRANCH   2   3
ENDBRANCH   1   2
BRANCH   1   5
ATOM      5  C   UNL     1     145.022 134.070 138.778  1.00  0.00     0.132 C 
ATOM      6  O   UNL     1     145.576 133.411 137.912  1.00  0.00    -0.300 OA
BRANCH   5   7
ATOM      7  C   UNL     1     145.737 135.250 139.380  1.00  0.00     0.072 C 
ATOM      8  C   UNL     1     144.913 136.524 139.224  1.00  0.00     0.012 C 
ENDBRANCH   5   7
ENDBRANCH   1   5
TORSDOF 4
ENDMDL
MODEL 7
REMARK VINA RESULT:    -2.281      9.515     10.763
REMARK INTER + INTRA:          -3.213
REMARK INTER:                  -2.809
REMARK INTRA:                  -0.404
REMARK UNBOUND:                -0.398
REMARK SMILES CCCCC(=O)CC
REMARK SMILES IDX 4 1 3 2 2 3 1 4 5 5 6 6 7 7 8 8
REMARK H PARENT
REMARK Flexibility Score: inf
ROOT
ATOM      1  C   UNL     1     147.906 142.888 139.058  1.00  0.00     0.075 C 
ENDROOT
BRANCH   1   2
ATOM      2  C   UNL     1     147.901 141.737 138.046  1.00  0.00     0.008 C 
BRANCH   2   3
ATOM      3  C   UNL     1     146.918 142.015 136.903  1.00  0.00    -0.003 C 
ATOM      4  C   UNL     1     145.479 142.039 137.408  1.00  0.00     0.004 C 
ENDBRANCH   2   3
ENDBRANCH   1   2
BRANCH   1   5
ATOM      5  C   UNL     1     148.516 144.126 138.454  1.00  0.00     0.132 C 
ATOM      6  O   UNL     1     149.648 144.074 137.995  1.00  0.00    -0.300 OA
BRANCH   5   7
ATOM      7  C   UNL     1     147.757 145.425 138.405  1.00  0.00     0.072 C 
ATOM      8  C   UNL     1     146.417 145.300 139.121  1.00  0.00     0.012 C 
ENDBRANCH   5   7
ENDBRANCH   1   5
TORSDOF 4
ENDMDL
MODEL 8
REMARK VINA RESULT:    -2.275      1.504      2.430
REMARK INTER + INTRA:          -3.205
REMARK INTER:                  -2.842
REMARK INTRA:                  -0.363
REMARK UNBOUND:                -0.398
REMARK SMILES CCCCC(=O)CC
REMARK SMILES IDX 4 1 3 2 2 3 1 4 5 5 6 6 7 7 8 8
REMARK H PARENT
REMARK Flexibility Score: inf
ROOT
ATOM      1  C   UNL     1     137.269 147.367 138.606  1.00  0.00     0.075 C 
ENDROOT
BRANCH   1   2
ATOM      2  C   UNL     1     138.706 147.771 138.952  1.00  0.00     0.008 C 
BRANCH   2   3
ATOM      3  C   UNL     1     139.684 147.306 137.867  1.00  0.00    -0.003 C 
ATOM      4  C   UNL     1     139.979 148.427 136.875  1.00  0.00     0.004 C 
ENDBRANCH   2   3
ENDBRANCH   1   2
BRANCH   1   5
ATOM      5  C   UNL     1     136.447 148.576 138.245  1.00  0.00     0.132 C 
ATOM      6  O   UNL     1     135.422 148.433 137.594  1.00  0.00    -0.300 OA
BRANCH   5   7
ATOM      7  C   UNL     1     136.865 149.959 138.669  1.00  0.00     0.072 C 
ATOM      8  C   UNL     1     137.140 150.841 137.457  1.00  0.00     0.012 C 
ENDBRANCH   5   7
ENDBRANCH   1   5
TORSDOF 4
ENDMDL
MODEL 9
REMARK VINA RESULT:    -2.268      9.347     11.005
REMARK INTER + INTRA:          -3.196
REMARK INTER:                  -2.929
REMARK INTRA:                  -0.268
REMARK UNBOUND:                -0.398
REMARK SMILES CCCCC(=O)CC
REMARK SMILES IDX 4 1 3 2 2 3 1 4 5 5 6 6 7 7 8 8
REMARK H PARENT
REMARK Flexibility Score: inf
ROOT
ATOM      1  C   UNL     1     148.060 143.857 139.065  1.00  0.00     0.075 C 
ENDROOT
BRANCH   1   2
ATOM      2  C   UNL     1     147.547 145.199 138.531  1.00  0.00     0.008 C 
BRANCH   2   3
ATOM      3  C   UNL     1     146.206 145.570 139.175  1.00  0.00    -0.003 C 
ATOM      4  C   UNL     1     145.269 144.368 139.227  1.00  0.00     0.004 C 
ENDBRANCH   2   3
ENDBRANCH   1   2
BRANCH   1   5
ATOM      5  C   UNL     1     148.950 143.186 138.052  1.00  0.00     0.132 C 
ATOM      6  O   UNL     1     149.939 143.774 137.639  1.00  0.00    -0.300 OA
BRANCH   5   7
ATOM      7  C   UNL     1     148.644 141.804 137.538  1.00  0.00     0.072 C 
ATOM      8  C   UNL     1     147.141 141.548 137.526  1.00  0.00     0.012 C 
ENDBRANCH   5   7
ENDBRANCH   1   5
TORSDOF 4
ENDMDL
