MODEL 1
REMARK VINA RESULT:    -3.402      0.000      0.000
REMARK INTER + INTRA:          -4.052
REMARK INTER:                  -3.899
REMARK INTRA:                  -0.153
REMARK UNBOUND:                -0.153
REMARK SMILES O=C([O-])C=Cc1ccc(O)cc1
REMARK SMILES IDX 6 1 7 2 12 3 8 4 11 5 9 6 5 7 4 8 2 9 1 10 3 11 10 12
REMARK H PARENT 10 13
REMARK Flexibility Score: inf
ROOT
ATOM      1  C   UNL     1     -25.993  54.614  44.590  1.00  0.00    -0.025 A 
ATOM      2  C   UNL     1     -26.733  53.423  44.499  1.00  0.00     0.012 A 
ATOM      3  C   UNL     1     -25.208  55.011  43.488  1.00  0.00     0.012 A 
ATOM      4  C   UNL     1     -26.712  52.659  43.329  1.00  0.00     0.047 A 
ATOM      5  C   UNL     1     -25.189  54.243  42.319  1.00  0.00     0.047 A 
ATOM      6  C   UNL     1     -25.941  53.069  42.234  1.00  0.00     0.115 A 
ENDROOT
BRANCH   1   7
ATOM      7  C   UNL     1     -26.039  55.385  45.857  1.00  0.00     0.010 C 
ATOM      8  C   UNL     1     -26.411  54.860  47.033  1.00  0.00     0.025 C 
BRANCH   8   9
ATOM      9  C   UNL     1     -26.431  55.659  48.269  1.00  0.00     0.064 C 
ATOM     10  O   UNL     1     -25.838  56.768  48.301  1.00  0.00    -0.545 OA
ATOM     11  O   UNL     1     -27.094  55.208  49.405  1.00  0.00    -0.545 OA
ENDBRANCH   8   9
ENDBRANCH   1   7
BRANCH   6  12
ATOM     12  O   UNL     1     -25.913  52.316  41.062  1.00  0.00    -0.508 OA
ATOM     13  H   UNL     1     -26.304  52.669  40.197  1.00  0.00     0.293 HD
ENDBRANCH   6  12
TORSDOF 3
ENDMDL
MODEL 2
REMARK VINA RESULT:    -3.396      1.883      6.120
REMARK INTER + INTRA:          -4.046
REMARK INTER:                  -3.895
REMARK INTRA:                  -0.151
REMARK UNBOUND:                -0.153
REMARK SMILES O=C([O-])C=Cc1ccc(O)cc1
REMARK SMILES IDX 6 1 7 2 12 3 8 4 11 5 9 6 5 7 4 8 2 9 1 10 3 11 10 12
REMARK H PARENT 10 13
REMARK Flexibility Score: inf
ROOT
ATOM      1  C   UNL     1     -26.098  53.356  43.617  1.00  0.00    -0.025 A 
ATOM      2  C   UNL     1     -25.231  54.397  43.243  1.00  0.00     0.012 A 
ATOM      3  C   UNL     1     -26.830  53.480  44.816  1.00  0.00     0.012 A 
ATOM      4  C   UNL     1     -25.116  55.546  44.031  1.00  0.00     0.047 A 
ATOM      5  C   UNL     1     -26.711  54.631  45.602  1.00  0.00     0.047 A 
ATOM      6  C   UNL     1     -25.858  55.666  45.212  1.00  0.00     0.115 A 
ENDROOT
BRANCH   1   7
ATOM      7  C   UNL     1     -26.177  52.152  42.752  1.00  0.00     0.010 C 
ATOM      8  C   UNL     1     -25.697  52.102  41.502  1.00  0.00     0.025 C 
BRANCH   8   9
ATOM      9  C   UNL     1     -25.787  50.881  40.684  1.00  0.00     0.064 C 
ATOM     10  O   UNL     1     -24.872  50.616  39.862  1.00  0.00    -0.545 OA
ATOM     11  O   UNL     1     -26.868  50.016  40.803  1.00  0.00    -0.545 OA
ENDBRANCH   8   9
ENDBRANCH   1   7
BRANCH   6  12
ATOM     12  O   UNL     1     -25.752  56.806  46.006  1.00  0.00    -0.508 OA
ATOM     13  H   UNL     1     -25.083  57.537  45.795  1.00  0.00     0.293 HD
ENDBRANCH   6  12
TORSDOF 3
ENDMDL
MODEL 3
REMARK VINA RESULT:    -3.377      1.866      6.250
REMARK INTER + INTRA:          -4.024
REMARK INTER:                  -3.871
REMARK INTRA:                  -0.153
REMARK UNBOUND:                -0.153
REMARK SMILES O=C([O-])C=Cc1ccc(O)cc1
REMARK SMILES IDX 6 1 7 2 12 3 8 4 11 5 9 6 5 7 4 8 2 9 1 10 3 11 10 12
REMARK H PARENT 10 13
REMARK Flexibility Score: inf
ROOT
ATOM      1  C   UNL     1     -25.726  53.365  42.835  1.00  0.00    -0.025 A 
ATOM      2  C   UNL     1     -26.671  52.754  43.677  1.00  0.00     0.012 A 
ATOM      3  C   UNL     1     -25.230  54.638  43.184  1.00  0.00     0.012 A 
ATOM      4  C   UNL     1     -27.093  53.384  44.850  1.00  0.00     0.047 A 
ATOM      5  C   UNL     1     -25.655  55.266  44.359  1.00  0.00     0.047 A 
ATOM      6  C   UNL     1     -26.584  54.642  45.195  1.00  0.00     0.115 A 
ENDROOT
BRANCH   1   7
ATOM      7  C   UNL     1     -25.318  52.660  41.595  1.00  0.00     0.010 C 
ATOM      8  C   UNL     1     -25.531  51.355  41.377  1.00  0.00     0.025 C 
BRANCH   8   9
ATOM      9  C   UNL     1     -25.119  50.699  40.125  1.00  0.00     0.064 C 
ATOM     10  O   UNL     1     -24.208  51.211  39.426  1.00  0.00    -0.545 OA
ATOM     11  O   UNL     1     -25.724  49.521  39.700  1.00  0.00    -0.545 OA
ENDBRANCH   8   9
ENDBRANCH   1   7
BRANCH   6  12
ATOM     12  O   UNL     1     -26.996  55.280  46.363  1.00  0.00    -0.508 OA
ATOM     13  H   UNL     1     -27.653  56.052  46.341  1.00  0.00     0.293 HD
ENDBRANCH   6  12
TORSDOF 3
ENDMDL
MODEL 4
REMARK VINA RESULT:    -3.376      0.087      1.399
REMARK INTER + INTRA:          -4.023
REMARK INTER:                  -3.881
REMARK INTRA:                  -0.142
REMARK UNBOUND:                -0.153
REMARK SMILES O=C([O-])C=Cc1ccc(O)cc1
REMARK SMILES IDX 6 1 7 2 12 3 8 4 11 5 9 6 5 7 4 8 2 9 1 10 3 11 10 12
REMARK H PARENT 10 13
REMARK Flexibility Score: inf
ROOT
ATOM      1  C   UNL     1     -26.031  54.518  44.672  1.00  0.00    -0.025 A 
ATOM      2  C   UNL     1     -25.274  54.996  43.589  1.00  0.00     0.012 A 
ATOM      3  C   UNL     1     -26.762  53.323  44.514  1.00  0.00     0.012 A 
ATOM      4  C   UNL     1     -25.225  54.287  42.386  1.00  0.00     0.047 A 
ATOM      5  C   UNL     1     -26.711  52.616  43.308  1.00  0.00     0.047 A 
ATOM      6  C   UNL     1     -25.942  53.093  42.244  1.00  0.00     0.115 A 
ENDROOT
BRANCH   1   7
ATOM      7  C   UNL     1     -26.060  55.314  45.925  1.00  0.00     0.010 C 
ATOM      8  C   UNL     1     -26.432  54.818  47.113  1.00  0.00     0.025 C 
BRANCH   8   9
ATOM      9  C   UNL     1     -26.434  55.641  48.333  1.00  0.00     0.064 C 
ATOM     10  O   UNL     1     -25.865  56.763  48.325  1.00  0.00    -0.545 OA
ATOM     11  O   UNL     1     -27.055  55.199  49.496  1.00  0.00    -0.545 OA
ENDBRANCH   8   9
ENDBRANCH   1   7
BRANCH   6  12
ATOM     12  O   UNL     1     -25.901  52.376  41.049  1.00  0.00    -0.508 OA
ATOM     13  H   UNL     1     -25.156  51.717  40.853  1.00  0.00     0.293 HD
ENDBRANCH   6  12
TORSDOF 3
ENDMDL
MODEL 5
REMARK VINA RESULT:    -3.246      8.332     10.162
REMARK INTER + INTRA:          -3.874
REMARK INTER:                  -3.731
REMARK INTRA:                  -0.142
REMARK UNBOUND:                -0.153
REMARK SMILES O=C([O-])C=Cc1ccc(O)cc1
REMARK SMILES IDX 6 1 7 2 12 3 8 4 11 5 9 6 5 7 4 8 2 9 1 10 3 11 10 12
REMARK H PARENT 10 13
REMARK Flexibility Score: inf
ROOT
ATOM      1  C   UNL     1     -27.374  56.041  34.684  1.00  0.00    -0.025 A 
ATOM      2  C   UNL     1     -26.771  54.790  34.899  1.00  0.00     0.012 A 
ATOM      3  C   UNL     1     -28.073  56.259  33.479  1.00  0.00     0.012 A 
ATOM      4  C   UNL     1     -26.884  53.772  33.948  1.00  0.00     0.047 A 
ATOM      5  C   UNL     1     -28.184  55.238  32.530  1.00  0.00     0.047 A 
ATOM      6  C   UNL     1     -27.594  53.993  32.761  1.00  0.00     0.115 A 
ENDROOT
BRANCH   1   7
ATOM      7  C   UNL     1     -27.215  57.093  35.718  1.00  0.00     0.010 C 
ATOM      8  C   UNL     1     -27.390  56.879  37.030  1.00  0.00     0.025 C 
BRANCH   8   9
ATOM      9  C   UNL     1     -27.211  57.950  38.023  1.00  0.00     0.064 C 
ATOM     10  O   UNL     1     -26.081  58.129  38.547  1.00  0.00    -0.545 OA
ATOM     11  O   UNL     1     -28.271  58.770  38.393  1.00  0.00    -0.545 OA
ENDBRANCH   8   9
ENDBRANCH   1   7
BRANCH   6  12
ATOM     12  O   UNL     1     -27.715  52.986  31.806  1.00  0.00    -0.508 OA
ATOM     13  H   UNL     1     -26.952  52.757  31.179  1.00  0.00     0.293 HD
ENDBRANCH   6  12
TORSDOF 3
ENDMDL
MODEL 6
REMARK VINA RESULT:    -3.195      2.179      6.101
REMARK INTER + INTRA:          -3.815
REMARK INTER:                  -3.675
REMARK INTRA:                  -0.139
REMARK UNBOUND:                -0.153
REMARK SMILES O=C([O-])C=Cc1ccc(O)cc1
REMARK SMILES IDX 6 1 7 2 12 3 8 4 11 5 9 6 5 7 4 8 2 9 1 10 3 11 10 12
REMARK H PARENT 10 13
REMARK Flexibility Score: inf
ROOT
ATOM      1  C   UNL     1     -26.070  52.952  43.246  1.00  0.00    -0.025 A 
ATOM      2  C   UNL     1     -25.281  54.068  42.916  1.00  0.00     0.012 A 
ATOM      3  C   UNL     1     -26.830  52.985  44.433  1.00  0.00     0.012 A 
ATOM      4  C   UNL     1     -25.270  55.200  43.735  1.00  0.00     0.047 A 
ATOM      5  C   UNL     1     -26.816  54.120  45.251  1.00  0.00     0.047 A 
ATOM      6  C   UNL     1     -26.041  55.229  44.904  1.00  0.00     0.115 A 
ENDROOT
BRANCH   1   7
ATOM      7  C   UNL     1     -26.039  51.770  42.349  1.00  0.00     0.010 C 
ATOM      8  C   UNL     1     -26.127  50.504  42.783  1.00  0.00     0.025 C 
BRANCH   8   9
ATOM      9  C   UNL     1     -26.103  49.362  41.855  1.00  0.00     0.064 C 
ATOM     10  O   UNL     1     -25.049  48.686  41.729  1.00  0.00    -0.545 OA
ATOM     11  O   UNL     1     -27.228  49.016  41.115  1.00  0.00    -0.545 OA
ENDBRANCH   8   9
ENDBRANCH   1   7
BRANCH   6  12
ATOM     12  O   UNL     1     -26.039  56.352  45.729  1.00  0.00    -0.508 OA
ATOM     13  H   UNL     1     -26.092  57.290  45.347  1.00  0.00     0.293 HD
ENDBRANCH   6  12
TORSDOF 3
ENDMDL
MODEL 7
REMARK VINA RESULT:    -3.076      1.815      2.148
REMARK INTER + INTRA:          -3.679
REMARK INTER:                  -3.539
REMARK INTRA:                  -0.140
REMARK UNBOUND:                -0.153
REMARK SMILES O=C([O-])C=Cc1ccc(O)cc1
REMARK SMILES IDX 6 1 7 2 12 3 8 4 11 5 9 6 5 7 4 8 2 9 1 10 3 11 10 12
REMARK H PARENT 10 13
REMARK Flexibility Score: inf
ROOT
ATOM      1  C   UNL     1     -25.947  54.802  44.767  1.00  0.00    -0.025 A 
ATOM      2  C   UNL     1     -26.823  53.759  45.114  1.00  0.00     0.012 A 
ATOM      3  C   UNL     1     -25.290  54.750  43.520  1.00  0.00     0.012 A 
ATOM      4  C   UNL     1     -27.059  52.703  44.229  1.00  0.00     0.047 A 
ATOM      5  C   UNL     1     -25.529  53.691  42.638  1.00  0.00     0.047 A 
ATOM      6  C   UNL     1     -26.413  52.668  42.987  1.00  0.00     0.115 A 
ENDROOT
BRANCH   1   7
ATOM      7  C   UNL     1     -25.721  55.895  45.745  1.00  0.00     0.010 C 
ATOM      8  C   UNL     1     -24.919  56.944  45.516  1.00  0.00     0.025 C 
BRANCH   8   9
ATOM      9  C   UNL     1     -24.733  58.012  46.512  1.00  0.00     0.064 C 
ATOM     10  O   UNL     1     -25.291  59.126  46.338  1.00  0.00    -0.545 OA
ATOM     11  O   UNL     1     -23.950  57.810  47.643  1.00  0.00    -0.545 OA
ENDBRANCH   8   9
ENDBRANCH   1   7
BRANCH   6  12
ATOM     12  O   UNL     1     -26.641  51.621  42.096  1.00  0.00    -0.508 OA
ATOM     13  H   UNL     1     -26.117  51.537  41.233  1.00  0.00     0.293 HD
ENDBRANCH   6  12
TORSDOF 3
ENDMDL
MODEL 8
REMARK VINA RESULT:    -3.010      2.103      6.246
REMARK INTER + INTRA:          -3.602
REMARK INTER:                  -3.450
REMARK INTRA:                  -0.152
REMARK UNBOUND:                -0.153
REMARK SMILES O=C([O-])C=Cc1ccc(O)cc1
REMARK SMILES IDX 6 1 7 2 12 3 8 4 11 5 9 6 5 7 4 8 2 9 1 10 3 11 10 12
REMARK H PARENT 10 13
REMARK Flexibility Score: inf
ROOT
ATOM      1  C   UNL     1     -25.419  53.766  42.983  1.00  0.00    -0.025 A 
ATOM      2  C   UNL     1     -25.053  55.037  43.458  1.00  0.00     0.012 A 
ATOM      3  C   UNL     1     -26.371  53.019  43.708  1.00  0.00     0.012 A 
ATOM      4  C   UNL     1     -25.641  55.563  44.612  1.00  0.00     0.047 A 
ATOM      5  C   UNL     1     -26.957  53.548  44.862  1.00  0.00     0.047 A 
ATOM      6  C   UNL     1     -26.597  54.820  45.316  1.00  0.00     0.115 A 
ENDROOT
BRANCH   1   7
ATOM      7  C   UNL     1     -24.758  53.247  41.760  1.00  0.00     0.010 C 
ATOM      8  C   UNL     1     -23.961  53.985  40.975  1.00  0.00     0.025 C 
BRANCH   8   9
ATOM      9  C   UNL     1     -23.316  53.425  39.776  1.00  0.00     0.064 C 
ATOM     10  O   UNL     1     -22.550  54.148  39.089  1.00  0.00    -0.545 OA
ATOM     11  O   UNL     1     -23.541  52.109  39.390  1.00  0.00    -0.545 OA
ENDBRANCH   8   9
ENDBRANCH   1   7
BRANCH   6  12
ATOM     12  O   UNL     1     -27.191  55.334  46.467  1.00  0.00    -0.508 OA
ATOM     13  H   UNL     1     -27.815  56.130  46.429  1.00  0.00     0.293 HD
ENDBRANCH   6  12
TORSDOF 3
ENDMDL
MODEL 9
REMARK VINA RESULT:    -2.827     11.627     12.863
REMARK INTER + INTRA:          -3.394
REMARK INTER:                  -3.244
REMARK INTRA:                  -0.150
REMARK UNBOUND:                -0.153
REMARK SMILES O=C([O-])C=Cc1ccc(O)cc1
REMARK SMILES IDX 6 1 7 2 12 3 8 4 11 5 9 6 5 7 4 8 2 9 1 10 3 11 10 12
REMARK H PARENT 10 13
REMARK Flexibility Score: inf
ROOT
ATOM      1  C   UNL     1     -27.801  55.725  32.762  1.00  0.00    -0.025 A 
ATOM      2  C   UNL     1     -27.856  56.467  33.955  1.00  0.00     0.012 A 
ATOM      3  C   UNL     1     -27.821  56.415  31.533  1.00  0.00     0.012 A 
ATOM      4  C   UNL     1     -27.903  57.864  33.924  1.00  0.00     0.047 A 
ATOM      5  C   UNL     1     -27.868  57.813  31.506  1.00  0.00     0.047 A 
ATOM      6  C   UNL     1     -27.907  58.540  32.698  1.00  0.00     0.115 A 
ENDROOT
BRANCH   1   7
ATOM      7  C   UNL     1     -27.763  54.244  32.848  1.00  0.00     0.010 C 
ATOM      8  C   UNL     1     -27.386  53.572  33.945  1.00  0.00     0.025 C 
BRANCH   8   9
ATOM      9  C   UNL     1     -27.375  52.101  33.989  1.00  0.00     0.064 C 
ATOM     10  O   UNL     1     -28.464  51.472  33.982  1.00  0.00    -0.545 OA
ATOM     11  O   UNL     1     -26.179  51.394  34.040  1.00  0.00    -0.545 OA
ENDBRANCH   8   9
ENDBRANCH   1   7
BRANCH   6  12
ATOM     12  O   UNL     1     -27.953  59.932  32.654  1.00  0.00    -0.508 OA
ATOM     13  H   UNL     1     -28.079  60.484  33.494  1.00  0.00     0.293 HD
ENDBRANCH   6  12
TORSDOF 3
ENDMDL
