MODEL 1
REMARK VINA RESULT:     2.764      0.000      0.000
REMARK INTER + INTRA:           3.745
REMARK INTER:                   3.330
REMARK INTRA:                   0.415
REMARK UNBOUND:                 0.415
REMARK SMILES Oc1cc(O)c2c(c1)O[C@@H](c1ccc(O)c(O)c1)[C@H](O)C2
REMARK SMILES IDX 21 1 19 2 10 3 9 4 7 5 8 6 2 7 3 8 4 9 6 10 20 11 11 13
REMARK SMILES IDX 18 14 12 15 16 16 13 17 14 18 17 19 15 21 5 23 1 25
REMARK H PARENT 20 12 17 20 15 22 5 24 1 26
REMARK Flexibility Score: inf
ROOT
ATOM      1  C   UNL     1      -9.738  19.891 -15.639  1.00  0.00     0.079 C 
ATOM      2  C   UNL     1     -11.223  20.264 -15.477  1.00  0.00     0.164 C 
ATOM      3  C   UNL     1     -11.824  19.533 -14.257  1.00  0.00     0.232 C 
ATOM      4  O   UNL     1     -11.061  19.828 -13.086  1.00  0.00    -0.482 OA
ATOM      5  C   UNL     1      -9.670  19.982 -13.113  1.00  0.00     0.131 A 
ATOM      6  C   UNL     1      -8.971  20.101 -11.909  1.00  0.00     0.093 A 
ATOM      7  C   UNL     1      -7.579  20.256 -11.912  1.00  0.00     0.122 A 
ATOM      8  C   UNL     1      -6.887  20.290 -13.126  1.00  0.00     0.092 A 
ATOM      9  C   UNL     1      -7.577  20.179 -14.341  1.00  0.00     0.126 A 
ATOM     10  C   UNL     1      -8.979  20.043 -14.341  1.00  0.00     0.039 A 
ENDROOT
BRANCH   2  11
ATOM     11  O   UNL     1     -11.938  19.973 -16.653  1.00  0.00    -0.389 OA
ATOM     12  H   UNL     1     -11.620  19.094 -16.989  1.00  0.00     0.211 HD
ENDBRANCH   2  11
BRANCH   3  13
ATOM     13  C   UNL     1     -13.264  19.929 -14.039  1.00  0.00    -0.001 A 
ATOM     14  C   UNL     1     -14.070  20.299 -15.130  1.00  0.00     0.057 A 
ATOM     15  C   UNL     1     -13.802  19.983 -12.742  1.00  0.00     0.012 A 
ATOM     16  C   UNL     1     -15.400  20.697 -14.930  1.00  0.00     0.157 A 
ATOM     17  C   UNL     1     -15.126  20.378 -12.541  1.00  0.00     0.050 A 
ATOM     18  C   UNL     1     -15.930  20.735 -13.630  1.00  0.00     0.157 A 
BRANCH  16  19
ATOM     19  O   UNL     1     -16.194  21.057 -16.018  1.00  0.00    -0.504 OA
ATOM     20  H   UNL     1     -16.843  20.404 -16.441  1.00  0.00     0.293 HD
ENDBRANCH  16  19
BRANCH  18  21
ATOM     21  O   UNL     1     -17.249  21.124 -13.398  1.00  0.00    -0.504 OA
ATOM     22  H   UNL     1     -17.577  21.392 -12.478  1.00  0.00     0.293 HD
ENDBRANCH  18  21
ENDBRANCH   3  13
BRANCH   9  23
ATOM     23  O   UNL     1      -6.875  20.200 -15.546  1.00  0.00    -0.507 OA
ATOM     24  H   UNL     1      -7.223  19.725 -16.372  1.00  0.00     0.293 HD
ENDBRANCH   9  23
BRANCH   7  25
ATOM     25  O   UNL     1      -6.875  20.372 -10.716  1.00  0.00    -0.508 OA
ATOM     26  H   UNL     1      -7.149  19.856  -9.887  1.00  0.00     0.293 HD
ENDBRANCH   7  25
TORSDOF 6
ENDMDL
MODEL 2
REMARK VINA RESULT:     3.466      1.384      1.747
REMARK INTER + INTRA:           4.589
REMARK INTER:                   4.839
REMARK INTRA:                  -0.250
REMARK UNBOUND:                 0.415
REMARK SMILES Oc1cc(O)c2c(c1)O[C@@H](c1ccc(O)c(O)c1)[C@H](O)C2
REMARK SMILES IDX 21 1 19 2 10 3 9 4 7 5 8 6 2 7 3 8 4 9 6 10 20 11 11 13
REMARK SMILES IDX 18 14 12 15 16 16 13 17 14 18 17 19 15 21 5 23 1 25
REMARK H PARENT 20 12 17 20 15 22 5 24 1 26
REMARK Flexibility Score: inf
ROOT
ATOM      1  C   UNL     1      -9.496  19.859 -15.969  1.00  0.00     0.079 C 
ATOM      2  C   UNL     1     -11.021  19.742 -15.792  1.00  0.00     0.164 C 
ATOM      3  C   UNL     1     -11.347  18.828 -14.591  1.00  0.00     0.232 C 
ATOM      4  O   UNL     1     -10.703  19.320 -13.414  1.00  0.00    -0.482 OA
ATOM      5  C   UNL     1      -9.432  19.905 -13.441  1.00  0.00     0.131 A 
ATOM      6  C   UNL     1      -8.792  20.209 -12.236  1.00  0.00     0.093 A 
ATOM      7  C   UNL     1      -7.520  20.794 -12.239  1.00  0.00     0.122 A 
ATOM      8  C   UNL     1      -6.888  21.075 -13.453  1.00  0.00     0.092 A 
ATOM      9  C   UNL     1      -7.522  20.782 -14.669  1.00  0.00     0.126 A 
ATOM     10  C   UNL     1      -8.809  20.211 -14.669  1.00  0.00     0.039 A 
ENDROOT
BRANCH   2  11
ATOM     11  O   UNL     1     -11.621  19.269 -16.973  1.00  0.00    -0.389 OA
ATOM     12  H   UNL     1     -10.971  19.399 -17.714  1.00  0.00     0.211 HD
ENDBRANCH   2  11
BRANCH   3  13
ATOM     13  C   UNL     1     -12.837  18.745 -14.358  1.00  0.00    -0.001 A 
ATOM     14  C   UNL     1     -13.472  19.661 -13.502  1.00  0.00     0.057 A 
ATOM     15  C   UNL     1     -13.596  17.723 -14.953  1.00  0.00     0.012 A 
ATOM     16  C   UNL     1     -14.850  19.570 -13.258  1.00  0.00     0.157 A 
ATOM     17  C   UNL     1     -14.969  17.632 -14.712  1.00  0.00     0.050 A 
ATOM     18  C   UNL     1     -15.601  18.551 -13.868  1.00  0.00     0.157 A 
BRANCH  16  19
ATOM     19  O   UNL     1     -15.473  20.486 -12.412  1.00  0.00    -0.504 OA
ATOM     20  H   UNL     1     -16.367  20.902 -12.645  1.00  0.00     0.293 HD
ENDBRANCH  16  19
BRANCH  18  21
ATOM     21  O   UNL     1     -16.974  18.436 -13.648  1.00  0.00    -0.504 OA
ATOM     22  H   UNL     1     -17.477  17.575 -13.827  1.00  0.00     0.293 HD
ENDBRANCH  18  21
ENDBRANCH   3  13
BRANCH   9  23
ATOM     23  O   UNL     1      -6.875  21.052 -15.875  1.00  0.00    -0.507 OA
ATOM     24  H   UNL     1      -7.328  21.580 -16.614  1.00  0.00     0.293 HD
ENDBRANCH   9  23
BRANCH   7  25
ATOM     25  O   UNL     1      -6.875  21.097 -11.043  1.00  0.00    -0.508 OA
ATOM     26  H   UNL     1      -5.878  20.951 -10.926  1.00  0.00     0.293 HD
ENDBRANCH   7  25
TORSDOF 6
ENDMDL
MODEL 3
REMARK VINA RESULT:     3.986      2.044      3.287
REMARK INTER + INTRA:           5.217
REMARK INTER:                   5.515
REMARK INTRA:                  -0.298
REMARK UNBOUND:                 0.415
REMARK SMILES Oc1cc(O)c2c(c1)O[C@@H](c1ccc(O)c(O)c1)[C@H](O)C2
REMARK SMILES IDX 21 1 19 2 10 3 9 4 7 5 8 6 2 7 3 8 4 9 6 10 20 11 11 13
REMARK SMILES IDX 18 14 12 15 16 16 13 17 14 18 17 19 15 21 5 23 1 25
REMARK H PARENT 20 12 17 20 15 22 5 24 1 26
REMARK Flexibility Score: inf
ROOT
ATOM      1  C   UNL     1      -8.829  20.306 -13.511  1.00  0.00     0.079 C 
ATOM      2  C   UNL     1      -9.989  20.617 -14.476  1.00  0.00     0.164 C 
ATOM      3  C   UNL     1     -10.847  19.353 -14.698  1.00  0.00     0.232 C 
ATOM      4  O   UNL     1     -11.308  18.849 -13.443  1.00  0.00    -0.482 OA
ATOM      5  C   UNL     1     -10.526  18.890 -12.282  1.00  0.00     0.131 A 
ATOM      6  C   UNL     1     -10.970  18.229 -11.134  1.00  0.00     0.093 A 
ATOM      7  C   UNL     1     -10.204  18.257  -9.962  1.00  0.00     0.122 A 
ATOM      8  C   UNL     1      -8.990  18.950  -9.942  1.00  0.00     0.092 A 
ATOM      9  C   UNL     1      -8.537  19.623 -11.085  1.00  0.00     0.126 A 
ATOM     10  C   UNL     1      -9.314  19.613 -12.259  1.00  0.00     0.039 A 
ENDROOT
BRANCH   2  11
ATOM     11  O   UNL     1      -9.498  21.124 -15.692  1.00  0.00    -0.389 OA
ATOM     12  H   UNL     1     -10.243  21.598 -16.145  1.00  0.00     0.211 HD
ENDBRANCH   2  11
BRANCH   3  13
ATOM     13  C   UNL     1     -12.027  19.646 -15.592  1.00  0.00    -0.001 A 
ATOM     14  C   UNL     1     -13.211  20.176 -15.052  1.00  0.00     0.057 A 
ATOM     15  C   UNL     1     -11.975  19.346 -16.964  1.00  0.00     0.012 A 
ATOM     16  C   UNL     1     -14.321  20.422 -15.873  1.00  0.00     0.157 A 
ATOM     17  C   UNL     1     -13.080  19.591 -17.783  1.00  0.00     0.050 A 
ATOM     18  C   UNL     1     -14.253  20.130 -17.245  1.00  0.00     0.157 A 
BRANCH  16  19
ATOM     19  O   UNL     1     -15.490  20.954 -15.329  1.00  0.00    -0.504 OA
ATOM     20  H   UNL     1     -15.784  20.735 -14.384  1.00  0.00     0.293 HD
ENDBRANCH  16  19
BRANCH  18  21
ATOM     21  O   UNL     1     -15.339  20.365 -18.088  1.00  0.00    -0.504 OA
ATOM     22  H   UNL     1     -15.306  20.157 -19.079  1.00  0.00     0.293 HD
ENDBRANCH  18  21
ENDBRANCH   3  13
BRANCH   9  23
ATOM     23  O   UNL     1      -7.317  20.298 -11.059  1.00  0.00    -0.507 OA
ATOM     24  H   UNL     1      -6.970  20.802 -11.868  1.00  0.00     0.293 HD
ENDBRANCH   9  23
BRANCH   7  25
ATOM     25  O   UNL     1     -10.638  17.598  -8.815  1.00  0.00    -0.508 OA
ATOM     26  H   UNL     1     -10.645  16.586  -8.755  1.00  0.00     0.293 HD
ENDBRANCH   7  25
TORSDOF 6
ENDMDL
MODEL 4
REMARK VINA RESULT:     4.734      2.070      6.576
REMARK INTER + INTRA:           6.117
REMARK INTER:                   5.713
REMARK INTRA:                   0.404
REMARK UNBOUND:                 0.415
REMARK SMILES Oc1cc(O)c2c(c1)O[C@@H](c1ccc(O)c(O)c1)[C@H](O)C2
REMARK SMILES IDX 21 1 19 2 10 3 9 4 7 5 8 6 2 7 3 8 4 9 6 10 20 11 11 13
REMARK SMILES IDX 18 14 12 15 16 16 13 17 14 18 17 19 15 21 5 23 1 25
REMARK H PARENT 20 12 17 20 15 22 5 24 1 26
REMARK Flexibility Score: inf
ROOT
ATOM      1  C   UNL     1     -14.119  20.664 -15.201  1.00  0.00     0.079 C 
ATOM      2  C   UNL     1     -12.867  20.327 -16.032  1.00  0.00     0.164 C 
ATOM      3  C   UNL     1     -11.594  20.549 -15.186  1.00  0.00     0.232 C 
ATOM      4  O   UNL     1     -11.668  19.782 -13.983  1.00  0.00    -0.482 OA
ATOM      5  C   UNL     1     -12.867  19.585 -13.287  1.00  0.00     0.131 A 
ATOM      6  C   UNL     1     -12.838  18.971 -12.033  1.00  0.00     0.093 A 
ATOM      7  C   UNL     1     -14.024  18.764 -11.319  1.00  0.00     0.122 A 
ATOM      8  C   UNL     1     -15.243  19.176 -11.865  1.00  0.00     0.092 A 
ATOM      9  C   UNL     1     -15.287  19.788 -13.126  1.00  0.00     0.126 A 
ATOM     10  C   UNL     1     -14.097  19.979 -13.854  1.00  0.00     0.039 A 
ENDROOT
BRANCH   2  11
ATOM     11  O   UNL     1     -12.837  21.090 -17.213  1.00  0.00    -0.389 OA
ATOM     12  H   UNL     1     -13.045  20.482 -17.970  1.00  0.00     0.211 HD
ENDBRANCH   2  11
BRANCH   3  13
ATOM     13  C   UNL     1     -10.354  20.167 -15.958  1.00  0.00    -0.001 A 
ATOM     14  C   UNL     1      -9.194  19.760 -15.277  1.00  0.00     0.057 A 
ATOM     15  C   UNL     1     -10.328  20.262 -17.360  1.00  0.00     0.012 A 
ATOM     16  C   UNL     1      -8.030  19.433 -15.987  1.00  0.00     0.157 A 
ATOM     17  C   UNL     1      -9.170  19.936 -18.068  1.00  0.00     0.050 A 
ATOM     18  C   UNL     1      -8.019  19.520 -17.390  1.00  0.00     0.157 A 
BRANCH  16  19
ATOM     19  O   UNL     1      -6.885  19.025 -15.305  1.00  0.00    -0.504 OA
ATOM     20  H   UNL     1      -6.223  19.695 -14.929  1.00  0.00     0.293 HD
ENDBRANCH  16  19
BRANCH  18  21
ATOM     21  O   UNL     1      -6.878  19.200 -18.125  1.00  0.00    -0.504 OA
ATOM     22  H   UNL     1      -6.762  19.484 -19.090  1.00  0.00     0.293 HD
ENDBRANCH  18  21
ENDBRANCH   3  13
BRANCH   9  23
ATOM     23  O   UNL     1     -16.507  20.209 -13.654  1.00  0.00    -0.507 OA
ATOM     24  H   UNL     1     -17.128  19.567 -14.134  1.00  0.00     0.293 HD
ENDBRANCH   9  23
BRANCH   7  25
ATOM     25  O   UNL     1     -14.003  18.155 -10.067  1.00  0.00    -0.508 OA
ATOM     26  H   UNL     1     -13.576  18.606  -9.265  1.00  0.00     0.293 HD
ENDBRANCH   7  25
TORSDOF 6
ENDMDL
MODEL 5
REMARK VINA RESULT:     5.441      2.596      6.869
REMARK INTER + INTRA:           6.969
REMARK INTER:                   6.592
REMARK INTRA:                   0.377
REMARK UNBOUND:                 0.415
REMARK SMILES Oc1cc(O)c2c(c1)O[C@@H](c1ccc(O)c(O)c1)[C@H](O)C2
REMARK SMILES IDX 21 1 19 2 10 3 9 4 7 5 8 6 2 7 3 8 4 9 6 10 20 11 11 13
REMARK SMILES IDX 18 14 12 15 16 16 13 17 14 18 17 19 15 21 5 23 1 25
REMARK H PARENT 20 12 17 20 15 22 5 24 1 26
REMARK Flexibility Score: inf
ROOT
ATOM      1  C   UNL     1     -12.385  17.224 -14.249  1.00  0.00     0.079 C 
ATOM      2  C   UNL     1     -11.436  17.818 -13.191  1.00  0.00     0.164 C 
ATOM      3  C   UNL     1     -10.298  18.601 -13.880  1.00  0.00     0.232 C 
ATOM      4  O   UNL     1     -10.845  19.603 -14.740  1.00  0.00    -0.482 OA
ATOM      5  C   UNL     1     -12.016  19.402 -15.479  1.00  0.00     0.131 A 
ATOM      6  C   UNL     1     -12.401  20.356 -16.426  1.00  0.00     0.093 A 
ATOM      7  C   UNL     1     -13.568  20.176 -17.177  1.00  0.00     0.122 A 
ATOM      8  C   UNL     1     -14.352  19.035 -16.979  1.00  0.00     0.092 A 
ATOM      9  C   UNL     1     -13.981  18.074 -16.028  1.00  0.00     0.126 A 
ATOM     10  C   UNL     1     -12.818  18.263 -15.257  1.00  0.00     0.039 A 
ENDROOT
BRANCH   2  11
ATOM     11  O   UNL     1     -10.930  16.806 -12.356  1.00  0.00    -0.389 OA
ATOM     12  H   UNL     1     -10.371  16.205 -12.915  1.00  0.00     0.211 HD
ENDBRANCH   2  11
BRANCH   3  13
ATOM     13  C   UNL     1      -9.387  19.246 -12.863  1.00  0.00    -0.001 A 
ATOM     14  C   UNL     1      -9.450  18.863 -11.513  1.00  0.00     0.057 A 
ATOM     15  C   UNL     1      -8.503  20.270 -13.244  1.00  0.00     0.012 A 
ATOM     16  C   UNL     1      -8.628  19.479 -10.558  1.00  0.00     0.157 A 
ATOM     17  C   UNL     1      -7.683  20.885 -12.295  1.00  0.00     0.050 A 
ATOM     18  C   UNL     1      -7.739  20.494 -10.953  1.00  0.00     0.157 A 
BRANCH  16  19
ATOM     19  O   UNL     1      -8.693  19.089  -9.221  1.00  0.00    -0.504 OA
ATOM     20  H   UNL     1      -8.912  19.750  -8.485  1.00  0.00     0.293 HD
ENDBRANCH  16  19
BRANCH  18  21
ATOM     21  O   UNL     1      -6.907  21.125 -10.028  1.00  0.00    -0.504 OA
ATOM     22  H   UNL     1      -6.784  20.772  -9.087  1.00  0.00     0.293 HD
ENDBRANCH  18  21
ENDBRANCH   3  13
BRANCH   9  23
ATOM     23  O   UNL     1     -14.763  16.933 -15.849  1.00  0.00    -0.507 OA
ATOM     24  H   UNL     1     -15.407  16.846 -15.070  1.00  0.00     0.293 HD
ENDBRANCH   9  23
BRANCH   7  25
ATOM     25  O   UNL     1     -13.956  21.120 -18.124  1.00  0.00    -0.508 OA
ATOM     26  H   UNL     1     -13.350  21.891 -18.383  1.00  0.00     0.293 HD
ENDBRANCH   7  25
TORSDOF 6
ENDMDL
