MODEL 1
REMARK VINA RESULT:    -5.137      0.000      0.000
REMARK INTER + INTRA:          -5.797
REMARK INTER:                  -5.738
REMARK INTRA:                  -0.059
REMARK UNBOUND:                -0.059
REMARK SMILES COc1cc2ccc(=O)oc2c(O)c1O
REMARK SMILES IDX 3 1 14 2 12 3 11 4 5 5 4 6 6 7 7 8 8 9 9 10 10 11 2 12 1 13
REMARK SMILES IDX 15 14 13 16
REMARK H PARENT 15 15 13 17
REMARK Flexibility Score: inf
ROOT
ATOM      1  C   UNL     1      -7.641 -13.060  21.927  1.00  0.00     0.165 A 
ATOM      2  C   UNL     1      -8.639 -12.574  22.787  1.00  0.00     0.204 A 
ATOM      3  C   UNL     1      -9.998 -12.788  22.494  1.00  0.00     0.205 A 
ATOM      4  C   UNL     1     -10.360 -13.494  21.334  1.00  0.00     0.184 A 
ATOM      5  C   UNL     1      -9.359 -13.983  20.469  1.00  0.00     0.025 A 
ATOM      6  C   UNL     1      -8.006 -13.766  20.766  1.00  0.00     0.062 A 
ATOM      7  C   UNL     1      -9.748 -14.681  19.322  1.00  0.00     0.020 A 
ATOM      8  C   UNL     1     -11.104 -14.875  19.065  1.00  0.00     0.094 A 
ATOM      9  C   UNL     1     -12.043 -14.362  19.965  1.00  0.00     0.336 A 
ATOM     10  O   UNL     1     -13.273 -14.525  19.752  1.00  0.00    -0.246 OA
ATOM     11  O   UNL     1     -11.645 -13.701  21.049  1.00  0.00    -0.419 OA
ENDROOT
BRANCH   1  12
ATOM     12  O   UNL     1      -6.299 -12.820  22.262  1.00  0.00    -0.493 OA
ATOM     13  C   UNL     1      -5.270 -13.804  22.226  1.00  0.00     0.278 C 
ENDBRANCH   1  12
BRANCH   2  14
ATOM     14  O   UNL     1      -8.258 -11.876  23.934  1.00  0.00    -0.502 OA
ATOM     15  H   UNL     1      -8.658 -12.074  24.844  1.00  0.00     0.293 HD
ENDBRANCH   2  14
BRANCH   3  16
ATOM     16  O   UNL     1     -10.975 -12.297  23.362  1.00  0.00    -0.502 OA
ATOM     17  H   UNL     1     -11.840 -12.794  23.538  1.00  0.00     0.293 HD
ENDBRANCH   3  16
TORSDOF 3
ENDMDL
MODEL 2
REMARK VINA RESULT:    -5.122      2.575      3.107
REMARK INTER + INTRA:          -5.779
REMARK INTER:                  -5.712
REMARK INTRA:                  -0.067
REMARK UNBOUND:                -0.059
REMARK SMILES COc1cc2ccc(=O)oc2c(O)c1O
REMARK SMILES IDX 3 1 14 2 12 3 11 4 5 5 4 6 6 7 7 8 8 9 9 10 10 11 2 12 1 13
REMARK SMILES IDX 15 14 13 16
REMARK H PARENT 15 15 13 17
REMARK Flexibility Score: inf
ROOT
ATOM      1  C   UNL     1      -9.307 -15.856  22.159  1.00  0.00     0.165 A 
ATOM      2  C   UNL     1      -9.888 -14.911  23.019  1.00  0.00     0.204 A 
ATOM      3  C   UNL     1     -10.294 -13.656  22.530  1.00  0.00     0.205 A 
ATOM      4  C   UNL     1     -10.117 -13.345  21.171  1.00  0.00     0.184 A 
ATOM      5  C   UNL     1      -9.534 -14.294  20.305  1.00  0.00     0.025 A 
ATOM      6  C   UNL     1      -9.131 -15.542  20.798  1.00  0.00     0.062 A 
ATOM      7  C   UNL     1      -9.369 -13.958  18.958  1.00  0.00     0.020 A 
ATOM      8  C   UNL     1      -9.784 -12.705  18.509  1.00  0.00     0.094 A 
ATOM      9  C   UNL     1     -10.354 -11.814  19.423  1.00  0.00     0.336 A 
ATOM     10  O   UNL     1     -10.735 -10.676  19.039  1.00  0.00    -0.246 OA
ATOM     11  O   UNL     1     -10.498 -12.159  20.700  1.00  0.00    -0.419 OA
ENDROOT
BRANCH   1  12
ATOM     12  O   UNL     1      -8.919 -17.095  22.695  1.00  0.00    -0.493 OA
ATOM     13  C   UNL     1      -9.501 -18.345  22.340  1.00  0.00     0.278 C 
ENDBRANCH   1  12
BRANCH   2  14
ATOM     14  O   UNL     1     -10.055 -15.239  24.366  1.00  0.00    -0.502 OA
ATOM     15  H   UNL     1     -10.623 -16.024  24.664  1.00  0.00     0.293 HD
ENDBRANCH   2  14
BRANCH   3  16
ATOM     16  O   UNL     1     -10.869 -12.731  23.402  1.00  0.00    -0.502 OA
ATOM     17  H   UNL     1     -11.431 -13.014  24.196  1.00  0.00     0.293 HD
ENDBRANCH   3  16
TORSDOF 3
ENDMDL
MODEL 3
REMARK VINA RESULT:    -5.113      7.078      8.772
REMARK INTER + INTRA:          -5.769
REMARK INTER:                  -5.701
REMARK INTRA:                  -0.068
REMARK UNBOUND:                -0.059
REMARK SMILES COc1cc2ccc(=O)oc2c(O)c1O
REMARK SMILES IDX 3 1 14 2 12 3 11 4 5 5 4 6 6 7 7 8 8 9 9 10 10 11 2 12 1 13
REMARK SMILES IDX 15 14 13 16
REMARK H PARENT 15 15 13 17
REMARK Flexibility Score: inf
ROOT
ATOM      1  C   UNL     1     -15.141 -19.489  20.832  1.00  0.00     0.165 A 
ATOM      2  C   UNL     1     -14.632 -18.195  20.640  1.00  0.00     0.204 A 
ATOM      3  C   UNL     1     -15.246 -17.315  19.729  1.00  0.00     0.205 A 
ATOM      4  C   UNL     1     -16.377 -17.734  19.008  1.00  0.00     0.184 A 
ATOM      5  C   UNL     1     -16.890 -19.034  19.201  1.00  0.00     0.025 A 
ATOM      6  C   UNL     1     -16.274 -19.906  20.108  1.00  0.00     0.062 A 
ATOM      7  C   UNL     1     -18.016 -19.425  18.469  1.00  0.00     0.020 A 
ATOM      8  C   UNL     1     -18.598 -18.525  17.577  1.00  0.00     0.094 A 
ATOM      9  C   UNL     1     -18.036 -17.253  17.436  1.00  0.00     0.336 A 
ATOM     10  O   UNL     1     -18.547 -16.425  16.635  1.00  0.00    -0.246 OA
ATOM     11  O   UNL     1     -16.965 -16.908  18.144  1.00  0.00    -0.419 OA
ENDROOT
BRANCH   1  12
ATOM     12  O   UNL     1     -14.492 -20.329  21.751  1.00  0.00    -0.493 OA
ATOM     13  C   UNL     1     -14.944 -20.573  23.080  1.00  0.00     0.278 C 
ENDBRANCH   1  12
BRANCH   2  14
ATOM     14  O   UNL     1     -13.508 -17.798  21.366  1.00  0.00    -0.502 OA
ATOM     15  H   UNL     1     -12.654 -18.344  21.380  1.00  0.00     0.293 HD
ENDBRANCH   2  14
BRANCH   3  16
ATOM     16  O   UNL     1     -14.724 -16.033  19.552  1.00  0.00    -0.502 OA
ATOM     17  H   UNL     1     -13.737 -15.869  19.394  1.00  0.00     0.293 HD
ENDBRANCH   3  16
TORSDOF 3
ENDMDL
MODEL 4
REMARK VINA RESULT:    -5.089      1.898      2.335
REMARK INTER + INTRA:          -5.743
REMARK INTER:                  -5.674
REMARK INTRA:                  -0.069
REMARK UNBOUND:                -0.059
REMARK SMILES COc1cc2ccc(=O)oc2c(O)c1O
REMARK SMILES IDX 3 1 14 2 12 3 11 4 5 5 4 6 6 7 7 8 8 9 9 10 10 11 2 12 1 13
REMARK SMILES IDX 15 14 13 16
REMARK H PARENT 15 15 13 17
REMARK Flexibility Score: inf
ROOT
ATOM      1  C   UNL     1      -7.380 -11.622  23.019  1.00  0.00     0.165 A 
ATOM      2  C   UNL     1      -8.736 -11.524  23.370  1.00  0.00     0.204 A 
ATOM      3  C   UNL     1      -9.656 -12.499  22.943  1.00  0.00     0.205 A 
ATOM      4  C   UNL     1      -9.215 -13.580  22.161  1.00  0.00     0.184 A 
ATOM      5  C   UNL     1      -7.853 -13.681  21.808  1.00  0.00     0.025 A 
ATOM      6  C   UNL     1      -6.941 -12.706  22.235  1.00  0.00     0.062 A 
ATOM      7  C   UNL     1      -7.442 -14.767  21.028  1.00  0.00     0.020 A 
ATOM      8  C   UNL     1      -8.382 -15.715  20.625  1.00  0.00     0.094 A 
ATOM      9  C   UNL     1      -9.716 -15.551  21.012  1.00  0.00     0.336 A 
ATOM     10  O   UNL     1     -10.581 -16.396  20.658  1.00  0.00    -0.246 OA
ATOM     11  O   UNL     1     -10.079 -14.508  21.753  1.00  0.00    -0.419 OA
ENDROOT
BRANCH   1  12
ATOM     12  O   UNL     1      -6.502 -10.623  23.468  1.00  0.00    -0.493 OA
ATOM     13  C   UNL     1      -5.621 -10.763  24.578  1.00  0.00     0.278 C 
ENDBRANCH   1  12
BRANCH   2  14
ATOM     14  O   UNL     1      -9.154 -10.442  24.147  1.00  0.00    -0.502 OA
ATOM     15  H   UNL     1      -8.824  -9.498  23.981  1.00  0.00     0.293 HD
ENDBRANCH   2  14
BRANCH   3  16
ATOM     16  O   UNL     1     -10.999 -12.382  23.303  1.00  0.00    -0.502 OA
ATOM     17  H   UNL     1     -11.514 -13.147  23.724  1.00  0.00     0.293 HD
ENDBRANCH   3  16
TORSDOF 3
ENDMDL
MODEL 5
REMARK VINA RESULT:    -4.933      7.727     10.036
REMARK INTER + INTRA:          -5.569
REMARK INTER:                  -5.500
REMARK INTRA:                  -0.069
REMARK UNBOUND:                -0.059
REMARK SMILES COc1cc2ccc(=O)oc2c(O)c1O
REMARK SMILES IDX 3 1 14 2 12 3 11 4 5 5 4 6 6 7 7 8 8 9 9 10 10 11 2 12 1 13
REMARK SMILES IDX 15 14 13 16
REMARK H PARENT 15 15 13 17
REMARK Flexibility Score: inf
ROOT
ATOM      1  C   UNL     1     -17.751 -17.930  16.850  1.00  0.00     0.165 A 
ATOM      2  C   UNL     1     -16.817 -16.884  16.930  1.00  0.00     0.204 A 
ATOM      3  C   UNL     1     -15.955 -16.781  18.037  1.00  0.00     0.205 A 
ATOM      4  C   UNL     1     -16.027 -17.732  19.069  1.00  0.00     0.184 A 
ATOM      5  C   UNL     1     -16.965 -18.784  18.990  1.00  0.00     0.025 A 
ATOM      6  C   UNL     1     -17.822 -18.880  17.886  1.00  0.00     0.062 A 
ATOM      7  C   UNL     1     -17.015 -19.715  20.032  1.00  0.00     0.020 A 
ATOM      8  C   UNL     1     -16.143 -19.582  21.112  1.00  0.00     0.094 A 
ATOM      9  C   UNL     1     -15.240 -18.515  21.125  1.00  0.00     0.336 A 
ATOM     10  O   UNL     1     -14.444 -18.376  22.091  1.00  0.00    -0.246 OA
ATOM     11  O   UNL     1     -15.214 -17.643  20.121  1.00  0.00    -0.419 OA
ENDROOT
BRANCH   1  12
ATOM     12  O   UNL     1     -18.590 -17.988  15.726  1.00  0.00    -0.493 OA
ATOM     13  C   UNL     1     -18.518 -18.990  14.717  1.00  0.00     0.278 C 
ENDBRANCH   1  12
BRANCH   2  14
ATOM     14  O   UNL     1     -16.762 -15.950  15.895  1.00  0.00    -0.502 OA
ATOM     15  H   UNL     1     -15.937 -15.832  15.318  1.00  0.00     0.293 HD
ENDBRANCH   2  14
BRANCH   3  16
ATOM     16  O   UNL     1     -15.034 -15.735  18.097  1.00  0.00    -0.502 OA
ATOM     17  H   UNL     1     -14.038 -15.885  17.992  1.00  0.00     0.293 HD
ENDBRANCH   3  16
TORSDOF 3
ENDMDL
MODEL 6
REMARK VINA RESULT:    -4.891      7.519      9.859
REMARK INTER + INTRA:          -5.522
REMARK INTER:                  -5.461
REMARK INTRA:                  -0.062
REMARK UNBOUND:                -0.059
REMARK SMILES COc1cc2ccc(=O)oc2c(O)c1O
REMARK SMILES IDX 3 1 14 2 12 3 11 4 5 5 4 6 6 7 7 8 8 9 9 10 10 11 2 12 1 13
REMARK SMILES IDX 15 14 13 16
REMARK H PARENT 15 15 13 17
REMARK Flexibility Score: inf
ROOT
ATOM      1  C   UNL     1      -8.203  -9.414  29.885  1.00  0.00     0.165 A 
ATOM      2  C   UNL     1      -8.418  -9.870  28.574  1.00  0.00     0.204 A 
ATOM      3  C   UNL     1      -7.534 -10.793  27.986  1.00  0.00     0.205 A 
ATOM      4  C   UNL     1      -6.429 -11.264  28.716  1.00  0.00     0.184 A 
ATOM      5  C   UNL     1      -6.212 -10.807  30.033  1.00  0.00     0.025 A 
ATOM      6  C   UNL     1      -7.095  -9.887  30.613  1.00  0.00     0.062 A 
ATOM      7  C   UNL     1      -5.104 -11.292  30.735  1.00  0.00     0.020 A 
ATOM      8  C   UNL     1      -4.250 -12.207  30.121  1.00  0.00     0.094 A 
ATOM      9  C   UNL     1      -4.526 -12.615  28.813  1.00  0.00     0.336 A 
ATOM     10  O   UNL     1      -3.768 -13.441  28.239  1.00  0.00    -0.246 OA
ATOM     11  O   UNL     1      -5.587 -12.138  28.168  1.00  0.00    -0.419 OA
ENDROOT
BRANCH   1  12
ATOM     12  O   UNL     1      -9.113  -8.492  30.427  1.00  0.00    -0.493 OA
ATOM     13  C   UNL     1     -10.210  -8.839  31.265  1.00  0.00     0.278 C 
ENDBRANCH   1  12
BRANCH   2  14
ATOM     14  O   UNL     1      -9.521  -9.390  27.867  1.00  0.00    -0.502 OA
ATOM     15  H   UNL     1     -10.326  -8.984  28.331  1.00  0.00     0.293 HD
ENDBRANCH   2  14
BRANCH   3  16
ATOM     16  O   UNL     1      -7.766 -11.233  26.683  1.00  0.00    -0.502 OA
ATOM     17  H   UNL     1      -8.552 -10.907  26.134  1.00  0.00     0.293 HD
ENDBRANCH   3  16
TORSDOF 3
ENDMDL
MODEL 7
REMARK VINA RESULT:    -4.867      6.772      9.757
REMARK INTER + INTRA:          -5.495
REMARK INTER:                  -5.444
REMARK INTRA:                  -0.051
REMARK UNBOUND:                -0.059
REMARK SMILES COc1cc2ccc(=O)oc2c(O)c1O
REMARK SMILES IDX 3 1 14 2 12 3 11 4 5 5 4 6 6 7 7 8 8 9 9 10 10 11 2 12 1 13
REMARK SMILES IDX 15 14 13 16
REMARK H PARENT 15 15 13 17
REMARK Flexibility Score: inf
ROOT
ATOM      1  C   UNL     1     -17.650 -18.809  18.609  1.00  0.00     0.165 A 
ATOM      2  C   UNL     1     -16.960 -17.629  18.286  1.00  0.00     0.204 A 
ATOM      3  C   UNL     1     -15.784 -17.280  18.975  1.00  0.00     0.205 A 
ATOM      4  C   UNL     1     -15.296 -18.118  19.992  1.00  0.00     0.184 A 
ATOM      5  C   UNL     1     -15.987 -19.303  20.317  1.00  0.00     0.025 A 
ATOM      6  C   UNL     1     -17.159 -19.646  19.628  1.00  0.00     0.062 A 
ATOM      7  C   UNL     1     -15.479 -20.118  21.334  1.00  0.00     0.020 A 
ATOM      8  C   UNL     1     -14.310 -19.740  21.994  1.00  0.00     0.094 A 
ATOM      9  C   UNL     1     -13.677 -18.551  21.620  1.00  0.00     0.336 A 
ATOM     10  O   UNL     1     -12.620 -18.191  22.203  1.00  0.00    -0.246 OA
ATOM     11  O   UNL     1     -14.183 -17.795  20.649  1.00  0.00    -0.419 OA
ENDROOT
BRANCH   1  12
ATOM     12  O   UNL     1     -18.820 -19.113  17.894  1.00  0.00    -0.493 OA
ATOM     13  C   UNL     1     -19.764 -20.108  18.277  1.00  0.00     0.278 C 
ENDBRANCH   1  12
BRANCH   2  14
ATOM     14  O   UNL     1     -17.462 -16.811  17.273  1.00  0.00    -0.502 OA
ATOM     15  H   UNL     1     -16.936 -16.611  16.430  1.00  0.00     0.293 HD
ENDBRANCH   2  14
BRANCH   3  16
ATOM     16  O   UNL     1     -15.114 -16.103  18.639  1.00  0.00    -0.502 OA
ATOM     17  H   UNL     1     -14.803 -15.910  17.694  1.00  0.00     0.293 HD
ENDBRANCH   3  16
TORSDOF 3
ENDMDL
MODEL 8
REMARK VINA RESULT:    -4.846      1.819      2.979
REMARK INTER + INTRA:          -5.472
REMARK INTER:                  -5.410
REMARK INTRA:                  -0.062
REMARK UNBOUND:                -0.059
REMARK SMILES COc1cc2ccc(=O)oc2c(O)c1O
REMARK SMILES IDX 3 1 14 2 12 3 11 4 5 5 4 6 6 7 7 8 8 9 9 10 10 11 2 12 1 13
REMARK SMILES IDX 15 14 13 16
REMARK H PARENT 15 15 13 17
REMARK Flexibility Score: inf
ROOT
ATOM      1  C   UNL     1      -7.146 -12.153  22.825  1.00  0.00     0.165 A 
ATOM      2  C   UNL     1      -6.487 -13.239  22.225  1.00  0.00     0.204 A 
ATOM      3  C   UNL     1      -7.204 -14.166  21.447  1.00  0.00     0.205 A 
ATOM      4  C   UNL     1      -8.588 -14.003  21.266  1.00  0.00     0.184 A 
ATOM      5  C   UNL     1      -9.251 -12.913  21.867  1.00  0.00     0.025 A 
ATOM      6  C   UNL     1      -8.532 -11.993  22.642  1.00  0.00     0.062 A 
ATOM      7  C   UNL     1     -10.629 -12.776  21.671  1.00  0.00     0.020 A 
ATOM      8  C   UNL     1     -11.306 -13.714  20.892  1.00  0.00     0.094 A 
ATOM      9  C   UNL     1     -10.585 -14.770  20.326  1.00  0.00     0.336 A 
ATOM     10  O   UNL     1     -11.177 -15.628  19.619  1.00  0.00    -0.246 OA
ATOM     11  O   UNL     1      -9.275 -14.875  20.530  1.00  0.00    -0.419 OA
ENDROOT
BRANCH   1  12
ATOM     12  O   UNL     1      -6.387 -11.256  23.594  1.00  0.00    -0.493 OA
ATOM     13  C   UNL     1      -6.367  -9.845  23.401  1.00  0.00     0.278 C 
ENDBRANCH   1  12
BRANCH   2  14
ATOM     14  O   UNL     1      -5.112 -13.382  22.417  1.00  0.00    -0.502 OA
ATOM     15  H   UNL     1      -4.588 -12.778  23.041  1.00  0.00     0.293 HD
ENDBRANCH   2  14
BRANCH   3  16
ATOM     16  O   UNL     1      -6.531 -15.237  20.859  1.00  0.00    -0.502 OA
ATOM     17  H   UNL     1      -5.628 -15.129  20.413  1.00  0.00     0.293 HD
ENDBRANCH   3  16
TORSDOF 3
ENDMDL
MODEL 9
REMARK VINA RESULT:    -4.727      2.235      4.856
REMARK INTER + INTRA:          -5.339
REMARK INTER:                  -5.277
REMARK INTRA:                  -0.062
REMARK UNBOUND:                -0.059
REMARK SMILES COc1cc2ccc(=O)oc2c(O)c1O
REMARK SMILES IDX 3 1 14 2 12 3 11 4 5 5 4 6 6 7 7 8 8 9 9 10 10 11 2 12 1 13
REMARK SMILES IDX 15 14 13 16
REMARK H PARENT 15 15 13 17
REMARK Flexibility Score: inf
ROOT
ATOM      1  C   UNL     1     -10.388 -13.774  20.442  1.00  0.00     0.165 A 
ATOM      2  C   UNL     1      -9.510 -14.148  21.472  1.00  0.00     0.204 A 
ATOM      3  C   UNL     1      -8.120 -14.168  21.253  1.00  0.00     0.205 A 
ATOM      4  C   UNL     1      -7.607 -13.810  19.995  1.00  0.00     0.184 A 
ATOM      5  C   UNL     1      -8.487 -13.434  18.958  1.00  0.00     0.025 A 
ATOM      6  C   UNL     1      -9.870 -13.417  19.182  1.00  0.00     0.062 A 
ATOM      7  C   UNL     1      -7.948 -13.084  17.716  1.00  0.00     0.020 A 
ATOM      8  C   UNL     1      -6.566 -13.114  17.537  1.00  0.00     0.094 A 
ATOM      9  C   UNL     1      -5.753 -13.497  18.608  1.00  0.00     0.336 A 
ATOM     10  O   UNL     1      -4.502 -13.531  18.467  1.00  0.00    -0.246 OA
ATOM     11  O   UNL     1      -6.293 -13.825  19.778  1.00  0.00    -0.419 OA
ENDROOT
BRANCH   1  12
ATOM     12  O   UNL     1     -11.766 -13.771  20.710  1.00  0.00    -0.493 OA
ATOM     13  C   UNL     1     -12.740 -14.461  19.933  1.00  0.00     0.278 C 
ENDBRANCH   1  12
BRANCH   2  14
ATOM     14  O   UNL     1     -10.041 -14.499  22.714  1.00  0.00    -0.502 OA
ATOM     15  H   UNL     1     -10.122 -13.834  23.474  1.00  0.00     0.293 HD
ENDBRANCH   2  14
BRANCH   3  16
ATOM     16  O   UNL     1      -7.266 -14.542  22.290  1.00  0.00    -0.502 OA
ATOM     17  H   UNL     1      -6.487 -13.963  22.584  1.00  0.00     0.293 HD
ENDBRANCH   3  16
TORSDOF 3
ENDMDL
