MODEL 1
REMARK VINA RESULT:     0.382      0.000      0.000
REMARK INTER + INTRA:          -0.396
REMARK INTER:                   1.007
REMARK INTRA:                  -1.403
REMARK UNBOUND:                -1.403
REMARK SMILES CCCCCCCCCCCCCCCCCCCCCCCCCCCCCC(=O)[O-]
REMARK SMILES IDX 16 1 17 2 18 3 19 4 20 5 21 6 22 7 23 8 24 9 25 10 26 11
REMARK SMILES IDX 27 12 28 13 29 14 30 15 31 16 32 17 15 18 14 19 13 20 12 21
REMARK SMILES IDX 11 22 10 23 9 24 8 25 7 26 6 27 5 28 4 29 3 30 2 31 1 32
REMARK H PARENT
REMARK Flexibility Score: inf
ROOT
ATOM      1  C   UNL     1      -5.950  36.447  23.490  1.00  0.00     0.000 C 
ENDROOT
BRANCH   1   2
ATOM      2  C   UNL     1      -6.110  36.666  25.001  1.00  0.00     0.000 C 
BRANCH   2   3
ATOM      3  C   UNL     1      -4.828  37.254  25.611  1.00  0.00     0.000 C 
BRANCH   3   4
ATOM      4  C   UNL     1      -4.796  38.792  25.565  1.00  0.00     0.000 C 
BRANCH   4   5
ATOM      5  C   UNL     1      -4.958  39.405  24.159  1.00  0.00     0.000 C 
BRANCH   5   6
ATOM      6  C   UNL     1      -5.290  40.910  24.138  1.00  0.00     0.000 C 
BRANCH   6   7
ATOM      7  C   UNL     1      -5.468  41.514  22.732  1.00  0.00     0.000 C 
BRANCH   7   8
ATOM      8  C   UNL     1      -6.123  40.577  21.697  1.00  0.00     0.000 C 
BRANCH   8   9
ATOM      9  C   UNL     1      -5.898  40.972  20.226  1.00  0.00     0.000 C 
BRANCH   9  10
ATOM     10  C   UNL     1      -5.683  39.755  19.310  1.00  0.00     0.000 C 
BRANCH  10  11
ATOM     11  C   UNL     1      -5.311  38.482  20.099  1.00  0.00     0.000 C 
BRANCH  11  12
ATOM     12  C   UNL     1      -3.855  38.466  20.603  1.00  0.00     0.000 C 
BRANCH  12  13
ATOM     13  C   UNL     1      -2.882  37.622  19.758  1.00  0.00     0.006 C 
BRANCH  13  14
ATOM     14  C   UNL     1      -2.062  38.431  18.738  1.00  0.00     0.053 C 
BRANCH  14  15
ATOM     15  C   UNL     1      -0.598  38.411  19.053  1.00  0.00     0.041 C 
ATOM     16  O   UNL     1       0.204  39.118  18.388  1.00  0.00    -0.550 OA
ATOM     17  O   UNL     1      -0.113  37.580  20.056  1.00  0.00    -0.550 OA
ENDBRANCH  14  15
ENDBRANCH  13  14
ENDBRANCH  12  13
ENDBRANCH  11  12
ENDBRANCH  10  11
ENDBRANCH   9  10
ENDBRANCH   8   9
ENDBRANCH   7   8
ENDBRANCH   6   7
ENDBRANCH   5   6
ENDBRANCH   4   5
ENDBRANCH   3   4
ENDBRANCH   2   3
ENDBRANCH   1   2
BRANCH   1  18
ATOM     18  C   UNL     1      -5.270  35.107  23.146  1.00  0.00     0.000 C 
BRANCH  18  19
ATOM     19  C   UNL     1      -3.959  35.230  22.348  1.00  0.00     0.000 C 
BRANCH  19  20
ATOM     20  C   UNL     1      -4.148  34.962  20.845  1.00  0.00     0.000 C 
BRANCH  20  21
ATOM     21  C   UNL     1      -5.552  35.344  20.338  1.00  0.00     0.000 C 
BRANCH  21  22
ATOM     22  C   UNL     1      -5.741  35.258  18.813  1.00  0.00     0.000 C 
BRANCH  22  23
ATOM     23  C   UNL     1      -4.410  35.145  18.049  1.00  0.00     0.000 C 
BRANCH  23  24
ATOM     24  C   UNL     1      -4.078  36.412  17.240  1.00  0.00    -0.000 C 
BRANCH  24  25
ATOM     25  C   UNL     1      -2.819  36.308  16.359  1.00  0.00    -0.000 C 
BRANCH  25  26
ATOM     26  C   UNL     1      -3.089  36.230  14.843  1.00  0.00    -0.000 C 
BRANCH  26  27
ATOM     27  C   UNL     1      -3.023  37.580  14.102  1.00  0.00    -0.000 C 
BRANCH  27  28
ATOM     28  C   UNL     1      -3.715  38.756  14.822  1.00  0.00    -0.000 C 
BRANCH  28  29
ATOM     29  C   UNL     1      -4.265  39.853  13.892  1.00  0.00    -0.000 C 
BRANCH  29  30
ATOM     30  C   UNL     1      -5.330  40.731  14.571  1.00  0.00    -0.000 C 
BRANCH  30  31
ATOM     31  C   UNL     1      -5.155  42.223  14.251  1.00  0.00    -0.003 C 
ATOM     32  C   UNL     1      -5.996  43.123  15.156  1.00  0.00     0.004 C 
ENDBRANCH  30  31
ENDBRANCH  29  30
ENDBRANCH  28  29
ENDBRANCH  27  28
ENDBRANCH  26  27
ENDBRANCH  25  26
ENDBRANCH  24  25
ENDBRANCH  23  24
ENDBRANCH  22  23
ENDBRANCH  21  22
ENDBRANCH  20  21
ENDBRANCH  19  20
ENDBRANCH  18  19
ENDBRANCH   1  18
TORSDOF 28
ENDMDL
