MODEL 1
REMARK VINA RESULT:    -3.942      0.000      0.000
REMARK INTER + INTRA:          -6.173
REMARK INTER:                  -5.556
REMARK INTRA:                  -0.617
REMARK UNBOUND:                -0.617
REMARK SMILES CCCCCCCCC(=O)[O-]
REMARK SMILES IDX 6 1 7 2 8 3 9 4 10 5 11 6 5 7 4 8 3 9 2 10 1 11
REMARK H PARENT
REMARK Flexibility Score: inf
ROOT
ATOM      1  C   UNL     1      18.024  11.288  -6.895  1.00  0.00     0.000 C 
ENDROOT
BRANCH   1   2
ATOM      2  C   UNL     1      17.458  12.067  -5.695  1.00  0.00     0.006 C 
BRANCH   2   3
ATOM      3  C   UNL     1      18.557  12.771  -4.888  1.00  0.00     0.053 C 
BRANCH   3   4
ATOM      4  C   UNL     1      18.140  14.144  -4.458  1.00  0.00     0.041 C 
ATOM      5  O   UNL     1      17.067  14.644  -4.887  1.00  0.00    -0.550 OA
ATOM      6  O   UNL     1      18.955  14.886  -3.611  1.00  0.00    -0.550 OA
ENDBRANCH   3   4
ENDBRANCH   2   3
ENDBRANCH   1   2
BRANCH   1   7
ATOM      7  C   UNL     1      18.341  12.210  -8.093  1.00  0.00     0.000 C 
BRANCH   7   8
ATOM      8  C   UNL     1      17.330  13.358  -8.277  1.00  0.00    -0.000 C 
BRANCH   8   9
ATOM      9  C   UNL     1      16.419  13.223  -9.509  1.00  0.00    -0.000 C 
BRANCH   9  10
ATOM     10  C   UNL     1      14.984  12.814  -9.144  1.00  0.00    -0.003 C 
ATOM     11  C   UNL     1      14.642  13.228  -7.717  1.00  0.00     0.004 C 
ENDBRANCH   9  10
ENDBRANCH   8   9
ENDBRANCH   7   8
ENDBRANCH   1   7
TORSDOF 7
ENDMDL
MODEL 2
REMARK VINA RESULT:    -3.928      2.540      4.543
REMARK INTER + INTRA:          -6.153
REMARK INTER:                  -5.494
REMARK INTRA:                  -0.658
REMARK UNBOUND:                -0.617
REMARK SMILES CCCCCCCCC(=O)[O-]
REMARK SMILES IDX 6 1 7 2 8 3 9 4 10 5 11 6 5 7 4 8 3 9 2 10 1 11
REMARK H PARENT
REMARK Flexibility Score: inf
ROOT
ATOM      1  C   UNL     1      17.148  11.987  -6.500  1.00  0.00     0.000 C 
ENDROOT
BRANCH   1   2
ATOM      2  C   UNL     1      17.433  12.540  -7.907  1.00  0.00     0.006 C 
BRANCH   2   3
ATOM      3  C   UNL     1      16.439  13.637  -8.312  1.00  0.00     0.053 C 
BRANCH   3   4
ATOM      4  C   UNL     1      15.097  13.070  -8.663  1.00  0.00     0.041 C 
ATOM      5  O   UNL     1      14.145  13.138  -7.842  1.00  0.00    -0.550 OA
ATOM      6  O   UNL     1      14.908  12.435  -9.885  1.00  0.00    -0.550 OA
ENDBRANCH   3   4
ENDBRANCH   2   3
ENDBRANCH   1   2
BRANCH   1   7
ATOM      7  C   UNL     1      18.443  11.753  -5.691  1.00  0.00     0.000 C 
BRANCH   7   8
ATOM      8  C   UNL     1      19.033  13.039  -5.080  1.00  0.00    -0.000 C 
BRANCH   8   9
ATOM      9  C   UNL     1      17.994  14.013  -4.500  1.00  0.00    -0.000 C 
BRANCH   9  10
ATOM     10  C   UNL     1      17.917  15.334  -5.282  1.00  0.00    -0.003 C 
ATOM     11  C   UNL     1      16.510  15.921  -5.229  1.00  0.00     0.004 C 
ENDBRANCH   9  10
ENDBRANCH   8   9
ENDBRANCH   7   8
ENDBRANCH   1   7
TORSDOF 7
ENDMDL
MODEL 3
REMARK VINA RESULT:    -3.923      1.486      2.377
REMARK INTER + INTRA:          -6.145
REMARK INTER:                  -5.541
REMARK INTRA:                  -0.604
REMARK UNBOUND:                -0.617
REMARK SMILES CCCCCCCCC(=O)[O-]
REMARK SMILES IDX 6 1 7 2 8 3 9 4 10 5 11 6 5 7 4 8 3 9 2 10 1 11
REMARK H PARENT
REMARK Flexibility Score: inf
ROOT
ATOM      1  C   UNL     1      19.550  12.786  -5.074  1.00  0.00     0.000 C 
ENDROOT
BRANCH   1   2
ATOM      2  C   UNL     1      18.607  13.578  -4.151  1.00  0.00     0.006 C 
BRANCH   2   3
ATOM      3  C   UNL     1      18.657  15.087  -4.426  1.00  0.00     0.053 C 
BRANCH   3   4
ATOM      4  C   UNL     1      17.715  15.484  -5.521  1.00  0.00     0.041 C 
ATOM      5  O   UNL     1      18.108  15.512  -6.717  1.00  0.00    -0.550 OA
ATOM      6  O   UNL     1      16.411  15.858  -5.217  1.00  0.00    -0.550 OA
ENDBRANCH   3   4
ENDBRANCH   2   3
ENDBRANCH   1   2
BRANCH   1   7
ATOM      7  C   UNL     1      18.845  11.581  -5.734  1.00  0.00     0.000 C 
BRANCH   7   8
ATOM      8  C   UNL     1      17.338  11.797  -5.971  1.00  0.00    -0.000 C 
BRANCH   8   9
ATOM      9  C   UNL     1      16.974  12.321  -7.370  1.00  0.00    -0.000 C 
BRANCH   9  10
ATOM     10  C   UNL     1      15.622  13.051  -7.397  1.00  0.00    -0.003 C 
ATOM     11  C   UNL     1      14.890  12.800  -8.711  1.00  0.00     0.004 C 
ENDBRANCH   9  10
ENDBRANCH   8   9
ENDBRANCH   7   8
ENDBRANCH   1   7
TORSDOF 7
ENDMDL
MODEL 4
REMARK VINA RESULT:    -3.915      1.422      2.203
REMARK INTER + INTRA:          -6.134
REMARK INTER:                  -5.660
REMARK INTRA:                  -0.474
REMARK UNBOUND:                -0.617
REMARK SMILES CCCCCCCCC(=O)[O-]
REMARK SMILES IDX 6 1 7 2 8 3 9 4 10 5 11 6 5 7 4 8 3 9 2 10 1 11
REMARK H PARENT
REMARK Flexibility Score: inf
ROOT
ATOM      1  C   UNL     1      16.670  12.272  -6.502  1.00  0.00     0.000 C 
ENDROOT
BRANCH   1   2
ATOM      2  C   UNL     1      17.919  12.690  -5.707  1.00  0.00     0.006 C 
BRANCH   2   3
ATOM      3  C   UNL     1      17.702  13.995  -4.928  1.00  0.00     0.053 C 
BRANCH   3   4
ATOM      4  C   UNL     1      18.877  14.326  -4.060  1.00  0.00     0.041 C 
ATOM      5  O   UNL     1      19.440  13.426  -3.382  1.00  0.00    -0.550 OA
ATOM      6  O   UNL     1      19.329  15.637  -3.972  1.00  0.00    -0.550 OA
ENDBRANCH   3   4
ENDBRANCH   2   3
ENDBRANCH   1   2
BRANCH   1   7
ATOM      7  C   UNL     1      15.633  13.412  -6.604  1.00  0.00     0.000 C 
BRANCH   7   8
ATOM      8  C   UNL     1      14.606  13.217  -7.736  1.00  0.00    -0.000 C 
BRANCH   8   9
ATOM      9  C   UNL     1      15.199  12.723  -9.066  1.00  0.00    -0.000 C 
BRANCH   9  10
ATOM     10  C   UNL     1      16.025  13.800  -9.785  1.00  0.00    -0.003 C 
ATOM     11  C   UNL     1      17.421  13.286 -10.124  1.00  0.00     0.004 C 
ENDBRANCH   9  10
ENDBRANCH   8   9
ENDBRANCH   7   8
ENDBRANCH   1   7
TORSDOF 7
ENDMDL
MODEL 5
REMARK VINA RESULT:    -3.845      1.584      2.289
REMARK INTER + INTRA:          -6.035
REMARK INTER:                  -5.578
REMARK INTRA:                  -0.456
REMARK UNBOUND:                -0.617
REMARK SMILES CCCCCCCCC(=O)[O-]
REMARK SMILES IDX 6 1 7 2 8 3 9 4 10 5 11 6 5 7 4 8 3 9 2 10 1 11
REMARK H PARENT
REMARK Flexibility Score: inf
ROOT
ATOM      1  C   UNL     1      18.179  14.510  -6.913  1.00  0.00     0.000 C 
ENDROOT
BRANCH   1   2
ATOM      2  C   UNL     1      17.743  15.360  -5.707  1.00  0.00     0.006 C 
BRANCH   2   3
ATOM      3  C   UNL     1      17.823  14.581  -4.388  1.00  0.00     0.053 C 
BRANCH   3   4
ATOM      4  C   UNL     1      19.207  14.598  -3.814  1.00  0.00     0.041 C 
ATOM      5  O   UNL     1      19.662  13.584  -3.223  1.00  0.00    -0.550 OA
ATOM      6  O   UNL     1      19.983  15.748  -3.902  1.00  0.00    -0.550 OA
ENDBRANCH   3   4
ENDBRANCH   2   3
ENDBRANCH   1   2
BRANCH   1   7
ATOM      7  C   UNL     1      18.068  12.996  -6.631  1.00  0.00     0.000 C 
BRANCH   7   8
ATOM      8  C   UNL     1      16.849  12.328  -7.296  1.00  0.00    -0.000 C 
BRANCH   8   9
ATOM      9  C   UNL     1      15.486  12.873  -6.838  1.00  0.00    -0.000 C 
BRANCH   9  10
ATOM     10  C   UNL     1      14.572  13.252  -8.014  1.00  0.00    -0.003 C 
ATOM     11  C   UNL     1      15.263  12.995  -9.349  1.00  0.00     0.004 C 
ENDBRANCH   9  10
ENDBRANCH   8   9
ENDBRANCH   7   8
ENDBRANCH   1   7
TORSDOF 7
ENDMDL
MODEL 6
REMARK VINA RESULT:    -3.803      2.226      4.233
REMARK INTER + INTRA:          -5.976
REMARK INTER:                  -5.169
REMARK INTRA:                  -0.807
REMARK UNBOUND:                -0.617
REMARK SMILES CCCCCCCCC(=O)[O-]
REMARK SMILES IDX 6 1 7 2 8 3 9 4 10 5 11 6 5 7 4 8 3 9 2 10 1 11
REMARK H PARENT
REMARK Flexibility Score: inf
ROOT
ATOM      1  C   UNL     1      15.137  12.838  -9.263  1.00  0.00     0.000 C 
ENDROOT
BRANCH   1   2
ATOM      2  C   UNL     1      16.185  13.717  -9.968  1.00  0.00     0.006 C 
BRANCH   2   3
ATOM      3  C   UNL     1      17.615  13.206  -9.747  1.00  0.00     0.053 C 
BRANCH   3   4
ATOM      4  C   UNL     1      18.443  14.185  -8.972  1.00  0.00     0.041 C 
ATOM      5  O   UNL     1      18.077  15.385  -8.872  1.00  0.00    -0.550 OA
ATOM      6  O   UNL     1      19.637  13.778  -8.389  1.00  0.00    -0.550 OA
ENDBRANCH   3   4
ENDBRANCH   2   3
ENDBRANCH   1   2
BRANCH   1   7
ATOM      7  C   UNL     1      14.648  13.462  -7.937  1.00  0.00     0.000 C 
BRANCH   7   8
ATOM      8  C   UNL     1      15.492  13.056  -6.713  1.00  0.00    -0.000 C 
BRANCH   8   9
ATOM      9  C   UNL     1      16.271  14.208  -6.057  1.00  0.00    -0.000 C 
BRANCH   9  10
ATOM     10  C   UNL     1      17.567  13.738  -5.378  1.00  0.00    -0.003 C 
ATOM     11  C   UNL     1      17.873  12.285  -5.728  1.00  0.00     0.004 C 
ENDBRANCH   9  10
ENDBRANCH   8   9
ENDBRANCH   7   8
ENDBRANCH   1   7
TORSDOF 7
ENDMDL
MODEL 7
REMARK VINA RESULT:    -3.730      2.762      5.120
REMARK INTER + INTRA:          -5.874
REMARK INTER:                  -5.353
REMARK INTRA:                  -0.521
REMARK UNBOUND:                -0.617
REMARK SMILES CCCCCCCCC(=O)[O-]
REMARK SMILES IDX 6 1 7 2 8 3 9 4 10 5 11 6 5 7 4 8 3 9 2 10 1 11
REMARK H PARENT
REMARK Flexibility Score: inf
ROOT
ATOM      1  C   UNL     1      15.992  14.583  -6.311  1.00  0.00     0.000 C 
ENDROOT
BRANCH   1   2
ATOM      2  C   UNL     1      16.309  13.081  -6.215  1.00  0.00     0.006 C 
BRANCH   2   3
ATOM      3  C   UNL     1      16.757  12.495  -7.561  1.00  0.00     0.053 C 
BRANCH   3   4
ATOM      4  C   UNL     1      15.931  13.016  -8.697  1.00  0.00     0.041 C 
ATOM      5  O   UNL     1      14.740  12.636  -8.842  1.00  0.00    -0.550 OA
ATOM      6  O   UNL     1      16.490  13.895  -9.618  1.00  0.00    -0.550 OA
ENDBRANCH   3   4
ENDBRANCH   2   3
ENDBRANCH   1   2
BRANCH   1   7
ATOM      7  C   UNL     1      17.011  15.446  -5.535  1.00  0.00     0.000 C 
BRANCH   7   8
ATOM      8  C   UNL     1      17.652  14.721  -4.336  1.00  0.00    -0.000 C 
BRANCH   8   9
ATOM      9  C   UNL     1      19.149  15.010  -4.133  1.00  0.00    -0.000 C 
BRANCH   9  10
ATOM     10  C   UNL     1      19.933  13.777  -3.658  1.00  0.00    -0.003 C 
ATOM     11  C   UNL     1      19.780  12.619  -4.639  1.00  0.00     0.004 C 
ENDBRANCH   9  10
ENDBRANCH   8   9
ENDBRANCH   7   8
ENDBRANCH   1   7
TORSDOF 7
ENDMDL
MODEL 8
REMARK VINA RESULT:    -3.588      2.525      4.458
REMARK INTER + INTRA:          -5.674
REMARK INTER:                  -4.944
REMARK INTRA:                  -0.730
REMARK UNBOUND:                -0.617
REMARK SMILES CCCCCCCCC(=O)[O-]
REMARK SMILES IDX 6 1 7 2 8 3 9 4 10 5 11 6 5 7 4 8 3 9 2 10 1 11
REMARK H PARENT
REMARK Flexibility Score: inf
ROOT
ATOM      1  C   UNL     1      17.763  14.997  -5.514  1.00  0.00     0.000 C 
ENDROOT
BRANCH   1   2
ATOM      2  C   UNL     1      16.308  14.836  -5.986  1.00  0.00     0.006 C 
BRANCH   2   3
ATOM      3  C   UNL     1      15.972  13.383  -6.349  1.00  0.00     0.053 C 
BRANCH   3   4
ATOM      4  C   UNL     1      15.662  13.231  -7.807  1.00  0.00     0.041 C 
ATOM      5  O   UNL     1      14.488  12.971  -8.182  1.00  0.00    -0.550 OA
ATOM      6  O   UNL     1      16.677  13.343  -8.750  1.00  0.00    -0.550 OA
ENDBRANCH   3   4
ENDBRANCH   2   3
ENDBRANCH   1   2
BRANCH   1   7
ATOM      7  C   UNL     1      18.160  13.930  -4.470  1.00  0.00     0.000 C 
BRANCH   7   8
ATOM      8  C   UNL     1      19.580  13.366  -4.669  1.00  0.00    -0.000 C 
BRANCH   8   9
ATOM      9  C   UNL     1      19.632  11.935  -5.232  1.00  0.00    -0.000 C 
BRANCH   9  10
ATOM     10  C   UNL     1      19.436  11.888  -6.755  1.00  0.00    -0.003 C 
ATOM     11  C   UNL     1      18.494  10.756  -7.151  1.00  0.00     0.004 C 
ENDBRANCH   9  10
ENDBRANCH   8   9
ENDBRANCH   7   8
ENDBRANCH   1   7
TORSDOF 7
ENDMDL
MODEL 9
REMARK VINA RESULT:    -3.544      1.717      2.296
REMARK INTER + INTRA:          -5.611
REMARK INTER:                  -5.003
REMARK INTRA:                  -0.608
REMARK UNBOUND:                -0.617
REMARK SMILES CCCCCCCCC(=O)[O-]
REMARK SMILES IDX 6 1 7 2 8 3 9 4 10 5 11 6 5 7 4 8 3 9 2 10 1 11
REMARK H PARENT
REMARK Flexibility Score: inf
ROOT
ATOM      1  C   UNL     1      17.930  15.066  -8.416  1.00  0.00     0.000 C 
ENDROOT
BRANCH   1   2
ATOM      2  C   UNL     1      18.517  14.516  -7.105  1.00  0.00     0.006 C 
BRANCH   2   3
ATOM      3  C   UNL     1      18.017  15.287  -5.875  1.00  0.00     0.053 C 
BRANCH   3   4
ATOM      4  C   UNL     1      18.507  14.676  -4.598  1.00  0.00     0.041 C 
ATOM      5  O   UNL     1      19.119  15.380  -3.753  1.00  0.00    -0.550 OA
ATOM      6  O   UNL     1      18.317  13.321  -4.358  1.00  0.00    -0.550 OA
ENDBRANCH   3   4
ENDBRANCH   2   3
ENDBRANCH   1   2
BRANCH   1   7
ATOM      7  C   UNL     1      17.610  13.945  -9.429  1.00  0.00     0.000 C 
BRANCH   7   8
ATOM      8  C   UNL     1      16.142  13.929  -9.894  1.00  0.00    -0.000 C 
BRANCH   8   9
ATOM      9  C   UNL     1      15.260  12.872  -9.208  1.00  0.00    -0.000 C 
BRANCH   9  10
ATOM     10  C   UNL     1      14.580  13.401  -7.935  1.00  0.00    -0.003 C 
ATOM     11  C   UNL     1      15.300  12.908  -6.685  1.00  0.00     0.004 C 
ENDBRANCH   9  10
ENDBRANCH   8   9
ENDBRANCH   7   8
ENDBRANCH   1   7
TORSDOF 7
ENDMDL
