MODEL 1
REMARK VINA RESULT:    -4.368      0.000      0.000
REMARK INTER + INTRA:          -5.261
REMARK INTER:                  -5.135
REMARK INTRA:                  -0.126
REMARK UNBOUND:                -0.126
REMARK SMILES O=C([O-])C=Cc1ccc(O)c(O)c1
REMARK SMILES IDX 6 1 13 2 7 3 11 4 8 5 9 6 5 7 4 8 2 9 1 10 3 11 12 12 10 14
REMARK H PARENT 12 13 10 15
REMARK Flexibility Score: inf
ROOT
ATOM      1  C   UNL     1      53.889   7.739 -46.967  1.00  0.00    -0.022 A 
ATOM      2  C   UNL     1      55.076   8.163 -46.349  1.00  0.00     0.058 A 
ATOM      3  C   UNL     1      52.794   7.382 -46.159  1.00  0.00     0.012 A 
ATOM      4  C   UNL     1      55.190   8.211 -44.954  1.00  0.00     0.157 A 
ATOM      5  C   UNL     1      52.899   7.427 -44.767  1.00  0.00     0.051 A 
ATOM      6  C   UNL     1      54.087   7.834 -44.152  1.00  0.00     0.157 A 
ENDROOT
BRANCH   1   7
ATOM      7  C   UNL     1      53.827   7.720 -48.450  1.00  0.00     0.010 C 
ATOM      8  C   UNL     1      53.451   8.770 -49.193  1.00  0.00     0.025 C 
BRANCH   8   9
ATOM      9  C   UNL     1      53.392   8.701 -50.661  1.00  0.00     0.064 C 
ATOM     10  O   UNL     1      54.228   9.346 -51.347  1.00  0.00    -0.545 OA
ATOM     11  O   UNL     1      52.429   7.933 -51.308  1.00  0.00    -0.545 OA
ENDBRANCH   8   9
ENDBRANCH   1   7
BRANCH   4  12
ATOM     12  O   UNL     1      56.405   8.635 -44.414  1.00  0.00    -0.504 OA
ATOM     13  H   UNL     1      57.100   9.156 -44.928  1.00  0.00     0.293 HD
ENDBRANCH   4  12
BRANCH   6  14
ATOM     14  O   UNL     1      54.127   7.853 -42.756  1.00  0.00    -0.504 OA
ATOM     15  H   UNL     1      54.860   7.428 -42.206  1.00  0.00     0.293 HD
ENDBRANCH   6  14
TORSDOF 4
ENDMDL
MODEL 2
REMARK VINA RESULT:    -4.169     10.272     12.565
REMARK INTER + INTRA:          -5.026
REMARK INTER:                  -4.893
REMARK INTRA:                  -0.133
REMARK UNBOUND:                -0.126
REMARK SMILES O=C([O-])C=Cc1ccc(O)c(O)c1
REMARK SMILES IDX 6 1 13 2 7 3 11 4 8 5 9 6 5 7 4 8 2 9 1 10 3 11 12 12 10 14
REMARK H PARENT 12 13 10 15
REMARK Flexibility Score: inf
ROOT
ATOM      1  C   UNL     1      45.497   2.695 -43.651  1.00  0.00    -0.022 A 
ATOM      2  C   UNL     1      44.174   2.234 -43.566  1.00  0.00     0.058 A 
ATOM      3  C   UNL     1      45.858   3.524 -44.729  1.00  0.00     0.012 A 
ATOM      4  C   UNL     1      43.226   2.565 -44.543  1.00  0.00     0.157 A 
ATOM      5  C   UNL     1      44.919   3.858 -45.708  1.00  0.00     0.051 A 
ATOM      6  C   UNL     1      43.605   3.386 -45.631  1.00  0.00     0.157 A 
ENDROOT
BRANCH   1   7
ATOM      7  C   UNL     1      46.452   2.318 -42.579  1.00  0.00     0.010 C 
ATOM      8  C   UNL     1      46.080   1.830 -41.388  1.00  0.00     0.025 C 
BRANCH   8   9
ATOM      9  C   UNL     1      47.062   1.481 -40.350  1.00  0.00     0.064 C 
ATOM     10  O   UNL     1      47.814   2.375 -39.880  1.00  0.00    -0.545 OA
ATOM     11  O   UNL     1      47.174   0.178 -39.875  1.00  0.00    -0.545 OA
ENDBRANCH   8   9
ENDBRANCH   1   7
BRANCH   4  12
ATOM     12  O   UNL     1      41.933   2.061 -44.393  1.00  0.00    -0.504 OA
ATOM     13  H   UNL     1      41.639   1.479 -43.622  1.00  0.00     0.293 HD
ENDBRANCH   4  12
BRANCH   6  14
ATOM     14  O   UNL     1      42.718   3.755 -46.644  1.00  0.00    -0.504 OA
ATOM     15  H   UNL     1      42.487   4.711 -46.872  1.00  0.00     0.293 HD
ENDBRANCH   6  14
TORSDOF 4
ENDMDL
MODEL 3
REMARK VINA RESULT:    -4.159      1.299      5.911
REMARK INTER + INTRA:          -5.015
REMARK INTER:                  -4.886
REMARK INTRA:                  -0.128
REMARK UNBOUND:                -0.126
REMARK SMILES O=C([O-])C=Cc1ccc(O)c(O)c1
REMARK SMILES IDX 6 1 13 2 7 3 11 4 8 5 9 6 5 7 4 8 2 9 1 10 3 11 12 12 10 14
REMARK H PARENT 12 13 10 15
REMARK Flexibility Score: inf
ROOT
ATOM      1  C   UNL     1      54.397   7.520 -47.692  1.00  0.00    -0.022 A 
ATOM      2  C   UNL     1      53.656   8.495 -48.378  1.00  0.00     0.058 A 
ATOM      3  C   UNL     1      55.123   6.572 -48.436  1.00  0.00     0.012 A 
ATOM      4  C   UNL     1      53.611   8.519 -49.777  1.00  0.00     0.157 A 
ATOM      5  C   UNL     1      55.083   6.589 -49.832  1.00  0.00     0.051 A 
ATOM      6  C   UNL     1      54.332   7.551 -50.514  1.00  0.00     0.157 A 
ENDROOT
BRANCH   1   7
ATOM      7  C   UNL     1      54.414   7.552 -46.208  1.00  0.00     0.010 C 
ATOM      8  C   UNL     1      55.270   8.291 -45.489  1.00  0.00     0.025 C 
BRANCH   8   9
ATOM      9  C   UNL     1      55.258   8.283 -44.018  1.00  0.00     0.064 C 
ATOM     10  O   UNL     1      56.198   8.833 -43.386  1.00  0.00    -0.545 OA
ATOM     11  O   UNL     1      54.223   7.679 -43.311  1.00  0.00    -0.545 OA
ENDBRANCH   8   9
ENDBRANCH   1   7
BRANCH   4  12
ATOM     12  O   UNL     1      52.845   9.514 -50.387  1.00  0.00    -0.504 OA
ATOM     13  H   UNL     1      52.493  10.330 -49.906  1.00  0.00     0.293 HD
ENDBRANCH   4  12
BRANCH   6  14
ATOM     14  O   UNL     1      54.332   7.511 -51.910  1.00  0.00    -0.504 OA
ATOM     15  H   UNL     1      54.690   8.250 -52.497  1.00  0.00     0.293 HD
ENDBRANCH   6  14
TORSDOF 4
ENDMDL
MODEL 4
REMARK VINA RESULT:    -4.061     15.835     17.074
REMARK INTER + INTRA:          -4.900
REMARK INTER:                  -4.767
REMARK INTRA:                  -0.132
REMARK UNBOUND:                -0.126
REMARK SMILES O=C([O-])C=Cc1ccc(O)c(O)c1
REMARK SMILES IDX 6 1 13 2 7 3 11 4 8 5 9 6 5 7 4 8 2 9 1 10 3 11 12 12 10 14
REMARK H PARENT 12 13 10 15
REMARK Flexibility Score: inf
ROOT
ATOM      1  C   UNL     1      61.111  -6.265 -45.692  1.00  0.00    -0.022 A 
ATOM      2  C   UNL     1      59.731  -6.325 -45.944  1.00  0.00     0.058 A 
ATOM      3  C   UNL     1      61.923  -5.499 -46.548  1.00  0.00     0.012 A 
ATOM      4  C   UNL     1      59.164  -5.661 -47.038  1.00  0.00     0.157 A 
ATOM      5  C   UNL     1      61.366  -4.834 -47.642  1.00  0.00     0.051 A 
ATOM      6  C   UNL     1      59.993  -4.907 -47.902  1.00  0.00     0.157 A 
ENDROOT
BRANCH   1   7
ATOM      7  C   UNL     1      61.650  -6.982 -44.510  1.00  0.00     0.010 C 
ATOM      8  C   UNL     1      60.888  -7.452 -43.512  1.00  0.00     0.025 C 
BRANCH   8   9
ATOM      9  C   UNL     1      61.469  -8.148 -42.353  1.00  0.00     0.064 C 
ATOM     10  O   UNL     1      61.716  -7.502 -41.301  1.00  0.00    -0.545 OA
ATOM     11  O   UNL     1      61.748  -9.510 -42.397  1.00  0.00    -0.545 OA
ENDBRANCH   8   9
ENDBRANCH   1   7
BRANCH   4  12
ATOM     12  O   UNL     1      57.786  -5.776 -47.228  1.00  0.00    -0.504 OA
ATOM     13  H   UNL     1      57.235  -6.560 -46.908  1.00  0.00     0.293 HD
ENDBRANCH   4  12
BRANCH   6  14
ATOM     14  O   UNL     1      59.501  -4.222 -49.014  1.00  0.00    -0.504 OA
ATOM     15  H   UNL     1      59.209  -3.255 -48.998  1.00  0.00     0.293 HD
ENDBRANCH   6  14
TORSDOF 4
ENDMDL
MODEL 5
REMARK VINA RESULT:    -4.035      0.928      2.131
REMARK INTER + INTRA:          -4.869
REMARK INTER:                  -4.744
REMARK INTRA:                  -0.125
REMARK UNBOUND:                -0.126
REMARK SMILES O=C([O-])C=Cc1ccc(O)c(O)c1
REMARK SMILES IDX 6 1 13 2 7 3 11 4 8 5 9 6 5 7 4 8 2 9 1 10 3 11 12 12 10 14
REMARK H PARENT 12 13 10 15
REMARK Flexibility Score: inf
ROOT
ATOM      1  C   UNL     1      54.255   7.776 -46.623  1.00  0.00    -0.022 A 
ATOM      2  C   UNL     1      53.144   7.332 -45.890  1.00  0.00     0.058 A 
ATOM      3  C   UNL     1      55.389   8.232 -45.926  1.00  0.00     0.012 A 
ATOM      4  C   UNL     1      53.140   7.361 -44.490  1.00  0.00     0.157 A 
ATOM      5  C   UNL     1      55.394   8.264 -44.530  1.00  0.00     0.051 A 
ATOM      6  C   UNL     1      54.280   7.836 -43.800  1.00  0.00     0.157 A 
ENDROOT
BRANCH   1   7
ATOM      7  C   UNL     1      54.202   7.711 -48.105  1.00  0.00     0.010 C 
ATOM      8  C   UNL     1      53.488   8.555 -48.863  1.00  0.00     0.025 C 
BRANCH   8   9
ATOM      9  C   UNL     1      53.456   8.445 -50.330  1.00  0.00     0.064 C 
ATOM     10  O   UNL     1      52.598   7.706 -50.879  1.00  0.00    -0.545 OA
ATOM     11  O   UNL     1      54.358   9.147 -51.123  1.00  0.00    -0.545 OA
ENDBRANCH   8   9
ENDBRANCH   1   7
BRANCH   4  12
ATOM     12  O   UNL     1      51.994   6.911 -43.832  1.00  0.00    -0.504 OA
ATOM     13  H   UNL     1      51.126   6.688 -44.298  1.00  0.00     0.293 HD
ENDBRANCH   4  12
BRANCH   6  14
ATOM     14  O   UNL     1      54.348   7.898 -42.407  1.00  0.00    -0.504 OA
ATOM     15  H   UNL     1      54.550   7.104 -41.816  1.00  0.00     0.293 HD
ENDBRANCH   6  14
TORSDOF 4
ENDMDL
MODEL 6
REMARK VINA RESULT:    -3.935      2.801      6.594
REMARK INTER + INTRA:          -4.751
REMARK INTER:                  -4.623
REMARK INTRA:                  -0.129
REMARK UNBOUND:                -0.126
REMARK SMILES O=C([O-])C=Cc1ccc(O)c(O)c1
REMARK SMILES IDX 6 1 13 2 7 3 11 4 8 5 9 6 5 7 4 8 2 9 1 10 3 11 12 12 10 14
REMARK H PARENT 12 13 10 15
REMARK Flexibility Score: inf
ROOT
ATOM      1  C   UNL     1      55.204   8.217 -44.322  1.00  0.00    -0.022 A 
ATOM      2  C   UNL     1      53.870   7.917 -44.003  1.00  0.00     0.058 A 
ATOM      3  C   UNL     1      55.622   8.105 -45.661  1.00  0.00     0.012 A 
ATOM      4  C   UNL     1      52.968   7.490 -44.984  1.00  0.00     0.157 A 
ATOM      5  C   UNL     1      54.728   7.679 -46.646  1.00  0.00     0.051 A 
ATOM      6  C   UNL     1      53.404   7.366 -46.324  1.00  0.00     0.157 A 
ENDROOT
BRANCH   1   7
ATOM      7  C   UNL     1      56.109   8.675 -43.239  1.00  0.00     0.010 C 
ATOM      8  C   UNL     1      56.189   8.088 -42.036  1.00  0.00     0.025 C 
BRANCH   8   9
ATOM      9  C   UNL     1      57.094   8.585 -40.988  1.00  0.00     0.064 C 
ATOM     10  O   UNL     1      56.942   9.751 -40.537  1.00  0.00    -0.545 OA
ATOM     11  O   UNL     1      58.115   7.787 -40.483  1.00  0.00    -0.545 OA
ENDBRANCH   8   9
ENDBRANCH   1   7
BRANCH   4  12
ATOM     12  O   UNL     1      51.661   7.202 -44.587  1.00  0.00    -0.504 OA
ATOM     13  H   UNL     1      51.325   7.298 -43.639  1.00  0.00     0.293 HD
ENDBRANCH   4  12
BRANCH   6  14
ATOM     14  O   UNL     1      52.563   6.942 -47.356  1.00  0.00    -0.504 OA
ATOM     15  H   UNL     1      52.641   7.256 -48.312  1.00  0.00     0.293 HD
ENDBRANCH   6  14
TORSDOF 4
ENDMDL
MODEL 7
REMARK VINA RESULT:    -3.917     11.840     12.967
REMARK INTER + INTRA:          -4.730
REMARK INTER:                  -4.597
REMARK INTRA:                  -0.133
REMARK UNBOUND:                -0.126
REMARK SMILES O=C([O-])C=Cc1ccc(O)c(O)c1
REMARK SMILES IDX 6 1 13 2 7 3 11 4 8 5 9 6 5 7 4 8 2 9 1 10 3 11 12 12 10 14
REMARK H PARENT 12 13 10 15
REMARK Flexibility Score: inf
ROOT
ATOM      1  C   UNL     1      59.676  -2.311 -48.576  1.00  0.00    -0.022 A 
ATOM      2  C   UNL     1      60.745  -3.219 -48.636  1.00  0.00     0.058 A 
ATOM      3  C   UNL     1      58.815  -2.204 -49.684  1.00  0.00     0.012 A 
ATOM      4  C   UNL     1      60.978  -3.991 -49.780  1.00  0.00     0.157 A 
ATOM      5  C   UNL     1      59.041  -2.971 -50.830  1.00  0.00     0.051 A 
ATOM      6  C   UNL     1      60.116  -3.863 -50.894  1.00  0.00     0.157 A 
ENDROOT
BRANCH   1   7
ATOM      7  C   UNL     1      59.475  -1.529 -47.331  1.00  0.00     0.010 C 
ATOM      8  C   UNL     1      59.246  -0.209 -47.310  1.00  0.00     0.025 C 
BRANCH   8   9
ATOM      9  C   UNL     1      59.064   0.528 -46.050  1.00  0.00     0.064 C 
ATOM     10  O   UNL     1      59.548   1.684 -45.930  1.00  0.00    -0.545 OA
ATOM     11  O   UNL     1      58.363  -0.029 -44.986  1.00  0.00    -0.545 OA
ENDBRANCH   8   9
ENDBRANCH   1   7
BRANCH   4  12
ATOM     12  O   UNL     1      62.067  -4.864 -49.767  1.00  0.00    -0.504 OA
ATOM     13  H   UNL     1      63.031  -4.566 -49.821  1.00  0.00     0.293 HD
ENDBRANCH   4  12
BRANCH   6  14
ATOM     14  O   UNL     1      60.287  -4.596 -52.070  1.00  0.00    -0.504 OA
ATOM     15  H   UNL     1      60.640  -5.542 -52.100  1.00  0.00     0.293 HD
ENDBRANCH   6  14
TORSDOF 4
ENDMDL
MODEL 8
REMARK VINA RESULT:    -3.851     11.719     12.499
REMARK INTER + INTRA:          -4.653
REMARK INTER:                  -4.520
REMARK INTRA:                  -0.133
REMARK UNBOUND:                -0.126
REMARK SMILES O=C([O-])C=Cc1ccc(O)c(O)c1
REMARK SMILES IDX 6 1 13 2 7 3 11 4 8 5 9 6 5 7 4 8 2 9 1 10 3 11 12 12 10 14
REMARK H PARENT 12 13 10 15
REMARK Flexibility Score: inf
ROOT
ATOM      1  C   UNL     1      58.428  -2.018 -50.472  1.00  0.00    -0.022 A 
ATOM      2  C   UNL     1      58.769  -3.071 -51.335  1.00  0.00     0.058 A 
ATOM      3  C   UNL     1      59.346  -1.631 -49.479  1.00  0.00     0.012 A 
ATOM      4  C   UNL     1      59.987  -3.750 -51.205  1.00  0.00     0.157 A 
ATOM      5  C   UNL     1      60.563  -2.304 -49.342  1.00  0.00     0.051 A 
ATOM      6  C   UNL     1      60.895  -3.363 -50.192  1.00  0.00     0.157 A 
ENDROOT
BRANCH   1   7
ATOM      7  C   UNL     1      57.127  -1.330 -50.667  1.00  0.00     0.010 C 
ATOM      8  C   UNL     1      56.170  -1.769 -51.497  1.00  0.00     0.025 C 
BRANCH   8   9
ATOM      9  C   UNL     1      54.899  -1.047 -51.667  1.00  0.00     0.064 C 
ATOM     10  O   UNL     1      54.039  -1.079 -50.750  1.00  0.00    -0.545 OA
ATOM     11  O   UNL     1      54.632  -0.326 -52.827  1.00  0.00    -0.545 OA
ENDBRANCH   8   9
ENDBRANCH   1   7
BRANCH   4  12
ATOM     12  O   UNL     1      60.250  -4.793 -52.095  1.00  0.00    -0.504 OA
ATOM     13  H   UNL     1      60.831  -4.701 -52.916  1.00  0.00     0.293 HD
ENDBRANCH   4  12
BRANCH   6  14
ATOM     14  O   UNL     1      62.125  -3.995 -49.999  1.00  0.00    -0.504 OA
ATOM     15  H   UNL     1      62.960  -3.778 -50.524  1.00  0.00     0.293 HD
ENDBRANCH   6  14
TORSDOF 4
ENDMDL
MODEL 9
REMARK VINA RESULT:    -2.282     11.632     12.318
REMARK INTER + INTRA:          -2.809
REMARK INTER:                  -2.673
REMARK INTRA:                  -0.136
REMARK UNBOUND:                -0.126
REMARK SMILES O=C([O-])C=Cc1ccc(O)c(O)c1
REMARK SMILES IDX 6 1 13 2 7 3 11 4 8 5 9 6 5 7 4 8 2 9 1 10 3 11 12 12 10 14
REMARK H PARENT 12 13 10 15
REMARK Flexibility Score: inf
ROOT
ATOM      1  C   UNL     1      59.272  -1.852 -49.955  1.00  0.00    -0.022 A 
ATOM      2  C   UNL     1      59.249  -2.892 -50.898  1.00  0.00     0.058 A 
ATOM      3  C   UNL     1      60.269  -1.858 -48.963  1.00  0.00     0.012 A 
ATOM      4  C   UNL     1      60.179  -3.937 -50.847  1.00  0.00     0.157 A 
ATOM      5  C   UNL     1      61.201  -2.897 -48.905  1.00  0.00     0.051 A 
ATOM      6  C   UNL     1      61.167  -3.942 -49.835  1.00  0.00     0.157 A 
ENDROOT
BRANCH   1   7
ATOM      7  C   UNL     1      58.265  -0.767 -50.068  1.00  0.00     0.010 C 
ATOM      8  C   UNL     1      58.579   0.527 -50.217  1.00  0.00     0.025 C 
BRANCH   8   9
ATOM      9  C   UNL     1      57.546   1.571 -50.313  1.00  0.00     0.064 C 
ATOM     10  O   UNL     1      56.546   1.528 -49.549  1.00  0.00    -0.545 OA
ATOM     11  O   UNL     1      57.656   2.609 -51.233  1.00  0.00    -0.545 OA
ENDBRANCH   8   9
ENDBRANCH   1   7
BRANCH   4  12
ATOM     12  O   UNL     1      60.086  -4.940 -51.813  1.00  0.00    -0.504 OA
ATOM     13  H   UNL     1      59.925  -5.915 -51.602  1.00  0.00     0.293 HD
ENDBRANCH   4  12
BRANCH   6  14
ATOM     14  O   UNL     1      62.125  -4.951 -49.719  1.00  0.00    -0.504 OA
ATOM     15  H   UNL     1      61.905  -5.935 -49.660  1.00  0.00     0.293 HD
ENDBRANCH   6  14
TORSDOF 4
ENDMDL
