MODEL 1
REMARK VINA RESULT:    -4.256      0.000      0.000
REMARK INTER + INTRA:          -6.231
REMARK INTER:                  -5.749
REMARK INTRA:                  -0.482
REMARK UNBOUND:                -0.482
REMARK SMILES O=C[C@H](O)[C@H](O)[C@@H](O)CO
REMARK SMILES IDX 7 1 9 2 10 3 5 5 3 6 2 7 1 8 4 9 6 11 8 13
REMARK H PARENT 10 4 4 10 6 12 8 14
REMARK Flexibility Score: inf
ROOT
ATOM      1  C   UNL     1       1.849   2.859  39.880  1.00  0.00     0.171 C 
ENDROOT
BRANCH   1   2
ATOM      2  C   UNL     1       0.708   2.060  40.535  1.00  0.00     0.190 C 
BRANCH   2   3
ATOM      3  O   UNL     1      -0.509   2.331  39.898  1.00  0.00    -0.394 OA
ATOM      4  H   UNL     1      -0.286   2.862  39.091  1.00  0.00     0.210 HD
ENDBRANCH   2   3
ENDBRANCH   1   2
BRANCH   1   5
ATOM      5  C   UNL     1       2.427   2.160  38.613  1.00  0.00     0.181 C 
BRANCH   5   6
ATOM      6  C   UNL     1       3.170   3.111  37.633  1.00  0.00     0.209 C 
BRANCH   6   7
ATOM      7  C   UNL     1       2.953   2.771  36.178  1.00  0.00     0.258 C 
ATOM      8  O   UNL     1       3.029   1.619  35.782  1.00  0.00    -0.300 OA
ENDBRANCH   6   7
BRANCH   6   9
ATOM      9  O   UNL     1       4.543   3.166  37.930  1.00  0.00    -0.383 OA
ATOM     10  H   UNL     1       4.881   4.060  37.661  1.00  0.00     0.211 HD
ENDBRANCH   6   9
ENDBRANCH   5   6
BRANCH   5  11
ATOM     11  O   UNL     1       1.421   1.439  37.942  1.00  0.00    -0.387 OA
ATOM     12  H   UNL     1       1.853   0.687  37.461  1.00  0.00     0.211 HD
ENDBRANCH   5  11
ENDBRANCH   1   5
BRANCH   1  13
ATOM     13  O   UNL     1       1.342   4.119  39.516  1.00  0.00    -0.388 OA
ATOM     14  H   UNL     1       2.117   4.736  39.439  1.00  0.00     0.211 HD
ENDBRANCH   1  13
TORSDOF 8
ENDMDL
MODEL 2
REMARK VINA RESULT:    -3.932      8.605     10.060
REMARK INTER + INTRA:          -5.793
REMARK INTER:                  -5.061
REMARK INTRA:                  -0.732
REMARK UNBOUND:                -0.482
REMARK SMILES O=C[C@H](O)[C@H](O)[C@@H](O)CO
REMARK SMILES IDX 7 1 9 2 10 3 5 5 3 6 2 7 1 8 4 9 6 11 8 13
REMARK H PARENT 10 4 4 10 6 12 8 14
REMARK Flexibility Score: inf
ROOT
ATOM      1  C   UNL     1       5.308  12.737  37.162  1.00  0.00     0.171 C 
ENDROOT
BRANCH   1   2
ATOM      2  C   UNL     1       6.577  11.944  37.525  1.00  0.00     0.190 C 
BRANCH   2   3
ATOM      3  O   UNL     1       7.007  11.180  36.434  1.00  0.00    -0.394 OA
ATOM      4  H   UNL     1       7.998  11.214  36.446  1.00  0.00     0.210 HD
ENDBRANCH   2   3
ENDBRANCH   1   2
BRANCH   1   5
ATOM      5  C   UNL     1       4.010  11.882  37.265  1.00  0.00     0.181 C 
BRANCH   5   6
ATOM      6  C   UNL     1       3.620  11.469  38.713  1.00  0.00     0.209 C 
BRANCH   6   7
ATOM      7  C   UNL     1       2.859  10.168  38.788  1.00  0.00     0.258 C 
ATOM      8  O   UNL     1       1.879   9.969  38.086  1.00  0.00    -0.300 OA
ENDBRANCH   6   7
BRANCH   6   9
ATOM      9  O   UNL     1       2.908  12.499  39.354  1.00  0.00    -0.383 OA
ATOM     10  H   UNL     1       2.078  12.668  38.835  1.00  0.00     0.211 HD
ENDBRANCH   6   9
ENDBRANCH   5   6
BRANCH   5  11
ATOM     11  O   UNL     1       4.092  10.751  36.430  1.00  0.00    -0.387 OA
ATOM     12  H   UNL     1       3.661  10.976  35.566  1.00  0.00     0.211 HD
ENDBRANCH   5  11
ENDBRANCH   1   5
BRANCH   1  13
ATOM     13  O   UNL     1       5.210  13.825  38.047  1.00  0.00    -0.388 OA
ATOM     14  H   UNL     1       6.131  14.041  38.350  1.00  0.00     0.211 HD
ENDBRANCH   1  13
TORSDOF 8
ENDMDL
MODEL 3
REMARK VINA RESULT:    -3.927      9.115     10.674
REMARK INTER + INTRA:          -5.786
REMARK INTER:                  -5.298
REMARK INTRA:                  -0.488
REMARK UNBOUND:                -0.482
REMARK SMILES O=C[C@H](O)[C@H](O)[C@@H](O)CO
REMARK SMILES IDX 7 1 9 2 10 3 5 5 3 6 2 7 1 8 4 9 6 11 8 13
REMARK H PARENT 10 4 4 10 6 12 8 14
REMARK Flexibility Score: inf
ROOT
ATOM      1  C   UNL     1       5.887  10.508  33.443  1.00  0.00     0.171 C 
ENDROOT
BRANCH   1   2
ATOM      2  C   UNL     1       5.451   9.058  33.165  1.00  0.00     0.190 C 
BRANCH   2   3
ATOM      3  O   UNL     1       6.503   8.171  33.423  1.00  0.00    -0.394 OA
ATOM      4  H   UNL     1       7.316   8.730  33.528  1.00  0.00     0.210 HD
ENDBRANCH   2   3
ENDBRANCH   1   2
BRANCH   1   5
ATOM      5  C   UNL     1       6.126  10.789  34.956  1.00  0.00     0.181 C 
BRANCH   5   6
ATOM      6  C   UNL     1       6.032  12.287  35.359  1.00  0.00     0.209 C 
BRANCH   6   7
ATOM      7  C   UNL     1       6.756  12.617  36.642  1.00  0.00     0.258 C 
ATOM      8  O   UNL     1       6.671  11.889  37.618  1.00  0.00    -0.300 OA
ENDBRANCH   6   7
BRANCH   6   9
ATOM      9  O   UNL     1       4.691  12.707  35.424  1.00  0.00    -0.383 OA
ATOM     10  H   UNL     1       4.140  11.932  35.709  1.00  0.00     0.211 HD
ENDBRANCH   6   9
ENDBRANCH   5   6
BRANCH   5  11
ATOM     11  O   UNL     1       7.351  10.236  35.376  1.00  0.00    -0.387 OA
ATOM     12  H   UNL     1       8.033  10.955  35.360  1.00  0.00     0.211 HD
ENDBRANCH   5  11
ENDBRANCH   1   5
BRANCH   1  13
ATOM     13  O   UNL     1       7.082  10.742  32.740  1.00  0.00    -0.388 OA
ATOM     14  H   UNL     1       7.721  11.157  33.378  1.00  0.00     0.211 HD
ENDBRANCH   1  13
TORSDOF 8
ENDMDL
MODEL 4
REMARK VINA RESULT:    -3.854     10.360     11.750
REMARK INTER + INTRA:          -5.688
REMARK INTER:                  -5.131
REMARK INTRA:                  -0.556
REMARK UNBOUND:                -0.482
REMARK SMILES O=C[C@H](O)[C@H](O)[C@@H](O)CO
REMARK SMILES IDX 7 1 9 2 10 3 5 5 3 6 2 7 1 8 4 9 6 11 8 13
REMARK H PARENT 10 4 4 10 6 12 8 14
REMARK Flexibility Score: inf
ROOT
ATOM      1  C   UNL     1       5.631  14.135  36.539  1.00  0.00     0.171 C 
ENDROOT
BRANCH   1   2
ATOM      2  C   UNL     1       6.221  15.479  36.074  1.00  0.00     0.190 C 
BRANCH   2   3
ATOM      3  O   UNL     1       7.607  15.500  36.272  1.00  0.00    -0.394 OA
ATOM      4  H   UNL     1       7.885  14.555  36.387  1.00  0.00     0.210 HD
ENDBRANCH   2   3
ENDBRANCH   1   2
BRANCH   1   5
ATOM      5  C   UNL     1       6.646  12.958  36.429  1.00  0.00     0.181 C 
BRANCH   5   6
ATOM      6  C   UNL     1       6.067  11.662  35.795  1.00  0.00     0.209 C 
BRANCH   6   7
ATOM      7  C   UNL     1       4.781  11.197  36.436  1.00  0.00     0.258 C 
ATOM      8  O   UNL     1       4.616  11.269  37.643  1.00  0.00    -0.300 OA
ENDBRANCH   6   7
BRANCH   6   9
ATOM      9  O   UNL     1       7.024  10.631  35.797  1.00  0.00    -0.383 OA
ATOM     10  H   UNL     1       6.541   9.763  35.789  1.00  0.00     0.211 HD
ENDBRANCH   6   9
ENDBRANCH   5   6
BRANCH   5  11
ATOM     11  O   UNL     1       7.226  12.684  37.682  1.00  0.00    -0.387 OA
ATOM     12  H   UNL     1       7.814  13.446  37.921  1.00  0.00     0.211 HD
ENDBRANCH   5  11
ENDBRANCH   1   5
BRANCH   1  13
ATOM     13  O   UNL     1       5.238  14.276  37.881  1.00  0.00    -0.388 OA
ATOM     14  H   UNL     1       5.323  15.239  38.113  1.00  0.00     0.211 HD
ENDBRANCH   1  13
TORSDOF 8
ENDMDL
MODEL 5
REMARK VINA RESULT:    -3.842      1.838      2.376
REMARK INTER + INTRA:          -5.671
REMARK INTER:                  -5.388
REMARK INTRA:                  -0.283
REMARK UNBOUND:                -0.482
REMARK SMILES O=C[C@H](O)[C@H](O)[C@@H](O)CO
REMARK SMILES IDX 7 1 9 2 10 3 5 5 3 6 2 7 1 8 4 9 6 11 8 13
REMARK H PARENT 10 4 4 10 6 12 8 14
REMARK Flexibility Score: inf
ROOT
ATOM      1  C   UNL     1       2.904   5.011  39.497  1.00  0.00     0.171 C 
ENDROOT
BRANCH   1   2
ATOM      2  C   UNL     1       1.658   4.743  40.360  1.00  0.00     0.190 C 
BRANCH   2   3
ATOM      3  O   UNL     1       1.007   3.578  39.934  1.00  0.00    -0.394 OA
ATOM      4  H   UNL     1       0.310   3.871  39.291  1.00  0.00     0.210 HD
ENDBRANCH   2   3
ENDBRANCH   1   2
BRANCH   1   5
ATOM      5  C   UNL     1       2.704   4.610  38.005  1.00  0.00     0.181 C 
BRANCH   5   6
ATOM      6  C   UNL     1       3.578   3.414  37.533  1.00  0.00     0.209 C 
BRANCH   6   7
ATOM      7  C   UNL     1       3.197   2.885  36.172  1.00  0.00     0.258 C 
ATOM      8  O   UNL     1       2.647   1.802  36.048  1.00  0.00    -0.300 OA
ENDBRANCH   6   7
BRANCH   6   9
ATOM      9  O   UNL     1       3.573   2.381  38.487  1.00  0.00    -0.383 OA
ATOM     10  H   UNL     1       4.443   2.398  38.965  1.00  0.00     0.211 HD
ENDBRANCH   6   9
ENDBRANCH   5   6
BRANCH   5  11
ATOM     11  O   UNL     1       2.887   5.724  37.163  1.00  0.00    -0.387 OA
ATOM     12  H   UNL     1       3.512   5.461  36.439  1.00  0.00     0.211 HD
ENDBRANCH   5  11
ENDBRANCH   1   5
BRANCH   1  13
ATOM     13  O   UNL     1       3.191   6.385  39.567  1.00  0.00    -0.388 OA
ATOM     14  H   UNL     1       3.311   6.708  38.635  1.00  0.00     0.211 HD
ENDBRANCH   1  13
TORSDOF 8
ENDMDL
MODEL 6
REMARK VINA RESULT:    -3.782     13.006     14.208
REMARK INTER + INTRA:          -5.591
REMARK INTER:                  -5.080
REMARK INTRA:                  -0.510
REMARK UNBOUND:                -0.482
REMARK SMILES O=C[C@H](O)[C@H](O)[C@@H](O)CO
REMARK SMILES IDX 7 1 9 2 10 3 5 5 3 6 2 7 1 8 4 9 6 11 8 13
REMARK H PARENT 10 4 4 10 6 12 8 14
REMARK Flexibility Score: inf
ROOT
ATOM      1  C   UNL     1      12.981   0.158  48.109  1.00  0.00     0.171 C 
ENDROOT
BRANCH   1   2
ATOM      2  C   UNL     1      14.217   1.043  47.863  1.00  0.00     0.190 C 
BRANCH   2   3
ATOM      3  O   UNL     1      14.484   1.141  46.492  1.00  0.00    -0.394 OA
ATOM      4  H   UNL     1      15.129   0.416  46.284  1.00  0.00     0.210 HD
ENDBRANCH   2   3
ENDBRANCH   1   2
BRANCH   1   5
ATOM      5  C   UNL     1      11.641   0.895  47.815  1.00  0.00     0.181 C 
BRANCH   5   6
ATOM      6  C   UNL     1      10.493   0.572  48.812  1.00  0.00     0.209 C 
BRANCH   6   7
ATOM      7  C   UNL     1       9.979  -0.844  48.706  1.00  0.00     0.258 C 
ATOM      8  O   UNL     1      10.113  -1.488  47.678  1.00  0.00    -0.300 OA
ENDBRANCH   6   7
BRANCH   6   9
ATOM      9  O   UNL     1       9.439   1.494  48.681  1.00  0.00    -0.383 OA
ATOM     10  H   UNL     1       8.962   1.542  49.551  1.00  0.00     0.211 HD
ENDBRANCH   6   9
ENDBRANCH   5   6
BRANCH   5  11
ATOM     11  O   UNL     1      11.228   0.665  46.488  1.00  0.00    -0.387 OA
ATOM     12  H   UNL     1      10.809  -0.233  46.450  1.00  0.00     0.211 HD
ENDBRANCH   5  11
ENDBRANCH   1   5
BRANCH   1  13
ATOM     13  O   UNL     1      13.079  -0.966  47.269  1.00  0.00    -0.388 OA
ATOM     14  H   UNL     1      12.200  -1.429  47.294  1.00  0.00     0.211 HD
ENDBRANCH   1  13
TORSDOF 8
ENDMDL
MODEL 7
REMARK VINA RESULT:    -3.765      9.912     10.691
REMARK INTER + INTRA:          -5.568
REMARK INTER:                  -5.037
REMARK INTRA:                  -0.531
REMARK UNBOUND:                -0.482
REMARK SMILES O=C[C@H](O)[C@H](O)[C@@H](O)CO
REMARK SMILES IDX 7 1 9 2 10 3 5 5 3 6 2 7 1 8 4 9 6 11 8 13
REMARK H PARENT 10 4 4 10 6 12 8 14
REMARK Flexibility Score: inf
ROOT
ATOM      1  C   UNL     1       3.833  12.511  37.428  1.00  0.00     0.171 C 
ENDROOT
BRANCH   1   2
ATOM      2  C   UNL     1       2.636  13.024  38.249  1.00  0.00     0.190 C 
BRANCH   2   3
ATOM      3  O   UNL     1       2.857  12.823  39.617  1.00  0.00    -0.394 OA
ATOM      4  H   UNL     1       3.342  11.961  39.695  1.00  0.00     0.210 HD
ENDBRANCH   2   3
ENDBRANCH   1   2
BRANCH   1   5
ATOM      5  C   UNL     1       4.872  13.627  37.111  1.00  0.00     0.181 C 
BRANCH   5   6
ATOM      6  C   UNL     1       6.231  13.109  36.564  1.00  0.00     0.209 C 
BRANCH   6   7
ATOM      7  C   UNL     1       6.091  12.085  35.463  1.00  0.00     0.258 C 
ATOM      8  O   UNL     1       6.371  10.912  35.655  1.00  0.00    -0.300 OA
ENDBRANCH   6   7
BRANCH   6   9
ATOM      9  O   UNL     1       7.036  12.612  37.605  1.00  0.00    -0.383 OA
ATOM     10  H   UNL     1       6.483  12.572  38.428  1.00  0.00     0.211 HD
ENDBRANCH   6   9
ENDBRANCH   5   6
BRANCH   5  11
ATOM     11  O   UNL     1       5.069  14.456  38.232  1.00  0.00    -0.387 OA
ATOM     12  H   UNL     1       5.995  14.317  38.556  1.00  0.00     0.211 HD
ENDBRANCH   5  11
ENDBRANCH   1   5
BRANCH   1  13
ATOM     13  O   UNL     1       4.464  11.497  38.171  1.00  0.00    -0.388 OA
ATOM     14  H   UNL     1       5.027  10.977  37.539  1.00  0.00     0.211 HD
ENDBRANCH   1  13
TORSDOF 8
ENDMDL
MODEL 8
REMARK VINA RESULT:    -3.756      9.771     11.234
REMARK INTER + INTRA:          -5.556
REMARK INTER:                  -5.238
REMARK INTRA:                  -0.318
REMARK UNBOUND:                -0.482
REMARK SMILES O=C[C@H](O)[C@H](O)[C@@H](O)CO
REMARK SMILES IDX 7 1 9 2 10 3 5 5 3 6 2 7 1 8 4 9 6 11 8 13
REMARK H PARENT 10 4 4 10 6 12 8 14
REMARK Flexibility Score: inf
ROOT
ATOM      1  C   UNL     1       6.245  11.240  35.602  1.00  0.00     0.171 C 
ENDROOT
BRANCH   1   2
ATOM      2  C   UNL     1       4.974  10.391  35.422  1.00  0.00     0.190 C 
BRANCH   2   3
ATOM      3  O   UNL     1       5.227   9.302  34.579  1.00  0.00    -0.394 OA
ATOM      4  H   UNL     1       4.342   8.908  34.364  1.00  0.00     0.210 HD
ENDBRANCH   2   3
ENDBRANCH   1   2
BRANCH   1   5
ATOM      5  C   UNL     1       6.218  12.103  36.899  1.00  0.00     0.181 C 
BRANCH   5   6
ATOM      6  C   UNL     1       5.471  13.459  36.758  1.00  0.00     0.209 C 
BRANCH   6   7
ATOM      7  C   UNL     1       6.095  14.393  35.749  1.00  0.00     0.258 C 
ATOM      8  O   UNL     1       7.251  14.767  35.867  1.00  0.00    -0.300 OA
ENDBRANCH   6   7
BRANCH   6   9
ATOM      9  O   UNL     1       5.341  14.093  38.007  1.00  0.00    -0.383 OA
ATOM     10  H   UNL     1       4.829  13.489  38.607  1.00  0.00     0.211 HD
ENDBRANCH   6   9
ENDBRANCH   5   6
BRANCH   5  11
ATOM     11  O   UNL     1       7.522  12.301  37.391  1.00  0.00    -0.387 OA
ATOM     12  H   UNL     1       7.999  11.433  37.351  1.00  0.00     0.211 HD
ENDBRANCH   5  11
ENDBRANCH   1   5
BRANCH   1  13
ATOM     13  O   UNL     1       7.345  10.367  35.656  1.00  0.00    -0.388 OA
ATOM     14  H   UNL     1       7.172   9.722  36.393  1.00  0.00     0.211 HD
ENDBRANCH   1  13
TORSDOF 8
ENDMDL
MODEL 9
REMARK VINA RESULT:    -3.753      9.121     10.344
REMARK INTER + INTRA:          -5.552
REMARK INTER:                  -5.179
REMARK INTRA:                  -0.373
REMARK UNBOUND:                -0.482
REMARK SMILES O=C[C@H](O)[C@H](O)[C@@H](O)CO
REMARK SMILES IDX 7 1 9 2 10 3 5 5 3 6 2 7 1 8 4 9 6 11 8 13
REMARK H PARENT 10 4 4 10 6 12 8 14
REMARK Flexibility Score: inf
ROOT
ATOM      1  C   UNL     1       6.426  11.763  37.157  1.00  0.00     0.171 C 
ENDROOT
BRANCH   1   2
ATOM      2  C   UNL     1       5.151  12.526  37.558  1.00  0.00     0.190 C 
BRANCH   2   3
ATOM      3  O   UNL     1       5.459  13.845  37.913  1.00  0.00    -0.394 OA
ATOM      4  H   UNL     1       4.650  14.207  38.360  1.00  0.00     0.210 HD
ENDBRANCH   2   3
ENDBRANCH   1   2
BRANCH   1   5
ATOM      5  C   UNL     1       6.511  11.487  35.626  1.00  0.00     0.181 C 
BRANCH   5   6
ATOM      6  C   UNL     1       5.141  11.498  34.891  1.00  0.00     0.209 C 
BRANCH   6   7
ATOM      7  C   UNL     1       4.783  10.175  34.258  1.00  0.00     0.258 C 
ATOM      8  O   UNL     1       4.517   9.200  34.943  1.00  0.00    -0.300 OA
ENDBRANCH   6   7
BRANCH   6   9
ATOM      9  O   UNL     1       5.089  12.533  33.940  1.00  0.00    -0.383 OA
ATOM     10  H   UNL     1       4.620  12.188  33.135  1.00  0.00     0.211 HD
ENDBRANCH   6   9
ENDBRANCH   5   6
BRANCH   5  11
ATOM     11  O   UNL     1       7.201  10.286  35.376  1.00  0.00    -0.387 OA
ATOM     12  H   UNL     1       6.580   9.666  34.914  1.00  0.00     0.211 HD
ENDBRANCH   5  11
ENDBRANCH   1   5
BRANCH   1  13
ATOM     13  O   UNL     1       7.534  12.539  37.543  1.00  0.00    -0.388 OA
ATOM     14  H   UNL     1       8.341  11.969  37.442  1.00  0.00     0.211 HD
ENDBRANCH   1  13
TORSDOF 8
ENDMDL
