MODEL 1
REMARK VINA RESULT:    -7.577      0.000      0.000
REMARK INTER + INTRA:         -10.903
REMARK INTER:                 -10.456
REMARK INTRA:                  -0.446
REMARK UNBOUND:                -0.446
REMARK SMILES CC[C@H](CC[C@H](C)[C@@H]1CC[C@@H]2[C@H]3CC=C4C[C@H](O)CC[C@]4(C)[C@H]3CC[C@@]21C)C(C)C
REMARK SMILES IDX 5 1 4 2 3 3 2 4 1 5 28 6 29 7 30 8 6 9 7 10 8 11 9 12 26 13
REMARK SMILES IDX 10 14 11 15 25 16 27 17 12 18 24 19 23 20 13 21 21 22 14 23
REMARK SMILES IDX 15 24 20 25 22 26 16 27 19 28 17 29 18 30
REMARK H PARENT 18 31
REMARK Flexibility Score: inf
ROOT
ATOM      1  C   UNL     1       4.042 -20.306  -7.238  1.00  0.00     0.004 C 
ENDROOT
BRANCH   1   2
ATOM      2  C   UNL     1       5.301 -21.190  -7.084  1.00  0.00     0.004 C 
BRANCH   2   3
ATOM      3  C   UNL     1       6.495 -20.693  -7.956  1.00  0.00    -0.009 C 
BRANCH   3   4
ATOM      4  C   UNL     1       6.330 -19.178  -8.292  1.00  0.00     0.000 C 
ATOM      5  C   UNL     1       6.798 -18.769  -9.697  1.00  0.00     0.004 C 
ENDBRANCH   3   4
BRANCH   3   6
ATOM      6  C   UNL     1       7.880 -21.067  -7.315  1.00  0.00    -0.014 C 
ATOM      7  C   UNL     1       8.439 -22.414  -7.822  1.00  0.00     0.007 C 
ATOM      8  C   UNL     1       7.781 -21.144  -5.775  1.00  0.00     0.007 C 
ENDBRANCH   3   6
ENDBRANCH   2   3
ENDBRANCH   1   2
BRANCH   1   9
ATOM      9  C   UNL     1       2.742 -21.004  -6.745  1.00  0.00    -0.011 C 
ATOM     10  C   UNL     1       1.594 -20.740  -7.743  1.00  0.00     0.008 C 
BRANCH   9  11
ATOM     11  C   UNL     1       2.271 -20.622  -5.289  1.00  0.00    -0.002 C 
ATOM     12  C   UNL     1       0.768 -20.727  -5.024  1.00  0.00     0.005 C 
ATOM     13  C   UNL     1       2.715 -19.263  -4.663  1.00  0.00    -0.026 C 
ATOM     14  C   UNL     1       0.513 -19.924  -3.748  1.00  0.00     0.005 C 
ATOM     15  C   UNL     1       1.835 -19.222  -3.376  1.00  0.00    -0.001 C 
ATOM     16  C   UNL     1       2.400 -18.051  -5.581  1.00  0.00     0.007 C 
ATOM     17  C   UNL     1       4.234 -19.311  -4.339  1.00  0.00     0.012 C 
ATOM     18  C   UNL     1       1.594 -17.827  -2.716  1.00  0.00     0.000 C 
ATOM     19  C   UNL     1       2.378 -16.704  -4.846  1.00  0.00     0.005 C 
ATOM     20  C   UNL     1       1.287 -16.707  -3.742  1.00  0.00     0.003 C 
ATOM     21  C   UNL     1       2.760 -17.419  -1.800  1.00  0.00     0.031 C 
ATOM     22  C   UNL     1       0.999 -15.310  -3.031  1.00  0.00    -0.008 C 
ATOM     23  C   UNL     1       2.509 -16.096  -1.149  1.00  0.00    -0.027 C 
ATOM     24  C   UNL     1       1.781 -15.116  -1.722  1.00  0.00    -0.065 C 
ATOM     25  C   UNL     1      -0.519 -15.255  -2.654  1.00  0.00     0.014 C 
ATOM     26  C   UNL     1       1.312 -14.131  -3.993  1.00  0.00     0.016 C 
ATOM     27  C   UNL     1       1.455 -13.892  -0.890  1.00  0.00     0.063 C 
ATOM     28  C   UNL     1      -0.917 -14.047  -1.773  1.00  0.00     0.033 C 
ATOM     29  C   UNL     1      -0.035 -13.912  -0.518  1.00  0.00     0.118 C 
BRANCH  29  30
ATOM     30  O   UNL     1      -0.305 -14.973   0.363  1.00  0.00    -0.393 OA
ATOM     31  H   UNL     1       0.359 -14.909   1.099  1.00  0.00     0.210 HD
ENDBRANCH  29  30
ENDBRANCH   9  11
ENDBRANCH   1   9
TORSDOF 7
ENDMDL
MODEL 2
REMARK VINA RESULT:    -7.234      2.755      4.948
REMARK INTER + INTRA:         -10.429
REMARK INTER:                  -8.507
REMARK INTRA:                  -1.922
REMARK UNBOUND:                -0.446
REMARK SMILES CC[C@H](CC[C@H](C)[C@@H]1CC[C@@H]2[C@H]3CC=C4C[C@H](O)CC[C@]4(C)[C@H]3CC[C@@]21C)C(C)C
REMARK SMILES IDX 5 1 4 2 3 3 2 4 1 5 28 6 29 7 30 8 6 9 7 10 8 11 9 12 26 13
REMARK SMILES IDX 10 14 11 15 25 16 27 17 12 18 24 19 23 20 13 21 21 22 14 23
REMARK SMILES IDX 15 24 20 25 22 26 16 27 19 28 17 29 18 30
REMARK H PARENT 18 31
REMARK Flexibility Score: inf
ROOT
ATOM      1  C   UNL     1       4.512 -21.747  -7.120  1.00  0.00     0.004 C 
ENDROOT
BRANCH   1   2
ATOM      2  C   UNL     1       3.447 -20.637  -7.279  1.00  0.00     0.004 C 
BRANCH   2   3
ATOM      3  C   UNL     1       2.199 -20.868  -6.372  1.00  0.00    -0.009 C 
BRANCH   3   4
ATOM      4  C   UNL     1       1.927 -19.611  -5.488  1.00  0.00     0.000 C 
ATOM      5  C   UNL     1       2.297 -19.767  -4.004  1.00  0.00     0.004 C 
ENDBRANCH   3   4
BRANCH   3   6
ATOM      6  C   UNL     1       0.958 -21.356  -7.202  1.00  0.00    -0.014 C 
ATOM      7  C   UNL     1       0.486 -22.773  -6.811  1.00  0.00     0.007 C 
ATOM      8  C   UNL     1       1.264 -21.359  -8.716  1.00  0.00     0.007 C 
ENDBRANCH   3   6
ENDBRANCH   2   3
ENDBRANCH   1   2
BRANCH   1   9
ATOM      9  C   UNL     1       5.962 -21.192  -7.021  1.00  0.00    -0.011 C 
ATOM     10  C   UNL     1       6.964 -22.245  -7.540  1.00  0.00     0.008 C 
BRANCH   9  11
ATOM     11  C   UNL     1       6.410 -20.700  -5.591  1.00  0.00    -0.002 C 
ATOM     12  C   UNL     1       5.596 -21.240  -4.414  1.00  0.00     0.005 C 
ATOM     13  C   UNL     1       6.585 -19.173  -5.316  1.00  0.00    -0.026 C 
ATOM     14  C   UNL     1       5.918 -20.326  -3.230  1.00  0.00     0.005 C 
ATOM     15  C   UNL     1       6.779 -19.165  -3.768  1.00  0.00    -0.001 C 
ATOM     16  C   UNL     1       5.332 -18.347  -5.715  1.00  0.00     0.007 C 
ATOM     17  C   UNL     1       7.837 -18.649  -6.072  1.00  0.00     0.012 C 
ATOM     18  C   UNL     1       6.497 -17.826  -3.017  1.00  0.00     0.000 C 
ATOM     19  C   UNL     1       5.264 -16.964  -5.054  1.00  0.00     0.005 C 
ATOM     20  C   UNL     1       5.217 -17.104  -3.509  1.00  0.00     0.003 C 
ATOM     21  C   UNL     1       7.707 -16.878  -3.065  1.00  0.00     0.031 C 
ATOM     22  C   UNL     1       4.934 -15.768  -2.688  1.00  0.00    -0.008 C 
ATOM     23  C   UNL     1       7.440 -15.610  -2.319  1.00  0.00    -0.027 C 
ATOM     24  C   UNL     1       6.212 -15.064  -2.203  1.00  0.00    -0.065 C 
ATOM     25  C   UNL     1       4.120 -16.143  -1.405  1.00  0.00     0.014 C 
ATOM     26  C   UNL     1       4.092 -14.773  -3.534  1.00  0.00     0.016 C 
ATOM     27  C   UNL     1       6.045 -13.875  -1.278  1.00  0.00     0.063 C 
ATOM     28  C   UNL     1       3.941 -14.983  -0.397  1.00  0.00     0.033 C 
ATOM     29  C   UNL     1       5.275 -14.312  -0.022  1.00  0.00     0.118 C 
BRANCH  29  30
ATOM     30  O   UNL     1       6.050 -15.199   0.742  1.00  0.00    -0.393 OA
ATOM     31  H   UNL     1       6.327 -15.934   0.134  1.00  0.00     0.210 HD
ENDBRANCH  29  30
ENDBRANCH   9  11
ENDBRANCH   1   9
TORSDOF 7
ENDMDL
MODEL 3
REMARK VINA RESULT:    -6.991     13.585     15.418
REMARK INTER + INTRA:         -10.094
REMARK INTER:                  -8.331
REMARK INTRA:                  -1.763
REMARK UNBOUND:                -0.446
REMARK SMILES CC[C@H](CC[C@H](C)[C@@H]1CC[C@@H]2[C@H]3CC=C4C[C@H](O)CC[C@]4(C)[C@H]3CC[C@@]21C)C(C)C
REMARK SMILES IDX 5 1 4 2 3 3 2 4 1 5 28 6 29 7 30 8 6 9 7 10 8 11 9 12 26 13
REMARK SMILES IDX 10 14 11 15 25 16 27 17 12 18 24 19 23 20 13 21 21 22 14 23
REMARK SMILES IDX 15 24 20 25 22 26 16 27 19 28 17 29 18 30
REMARK H PARENT 18 31
REMARK Flexibility Score: inf
ROOT
ATOM      1  C   UNL     1       5.381 -33.584   4.339  1.00  0.00     0.004 C 
ENDROOT
BRANCH   1   2
ATOM      2  C   UNL     1       4.053 -33.923   5.056  1.00  0.00     0.004 C 
BRANCH   2   3
ATOM      3  C   UNL     1       3.305 -32.653   5.566  1.00  0.00    -0.009 C 
BRANCH   3   4
ATOM      4  C   UNL     1       1.804 -32.697   5.142  1.00  0.00     0.000 C 
ATOM      5  C   UNL     1       1.233 -34.106   4.913  1.00  0.00     0.004 C 
ENDBRANCH   3   4
BRANCH   3   6
ATOM      6  C   UNL     1       3.536 -32.420   7.103  1.00  0.00    -0.014 C 
ATOM      7  C   UNL     1       3.557 -33.731   7.918  1.00  0.00     0.007 C 
ATOM      8  C   UNL     1       2.443 -31.507   7.701  1.00  0.00     0.007 C 
ENDBRANCH   3   6
ENDBRANCH   2   3
ENDBRANCH   1   2
BRANCH   1   9
ATOM      9  C   UNL     1       5.222 -32.493   3.242  1.00  0.00    -0.011 C 
ATOM     10  C   UNL     1       5.579 -33.082   1.860  1.00  0.00     0.008 C 
BRANCH   9  11
ATOM     11  C   UNL     1       6.040 -31.165   3.474  1.00  0.00    -0.002 C 
ATOM     12  C   UNL     1       6.857 -31.101   4.766  1.00  0.00     0.005 C 
ATOM     13  C   UNL     1       5.322 -29.783   3.362  1.00  0.00    -0.026 C 
ATOM     14  C   UNL     1       7.193 -29.623   4.975  1.00  0.00     0.005 C 
ATOM     15  C   UNL     1       6.429 -28.824   3.900  1.00  0.00    -0.001 C 
ATOM     16  C   UNL     1       4.048 -29.698   4.244  1.00  0.00     0.007 C 
ATOM     17  C   UNL     1       4.967 -29.501   1.876  1.00  0.00     0.012 C 
ATOM     18  C   UNL     1       5.972 -27.424   4.422  1.00  0.00     0.000 C 
ATOM     19  C   UNL     1       3.586 -28.264   4.533  1.00  0.00     0.005 C 
ATOM     20  C   UNL     1       4.691 -27.481   5.291  1.00  0.00     0.003 C 
ATOM     21  C   UNL     1       5.806 -26.413   3.275  1.00  0.00     0.031 C 
ATOM     22  C   UNL     1       4.283 -26.044   5.846  1.00  0.00    -0.008 C 
ATOM     23  C   UNL     1       5.397 -25.068   3.785  1.00  0.00    -0.027 C 
ATOM     24  C   UNL     1       4.655 -24.893   4.897  1.00  0.00    -0.065 C 
ATOM     25  C   UNL     1       5.067 -25.791   7.178  1.00  0.00     0.014 C 
ATOM     26  C   UNL     1       2.761 -25.986   6.150  1.00  0.00     0.016 C 
ATOM     27  C   UNL     1       4.455 -23.479   5.404  1.00  0.00     0.063 C 
ATOM     28  C   UNL     1       4.936 -24.354   7.735  1.00  0.00     0.033 C 
ATOM     29  C   UNL     1       5.275 -23.278   6.687  1.00  0.00     0.118 C 
BRANCH  29  30
ATOM     30  O   UNL     1       6.650 -23.318   6.400  1.00  0.00    -0.393 OA
ATOM     31  H   UNL     1       6.757 -23.887   5.593  1.00  0.00     0.210 HD
ENDBRANCH  29  30
ENDBRANCH   9  11
ENDBRANCH   1   9
TORSDOF 7
ENDMDL
MODEL 4
REMARK VINA RESULT:    -6.583     11.996     13.545
REMARK INTER + INTRA:          -9.531
REMARK INTER:                  -7.403
REMARK INTRA:                  -2.127
REMARK UNBOUND:                -0.446
REMARK SMILES CC[C@H](CC[C@H](C)[C@@H]1CC[C@@H]2[C@H]3CC=C4C[C@H](O)CC[C@]4(C)[C@H]3CC[C@@]21C)C(C)C
REMARK SMILES IDX 5 1 4 2 3 3 2 4 1 5 28 6 29 7 30 8 6 9 7 10 8 11 9 12 26 13
REMARK SMILES IDX 10 14 11 15 25 16 27 17 12 18 24 19 23 20 13 21 21 22 14 23
REMARK SMILES IDX 15 24 20 25 22 26 16 27 19 28 17 29 18 30
REMARK H PARENT 18 31
REMARK Flexibility Score: inf
ROOT
ATOM      1  C   UNL     1       5.624 -33.039   1.661  1.00  0.00     0.004 C 
ENDROOT
BRANCH   1   2
ATOM      2  C   UNL     1       6.763 -33.277   0.643  1.00  0.00     0.004 C 
BRANCH   2   3
ATOM      3  C   UNL     1       6.814 -32.183  -0.467  1.00  0.00    -0.009 C 
BRANCH   3   4
ATOM      4  C   UNL     1       5.417 -31.509  -0.633  1.00  0.00     0.000 C 
ATOM      5  C   UNL     1       5.383 -30.000  -0.339  1.00  0.00     0.004 C 
ENDBRANCH   3   4
BRANCH   3   6
ATOM      6  C   UNL     1       7.996 -31.174  -0.236  1.00  0.00    -0.014 C 
ATOM      7  C   UNL     1       8.798 -30.875  -1.521  1.00  0.00     0.007 C 
ATOM      8  C   UNL     1       8.984 -31.702   0.828  1.00  0.00     0.007 C 
ENDBRANCH   3   6
ENDBRANCH   2   3
ENDBRANCH   1   2
BRANCH   1   9
ATOM      9  C   UNL     1       6.140 -32.672   3.082  1.00  0.00    -0.011 C 
ATOM     10  C   UNL     1       6.154 -33.929   3.977  1.00  0.00     0.008 C 
BRANCH   9  11
ATOM     11  C   UNL     1       5.361 -31.513   3.815  1.00  0.00    -0.002 C 
ATOM     12  C   UNL     1       4.010 -31.128   3.208  1.00  0.00     0.005 C 
ATOM     13  C   UNL     1       6.085 -30.164   4.120  1.00  0.00    -0.026 C 
ATOM     14  C   UNL     1       3.665 -29.758   3.793  1.00  0.00     0.005 C 
ATOM     15  C   UNL     1       4.890 -29.283   4.601  1.00  0.00    -0.001 C 
ATOM     16  C   UNL     1       6.750 -29.545   2.862  1.00  0.00     0.007 C 
ATOM     17  C   UNL     1       7.144 -30.383   5.236  1.00  0.00     0.012 C 
ATOM     18  C   UNL     1       5.072 -27.733   4.536  1.00  0.00     0.000 C 
ATOM     19  C   UNL     1       7.054 -28.047   2.992  1.00  0.00     0.005 C 
ATOM     20  C   UNL     1       5.746 -27.247   3.228  1.00  0.00     0.003 C 
ATOM     21  C   UNL     1       5.823 -27.194   5.766  1.00  0.00     0.031 C 
ATOM     22  C   UNL     1       5.869 -25.659   3.175  1.00  0.00    -0.008 C 
ATOM     23  C   UNL     1       5.967 -25.707   5.711  1.00  0.00    -0.027 C 
ATOM     24  C   UNL     1       6.061 -25.014   4.558  1.00  0.00    -0.065 C 
ATOM     25  C   UNL     1       4.535 -25.081   2.596  1.00  0.00     0.014 C 
ATOM     26  C   UNL     1       7.038 -25.232   2.245  1.00  0.00     0.016 C 
ATOM     27  C   UNL     1       6.028 -23.501   4.631  1.00  0.00     0.063 C 
ATOM     28  C   UNL     1       4.418 -23.541   2.672  1.00  0.00     0.033 C 
ATOM     29  C   UNL     1       4.684 -22.994   4.087  1.00  0.00     0.118 C 
BRANCH  29  30
ATOM     30  O   UNL     1       3.636 -23.373   4.942  1.00  0.00    -0.393 OA
ATOM     31  H   UNL     1       4.054 -23.660   5.796  1.00  0.00     0.210 HD
ENDBRANCH  29  30
ENDBRANCH   9  11
ENDBRANCH   1   9
TORSDOF 7
ENDMDL
MODEL 5
REMARK VINA RESULT:    -6.579      2.030      3.789
REMARK INTER + INTRA:          -9.526
REMARK INTER:                  -7.603
REMARK INTRA:                  -1.923
REMARK UNBOUND:                -0.446
REMARK SMILES CC[C@H](CC[C@H](C)[C@@H]1CC[C@@H]2[C@H]3CC=C4C[C@H](O)CC[C@]4(C)[C@H]3CC[C@@]21C)C(C)C
REMARK SMILES IDX 5 1 4 2 3 3 2 4 1 5 28 6 29 7 30 8 6 9 7 10 8 11 9 12 26 13
REMARK SMILES IDX 10 14 11 15 25 16 27 17 12 18 24 19 23 20 13 21 21 22 14 23
REMARK SMILES IDX 15 24 20 25 22 26 16 27 19 28 17 29 18 30
REMARK H PARENT 18 31
REMARK Flexibility Score: inf
ROOT
ATOM      1  C   UNL     1       8.346 -21.359  -5.323  1.00  0.00     0.004 C 
ENDROOT
BRANCH   1   2
ATOM      2  C   UNL     1       8.454 -20.152  -6.283  1.00  0.00     0.004 C 
BRANCH   2   3
ATOM      3  C   UNL     1       7.745 -20.405  -7.648  1.00  0.00    -0.009 C 
BRANCH   3   4
ATOM      4  C   UNL     1       7.059 -21.806  -7.655  1.00  0.00     0.000 C 
ATOM      5  C   UNL     1       7.681 -22.830  -8.618  1.00  0.00     0.004 C 
ENDBRANCH   3   4
BRANCH   3   6
ATOM      6  C   UNL     1       6.793 -19.217  -8.039  1.00  0.00    -0.014 C 
ATOM      7  C   UNL     1       5.347 -19.408  -7.533  1.00  0.00     0.007 C 
ATOM      8  C   UNL     1       6.738 -19.025  -9.570  1.00  0.00     0.007 C 
ENDBRANCH   3   6
ENDBRANCH   2   3
ENDBRANCH   1   2
BRANCH   1   9
ATOM      9  C   UNL     1       8.100 -20.943  -3.845  1.00  0.00    -0.011 C 
ATOM     10  C   UNL     1       8.760 -21.966  -2.894  1.00  0.00     0.008 C 
BRANCH   9  11
ATOM     11  C   UNL     1       6.590 -20.743  -3.433  1.00  0.00    -0.002 C 
ATOM     12  C   UNL     1       5.552 -21.189  -4.464  1.00  0.00     0.005 C 
ATOM     13  C   UNL     1       6.105 -19.349  -2.923  1.00  0.00    -0.026 C 
ATOM     14  C   UNL     1       4.239 -20.522  -4.049  1.00  0.00     0.005 C 
ATOM     15  C   UNL     1       4.560 -19.562  -2.885  1.00  0.00    -0.001 C 
ATOM     16  C   UNL     1       6.475 -18.196  -3.895  1.00  0.00     0.007 C 
ATOM     17  C   UNL     1       6.699 -19.075  -1.514  1.00  0.00     0.012 C 
ATOM     18  C   UNL     1       3.659 -18.287  -2.909  1.00  0.00     0.000 C 
ATOM     19  C   UNL     1       5.643 -16.922  -3.693  1.00  0.00     0.005 C 
ATOM     20  C   UNL     1       4.137 -17.217  -3.922  1.00  0.00     0.003 C 
ATOM     21  C   UNL     1       3.500 -17.674  -1.507  1.00  0.00     0.031 C 
ATOM     22  C   UNL     1       3.167 -15.953  -3.955  1.00  0.00    -0.008 C 
ATOM     23  C   UNL     1       2.613 -16.471  -1.532  1.00  0.00    -0.027 C 
ATOM     24  C   UNL     1       2.509 -15.651  -2.598  1.00  0.00    -0.065 C 
ATOM     25  C   UNL     1       2.002 -16.252  -4.956  1.00  0.00     0.014 C 
ATOM     26  C   UNL     1       3.929 -14.690  -4.445  1.00  0.00     0.016 C 
ATOM     27  C   UNL     1       1.449 -14.569  -2.563  1.00  0.00     0.063 C 
ATOM     28  C   UNL     1       0.864 -15.204  -4.948  1.00  0.00     0.033 C 
ATOM     29  C   UNL     1       0.316 -14.935  -3.534  1.00  0.00     0.118 C 
BRANCH  29  30
ATOM     30  O   UNL     1      -0.375 -16.068  -3.075  1.00  0.00    -0.393 OA
ATOM     31  H   UNL     1      -1.185 -15.737  -2.602  1.00  0.00     0.210 HD
ENDBRANCH  29  30
ENDBRANCH   9  11
ENDBRANCH   1   9
TORSDOF 7
ENDMDL
MODEL 6
REMARK VINA RESULT:    -6.576     11.931     15.521
REMARK INTER + INTRA:          -9.521
REMARK INTER:                  -7.980
REMARK INTRA:                  -1.542
REMARK UNBOUND:                -0.446
REMARK SMILES CC[C@H](CC[C@H](C)[C@@H]1CC[C@@H]2[C@H]3CC=C4C[C@H](O)CC[C@]4(C)[C@H]3CC[C@@]21C)C(C)C
REMARK SMILES IDX 5 1 4 2 3 3 2 4 1 5 28 6 29 7 30 8 6 9 7 10 8 11 9 12 26 13
REMARK SMILES IDX 10 14 11 15 25 16 27 17 12 18 24 19 23 20 13 21 21 22 14 23
REMARK SMILES IDX 15 24 20 25 22 26 16 27 19 28 17 29 18 30
REMARK H PARENT 18 31
REMARK Flexibility Score: inf
ROOT
ATOM      1  C   UNL     1       4.121 -26.112   5.319  1.00  0.00     0.004 C 
ENDROOT
BRANCH   1   2
ATOM      2  C   UNL     1       3.914 -25.102   6.472  1.00  0.00     0.004 C 
BRANCH   2   3
ATOM      3  C   UNL     1       4.366 -23.658   6.095  1.00  0.00    -0.009 C 
BRANCH   3   4
ATOM      4  C   UNL     1       5.386 -23.115   7.144  1.00  0.00     0.000 C 
ATOM      5  C   UNL     1       5.138 -23.573   8.590  1.00  0.00     0.004 C 
ENDBRANCH   3   4
BRANCH   3   6
ATOM      6  C   UNL     1       4.863 -23.574   4.607  1.00  0.00    -0.014 C 
ATOM      7  C   UNL     1       6.284 -22.985   4.474  1.00  0.00     0.007 C 
ATOM      8  C   UNL     1       3.911 -22.713   3.747  1.00  0.00     0.007 C 
ENDBRANCH   3   6
ENDBRANCH   2   3
ENDBRANCH   1   2
BRANCH   1   9
ATOM      9  C   UNL     1       5.288 -27.106   5.581  1.00  0.00    -0.011 C 
ATOM     10  C   UNL     1       6.131 -26.623   6.780  1.00  0.00     0.008 C 
BRANCH   9  11
ATOM     11  C   UNL     1       6.236 -27.387   4.352  1.00  0.00    -0.002 C 
ATOM     12  C   UNL     1       5.983 -26.538   3.105  1.00  0.00     0.005 C 
ATOM     13  C   UNL     1       6.421 -28.849   3.834  1.00  0.00    -0.026 C 
ATOM     14  C   UNL     1       6.694 -27.258   1.958  1.00  0.00     0.005 C 
ATOM     15  C   UNL     1       7.209 -28.603   2.510  1.00  0.00    -0.001 C 
ATOM     16  C   UNL     1       5.069 -29.555   3.544  1.00  0.00     0.007 C 
ATOM     17  C   UNL     1       7.243 -29.667   4.868  1.00  0.00     0.012 C 
ATOM     18  C   UNL     1       7.172 -29.733   1.434  1.00  0.00     0.000 C 
ATOM     19  C   UNL     1       5.191 -30.773   2.619  1.00  0.00     0.005 C 
ATOM     20  C   UNL     1       5.764 -30.352   1.240  1.00  0.00     0.003 C 
ATOM     21  C   UNL     1       8.212 -30.830   1.721  1.00  0.00     0.031 C 
ATOM     22  C   UNL     1       5.755 -31.466   0.101  1.00  0.00    -0.008 C 
ATOM     23  C   UNL     1       8.191 -31.894   0.671  1.00  0.00    -0.027 C 
ATOM     24  C   UNL     1       7.080 -32.238  -0.012  1.00  0.00    -0.065 C 
ATOM     25  C   UNL     1       5.534 -30.758  -1.277  1.00  0.00     0.014 C 
ATOM     26  C   UNL     1       4.595 -32.474   0.330  1.00  0.00     0.016 C 
ATOM     27  C   UNL     1       7.226 -33.206  -1.169  1.00  0.00     0.063 C 
ATOM     28  C   UNL     1       5.704 -31.681  -2.507  1.00  0.00     0.033 C 
ATOM     29  C   UNL     1       7.039 -32.449  -2.493  1.00  0.00     0.118 C 
BRANCH  29  30
ATOM     30  O   UNL     1       8.100 -31.552  -2.697  1.00  0.00    -0.393 OA
ATOM     31  H   UNL     1       8.930 -32.095  -2.736  1.00  0.00     0.210 HD
ENDBRANCH  29  30
ENDBRANCH   9  11
ENDBRANCH   1   9
TORSDOF 7
ENDMDL
MODEL 7
REMARK VINA RESULT:    -6.556     13.379     17.374
REMARK INTER + INTRA:          -9.494
REMARK INTER:                  -8.323
REMARK INTRA:                  -1.171
REMARK UNBOUND:                -0.446
REMARK SMILES CC[C@H](CC[C@H](C)[C@@H]1CC[C@@H]2[C@H]3CC=C4C[C@H](O)CC[C@]4(C)[C@H]3CC[C@@]21C)C(C)C
REMARK SMILES IDX 5 1 4 2 3 3 2 4 1 5 28 6 29 7 30 8 6 9 7 10 8 11 9 12 26 13
REMARK SMILES IDX 10 14 11 15 25 16 27 17 12 18 24 19 23 20 13 21 21 22 14 23
REMARK SMILES IDX 15 24 20 25 22 26 16 27 19 28 17 29 18 30
REMARK H PARENT 18 31
REMARK Flexibility Score: inf
ROOT
ATOM      1  C   UNL     1      -9.548 -23.333  -1.553  1.00  0.00     0.004 C 
ENDROOT
BRANCH   1   2
ATOM      2  C   UNL     1      -9.925 -23.015  -0.088  1.00  0.00     0.004 C 
BRANCH   2   3
ATOM      3  C   UNL     1      -9.291 -21.684   0.420  1.00  0.00    -0.009 C 
BRANCH   3   4
ATOM      4  C   UNL     1      -9.170 -20.657  -0.749  1.00  0.00     0.000 C 
ATOM      5  C   UNL     1      -9.725 -19.257  -0.444  1.00  0.00     0.004 C 
ENDBRANCH   3   4
BRANCH   3   6
ATOM      6  C   UNL     1     -10.033 -21.133   1.690  1.00  0.00    -0.014 C 
ATOM      7  C   UNL     1      -9.068 -20.671   2.804  1.00  0.00     0.007 C 
ATOM      8  C   UNL     1     -10.977 -22.197   2.293  1.00  0.00     0.007 C 
ENDBRANCH   3   6
ENDBRANCH   2   3
ENDBRANCH   1   2
BRANCH   1   9
ATOM      9  C   UNL     1      -8.247 -24.175  -1.680  1.00  0.00    -0.011 C 
ATOM     10  C   UNL     1      -7.192 -23.392  -2.490  1.00  0.00     0.008 C 
BRANCH   9  11
ATOM     11  C   UNL     1      -8.421 -25.615  -2.300  1.00  0.00    -0.002 C 
ATOM     12  C   UNL     1      -9.831 -25.972  -2.774  1.00  0.00     0.005 C 
ATOM     13  C   UNL     1      -7.913 -26.864  -1.512  1.00  0.00    -0.026 C 
ATOM     14  C   UNL     1      -9.850 -27.495  -2.919  1.00  0.00     0.005 C 
ATOM     15  C   UNL     1      -8.509 -28.024  -2.369  1.00  0.00    -0.001 C 
ATOM     16  C   UNL     1      -8.461 -26.918  -0.060  1.00  0.00     0.007 C 
ATOM     17  C   UNL     1      -6.360 -26.875  -1.501  1.00  0.00     0.012 C 
ATOM     18  C   UNL     1      -8.666 -29.416  -1.680  1.00  0.00     0.000 C 
ATOM     19  C   UNL     1      -8.386 -28.310   0.580  1.00  0.00     0.005 C 
ATOM     20  C   UNL     1      -9.224 -29.328  -0.237  1.00  0.00     0.003 C 
ATOM     21  C   UNL     1      -7.353 -30.217  -1.706  1.00  0.00     0.031 C 
ATOM     22  C   UNL     1      -9.416 -30.770   0.416  1.00  0.00    -0.008 C 
ATOM     23  C   UNL     1      -7.517 -31.561  -1.071  1.00  0.00    -0.027 C 
ATOM     24  C   UNL     1      -8.388 -31.804  -0.071  1.00  0.00    -0.065 C 
ATOM     25  C   UNL     1     -10.824 -31.313   0.001  1.00  0.00     0.014 C 
ATOM     26  C   UNL     1      -9.357 -30.681   1.966  1.00  0.00     0.016 C 
ATOM     27  C   UNL     1      -8.585 -33.242   0.368  1.00  0.00     0.063 C 
ATOM     28  C   UNL     1     -11.080 -32.789   0.387  1.00  0.00     0.033 C 
ATOM     29  C   UNL     1      -9.963 -33.732  -0.099  1.00  0.00     0.118 C 
BRANCH  29  30
ATOM     30  O   UNL     1     -10.001 -33.823  -1.500  1.00  0.00    -0.393 OA
ATOM     31  H   UNL     1     -10.488 -33.020  -1.826  1.00  0.00     0.210 HD
ENDBRANCH  29  30
ENDBRANCH   9  11
ENDBRANCH   1   9
TORSDOF 7
ENDMDL
MODEL 8
REMARK VINA RESULT:    -6.522     12.464     15.692
REMARK INTER + INTRA:          -9.447
REMARK INTER:                  -8.652
REMARK INTRA:                  -0.795
REMARK UNBOUND:                -0.446
REMARK SMILES CC[C@H](CC[C@H](C)[C@@H]1CC[C@@H]2[C@H]3CC=C4C[C@H](O)CC[C@]4(C)[C@H]3CC[C@@]21C)C(C)C
REMARK SMILES IDX 5 1 4 2 3 3 2 4 1 5 28 6 29 7 30 8 6 9 7 10 8 11 9 12 26 13
REMARK SMILES IDX 10 14 11 15 25 16 27 17 12 18 24 19 23 20 13 21 21 22 14 23
REMARK SMILES IDX 15 24 20 25 22 26 16 27 19 28 17 29 18 30
REMARK H PARENT 18 31
REMARK Flexibility Score: inf
ROOT
ATOM      1  C   UNL     1       4.108 -25.495   5.160  1.00  0.00     0.004 C 
ENDROOT
BRANCH   1   2
ATOM      2  C   UNL     1       4.081 -24.826   6.554  1.00  0.00     0.004 C 
BRANCH   2   3
ATOM      3  C   UNL     1       5.418 -25.011   7.335  1.00  0.00    -0.009 C 
BRANCH   3   4
ATOM      4  C   UNL     1       6.189 -23.658   7.425  1.00  0.00     0.000 C 
ATOM      5  C   UNL     1       5.442 -22.444   6.852  1.00  0.00     0.004 C 
ENDBRANCH   3   4
BRANCH   3   6
ATOM      6  C   UNL     1       5.190 -25.720   8.719  1.00  0.00    -0.014 C 
ATOM      7  C   UNL     1       3.874 -26.525   8.778  1.00  0.00     0.007 C 
ATOM      8  C   UNL     1       5.172 -24.696   9.875  1.00  0.00     0.007 C 
ENDBRANCH   3   6
ENDBRANCH   2   3
ENDBRANCH   1   2
BRANCH   1   9
ATOM      9  C   UNL     1       5.221 -24.930   4.232  1.00  0.00    -0.011 C 
ATOM     10  C   UNL     1       4.588 -24.080   3.110  1.00  0.00     0.008 C 
BRANCH   9  11
ATOM     11  C   UNL     1       6.190 -25.999   3.598  1.00  0.00    -0.002 C 
ATOM     12  C   UNL     1       6.507 -25.816   2.112  1.00  0.00     0.005 C 
ATOM     13  C   UNL     1       5.891 -27.521   3.779  1.00  0.00    -0.026 C 
ATOM     14  C   UNL     1       7.079 -27.153   1.639  1.00  0.00     0.005 C 
ATOM     15  C   UNL     1       6.934 -28.152   2.805  1.00  0.00    -0.001 C 
ATOM     16  C   UNL     1       4.446 -27.900   3.354  1.00  0.00     0.007 C 
ATOM     17  C   UNL     1       6.140 -27.928   5.257  1.00  0.00     0.012 C 
ATOM     18  C   UNL     1       6.659 -29.605   2.304  1.00  0.00     0.000 C 
ATOM     19  C   UNL     1       4.255 -29.396   3.069  1.00  0.00     0.005 C 
ATOM     20  C   UNL     1       5.180 -29.849   1.910  1.00  0.00     0.003 C 
ATOM     21  C   UNL     1       7.132 -30.659   3.320  1.00  0.00     0.031 C 
ATOM     22  C   UNL     1       4.948 -31.326   1.357  1.00  0.00    -0.008 C 
ATOM     23  C   UNL     1       6.892 -32.048   2.820  1.00  0.00    -0.027 C 
ATOM     24  C   UNL     1       5.874 -32.373   1.997  1.00  0.00    -0.065 C 
ATOM     25  C   UNL     1       5.263 -31.332  -0.176  1.00  0.00     0.014 C 
ATOM     26  C   UNL     1       3.469 -31.760   1.560  1.00  0.00     0.016 C 
ATOM     27  C   UNL     1       5.841 -33.776   1.425  1.00  0.00     0.063 C 
ATOM     28  C   UNL     1       5.281 -32.738  -0.821  1.00  0.00     0.033 C 
ATOM     29  C   UNL     1       6.195 -33.724  -0.069  1.00  0.00     0.118 C 
BRANCH  29  30
ATOM     30  O   UNL     1       7.537 -33.345  -0.241  1.00  0.00    -0.393 OA
ATOM     31  H   UNL     1       7.683 -32.544   0.328  1.00  0.00     0.210 HD
ENDBRANCH  29  30
ENDBRANCH   9  11
ENDBRANCH   1   9
TORSDOF 7
ENDMDL
MODEL 9
REMARK VINA RESULT:    -6.496     12.233     14.407
REMARK INTER + INTRA:          -9.411
REMARK INTER:                  -7.398
REMARK INTRA:                  -2.012
REMARK UNBOUND:                -0.446
REMARK SMILES CC[C@H](CC[C@H](C)[C@@H]1CC[C@@H]2[C@H]3CC=C4C[C@H](O)CC[C@]4(C)[C@H]3CC[C@@]21C)C(C)C
REMARK SMILES IDX 5 1 4 2 3 3 2 4 1 5 28 6 29 7 30 8 6 9 7 10 8 11 9 12 26 13
REMARK SMILES IDX 10 14 11 15 25 16 27 17 12 18 24 19 23 20 13 21 21 22 14 23
REMARK SMILES IDX 15 24 20 25 22 26 16 27 19 28 17 29 18 30
REMARK H PARENT 18 31
REMARK Flexibility Score: inf
ROOT
ATOM      1  C   UNL     1       7.020 -26.569   0.795  1.00  0.00     0.004 C 
ENDROOT
BRANCH   1   2
ATOM      2  C   UNL     1       6.500 -25.232   1.372  1.00  0.00     0.004 C 
BRANCH   2   3
ATOM      3  C   UNL     1       7.183 -24.854   2.722  1.00  0.00    -0.009 C 
BRANCH   3   4
ATOM      4  C   UNL     1       8.506 -24.068   2.463  1.00  0.00     0.000 C 
ATOM      5  C   UNL     1       8.629 -22.735   3.219  1.00  0.00     0.004 C 
ENDBRANCH   3   4
BRANCH   3   6
ATOM      6  C   UNL     1       6.184 -24.135   3.698  1.00  0.00    -0.014 C 
ATOM      7  C   UNL     1       6.124 -24.791   5.095  1.00  0.00     0.007 C 
ATOM      8  C   UNL     1       4.751 -24.118   3.121  1.00  0.00     0.007 C 
ENDBRANCH   3   6
ENDBRANCH   2   3
ENDBRANCH   1   2
BRANCH   1   9
ATOM      9  C   UNL     1       7.627 -27.506   1.878  1.00  0.00    -0.011 C 
ATOM     10  C   UNL     1       9.090 -27.846   1.520  1.00  0.00     0.008 C 
BRANCH   9  11
ATOM     11  C   UNL     1       6.831 -28.839   2.153  1.00  0.00    -0.002 C 
ATOM     12  C   UNL     1       5.953 -29.342   1.005  1.00  0.00     0.005 C 
ATOM     13  C   UNL     1       5.955 -28.968   3.440  1.00  0.00    -0.026 C 
ATOM     14  C   UNL     1       4.987 -30.351   1.630  1.00  0.00     0.005 C 
ATOM     15  C   UNL     1       5.197 -30.302   3.157  1.00  0.00    -0.001 C 
ATOM     16  C   UNL     1       4.954 -27.793   3.600  1.00  0.00     0.007 C 
ATOM     17  C   UNL     1       6.875 -29.064   4.688  1.00  0.00     0.012 C 
ATOM     18  C   UNL     1       3.870 -30.552   3.940  1.00  0.00     0.000 C 
ATOM     19  C   UNL     1       3.787 -28.096   4.549  1.00  0.00     0.005 C 
ATOM     20  C   UNL     1       2.961 -29.300   4.025  1.00  0.00     0.003 C 
ATOM     21  C   UNL     1       4.134 -31.127   5.343  1.00  0.00     0.031 C 
ATOM     22  C   UNL     1       1.595 -29.606   4.788  1.00  0.00    -0.008 C 
ATOM     23  C   UNL     1       2.858 -31.391   6.076  1.00  0.00    -0.027 C 
ATOM     24  C   UNL     1       1.734 -30.671   5.888  1.00  0.00    -0.065 C 
ATOM     25  C   UNL     1       0.568 -30.170   3.750  1.00  0.00     0.014 C 
ATOM     26  C   UNL     1       1.010 -28.306   5.405  1.00  0.00     0.016 C 
ATOM     27  C   UNL     1       0.462 -31.146   6.561  1.00  0.00     0.063 C 
ATOM     28  C   UNL     1      -0.742 -30.708   4.373  1.00  0.00     0.033 C 
ATOM     29  C   UNL     1      -0.489 -31.724   5.502  1.00  0.00     0.118 C 
BRANCH  29  30
ATOM     30  O   UNL     1       0.042 -32.906   4.961  1.00  0.00    -0.393 OA
ATOM     31  H   UNL     1       0.049 -33.578   5.693  1.00  0.00     0.210 HD
ENDBRANCH  29  30
ENDBRANCH   9  11
ENDBRANCH   1   9
TORSDOF 7
ENDMDL
