MODEL 1
REMARK VINA RESULT:    -5.715      0.000      0.000
REMARK INTER + INTRA:          -9.342
REMARK INTER:                  -8.054
REMARK INTRA:                  -1.288
REMARK UNBOUND:                -1.288
REMARK SMILES O=C(C=Cc1ccc(O)cc1)CC(=O)C=Cc1ccc(O)cc1
REMARK SMILES IDX 12 1 2 2 1 3 3 4 4 5 5 6 6 7 7 8 8 9 11 10 10 11 9 12 13 14
REMARK SMILES IDX 14 15 15 16 16 17 17 18 18 19 23 20 19 21 22 22 20 23 21 24
REMARK H PARENT 9 13 21 25
REMARK Flexibility Score: inf
ROOT
ATOM      1  C   UNL     1    -118.141  -4.831 -43.833  1.00  0.00     0.160 C 
ENDROOT
BRANCH   1   2
ATOM      2  C   UNL     1    -117.945  -4.550 -45.301  1.00  0.00     0.163 C 
ATOM      3  O   UNL     1    -118.808  -3.845 -45.891  1.00  0.00    -0.294 OA
BRANCH   2   4
ATOM      4  C   UNL     1    -116.767  -5.001 -46.081  1.00  0.00     0.048 C 
ATOM      5  C   UNL     1    -116.566  -4.707 -47.376  1.00  0.00     0.012 C 
BRANCH   5   6
ATOM      6  C   UNL     1    -115.395  -5.177 -48.161  1.00  0.00    -0.025 A 
ATOM      7  C   UNL     1    -115.604  -6.147 -49.156  1.00  0.00     0.012 A 
ATOM      8  C   UNL     1    -114.537  -6.622 -49.924  1.00  0.00     0.047 A 
ATOM      9  C   UNL     1    -113.246  -6.130 -49.716  1.00  0.00     0.115 A 
ATOM     10  C   UNL     1    -114.092  -4.673 -47.968  1.00  0.00     0.012 A 
ATOM     11  C   UNL     1    -113.027  -5.153 -48.737  1.00  0.00     0.047 A 
BRANCH   9  12
ATOM     12  O   UNL     1    -112.192  -6.614 -50.486  1.00  0.00    -0.508 OA
ATOM     13  H   UNL     1    -111.356  -6.065 -50.644  1.00  0.00     0.293 HD
ENDBRANCH   9  12
ENDBRANCH   5   6
ENDBRANCH   2   4
ENDBRANCH   1   2
BRANCH   1  14
ATOM     14  C   UNL     1    -117.666  -3.670 -43.009  1.00  0.00     0.163 C 
ATOM     15  O   UNL     1    -117.003  -3.898 -41.961  1.00  0.00    -0.294 OA
BRANCH  14  16
ATOM     16  C   UNL     1    -118.041  -2.286 -43.379  1.00  0.00     0.048 C 
ATOM     17  C   UNL     1    -117.181  -1.307 -43.701  1.00  0.00     0.012 C 
BRANCH  17  18
ATOM     18  C   UNL     1    -115.729  -1.481 -43.927  1.00  0.00    -0.025 A 
ATOM     19  C   UNL     1    -114.829  -1.122 -42.913  1.00  0.00     0.012 A 
ATOM     20  C   UNL     1    -115.231  -1.904 -45.173  1.00  0.00     0.012 A 
ATOM     21  C   UNL     1    -113.451  -1.235 -43.121  1.00  0.00     0.047 A 
ATOM     22  C   UNL     1    -113.851  -2.017 -45.378  1.00  0.00     0.047 A 
ATOM     23  C   UNL     1    -112.958  -1.688 -44.350  1.00  0.00     0.115 A 
BRANCH  23  24
ATOM     24  O   UNL     1    -111.583  -1.804 -44.539  1.00  0.00    -0.508 OA
ATOM     25  H   UNL     1    -110.949  -1.051 -44.296  1.00  0.00     0.293 HD
ENDBRANCH  23  24
ENDBRANCH  17  18
ENDBRANCH  14  16
ENDBRANCH   1  14
TORSDOF 8
ENDMDL
MODEL 2
REMARK VINA RESULT:    -5.677      1.570      4.570
REMARK INTER + INTRA:          -9.288
REMARK INTER:                  -7.681
REMARK INTRA:                  -1.607
REMARK UNBOUND:                -1.288
REMARK SMILES O=C(C=Cc1ccc(O)cc1)CC(=O)C=Cc1ccc(O)cc1
REMARK SMILES IDX 12 1 2 2 1 3 3 4 4 5 5 6 6 7 7 8 8 9 11 10 10 11 9 12 13 14
REMARK SMILES IDX 14 15 15 16 16 17 17 18 18 19 23 20 19 21 22 22 20 23 21 24
REMARK H PARENT 9 13 21 25
REMARK Flexibility Score: inf
ROOT
ATOM      1  C   UNL     1    -112.282  -2.739 -45.243  1.00  0.00     0.160 C 
ENDROOT
BRANCH   1   2
ATOM      2  C   UNL     1    -111.764  -2.559 -46.647  1.00  0.00     0.163 C 
ATOM      3  O   UNL     1    -110.904  -1.658 -46.852  1.00  0.00    -0.294 OA
BRANCH   2   4
ATOM      4  C   UNL     1    -112.155  -3.417 -47.791  1.00  0.00     0.048 C 
ATOM      5  C   UNL     1    -113.055  -4.410 -47.712  1.00  0.00     0.012 C 
BRANCH   5   6
ATOM      6  C   UNL     1    -113.431  -5.282 -48.854  1.00  0.00    -0.025 A 
ATOM      7  C   UNL     1    -112.433  -5.643 -49.776  1.00  0.00     0.012 A 
ATOM      8  C   UNL     1    -112.733  -6.462 -50.868  1.00  0.00     0.047 A 
ATOM      9  C   UNL     1    -114.032  -6.941 -51.052  1.00  0.00     0.115 A 
ATOM     10  C   UNL     1    -114.737  -5.785 -49.038  1.00  0.00     0.012 A 
ATOM     11  C   UNL     1    -115.033  -6.602 -50.133  1.00  0.00     0.047 A 
BRANCH   9  12
ATOM     12  O   UNL     1    -114.318  -7.755 -52.145  1.00  0.00    -0.508 OA
ATOM     13  H   UNL     1    -114.410  -7.374 -53.079  1.00  0.00     0.293 HD
ENDBRANCH   9  12
ENDBRANCH   5   6
ENDBRANCH   2   4
ENDBRANCH   1   2
BRANCH   1  14
ATOM     14  C   UNL     1    -113.250  -1.645 -44.897  1.00  0.00     0.163 C 
ATOM     15  O   UNL     1    -113.305  -1.235 -43.706  1.00  0.00    -0.294 OA
BRANCH  14  16
ATOM     16  C   UNL     1    -114.180  -1.115 -45.921  1.00  0.00     0.048 C 
ATOM     17  C   UNL     1    -115.398  -1.607 -46.193  1.00  0.00     0.012 C 
BRANCH  17  18
ATOM     18  C   UNL     1    -116.104  -2.637 -45.399  1.00  0.00    -0.025 A 
ATOM     19  C   UNL     1    -116.193  -3.946 -45.898  1.00  0.00     0.012 A 
ATOM     20  C   UNL     1    -116.772  -2.308 -44.206  1.00  0.00     0.012 A 
ATOM     21  C   UNL     1    -116.893  -4.925 -45.187  1.00  0.00     0.047 A 
ATOM     22  C   UNL     1    -117.473  -3.289 -43.497  1.00  0.00     0.047 A 
ATOM     23  C   UNL     1    -117.529  -4.602 -43.983  1.00  0.00     0.115 A 
BRANCH  23  24
ATOM     24  O   UNL     1    -118.216  -5.591 -43.282  1.00  0.00    -0.508 OA
ATOM     25  H   UNL     1    -118.137  -5.679 -42.275  1.00  0.00     0.293 HD
ENDBRANCH  23  24
ENDBRANCH  17  18
ENDBRANCH  14  16
ENDBRANCH   1  14
TORSDOF 8
ENDMDL
MODEL 3
REMARK VINA RESULT:    -5.559      1.797      4.594
REMARK INTER + INTRA:          -9.122
REMARK INTER:                  -7.518
REMARK INTRA:                  -1.605
REMARK UNBOUND:                -1.288
REMARK SMILES O=C(C=Cc1ccc(O)cc1)CC(=O)C=Cc1ccc(O)cc1
REMARK SMILES IDX 12 1 2 2 1 3 3 4 4 5 5 6 6 7 7 8 8 9 11 10 10 11 9 12 13 14
REMARK SMILES IDX 14 15 15 16 16 17 17 18 18 19 23 20 19 21 22 22 20 23 21 24
REMARK H PARENT 9 13 21 25
REMARK Flexibility Score: inf
ROOT
ATOM      1  C   UNL     1    -112.454  -3.113 -45.605  1.00  0.00     0.160 C 
ENDROOT
BRANCH   1   2
ATOM      2  C   UNL     1    -112.285  -3.453 -47.063  1.00  0.00     0.163 C 
ATOM      3  O   UNL     1    -111.527  -2.724 -47.760  1.00  0.00    -0.294 OA
BRANCH   2   4
ATOM      4  C   UNL     1    -112.907  -4.630 -47.717  1.00  0.00     0.048 C 
ATOM      5  C   UNL     1    -113.785  -4.550 -48.730  1.00  0.00     0.012 C 
BRANCH   5   6
ATOM      6  C   UNL     1    -114.423  -5.729 -49.369  1.00  0.00    -0.025 A 
ATOM      7  C   UNL     1    -113.594  -6.718 -49.927  1.00  0.00     0.012 A 
ATOM      8  C   UNL     1    -114.144  -7.847 -50.540  1.00  0.00     0.047 A 
ATOM      9  C   UNL     1    -115.530  -8.013 -50.597  1.00  0.00     0.115 A 
ATOM     10  C   UNL     1    -115.822  -5.913 -49.416  1.00  0.00     0.012 A 
ATOM     11  C   UNL     1    -116.367  -7.044 -50.032  1.00  0.00     0.047 A 
BRANCH   9  12
ATOM     12  O   UNL     1    -116.064  -9.142 -51.213  1.00  0.00    -0.508 OA
ATOM     13  H   UNL     1    -115.573 -10.028 -51.212  1.00  0.00     0.293 HD
ENDBRANCH   9  12
ENDBRANCH   5   6
ENDBRANCH   2   4
ENDBRANCH   1   2
BRANCH   1  14
ATOM     14  C   UNL     1    -113.240  -1.844 -45.450  1.00  0.00     0.163 C 
ATOM     15  O   UNL     1    -113.120  -1.179 -44.385  1.00  0.00    -0.294 OA
BRANCH  14  16
ATOM     16  C   UNL     1    -114.202  -1.426 -46.496  1.00  0.00     0.048 C 
ATOM     17  C   UNL     1    -115.434  -1.930 -46.666  1.00  0.00     0.012 C 
BRANCH  17  18
ATOM     18  C   UNL     1    -116.119  -2.852 -45.734  1.00  0.00    -0.025 A 
ATOM     19  C   UNL     1    -116.282  -4.198 -46.097  1.00  0.00     0.012 A 
ATOM     20  C   UNL     1    -116.698  -2.386 -44.540  1.00  0.00     0.012 A 
ATOM     21  C   UNL     1    -116.966  -5.077 -45.252  1.00  0.00     0.047 A 
ATOM     22  C   UNL     1    -117.382  -3.268 -43.697  1.00  0.00     0.047 A 
ATOM     23  C   UNL     1    -117.512  -4.618 -44.048  1.00  0.00     0.115 A 
BRANCH  23  24
ATOM     24  O   UNL     1    -118.184  -5.509 -43.214  1.00  0.00    -0.508 OA
ATOM     25  H   UNL     1    -118.204  -5.380 -42.208  1.00  0.00     0.293 HD
ENDBRANCH  23  24
ENDBRANCH  17  18
ENDBRANCH  14  16
ENDBRANCH   1  14
TORSDOF 8
ENDMDL
MODEL 4
REMARK VINA RESULT:    -5.479      4.591      7.670
REMARK INTER + INTRA:          -9.010
REMARK INTER:                  -7.484
REMARK INTRA:                  -1.526
REMARK UNBOUND:                -1.288
REMARK SMILES O=C(C=Cc1ccc(O)cc1)CC(=O)C=Cc1ccc(O)cc1
REMARK SMILES IDX 12 1 2 2 1 3 3 4 4 5 5 6 6 7 7 8 8 9 11 10 10 11 9 12 13 14
REMARK SMILES IDX 14 15 15 16 16 17 17 18 18 19 23 20 19 21 22 22 20 23 21 24
REMARK H PARENT 9 13 21 25
REMARK Flexibility Score: inf
ROOT
ATOM      1  C   UNL     1    -110.172  -2.421 -48.590  1.00  0.00     0.160 C 
ENDROOT
BRANCH   1   2
ATOM      2  C   UNL     1    -111.363  -2.688 -47.705  1.00  0.00     0.163 C 
ATOM      3  O   UNL     1    -111.458  -2.042 -46.625  1.00  0.00    -0.294 OA
BRANCH   2   4
ATOM      4  C   UNL     1    -112.462  -3.619 -48.054  1.00  0.00     0.048 C 
ATOM      5  C   UNL     1    -112.329  -4.658 -48.896  1.00  0.00     0.012 C 
BRANCH   5   6
ATOM      6  C   UNL     1    -113.437  -5.577 -49.261  1.00  0.00    -0.025 A 
ATOM      7  C   UNL     1    -114.730  -5.284 -48.794  1.00  0.00     0.012 A 
ATOM      8  C   UNL     1    -115.808  -6.116 -49.110  1.00  0.00     0.047 A 
ATOM      9  C   UNL     1    -115.613  -7.249 -49.905  1.00  0.00     0.115 A 
ATOM     10  C   UNL     1    -113.252  -6.713 -50.077  1.00  0.00     0.012 A 
ATOM     11  C   UNL     1    -114.333  -7.544 -50.389  1.00  0.00     0.047 A 
BRANCH   9  12
ATOM     12  O   UNL     1    -116.695  -8.070 -50.210  1.00  0.00    -0.508 OA
ATOM     13  H   UNL     1    -117.418  -8.270 -49.528  1.00  0.00     0.293 HD
ENDBRANCH   9  12
ENDBRANCH   5   6
ENDBRANCH   2   4
ENDBRANCH   1   2
BRANCH   1  14
ATOM     14  C   UNL     1    -110.467  -1.299 -49.542  1.00  0.00     0.163 C 
ATOM     15  O   UNL     1    -109.505  -0.672 -50.062  1.00  0.00    -0.294 OA
BRANCH  14  16
ATOM     16  C   UNL     1    -111.866  -0.884 -49.800  1.00  0.00     0.048 C 
ATOM     17  C   UNL     1    -112.558  -1.139 -50.921  1.00  0.00     0.012 C 
BRANCH  17  18
ATOM     18  C   UNL     1    -112.120  -2.035 -52.014  1.00  0.00    -0.025 A 
ATOM     19  C   UNL     1    -112.489  -3.388 -51.982  1.00  0.00     0.012 A 
ATOM     20  C   UNL     1    -111.259  -1.580 -53.029  1.00  0.00     0.012 A 
ATOM     21  C   UNL     1    -112.049  -4.262 -52.981  1.00  0.00     0.047 A 
ATOM     22  C   UNL     1    -110.820  -2.457 -54.027  1.00  0.00     0.047 A 
ATOM     23  C   UNL     1    -111.220  -3.800 -54.008  1.00  0.00     0.115 A 
BRANCH  23  24
ATOM     24  O   UNL     1    -110.797  -4.681 -55.001  1.00  0.00    -0.508 OA
ATOM     25  H   UNL     1    -111.255  -5.574 -55.146  1.00  0.00     0.293 HD
ENDBRANCH  23  24
ENDBRANCH  17  18
ENDBRANCH  14  16
ENDBRANCH   1  14
TORSDOF 8
ENDMDL
MODEL 5
REMARK VINA RESULT:    -5.435      2.852      5.601
REMARK INTER + INTRA:          -8.948
REMARK INTER:                  -6.663
REMARK INTRA:                  -2.284
REMARK UNBOUND:                -1.288
REMARK SMILES O=C(C=Cc1ccc(O)cc1)CC(=O)C=Cc1ccc(O)cc1
REMARK SMILES IDX 12 1 2 2 1 3 3 4 4 5 5 6 6 7 7 8 8 9 11 10 10 11 9 12 13 14
REMARK SMILES IDX 14 15 15 16 16 17 17 18 18 19 23 20 19 21 22 22 20 23 21 24
REMARK H PARENT 9 13 21 25
REMARK Flexibility Score: inf
ROOT
ATOM      1  C   UNL     1    -113.346  -3.941 -46.054  1.00  0.00     0.160 C 
ENDROOT
BRANCH   1   2
ATOM      2  C   UNL     1    -112.442  -3.194 -47.001  1.00  0.00     0.163 C 
ATOM      3  O   UNL     1    -111.608  -2.384 -46.513  1.00  0.00    -0.294 OA
BRANCH   2   4
ATOM      4  C   UNL     1    -112.430  -3.400 -48.470  1.00  0.00     0.048 C 
ATOM      5  C   UNL     1    -112.353  -4.604 -49.060  1.00  0.00     0.012 C 
BRANCH   5   6
ATOM      6  C   UNL     1    -112.320  -4.806 -50.531  1.00  0.00    -0.025 A 
ATOM      7  C   UNL     1    -112.074  -3.693 -51.354  1.00  0.00     0.012 A 
ATOM      8  C   UNL     1    -112.032  -3.829 -52.744  1.00  0.00     0.047 A 
ATOM      9  C   UNL     1    -112.225  -5.080 -53.335  1.00  0.00     0.115 A 
ATOM     10  C   UNL     1    -112.497  -6.069 -51.135  1.00  0.00     0.012 A 
ATOM     11  C   UNL     1    -112.456  -6.200 -52.526  1.00  0.00     0.047 A 
BRANCH   9  12
ATOM     12  O   UNL     1    -112.182  -5.201 -54.721  1.00  0.00    -0.508 OA
ATOM     13  H   UNL     1    -111.394  -5.629 -55.192  1.00  0.00     0.293 HD
ENDBRANCH   9  12
ENDBRANCH   5   6
ENDBRANCH   2   4
ENDBRANCH   1   2
BRANCH   1  14
ATOM     14  C   UNL     1    -114.708  -3.311 -46.022  1.00  0.00     0.163 C 
ATOM     15  O   UNL     1    -114.798  -2.053 -46.066  1.00  0.00    -0.294 OA
BRANCH  14  16
ATOM     16  C   UNL     1    -115.918  -4.149 -45.858  1.00  0.00     0.048 C 
ATOM     17  C   UNL     1    -116.681  -4.616 -46.858  1.00  0.00     0.012 C 
BRANCH  17  18
ATOM     18  C   UNL     1    -116.349  -4.539 -48.297  1.00  0.00    -0.025 A 
ATOM     19  C   UNL     1    -116.349  -3.289 -48.936  1.00  0.00     0.012 A 
ATOM     20  C   UNL     1    -116.133  -5.702 -49.060  1.00  0.00     0.012 A 
ATOM     21  C   UNL     1    -116.083  -3.198 -50.305  1.00  0.00     0.047 A 
ATOM     22  C   UNL     1    -115.867  -5.607 -50.430  1.00  0.00     0.047 A 
ATOM     23  C   UNL     1    -115.835  -4.353 -51.055  1.00  0.00     0.115 A 
BRANCH  23  24
ATOM     24  O   UNL     1    -115.563  -4.244 -52.417  1.00  0.00    -0.508 OA
ATOM     25  H   UNL     1    -114.987  -4.925 -52.898  1.00  0.00     0.293 HD
ENDBRANCH  23  24
ENDBRANCH  17  18
ENDBRANCH  14  16
ENDBRANCH   1  14
TORSDOF 8
ENDMDL
MODEL 6
REMARK VINA RESULT:    -5.283      2.038      3.306
REMARK INTER + INTRA:          -8.733
REMARK INTER:                  -6.438
REMARK INTRA:                  -2.294
REMARK UNBOUND:                -1.288
REMARK SMILES O=C(C=Cc1ccc(O)cc1)CC(=O)C=Cc1ccc(O)cc1
REMARK SMILES IDX 12 1 2 2 1 3 3 4 4 5 5 6 6 7 7 8 8 9 11 10 10 11 9 12 13 14
REMARK SMILES IDX 14 15 15 16 16 17 17 18 18 19 23 20 19 21 22 22 20 23 21 24
REMARK H PARENT 9 13 21 25
REMARK Flexibility Score: inf
ROOT
ATOM      1  C   UNL     1    -116.590  -3.650 -44.889  1.00  0.00     0.160 C 
ENDROOT
BRANCH   1   2
ATOM      2  C   UNL     1    -117.207  -4.262 -46.120  1.00  0.00     0.163 C 
ATOM      3  O   UNL     1    -118.455  -4.159 -46.273  1.00  0.00    -0.294 OA
BRANCH   2   4
ATOM      4  C   UNL     1    -116.430  -4.924 -47.195  1.00  0.00     0.048 C 
ATOM      5  C   UNL     1    -116.419  -4.518 -48.475  1.00  0.00     0.012 C 
BRANCH   5   6
ATOM      6  C   UNL     1    -115.656  -5.196 -49.554  1.00  0.00    -0.025 A 
ATOM      7  C   UNL     1    -115.262  -6.531 -49.357  1.00  0.00     0.012 A 
ATOM      8  C   UNL     1    -114.543  -7.214 -50.342  1.00  0.00     0.047 A 
ATOM      9  C   UNL     1    -114.213  -6.579 -51.541  1.00  0.00     0.115 A 
ATOM     10  C   UNL     1    -115.334  -4.567 -50.775  1.00  0.00     0.012 A 
ATOM     11  C   UNL     1    -114.612  -5.255 -51.756  1.00  0.00     0.047 A 
BRANCH   9  12
ATOM     12  O   UNL     1    -113.494  -7.272 -52.512  1.00  0.00    -0.508 OA
ATOM     13  H   UNL     1    -112.499  -7.131 -52.635  1.00  0.00     0.293 HD
ENDBRANCH   9  12
ENDBRANCH   5   6
ENDBRANCH   2   4
ENDBRANCH   1   2
BRANCH   1  14
ATOM     14  C   UNL     1    -116.028  -2.294 -45.202  1.00  0.00     0.163 C 
ATOM     15  O   UNL     1    -116.572  -1.603 -46.106  1.00  0.00    -0.294 OA
BRANCH  14  16
ATOM     16  C   UNL     1    -114.805  -1.813 -44.518  1.00  0.00     0.048 C 
ATOM     17  C   UNL     1    -113.546  -2.077 -44.899  1.00  0.00     0.012 C 
BRANCH  17  18
ATOM     18  C   UNL     1    -113.153  -2.731 -46.166  1.00  0.00    -0.025 A 
ATOM     19  C   UNL     1    -113.071  -4.131 -46.219  1.00  0.00     0.012 A 
ATOM     20  C   UNL     1    -112.764  -1.976 -47.288  1.00  0.00     0.012 A 
ATOM     21  C   UNL     1    -112.659  -4.769 -47.393  1.00  0.00     0.047 A 
ATOM     22  C   UNL     1    -112.351  -2.617 -48.460  1.00  0.00     0.047 A 
ATOM     23  C   UNL     1    -112.304  -4.017 -48.518  1.00  0.00     0.115 A 
BRANCH  23  24
ATOM     24  O   UNL     1    -111.903  -4.668 -49.682  1.00  0.00    -0.508 OA
ATOM     25  H   UNL     1    -112.521  -4.754 -50.481  1.00  0.00     0.293 HD
ENDBRANCH  23  24
ENDBRANCH  17  18
ENDBRANCH  14  16
ENDBRANCH   1  14
TORSDOF 8
ENDMDL
MODEL 7
REMARK VINA RESULT:    -5.231      1.370      2.278
REMARK INTER + INTRA:          -8.660
REMARK INTER:                  -6.616
REMARK INTRA:                  -2.044
REMARK UNBOUND:                -1.288
REMARK SMILES O=C(C=Cc1ccc(O)cc1)CC(=O)C=Cc1ccc(O)cc1
REMARK SMILES IDX 12 1 2 2 1 3 3 4 4 5 5 6 6 7 7 8 8 9 11 10 10 11 9 12 13 14
REMARK SMILES IDX 14 15 15 16 16 17 17 18 18 19 23 20 19 21 22 22 20 23 21 24
REMARK H PARENT 9 13 21 25
REMARK Flexibility Score: inf
ROOT
ATOM      1  C   UNL     1    -119.392  -4.265 -44.813  1.00  0.00     0.160 C 
ENDROOT
BRANCH   1   2
ATOM      2  C   UNL     1    -118.014  -4.664 -44.350  1.00  0.00     0.163 C 
ATOM      3  O   UNL     1    -117.814  -4.780 -43.110  1.00  0.00    -0.294 OA
BRANCH   2   4
ATOM      4  C   UNL     1    -116.895  -4.991 -45.266  1.00  0.00     0.048 C 
ATOM      5  C   UNL     1    -116.243  -4.084 -46.011  1.00  0.00     0.012 C 
BRANCH   5   6
ATOM      6  C   UNL     1    -115.137  -4.417 -46.944  1.00  0.00    -0.025 A 
ATOM      7  C   UNL     1    -113.825  -4.067 -46.578  1.00  0.00     0.012 A 
ATOM      8  C   UNL     1    -112.748  -4.359 -47.419  1.00  0.00     0.047 A 
ATOM      9  C   UNL     1    -112.962  -5.011 -48.636  1.00  0.00     0.115 A 
ATOM     10  C   UNL     1    -115.341  -5.091 -48.167  1.00  0.00     0.012 A 
ATOM     11  C   UNL     1    -114.261  -5.378 -49.006  1.00  0.00     0.047 A 
BRANCH   9  12
ATOM     12  O   UNL     1    -111.879  -5.293 -49.465  1.00  0.00    -0.508 OA
ATOM     13  H   UNL     1    -111.817  -6.165 -49.977  1.00  0.00     0.293 HD
ENDBRANCH   9  12
ENDBRANCH   5   6
ENDBRANCH   2   4
ENDBRANCH   1   2
BRANCH   1  14
ATOM     14  C   UNL     1    -119.452  -2.786 -45.064  1.00  0.00     0.163 C 
ATOM     15  O   UNL     1    -119.340  -2.365 -46.248  1.00  0.00    -0.294 OA
BRANCH  14  16
ATOM     16  C   UNL     1    -119.558  -1.837 -43.932  1.00  0.00     0.048 C 
ATOM     17  C   UNL     1    -118.533  -1.171 -43.378  1.00  0.00     0.012 C 
BRANCH  17  18
ATOM     18  C   UNL     1    -117.155  -1.118 -43.913  1.00  0.00    -0.025 A 
ATOM     19  C   UNL     1    -116.110  -1.694 -43.174  1.00  0.00     0.012 A 
ATOM     20  C   UNL     1    -116.857  -0.417 -45.095  1.00  0.00     0.012 A 
ATOM     21  C   UNL     1    -114.793  -1.617 -43.639  1.00  0.00     0.047 A 
ATOM     22  C   UNL     1    -115.539  -0.341 -45.557  1.00  0.00     0.047 A 
ATOM     23  C   UNL     1    -114.504  -0.947 -44.833  1.00  0.00     0.115 A 
BRANCH  23  24
ATOM     24  O   UNL     1    -113.188  -0.887 -45.286  1.00  0.00    -0.508 OA
ATOM     25  H   UNL     1    -112.497  -0.303 -44.829  1.00  0.00     0.293 HD
ENDBRANCH  23  24
ENDBRANCH  17  18
ENDBRANCH  14  16
ENDBRANCH   1  14
TORSDOF 8
ENDMDL
MODEL 8
REMARK VINA RESULT:    -5.170      1.994      5.935
REMARK INTER + INTRA:          -8.574
REMARK INTER:                  -6.427
REMARK INTRA:                  -2.148
REMARK UNBOUND:                -1.288
REMARK SMILES O=C(C=Cc1ccc(O)cc1)CC(=O)C=Cc1ccc(O)cc1
REMARK SMILES IDX 12 1 2 2 1 3 3 4 4 5 5 6 6 7 7 8 8 9 11 10 10 11 9 12 13 14
REMARK SMILES IDX 14 15 15 16 16 17 17 18 18 19 23 20 19 21 22 22 20 23 21 24
REMARK H PARENT 9 13 21 25
REMARK Flexibility Score: inf
ROOT
ATOM      1  C   UNL     1    -113.377  -5.635 -49.357  1.00  0.00     0.160 C 
ENDROOT
BRANCH   1   2
ATOM      2  C   UNL     1    -114.818  -6.026 -49.563  1.00  0.00     0.163 C 
ATOM      3  O   UNL     1    -115.102  -6.746 -50.559  1.00  0.00    -0.294 OA
BRANCH   2   4
ATOM      4  C   UNL     1    -115.914  -5.668 -48.631  1.00  0.00     0.048 C 
ATOM      5  C   UNL     1    -115.741  -4.965 -47.500  1.00  0.00     0.012 C 
BRANCH   5   6
ATOM      6  C   UNL     1    -116.837  -4.626 -46.557  1.00  0.00    -0.025 A 
ATOM      7  C   UNL     1    -116.750  -5.093 -45.235  1.00  0.00     0.012 A 
ATOM      8  C   UNL     1    -117.754  -4.802 -44.307  1.00  0.00     0.047 A 
ATOM      9  C   UNL     1    -118.857  -4.031 -44.683  1.00  0.00     0.115 A 
ATOM     10  C   UNL     1    -117.945  -3.833 -46.924  1.00  0.00     0.012 A 
ATOM     11  C   UNL     1    -118.948  -3.546 -45.993  1.00  0.00     0.047 A 
BRANCH   9  12
ATOM     12  O   UNL     1    -119.851  -3.750 -43.750  1.00  0.00    -0.508 OA
ATOM     13  H   UNL     1    -120.372  -2.881 -43.776  1.00  0.00     0.293 HD
ENDBRANCH   9  12
ENDBRANCH   5   6
ENDBRANCH   2   4
ENDBRANCH   1   2
BRANCH   1  14
ATOM     14  C   UNL     1    -113.121  -4.265 -49.914  1.00  0.00     0.163 C 
ATOM     15  O   UNL     1    -113.950  -3.773 -50.727  1.00  0.00    -0.294 OA
BRANCH  14  16
ATOM     16  C   UNL     1    -111.874  -3.539 -49.576  1.00  0.00     0.048 C 
ATOM     17  C   UNL     1    -111.734  -2.661 -48.571  1.00  0.00     0.012 C 
BRANCH  17  18
ATOM     18  C   UNL     1    -112.735  -2.402 -47.512  1.00  0.00    -0.025 A 
ATOM     19  C   UNL     1    -112.621  -3.069 -46.282  1.00  0.00     0.012 A 
ATOM     20  C   UNL     1    -113.852  -1.581 -47.749  1.00  0.00     0.012 A 
ATOM     21  C   UNL     1    -113.580  -2.874 -45.284  1.00  0.00     0.047 A 
ATOM     22  C   UNL     1    -114.810  -1.388 -46.748  1.00  0.00     0.047 A 
ATOM     23  C   UNL     1    -114.672  -2.030 -45.510  1.00  0.00     0.115 A 
BRANCH  23  24
ATOM     24  O   UNL     1    -115.615  -1.839 -44.502  1.00  0.00    -0.508 OA
ATOM     25  H   UNL     1    -115.964  -2.615 -43.950  1.00  0.00     0.293 HD
ENDBRANCH  23  24
ENDBRANCH  17  18
ENDBRANCH  14  16
ENDBRANCH   1  14
TORSDOF 8
ENDMDL
MODEL 9
REMARK VINA RESULT:    -5.167      2.232      7.281
REMARK INTER + INTRA:          -8.570
REMARK INTER:                  -6.911
REMARK INTRA:                  -1.659
REMARK UNBOUND:                -1.288
REMARK SMILES O=C(C=Cc1ccc(O)cc1)CC(=O)C=Cc1ccc(O)cc1
REMARK SMILES IDX 12 1 2 2 1 3 3 4 4 5 5 6 6 7 7 8 8 9 11 10 10 11 9 12 13 14
REMARK SMILES IDX 14 15 15 16 16 17 17 18 18 19 23 20 19 21 22 22 20 23 21 24
REMARK H PARENT 9 13 21 25
REMARK Flexibility Score: inf
ROOT
ATOM      1  C   UNL     1    -111.137  -3.089 -48.049  1.00  0.00     0.160 C 
ENDROOT
BRANCH   1   2
ATOM      2  C   UNL     1    -111.872  -2.429 -46.911  1.00  0.00     0.163 C 
ATOM      3  O   UNL     1    -111.507  -1.274 -46.557  1.00  0.00    -0.294 OA
BRANCH   2   4
ATOM      4  C   UNL     1    -113.040  -3.028 -46.221  1.00  0.00     0.048 C 
ATOM      5  C   UNL     1    -114.295  -2.563 -46.326  1.00  0.00     0.012 C 
BRANCH   5   6
ATOM      6  C   UNL     1    -115.460  -3.152 -45.617  1.00  0.00    -0.025 A 
ATOM      7  C   UNL     1    -115.979  -4.372 -46.083  1.00  0.00     0.012 A 
ATOM      8  C   UNL     1    -117.074  -4.969 -45.451  1.00  0.00     0.047 A 
ATOM      9  C   UNL     1    -117.662  -4.362 -44.339  1.00  0.00     0.115 A 
ATOM     10  C   UNL     1    -116.049  -2.554 -44.483  1.00  0.00     0.012 A 
ATOM     11  C   UNL     1    -117.145  -3.154 -43.855  1.00  0.00     0.047 A 
BRANCH   9  12
ATOM     12  O   UNL     1    -118.753  -4.967 -43.721  1.00  0.00    -0.508 OA
ATOM     13  H   UNL     1    -118.654  -5.824 -43.191  1.00  0.00     0.293 HD
ENDBRANCH   9  12
ENDBRANCH   5   6
ENDBRANCH   2   4
ENDBRANCH   1   2
BRANCH   1  14
ATOM     14  C   UNL     1    -111.268  -2.273 -49.302  1.00  0.00     0.163 C 
ATOM     15  O   UNL     1    -110.224  -1.951 -49.932  1.00  0.00    -0.294 OA
BRANCH  14  16
ATOM     16  C   UNL     1    -112.596  -1.785 -49.743  1.00  0.00     0.048 C 
ATOM     17  C   UNL     1    -113.582  -2.552 -50.233  1.00  0.00     0.012 C 
BRANCH  17  18
ATOM     18  C   UNL     1    -113.592  -4.031 -50.246  1.00  0.00    -0.025 A 
ATOM     19  C   UNL     1    -112.943  -4.713 -51.287  1.00  0.00     0.012 A 
ATOM     20  C   UNL     1    -114.322  -4.764 -49.293  1.00  0.00     0.012 A 
ATOM     21  C   UNL     1    -112.978  -6.110 -51.344  1.00  0.00     0.047 A 
ATOM     22  C   UNL     1    -114.355  -6.162 -49.353  1.00  0.00     0.047 A 
ATOM     23  C   UNL     1    -113.677  -6.838 -50.376  1.00  0.00     0.115 A 
BRANCH  23  24
ATOM     24  O   UNL     1    -113.695  -8.230 -50.442  1.00  0.00    -0.508 OA
ATOM     25  H   UNL     1    -114.460  -8.769 -50.052  1.00  0.00     0.293 HD
ENDBRANCH  23  24
ENDBRANCH  17  18
ENDBRANCH  14  16
ENDBRANCH   1  14
TORSDOF 8
ENDMDL
