MODEL 1
REMARK VINA RESULT:    -4.841      0.000      0.000
REMARK INTER + INTRA:         -12.632
REMARK INTER:                 -10.501
REMARK INTRA:                  -2.132
REMARK UNBOUND:                -2.132
REMARK SMILES CCCCCCCCCCCCCCCCCCCCCC(=O)[O-]
REMARK SMILES IDX 12 1 11 2 10 3 9 4 8 5 7 6 6 7 5 8 4 9 3 10 2 11 1 12 13 13
REMARK SMILES IDX 14 14 15 15 16 16 17 17 18 18 19 19 20 20 21 21 22 22 23 23
REMARK SMILES IDX 24 24
REMARK H PARENT
REMARK Flexibility Score: inf
ROOT
ATOM      1  C   UNL     1      48.879  63.815  93.626  1.00  0.00     0.000 C 
ENDROOT
BRANCH   1   2
ATOM      2  C   UNL     1      49.013  65.263  93.121  1.00  0.00     0.000 C 
BRANCH   2   3
ATOM      3  C   UNL     1      48.968  66.341  94.221  1.00  0.00     0.000 C 
BRANCH   3   4
ATOM      4  C   UNL     1      49.894  67.531  93.930  1.00  0.00    -0.000 C 
BRANCH   4   5
ATOM      5  C   UNL     1      51.083  67.100  93.056  1.00  0.00    -0.000 C 
BRANCH   5   6
ATOM      6  C   UNL     1      51.238  67.968  91.798  1.00  0.00    -0.000 C 
BRANCH   6   7
ATOM      7  C   UNL     1      50.514  67.378  90.576  1.00  0.00    -0.000 C 
BRANCH   7   8
ATOM      8  C   UNL     1      49.084  67.917  90.411  1.00  0.00    -0.000 C 
BRANCH   8   9
ATOM      9  C   UNL     1      48.008  66.811  90.378  1.00  0.00    -0.000 C 
BRANCH   9  10
ATOM     10  C   UNL     1      46.822  67.126  91.302  1.00  0.00    -0.000 C 
BRANCH  10  11
ATOM     11  C   UNL     1      45.683  66.120  91.099  1.00  0.00    -0.003 C 
ATOM     12  C   UNL     1      45.409  65.333  92.378  1.00  0.00     0.004 C 
ENDBRANCH  10  11
ENDBRANCH   9  10
ENDBRANCH   8   9
ENDBRANCH   7   8
ENDBRANCH   6   7
ENDBRANCH   5   6
ENDBRANCH   4   5
ENDBRANCH   3   4
ENDBRANCH   2   3
ENDBRANCH   1   2
BRANCH   1  13
ATOM     13  C   UNL     1      48.268  62.825  92.616  1.00  0.00     0.000 C 
BRANCH  13  14
ATOM     14  C   UNL     1      48.682  61.356  92.855  1.00  0.00     0.000 C 
BRANCH  14  15
ATOM     15  C   UNL     1      50.135  61.229  93.345  1.00  0.00     0.000 C 
BRANCH  15  16
ATOM     16  C   UNL     1      50.240  60.551  94.720  1.00  0.00     0.000 C 
BRANCH  16  17
ATOM     17  C   UNL     1      49.398  59.265  94.807  1.00  0.00     0.000 C 
BRANCH  17  18
ATOM     18  C   UNL     1      50.223  58.000  94.518  1.00  0.00     0.000 C 
BRANCH  18  19
ATOM     19  C   UNL     1      50.048  57.495  93.075  1.00  0.00     0.000 C 
BRANCH  19  20
ATOM     20  C   UNL     1      51.227  56.631  92.603  1.00  0.00     0.006 C 
BRANCH  20  21
ATOM     21  C   UNL     1      52.102  57.343  91.563  1.00  0.00     0.053 C 
BRANCH  21  22
ATOM     22  C   UNL     1      52.931  58.403  92.217  1.00  0.00     0.041 C 
ATOM     23  O   UNL     1      53.105  59.513  91.648  1.00  0.00    -0.550 OA
ATOM     24  O   UNL     1      53.555  58.146  93.431  1.00  0.00    -0.550 OA
ENDBRANCH  21  22
ENDBRANCH  20  21
ENDBRANCH  19  20
ENDBRANCH  18  19
ENDBRANCH  17  18
ENDBRANCH  16  17
ENDBRANCH  15  16
ENDBRANCH  14  15
ENDBRANCH  13  14
ENDBRANCH   1  13
TORSDOF 20
ENDMDL
MODEL 2
REMARK VINA RESULT:    -4.765      2.898      9.269
REMARK INTER + INTRA:         -12.468
REMARK INTER:                 -10.958
REMARK INTRA:                  -1.510
REMARK UNBOUND:                -2.132
REMARK SMILES CCCCCCCCCCCCCCCCCCCCCC(=O)[O-]
REMARK SMILES IDX 12 1 11 2 10 3 9 4 8 5 7 6 6 7 5 8 4 9 3 10 2 11 1 12 13 13
REMARK SMILES IDX 14 14 15 15 16 16 17 17 18 18 19 19 20 20 21 21 22 22 23 23
REMARK SMILES IDX 24 24
REMARK H PARENT
REMARK Flexibility Score: inf
ROOT
ATOM      1  C   UNL     1      49.477  63.595  93.459  1.00  0.00     0.000 C 
ENDROOT
BRANCH   1   2
ATOM      2  C   UNL     1      48.600  62.359  93.191  1.00  0.00     0.000 C 
BRANCH   2   3
ATOM      3  C   UNL     1      49.358  61.018  93.162  1.00  0.00     0.000 C 
BRANCH   3   4
ATOM      4  C   UNL     1      49.974  60.650  94.519  1.00  0.00    -0.000 C 
BRANCH   4   5
ATOM      5  C   UNL     1      49.608  59.211  94.916  1.00  0.00    -0.000 C 
BRANCH   5   6
ATOM      6  C   UNL     1      50.452  58.161  94.177  1.00  0.00    -0.000 C 
BRANCH   6   7
ATOM      7  C   UNL     1      51.823  58.702  93.739  1.00  0.00    -0.000 C 
BRANCH   7   8
ATOM      8  C   UNL     1      52.982  57.761  94.106  1.00  0.00    -0.000 C 
BRANCH   8   9
ATOM      9  C   UNL     1      52.523  56.452  94.785  1.00  0.00    -0.000 C 
BRANCH   9  10
ATOM     10  C   UNL     1      52.845  55.213  93.936  1.00  0.00    -0.000 C 
BRANCH  10  11
ATOM     11  C   UNL     1      51.934  55.135  92.707  1.00  0.00    -0.003 C 
ATOM     12  C   UNL     1      51.992  53.751  92.065  1.00  0.00     0.004 C 
ENDBRANCH  10  11
ENDBRANCH   9  10
ENDBRANCH   8   9
ENDBRANCH   7   8
ENDBRANCH   6   7
ENDBRANCH   5   6
ENDBRANCH   4   5
ENDBRANCH   3   4
ENDBRANCH   2   3
ENDBRANCH   1   2
BRANCH   1  13
ATOM     13  C   UNL     1      48.805  64.950  93.165  1.00  0.00     0.000 C 
BRANCH  13  14
ATOM     14  C   UNL     1      47.485  64.830  92.372  1.00  0.00     0.000 C 
BRANCH  14  15
ATOM     15  C   UNL     1      46.737  66.171  92.273  1.00  0.00     0.000 C 
BRANCH  15  16
ATOM     16  C   UNL     1      47.165  67.000  91.052  1.00  0.00     0.000 C 
BRANCH  16  17
ATOM     17  C   UNL     1      48.401  67.872  91.339  1.00  0.00     0.000 C 
BRANCH  17  18
ATOM     18  C   UNL     1      49.610  67.486  90.471  1.00  0.00     0.000 C 
BRANCH  18  19
ATOM     19  C   UNL     1      50.945  67.970  91.065  1.00  0.00     0.000 C 
BRANCH  19  20
ATOM     20  C   UNL     1      50.929  68.010  92.601  1.00  0.00     0.006 C 
BRANCH  20  21
ATOM     21  C   UNL     1      51.809  66.922  93.229  1.00  0.00     0.053 C 
BRANCH  21  22
ATOM     22  C   UNL     1      53.006  67.534  93.884  1.00  0.00     0.041 C 
ATOM     23  O   UNL     1      52.960  67.880  95.094  1.00  0.00    -0.550 OA
ATOM     24  O   UNL     1      54.158  67.770  93.145  1.00  0.00    -0.550 OA
ENDBRANCH  21  22
ENDBRANCH  20  21
ENDBRANCH  19  20
ENDBRANCH  18  19
ENDBRANCH  17  18
ENDBRANCH  16  17
ENDBRANCH  15  16
ENDBRANCH  14  15
ENDBRANCH  13  14
ENDBRANCH   1  13
TORSDOF 20
ENDMDL
MODEL 3
REMARK VINA RESULT:    -4.754      1.490      3.570
REMARK INTER + INTRA:         -12.445
REMARK INTER:                 -10.784
REMARK INTRA:                  -1.661
REMARK UNBOUND:                -2.132
REMARK SMILES CCCCCCCCCCCCCCCCCCCCCC(=O)[O-]
REMARK SMILES IDX 12 1 11 2 10 3 9 4 8 5 7 6 6 7 5 8 4 9 3 10 2 11 1 12 13 13
REMARK SMILES IDX 14 14 15 15 16 16 17 17 18 18 19 19 20 20 21 21 22 22 23 23
REMARK SMILES IDX 24 24
REMARK H PARENT
REMARK Flexibility Score: inf
ROOT
ATOM      1  C   UNL     1      48.701  62.117  93.417  1.00  0.00     0.000 C 
ENDROOT
BRANCH   1   2
ATOM      2  C   UNL     1      49.017  63.574  93.030  1.00  0.00     0.000 C 
BRANCH   2   3
ATOM      3  C   UNL     1      47.831  64.363  92.444  1.00  0.00     0.000 C 
BRANCH   3   4
ATOM      4  C   UNL     1      48.066  65.880  92.439  1.00  0.00    -0.000 C 
BRANCH   4   5
ATOM      5  C   UNL     1      47.563  66.508  91.129  1.00  0.00    -0.000 C 
BRANCH   5   6
ATOM      6  C   UNL     1      48.466  67.649  90.635  1.00  0.00    -0.000 C 
BRANCH   6   7
ATOM      7  C   UNL     1      49.467  68.120  91.703  1.00  0.00    -0.000 C 
BRANCH   7   8
ATOM      8  C   UNL     1      50.895  67.607  91.452  1.00  0.00    -0.000 C 
BRANCH   8   9
ATOM      9  C   UNL     1      51.573  67.029  92.713  1.00  0.00    -0.000 C 
BRANCH   9  10
ATOM     10  C   UNL     1      51.973  68.125  93.712  1.00  0.00    -0.000 C 
BRANCH  10  11
ATOM     11  C   UNL     1      51.478  67.791  95.124  1.00  0.00    -0.003 C 
ATOM     12  C   UNL     1      49.953  67.777  95.184  1.00  0.00     0.004 C 
ENDBRANCH  10  11
ENDBRANCH   9  10
ENDBRANCH   8   9
ENDBRANCH   7   8
ENDBRANCH   6   7
ENDBRANCH   5   6
ENDBRANCH   4   5
ENDBRANCH   3   4
ENDBRANCH   2   3
ENDBRANCH   1   2
BRANCH   1  13
ATOM     13  C   UNL     1      49.892  61.317  93.978  1.00  0.00     0.000 C 
BRANCH  13  14
ATOM     14  C   UNL     1      49.479  60.168  94.924  1.00  0.00     0.000 C 
BRANCH  14  15
ATOM     15  C   UNL     1      50.118  58.825  94.529  1.00  0.00     0.000 C 
BRANCH  15  16
ATOM     16  C   UNL     1      50.602  58.806  93.070  1.00  0.00     0.000 C 
BRANCH  16  17
ATOM     17  C   UNL     1      50.365  57.446  92.390  1.00  0.00     0.000 C 
BRANCH  17  18
ATOM     18  C   UNL     1      51.412  57.136  91.308  1.00  0.00     0.000 C 
BRANCH  18  19
ATOM     19  C   UNL     1      52.016  55.728  91.455  1.00  0.00     0.000 C 
BRANCH  19  20
ATOM     20  C   UNL     1      51.637  55.057  92.784  1.00  0.00     0.006 C 
BRANCH  20  21
ATOM     21  C   UNL     1      52.816  54.978  93.762  1.00  0.00     0.053 C 
BRANCH  21  22
ATOM     22  C   UNL     1      52.867  56.203  94.618  1.00  0.00     0.041 C 
ATOM     23  O   UNL     1      52.266  56.230  95.725  1.00  0.00    -0.550 OA
ATOM     24  O   UNL     1      53.534  57.336  94.170  1.00  0.00    -0.550 OA
ENDBRANCH  21  22
ENDBRANCH  20  21
ENDBRANCH  19  20
ENDBRANCH  18  19
ENDBRANCH  17  18
ENDBRANCH  16  17
ENDBRANCH  15  16
ENDBRANCH  14  15
ENDBRANCH  13  14
ENDBRANCH   1  13
TORSDOF 20
ENDMDL
MODEL 4
REMARK VINA RESULT:    -4.731      2.917      9.398
REMARK INTER + INTRA:         -12.393
REMARK INTER:                 -10.656
REMARK INTRA:                  -1.737
REMARK UNBOUND:                -2.132
REMARK SMILES CCCCCCCCCCCCCCCCCCCCCC(=O)[O-]
REMARK SMILES IDX 12 1 11 2 10 3 9 4 8 5 7 6 6 7 5 8 4 9 3 10 2 11 1 12 13 13
REMARK SMILES IDX 14 14 15 15 16 16 17 17 18 18 19 19 20 20 21 21 22 22 23 23
REMARK SMILES IDX 24 24
REMARK H PARENT
REMARK Flexibility Score: inf
ROOT
ATOM      1  C   UNL     1      48.746  62.244  92.890  1.00  0.00     0.000 C 
ENDROOT
BRANCH   1   2
ATOM      2  C   UNL     1      49.611  61.315  93.762  1.00  0.00     0.000 C 
BRANCH   2   3
ATOM      3  C   UNL     1      50.729  60.572  93.008  1.00  0.00     0.000 C 
BRANCH   3   4
ATOM      4  C   UNL     1      51.074  59.215  93.637  1.00  0.00    -0.000 C 
BRANCH   4   5
ATOM      5  C   UNL     1      52.526  58.818  93.324  1.00  0.00    -0.000 C 
BRANCH   5   6
ATOM      6  C   UNL     1      52.671  58.129  91.959  1.00  0.00    -0.000 C 
BRANCH   6   7
ATOM      7  C   UNL     1      51.443  57.281  91.588  1.00  0.00    -0.000 C 
BRANCH   7   8
ATOM      8  C   UNL     1      51.795  56.077  90.699  1.00  0.00    -0.000 C 
BRANCH   8   9
ATOM      9  C   UNL     1      52.449  54.911  91.471  1.00  0.00    -0.000 C 
BRANCH   9  10
ATOM     10  C   UNL     1      51.941  54.814  92.918  1.00  0.00    -0.000 C 
BRANCH  10  11
ATOM     11  C   UNL     1      53.108  54.761  93.909  1.00  0.00    -0.003 C 
ATOM     12  C   UNL     1      52.686  55.268  95.285  1.00  0.00     0.004 C 
ENDBRANCH  10  11
ENDBRANCH   9  10
ENDBRANCH   8   9
ENDBRANCH   7   8
ENDBRANCH   6   7
ENDBRANCH   5   6
ENDBRANCH   4   5
ENDBRANCH   3   4
ENDBRANCH   2   3
ENDBRANCH   1   2
BRANCH   1  13
ATOM     13  C   UNL     1      48.924  63.750  93.164  1.00  0.00     0.000 C 
BRANCH  13  14
ATOM     14  C   UNL     1      47.971  64.649  92.345  1.00  0.00     0.000 C 
BRANCH  14  15
ATOM     15  C   UNL     1      47.765  66.028  92.994  1.00  0.00     0.000 C 
BRANCH  15  16
ATOM     16  C   UNL     1      47.483  67.132  91.962  1.00  0.00     0.000 C 
BRANCH  16  17
ATOM     17  C   UNL     1      48.257  66.921  90.649  1.00  0.00     0.000 C 
BRANCH  17  18
ATOM     18  C   UNL     1      49.492  67.832  90.539  1.00  0.00     0.000 C 
BRANCH  18  19
ATOM     19  C   UNL     1      50.811  67.068  90.750  1.00  0.00     0.000 C 
BRANCH  19  20
ATOM     20  C   UNL     1      51.133  66.842  92.235  1.00  0.00     0.006 C 
BRANCH  20  21
ATOM     21  C   UNL     1      51.589  68.124  92.943  1.00  0.00     0.053 C 
BRANCH  21  22
ATOM     22  C   UNL     1      52.394  67.791  94.159  1.00  0.00     0.041 C 
ATOM     23  O   UNL     1      53.590  67.415  94.044  1.00  0.00    -0.550 OA
ATOM     24  O   UNL     1      51.807  67.846  95.416  1.00  0.00    -0.550 OA
ENDBRANCH  21  22
ENDBRANCH  20  21
ENDBRANCH  19  20
ENDBRANCH  18  19
ENDBRANCH  17  18
ENDBRANCH  16  17
ENDBRANCH  15  16
ENDBRANCH  14  15
ENDBRANCH  13  14
ENDBRANCH   1  13
TORSDOF 20
ENDMDL
MODEL 5
REMARK VINA RESULT:    -4.692      1.416      3.660
REMARK INTER + INTRA:         -12.309
REMARK INTER:                 -10.535
REMARK INTRA:                  -1.774
REMARK UNBOUND:                -2.132
REMARK SMILES CCCCCCCCCCCCCCCCCCCCCC(=O)[O-]
REMARK SMILES IDX 12 1 11 2 10 3 9 4 8 5 7 6 6 7 5 8 4 9 3 10 2 11 1 12 13 13
REMARK SMILES IDX 14 14 15 15 16 16 17 17 18 18 19 19 20 20 21 21 22 22 23 23
REMARK SMILES IDX 24 24
REMARK H PARENT
REMARK Flexibility Score: inf
ROOT
ATOM      1  C   UNL     1      49.374  62.585  93.398  1.00  0.00     0.000 C 
ENDROOT
BRANCH   1   2
ATOM      2  C   UNL     1      48.309  63.493  92.756  1.00  0.00     0.000 C 
BRANCH   2   3
ATOM      3  C   UNL     1      48.578  65.004  92.890  1.00  0.00     0.000 C 
BRANCH   3   4
ATOM      4  C   UNL     1      47.319  65.856  92.677  1.00  0.00    -0.000 C 
BRANCH   4   5
ATOM      5  C   UNL     1      47.345  66.540  91.301  1.00  0.00    -0.000 C 
BRANCH   5   6
ATOM      6  C   UNL     1      48.310  67.735  91.252  1.00  0.00    -0.000 C 
BRANCH   6   7
ATOM      7  C   UNL     1      49.442  67.542  90.230  1.00  0.00    -0.000 C 
BRANCH   7   8
ATOM      8  C   UNL     1      50.840  67.733  90.843  1.00  0.00    -0.000 C 
BRANCH   8   9
ATOM      9  C   UNL     1      50.823  67.890  92.379  1.00  0.00    -0.000 C 
BRANCH   9  10
ATOM     10  C   UNL     1      51.819  66.946  93.070  1.00  0.00    -0.000 C 
BRANCH  10  11
ATOM     11  C   UNL     1      52.647  67.693  94.121  1.00  0.00    -0.003 C 
ATOM     12  C   UNL     1      54.128  67.343  94.006  1.00  0.00     0.004 C 
ENDBRANCH  10  11
ENDBRANCH   9  10
ENDBRANCH   8   9
ENDBRANCH   7   8
ENDBRANCH   6   7
ENDBRANCH   5   6
ENDBRANCH   4   5
ENDBRANCH   3   4
ENDBRANCH   2   3
ENDBRANCH   1   2
BRANCH   1  13
ATOM     13  C   UNL     1      48.861  61.214  93.877  1.00  0.00     0.000 C 
BRANCH  13  14
ATOM     14  C   UNL     1      49.841  60.474  94.813  1.00  0.00     0.000 C 
BRANCH  14  15
ATOM     15  C   UNL     1      49.409  59.023  95.086  1.00  0.00     0.000 C 
BRANCH  15  16
ATOM     16  C   UNL     1      50.309  57.994  94.383  1.00  0.00     0.000 C 
BRANCH  16  17
ATOM     17  C   UNL     1      49.798  57.631  92.977  1.00  0.00     0.000 C 
BRANCH  17  18
ATOM     18  C   UNL     1      50.920  57.132  92.052  1.00  0.00     0.000 C 
BRANCH  18  19
ATOM     19  C   UNL     1      52.316  57.269  92.686  1.00  0.00     0.000 C 
BRANCH  19  20
ATOM     20  C   UNL     1      53.083  58.496  92.169  1.00  0.00     0.006 C 
BRANCH  20  21
ATOM     21  C   UNL     1      53.040  59.675  93.149  1.00  0.00     0.053 C 
BRANCH  21  22
ATOM     22  C   UNL     1      52.898  60.966  92.406  1.00  0.00     0.041 C 
ATOM     23  O   UNL     1      53.045  60.997  91.156  1.00  0.00    -0.550 OA
ATOM     24  O   UNL     1      52.656  62.144  93.100  1.00  0.00    -0.550 OA
ENDBRANCH  21  22
ENDBRANCH  20  21
ENDBRANCH  19  20
ENDBRANCH  18  19
ENDBRANCH  17  18
ENDBRANCH  16  17
ENDBRANCH  15  16
ENDBRANCH  14  15
ENDBRANCH  13  14
ENDBRANCH   1  13
TORSDOF 20
ENDMDL
MODEL 6
REMARK VINA RESULT:    -4.687      3.085      8.796
REMARK INTER + INTRA:         -12.299
REMARK INTER:                 -10.075
REMARK INTRA:                  -2.224
REMARK UNBOUND:                -2.132
REMARK SMILES CCCCCCCCCCCCCCCCCCCCCC(=O)[O-]
REMARK SMILES IDX 12 1 11 2 10 3 9 4 8 5 7 6 6 7 5 8 4 9 3 10 2 11 1 12 13 13
REMARK SMILES IDX 14 14 15 15 16 16 17 17 18 18 19 19 20 20 21 21 22 22 23 23
REMARK SMILES IDX 24 24
REMARK H PARENT
REMARK Flexibility Score: inf
ROOT
ATOM      1  C   UNL     1      48.659  61.924  92.815  1.00  0.00     0.000 C 
ENDROOT
BRANCH   1   2
ATOM      2  C   UNL     1      49.290  60.602  93.290  1.00  0.00     0.000 C 
BRANCH   2   3
ATOM      3  C   UNL     1      49.437  60.464  94.817  1.00  0.00     0.000 C 
BRANCH   3   4
ATOM      4  C   UNL     1      49.723  59.023  95.262  1.00  0.00    -0.000 C 
BRANCH   4   5
ATOM      5  C   UNL     1      49.949  58.108  94.047  1.00  0.00    -0.000 C 
BRANCH   5   6
ATOM      6  C   UNL     1      51.340  57.455  94.048  1.00  0.00    -0.000 C 
BRANCH   6   7
ATOM      7  C   UNL     1      51.642  56.698  92.745  1.00  0.00    -0.000 C 
BRANCH   7   8
ATOM      8  C   UNL     1      52.314  57.583  91.682  1.00  0.00    -0.000 C 
BRANCH   8   9
ATOM      9  C   UNL     1      53.232  58.672  92.277  1.00  0.00    -0.000 C 
BRANCH   9  10
ATOM     10  C   UNL     1      53.541  59.787  91.267  1.00  0.00    -0.000 C 
BRANCH  10  11
ATOM     11  C   UNL     1      52.782  61.072  91.614  1.00  0.00    -0.003 C 
ATOM     12  C   UNL     1      52.754  61.306  93.122  1.00  0.00     0.004 C 
ENDBRANCH  10  11
ENDBRANCH   9  10
ENDBRANCH   8   9
ENDBRANCH   7   8
ENDBRANCH   6   7
ENDBRANCH   5   6
ENDBRANCH   4   5
ENDBRANCH   3   4
ENDBRANCH   2   3
ENDBRANCH   1   2
BRANCH   1  13
ATOM     13  C   UNL     1      49.196  63.190  93.509  1.00  0.00     0.000 C 
BRANCH  13  14
ATOM     14  C   UNL     1      48.685  64.507  92.883  1.00  0.00     0.000 C 
BRANCH  14  15
ATOM     15  C   UNL     1      49.033  65.736  93.740  1.00  0.00     0.000 C 
BRANCH  15  16
ATOM     16  C   UNL     1      50.114  66.620  93.098  1.00  0.00     0.000 C 
BRANCH  16  17
ATOM     17  C   UNL     1      49.517  67.739  92.225  1.00  0.00     0.000 C 
BRANCH  17  18
ATOM     18  C   UNL     1      49.559  67.402  90.725  1.00  0.00     0.000 C 
BRANCH  18  19
ATOM     19  C   UNL     1      48.167  67.079  90.152  1.00  0.00     0.000 C 
BRANCH  19  20
ATOM     20  C   UNL     1      47.050  67.218  91.198  1.00  0.00     0.006 C 
BRANCH  20  21
ATOM     21  C   UNL     1      45.876  66.265  90.937  1.00  0.00     0.053 C 
BRANCH  21  22
ATOM     22  C   UNL     1      45.392  65.670  92.221  1.00  0.00     0.041 C 
ATOM     23  O   UNL     1      45.484  66.320  93.295  1.00  0.00    -0.550 OA
ATOM     24  O   UNL     1      44.888  64.376  92.240  1.00  0.00    -0.550 OA
ENDBRANCH  21  22
ENDBRANCH  20  21
ENDBRANCH  19  20
ENDBRANCH  18  19
ENDBRANCH  17  18
ENDBRANCH  16  17
ENDBRANCH  15  16
ENDBRANCH  14  15
ENDBRANCH  13  14
ENDBRANCH   1  13
TORSDOF 20
ENDMDL
MODEL 7
REMARK VINA RESULT:    -4.627      3.246      9.178
REMARK INTER + INTRA:         -12.169
REMARK INTER:                  -9.799
REMARK INTRA:                  -2.371
REMARK UNBOUND:                -2.132
REMARK SMILES CCCCCCCCCCCCCCCCCCCCCC(=O)[O-]
REMARK SMILES IDX 12 1 11 2 10 3 9 4 8 5 7 6 6 7 5 8 4 9 3 10 2 11 1 12 13 13
REMARK SMILES IDX 14 14 15 15 16 16 17 17 18 18 19 19 20 20 21 21 22 22 23 23
REMARK SMILES IDX 24 24
REMARK H PARENT
REMARK Flexibility Score: inf
ROOT
ATOM      1  C   UNL     1      48.254  63.362  92.623  1.00  0.00     0.000 C 
ENDROOT
BRANCH   1   2
ATOM      2  C   UNL     1      48.680  61.901  92.856  1.00  0.00     0.000 C 
BRANCH   2   3
ATOM      3  C   UNL     1      49.715  61.698  93.980  1.00  0.00     0.000 C 
BRANCH   3   4
ATOM      4  C   UNL     1      50.602  60.464  93.758  1.00  0.00    -0.000 C 
BRANCH   4   5
ATOM      5  C   UNL     1      49.758  59.249  93.343  1.00  0.00    -0.000 C 
BRANCH   5   6
ATOM      6  C   UNL     1      49.935  58.053  94.292  1.00  0.00    -0.000 C 
BRANCH   6   7
ATOM      7  C   UNL     1      51.248  58.116  95.089  1.00  0.00    -0.000 C 
BRANCH   7   8
ATOM      8  C   UNL     1      52.042  56.800  95.038  1.00  0.00    -0.000 C 
BRANCH   8   9
ATOM      9  C   UNL     1      52.994  56.701  93.828  1.00  0.00    -0.000 C 
BRANCH   9  10
ATOM     10  C   UNL     1      53.463  58.081  93.342  1.00  0.00    -0.000 C 
BRANCH  10  11
ATOM     11  C   UNL     1      52.984  58.355  91.913  1.00  0.00    -0.003 C 
ATOM     12  C   UNL     1      52.114  57.214  91.395  1.00  0.00     0.004 C 
ENDBRANCH  10  11
ENDBRANCH   9  10
ENDBRANCH   8   9
ENDBRANCH   7   8
ENDBRANCH   6   7
ENDBRANCH   5   6
ENDBRANCH   4   5
ENDBRANCH   3   4
ENDBRANCH   2   3
ENDBRANCH   1   2
BRANCH   1  13
ATOM     13  C   UNL     1      49.133  64.418  93.320  1.00  0.00     0.000 C 
BRANCH  13  14
ATOM     14  C   UNL     1      49.540  65.593  92.403  1.00  0.00     0.000 C 
BRANCH  14  15
ATOM     15  C   UNL     1      50.673  66.441  93.005  1.00  0.00     0.000 C 
BRANCH  15  16
ATOM     16  C   UNL     1      50.205  67.845  93.422  1.00  0.00     0.000 C 
BRANCH  16  17
ATOM     17  C   UNL     1      49.886  67.936  94.925  1.00  0.00     0.000 C 
BRANCH  17  18
ATOM     18  C   UNL     1      48.439  67.527  95.247  1.00  0.00     0.000 C 
BRANCH  18  19
ATOM     19  C   UNL     1      47.435  68.020  94.190  1.00  0.00     0.000 C 
BRANCH  19  20
ATOM     20  C   UNL     1      46.392  66.954  93.822  1.00  0.00     0.006 C 
BRANCH  20  21
ATOM     21  C   UNL     1      46.343  66.672  92.315  1.00  0.00     0.053 C 
BRANCH  21  22
ATOM     22  C   UNL     1      45.175  65.798  91.985  1.00  0.00     0.041 C 
ATOM     23  O   UNL     1      45.150  64.600  92.374  1.00  0.00    -0.550 OA
ATOM     24  O   UNL     1      44.138  66.290  91.204  1.00  0.00    -0.550 OA
ENDBRANCH  21  22
ENDBRANCH  20  21
ENDBRANCH  19  20
ENDBRANCH  18  19
ENDBRANCH  17  18
ENDBRANCH  16  17
ENDBRANCH  15  16
ENDBRANCH  14  15
ENDBRANCH  13  14
ENDBRANCH   1  13
TORSDOF 20
ENDMDL
MODEL 8
REMARK VINA RESULT:    -4.593      3.113      9.121
REMARK INTER + INTRA:         -12.095
REMARK INTER:                 -10.286
REMARK INTRA:                  -1.809
REMARK UNBOUND:                -2.132
REMARK SMILES CCCCCCCCCCCCCCCCCCCCCC(=O)[O-]
REMARK SMILES IDX 12 1 11 2 10 3 9 4 8 5 7 6 6 7 5 8 4 9 3 10 2 11 1 12 13 13
REMARK SMILES IDX 14 14 15 15 16 16 17 17 18 18 19 19 20 20 21 21 22 22 23 23
REMARK SMILES IDX 24 24
REMARK H PARENT
REMARK Flexibility Score: inf
ROOT
ATOM      1  C   UNL     1      48.177  63.525  92.633  1.00  0.00     0.000 C 
ENDROOT
BRANCH   1   2
ATOM      2  C   UNL     1      48.381  62.023  92.904  1.00  0.00     0.000 C 
BRANCH   2   3
ATOM      3  C   UNL     1      49.698  61.665  93.619  1.00  0.00     0.000 C 
BRANCH   3   4
ATOM      4  C   UNL     1      49.483  60.797  94.867  1.00  0.00    -0.000 C 
BRANCH   4   5
ATOM      5  C   UNL     1      49.916  59.345  94.607  1.00  0.00    -0.000 C 
BRANCH   5   6
ATOM      6  C   UNL     1      50.131  59.049  93.115  1.00  0.00    -0.000 C 
BRANCH   6   7
ATOM      7  C   UNL     1      50.332  57.552  92.829  1.00  0.00    -0.000 C 
BRANCH   7   8
ATOM      8  C   UNL     1      51.610  57.264  92.024  1.00  0.00    -0.000 C 
BRANCH   8   9
ATOM      9  C   UNL     1      52.854  58.009  92.554  1.00  0.00    -0.000 C 
BRANCH   9  10
ATOM     10  C   UNL     1      53.155  57.666  94.021  1.00  0.00    -0.000 C 
BRANCH  10  11
ATOM     11  C   UNL     1      53.171  56.150  94.241  1.00  0.00    -0.003 C 
ATOM     12  C   UNL     1      52.474  55.774  95.545  1.00  0.00     0.004 C 
ENDBRANCH  10  11
ENDBRANCH   9  10
ENDBRANCH   8   9
ENDBRANCH   7   8
ENDBRANCH   6   7
ENDBRANCH   5   6
ENDBRANCH   4   5
ENDBRANCH   3   4
ENDBRANCH   2   3
ENDBRANCH   1   2
BRANCH   1  13
ATOM     13  C   UNL     1      49.257  64.449  93.228  1.00  0.00     0.000 C 
BRANCH  13  14
ATOM     14  C   UNL     1      48.707  65.792  93.755  1.00  0.00     0.000 C 
BRANCH  14  15
ATOM     15  C   UNL     1      49.784  66.890  93.800  1.00  0.00     0.000 C 
BRANCH  15  16
ATOM     16  C   UNL     1      50.714  66.858  92.577  1.00  0.00     0.000 C 
BRANCH  16  17
ATOM     17  C   UNL     1      50.363  67.943  91.543  1.00  0.00     0.000 C 
BRANCH  17  18
ATOM     18  C   UNL     1      49.436  67.422  90.433  1.00  0.00     0.000 C 
BRANCH  18  19
ATOM     19  C   UNL     1      47.947  67.644  90.752  1.00  0.00     0.000 C 
BRANCH  19  20
ATOM     20  C   UNL     1      47.137  66.339  90.735  1.00  0.00     0.006 C 
BRANCH  20  21
ATOM     21  C   UNL     1      45.656  66.559  91.069  1.00  0.00     0.053 C 
BRANCH  21  22
ATOM     22  C   UNL     1      45.248  65.701  92.224  1.00  0.00     0.041 C 
ATOM     23  O   UNL     1      45.221  66.177  93.390  1.00  0.00    -0.550 OA
ATOM     24  O   UNL     1      44.950  64.360  92.022  1.00  0.00    -0.550 OA
ENDBRANCH  21  22
ENDBRANCH  20  21
ENDBRANCH  19  20
ENDBRANCH  18  19
ENDBRANCH  17  18
ENDBRANCH  16  17
ENDBRANCH  15  16
ENDBRANCH  14  15
ENDBRANCH  13  14
ENDBRANCH   1  13
TORSDOF 20
ENDMDL
MODEL 9
REMARK VINA RESULT:    -2.039      3.131      8.800
REMARK INTER + INTRA:          -6.554
REMARK INTER:                  -4.756
REMARK INTRA:                  -1.798
REMARK UNBOUND:                -2.132
REMARK SMILES CCCCCCCCCCCCCCCCCCCCCC(=O)[O-]
REMARK SMILES IDX 12 1 11 2 10 3 9 4 8 5 7 6 6 7 5 8 4 9 3 10 2 11 1 12 13 13
REMARK SMILES IDX 14 14 15 15 16 16 17 17 18 18 19 19 20 20 21 21 22 22 23 23
REMARK SMILES IDX 24 24
REMARK H PARENT
REMARK Flexibility Score: inf
ROOT
ATOM      1  C   UNL     1      49.405  61.531  93.905  1.00  0.00     0.000 C 
ENDROOT
BRANCH   1   2
ATOM      2  C   UNL     1      49.458  60.012  93.657  1.00  0.00     0.000 C 
BRANCH   2   3
ATOM      3  C   UNL     1      49.719  59.157  94.912  1.00  0.00     0.000 C 
BRANCH   3   4
ATOM      4  C   UNL     1      50.292  57.772  94.583  1.00  0.00    -0.000 C 
BRANCH   4   5
ATOM      5  C   UNL     1      50.271  57.516  93.067  1.00  0.00    -0.000 C 
BRANCH   5   6
ATOM      6  C   UNL     1      51.433  56.625  92.602  1.00  0.00    -0.000 C 
BRANCH   6   7
ATOM      7  C   UNL     1      52.758  56.961  93.305  1.00  0.00    -0.000 C 
BRANCH   7   8
ATOM      8  C   UNL     1      53.149  58.442  93.168  1.00  0.00    -0.000 C 
BRANCH   8   9
ATOM      9  C   UNL     1      53.455  58.867  91.716  1.00  0.00    -0.000 C 
BRANCH   9  10
ATOM     10  C   UNL     1      53.158  60.354  91.471  1.00  0.00    -0.000 C 
BRANCH  10  11
ATOM     11  C   UNL     1      52.388  60.964  92.648  1.00  0.00    -0.003 C 
ATOM     12  C   UNL     1      53.133  62.161  93.232  1.00  0.00     0.004 C 
ENDBRANCH  10  11
ENDBRANCH   9  10
ENDBRANCH   8   9
ENDBRANCH   7   8
ENDBRANCH   6   7
ENDBRANCH   5   6
ENDBRANCH   4   5
ENDBRANCH   3   4
ENDBRANCH   2   3
ENDBRANCH   1   2
BRANCH   1  13
ATOM     13  C   UNL     1      48.711  62.350  92.800  1.00  0.00     0.000 C 
BRANCH  13  14
ATOM     14  C   UNL     1      48.810  63.878  93.002  1.00  0.00     0.000 C 
BRANCH  14  15
ATOM     15  C   UNL     1      47.703  64.641  92.255  1.00  0.00     0.000 C 
BRANCH  15  16
ATOM     16  C   UNL     1      48.219  65.920  91.576  1.00  0.00     0.000 C 
BRANCH  16  17
ATOM     17  C   UNL     1      47.535  67.189  92.116  1.00  0.00     0.000 C 
BRANCH  17  18
ATOM     18  C   UNL     1      46.456  66.876  93.166  1.00  0.00     0.000 C 
BRANCH  18  19
ATOM     19  C   UNL     1      46.827  67.390  94.568  1.00  0.00     0.000 C 
BRANCH  19  20
ATOM     20  C   UNL     1      48.176  68.125  94.592  1.00  0.00     0.006 C 
BRANCH  20  21
ATOM     21  C   UNL     1      49.266  67.335  95.326  1.00  0.00     0.053 C 
BRANCH  21  22
ATOM     22  C   UNL     1      50.620  67.716  94.817  1.00  0.00     0.041 C 
ATOM     23  O   UNL     1      50.794  67.945  93.591  1.00  0.00    -0.550 OA
ATOM     24  O   UNL     1      51.700  67.767  95.687  1.00  0.00    -0.550 OA
ENDBRANCH  21  22
ENDBRANCH  20  21
ENDBRANCH  19  20
ENDBRANCH  18  19
ENDBRANCH  17  18
ENDBRANCH  16  17
ENDBRANCH  15  16
ENDBRANCH  14  15
ENDBRANCH  13  14
ENDBRANCH   1  13
TORSDOF 20
ENDMDL
