MODEL 1
REMARK VINA RESULT:    -5.091      0.000      0.000
REMARK INTER + INTRA:          -6.213
REMARK INTER:                  -5.984
REMARK INTRA:                  -0.229
REMARK UNBOUND:                -0.229
REMARK SMILES O=c1c(O)c(-c2ccc(O)c(O)c2)oc2cc(O)ccc12
REMARK SMILES IDX 5 1 3 2 2 3 1 4 21 5 15 6 14 7 16 8 17 9 19 10 20 11 6 12
REMARK SMILES IDX 7 13 8 14 9 15 13 16 11 17 10 18 12 20 4 22 18 24
REMARK H PARENT 10 19 12 21 4 23 18 25
REMARK Flexibility Score: inf
ROOT
ATOM      1  C   UNL     1      59.240  22.037  22.505  1.00  0.00     0.180 A 
ATOM      2  C   UNL     1      60.186  21.887  23.541  1.00  0.00     0.208 A 
ATOM      3  C   UNL     1      61.551  21.887  23.215  1.00  0.00     0.235 A 
ATOM      4  O   UNL     1      62.416  21.766  24.124  1.00  0.00    -0.285 OA
ATOM      5  C   UNL     1      61.939  22.014  21.872  1.00  0.00     0.069 A 
ATOM      6  C   UNL     1      60.931  22.136  20.891  1.00  0.00     0.142 A 
ATOM      7  O   UNL     1      59.650  22.141  21.243  1.00  0.00    -0.452 OA
ATOM      8  C   UNL     1      61.278  22.255  19.541  1.00  0.00     0.094 A 
ATOM      9  C   UNL     1      62.626  22.256  19.156  1.00  0.00     0.119 A 
ATOM     10  C   UNL     1      63.626  22.138  20.126  1.00  0.00     0.047 A 
ATOM     11  C   UNL     1      63.290  22.017  21.478  1.00  0.00     0.020 A 
ENDROOT
BRANCH   1  12
ATOM     12  C   UNL     1      57.783  22.066  22.770  1.00  0.00     0.025 A 
ATOM     13  C   UNL     1      57.118  20.875  23.100  1.00  0.00     0.016 A 
ATOM     14  C   UNL     1      55.740  20.875  23.335  1.00  0.00     0.051 A 
ATOM     15  C   UNL     1      55.004  22.059  23.226  1.00  0.00     0.157 A 
ATOM     16  C   UNL     1      57.039  23.252  22.641  1.00  0.00     0.062 A 
ATOM     17  C   UNL     1      55.655  23.254  22.873  1.00  0.00     0.158 A 
BRANCH  15  18
ATOM     18  O   UNL     1      53.632  22.029  23.467  1.00  0.00    -0.504 OA
ATOM     19  H   UNL     1      52.954  22.251  22.748  1.00  0.00     0.293 HD
ENDBRANCH  15  18
BRANCH  17  20
ATOM     20  O   UNL     1      54.925  24.435  22.750  1.00  0.00    -0.504 OA
ATOM     21  H   UNL     1      54.288  24.588  21.977  1.00  0.00     0.293 HD
ENDBRANCH  17  20
ENDBRANCH   1  12
BRANCH   2  22
ATOM     22  O   UNL     1      59.767  21.713  24.862  1.00  0.00    -0.502 OA
ATOM     23  H   UNL     1      60.266  21.121  25.515  1.00  0.00     0.293 HD
ENDBRANCH   2  22
BRANCH   9  24
ATOM     24  O   UNL     1      62.980  22.375  17.814  1.00  0.00    -0.508 OA
ATOM     25  H   UNL     1      63.947  22.325  17.516  1.00  0.00     0.293 HD
ENDBRANCH   9  24
TORSDOF 5
ENDMDL
MODEL 2
REMARK VINA RESULT:    -4.021      2.249      3.192
REMARK INTER + INTRA:          -4.955
REMARK INTER:                  -4.861
REMARK INTRA:                  -0.094
REMARK UNBOUND:                -0.229
REMARK SMILES O=c1c(O)c(-c2ccc(O)c(O)c2)oc2cc(O)ccc12
REMARK SMILES IDX 5 1 3 2 2 3 1 4 21 5 15 6 14 7 16 8 17 9 19 10 20 11 6 12
REMARK SMILES IDX 7 13 8 14 9 15 13 16 11 17 10 18 12 20 4 22 18 24
REMARK H PARENT 10 19 12 21 4 23 18 25
REMARK Flexibility Score: inf
ROOT
ATOM      1  C   UNL     1      59.630  22.914  22.596  1.00  0.00     0.180 A 
ATOM      2  C   UNL     1      60.400  22.257  21.612  1.00  0.00     0.208 A 
ATOM      3  C   UNL     1      61.738  22.641  21.434  1.00  0.00     0.235 A 
ATOM      4  O   UNL     1      62.449  22.062  20.568  1.00  0.00    -0.285 OA
ATOM      5  C   UNL     1      62.269  23.677  22.218  1.00  0.00     0.069 A 
ATOM      6  C   UNL     1      61.427  24.301  23.163  1.00  0.00     0.142 A 
ATOM      7  O   UNL     1      60.169  23.901  23.309  1.00  0.00    -0.452 OA
ATOM      8  C   UNL     1      61.918  25.343  23.957  1.00  0.00     0.094 A 
ATOM      9  C   UNL     1      63.245  25.772  23.818  1.00  0.00     0.119 A 
ATOM     10  C   UNL     1      64.081  25.154  22.882  1.00  0.00     0.047 A 
ATOM     11  C   UNL     1      63.600  24.112  22.084  1.00  0.00     0.020 A 
ENDROOT
BRANCH   1  12
ATOM     12  C   UNL     1      58.218  22.554  22.858  1.00  0.00     0.025 A 
ATOM     13  C   UNL     1      57.900  21.242  23.242  1.00  0.00     0.016 A 
ATOM     14  C   UNL     1      56.572  20.875  23.475  1.00  0.00     0.051 A 
ATOM     15  C   UNL     1      55.542  21.806  23.314  1.00  0.00     0.157 A 
ATOM     16  C   UNL     1      57.179  23.485  22.676  1.00  0.00     0.062 A 
ATOM     17  C   UNL     1      55.845  23.118  22.908  1.00  0.00     0.158 A 
BRANCH  15  18
ATOM     18  O   UNL     1      54.227  21.412  23.555  1.00  0.00    -0.504 OA
ATOM     19  H   UNL     1      53.481  22.083  23.695  1.00  0.00     0.293 HD
ENDBRANCH  15  18
BRANCH  17  20
ATOM     20  O   UNL     1      54.822  24.047  22.732  1.00  0.00    -0.504 OA
ATOM     21  H   UNL     1      54.985  24.937  22.274  1.00  0.00     0.293 HD
ENDBRANCH  17  20
ENDBRANCH   1  12
BRANCH   2  22
ATOM     22  O   UNL     1      59.829  21.263  20.814  1.00  0.00    -0.502 OA
ATOM     23  H   UNL     1      59.968  21.228  19.812  1.00  0.00     0.293 HD
ENDBRANCH   2  22
BRANCH   9  24
ATOM     24  O   UNL     1      63.741  26.810  24.604  1.00  0.00    -0.508 OA
ATOM     25  H   UNL     1      64.730  27.029  24.628  1.00  0.00     0.293 HD
ENDBRANCH   9  24
TORSDOF 5
ENDMDL
MODEL 3
REMARK VINA RESULT:    -3.844      2.888      6.737
REMARK INTER + INTRA:          -4.747
REMARK INTER:                  -4.676
REMARK INTRA:                  -0.072
REMARK UNBOUND:                -0.229
REMARK SMILES O=c1c(O)c(-c2ccc(O)c(O)c2)oc2cc(O)ccc12
REMARK SMILES IDX 5 1 3 2 2 3 1 4 21 5 15 6 14 7 16 8 17 9 19 10 20 11 6 12
REMARK SMILES IDX 7 13 8 14 9 15 13 16 11 17 10 18 12 20 4 22 18 24
REMARK H PARENT 10 19 12 21 4 23 18 25
REMARK Flexibility Score: inf
ROOT
ATOM      1  C   UNL     1      60.161  23.437  23.591  1.00  0.00     0.180 A 
ATOM      2  C   UNL     1      60.433  22.500  22.572  1.00  0.00     0.208 A 
ATOM      3  C   UNL     1      59.380  21.713  22.078  1.00  0.00     0.235 A 
ATOM      4  O   UNL     1      59.595  20.876  21.160  1.00  0.00    -0.285 OA
ATOM      5  C   UNL     1      58.094  21.862  22.622  1.00  0.00     0.069 A 
ATOM      6  C   UNL     1      57.909  22.804  23.657  1.00  0.00     0.142 A 
ATOM      7  O   UNL     1      58.931  23.536  24.089  1.00  0.00    -0.452 OA
ATOM      8  C   UNL     1      56.645  22.974  24.230  1.00  0.00     0.094 A 
ATOM      9  C   UNL     1      55.558  22.212  23.781  1.00  0.00     0.119 A 
ATOM     10  C   UNL     1      55.739  21.279  22.755  1.00  0.00     0.047 A 
ATOM     11  C   UNL     1      56.998  21.101  22.176  1.00  0.00     0.020 A 
ENDROOT
BRANCH   1  12
ATOM     12  C   UNL     1      61.213  24.316  24.151  1.00  0.00     0.025 A 
ATOM     13  C   UNL     1      61.398  24.373  25.541  1.00  0.00     0.016 A 
ATOM     14  C   UNL     1      62.371  25.211  26.092  1.00  0.00     0.051 A 
ATOM     15  C   UNL     1      63.161  26.016  25.266  1.00  0.00     0.157 A 
ATOM     16  C   UNL     1      61.995  25.141  23.322  1.00  0.00     0.062 A 
ATOM     17  C   UNL     1      62.971  25.985  23.874  1.00  0.00     0.158 A 
BRANCH  15  18
ATOM     18  O   UNL     1      64.125  26.840  25.844  1.00  0.00    -0.504 OA
ATOM     19  H   UNL     1      63.879  27.676  26.360  1.00  0.00     0.293 HD
ENDBRANCH  15  18
BRANCH  17  20
ATOM     20  O   UNL     1      63.746  26.795  23.046  1.00  0.00    -0.504 OA
ATOM     21  H   UNL     1      64.021  27.730  23.324  1.00  0.00     0.293 HD
ENDBRANCH  17  20
ENDBRANCH   1  12
BRANCH   2  22
ATOM     22  O   UNL     1      61.732  22.340  22.085  1.00  0.00    -0.502 OA
ATOM     23  H   UNL     1      61.951  22.396  21.098  1.00  0.00     0.293 HD
ENDBRANCH   2  22
BRANCH   9  24
ATOM     24  O   UNL     1      54.295  22.376  24.347  1.00  0.00    -0.508 OA
ATOM     25  H   UNL     1      54.157  22.347  25.350  1.00  0.00     0.293 HD
ENDBRANCH   9  24
TORSDOF 5
ENDMDL
MODEL 4
REMARK VINA RESULT:    -3.657      1.034      1.091
REMARK INTER + INTRA:          -4.527
REMARK INTER:                  -4.205
REMARK INTRA:                  -0.322
REMARK UNBOUND:                -0.229
REMARK SMILES O=c1c(O)c(-c2ccc(O)c(O)c2)oc2cc(O)ccc12
REMARK SMILES IDX 5 1 3 2 2 3 1 4 21 5 15 6 14 7 16 8 17 9 19 10 20 11 6 12
REMARK SMILES IDX 7 13 8 14 9 15 13 16 11 17 10 18 12 20 4 22 18 24
REMARK H PARENT 10 19 12 21 4 23 18 25
REMARK Flexibility Score: inf
ROOT
ATOM      1  C   UNL     1      59.355  22.611  23.056  1.00  0.00     0.180 A 
ATOM      2  C   UNL     1      60.107  22.951  24.201  1.00  0.00     0.208 A 
ATOM      3  C   UNL     1      61.489  23.153  24.067  1.00  0.00     0.235 A 
ATOM      4  O   UNL     1      62.181  23.468  25.073  1.00  0.00    -0.285 OA
ATOM      5  C   UNL     1      62.091  22.991  22.809  1.00  0.00     0.069 A 
ATOM      6  C   UNL     1      61.274  22.625  21.717  1.00  0.00     0.142 A 
ATOM      7  O   UNL     1      59.967  22.454  21.885  1.00  0.00    -0.452 OA
ATOM      8  C   UNL     1      61.838  22.445  20.450  1.00  0.00     0.094 A 
ATOM      9  C   UNL     1      63.214  22.628  20.257  1.00  0.00     0.119 A 
ATOM     10  C   UNL     1      64.025  22.992  21.337  1.00  0.00     0.047 A 
ATOM     11  C   UNL     1      63.471  23.173  22.608  1.00  0.00     0.020 A 
ENDROOT
BRANCH   1  12
ATOM     12  C   UNL     1      57.891  22.401  23.112  1.00  0.00     0.025 A 
ATOM     13  C   UNL     1      57.385  21.099  23.252  1.00  0.00     0.016 A 
ATOM     14  C   UNL     1      56.006  20.875  23.287  1.00  0.00     0.051 A 
ATOM     15  C   UNL     1      55.112  21.944  23.167  1.00  0.00     0.157 A 
ATOM     16  C   UNL     1      56.991  23.473  22.971  1.00  0.00     0.062 A 
ATOM     17  C   UNL     1      55.606  23.250  23.003  1.00  0.00     0.158 A 
BRANCH  15  18
ATOM     18  O   UNL     1      53.743  21.691  23.206  1.00  0.00    -0.504 OA
ATOM     19  H   UNL     1      53.363  20.759  23.086  1.00  0.00     0.293 HD
ENDBRANCH  15  18
BRANCH  17  20
ATOM     20  O   UNL     1      54.721  24.318  22.869  1.00  0.00    -0.504 OA
ATOM     21  H   UNL     1      54.891  25.069  22.210  1.00  0.00     0.293 HD
ENDBRANCH  17  20
ENDBRANCH   1  12
BRANCH   2  22
ATOM     22  O   UNL     1      59.488  23.057  25.449  1.00  0.00    -0.502 OA
ATOM     23  H   UNL     1      59.562  22.333  26.153  1.00  0.00     0.293 HD
ENDBRANCH   2  22
BRANCH   9  24
ATOM     24  O   UNL     1      63.784  22.451  18.998  1.00  0.00    -0.508 OA
ATOM     25  H   UNL     1      63.886  21.530  18.589  1.00  0.00     0.293 HD
ENDBRANCH   9  24
TORSDOF 5
ENDMDL
MODEL 5
REMARK VINA RESULT:    -2.473      1.553      6.608
REMARK INTER + INTRA:          -3.135
REMARK INTER:                  -2.949
REMARK INTRA:                  -0.186
REMARK UNBOUND:                -0.229
REMARK SMILES O=c1c(O)c(-c2ccc(O)c(O)c2)oc2cc(O)ccc12
REMARK SMILES IDX 5 1 3 2 2 3 1 4 21 5 15 6 14 7 16 8 17 9 19 10 20 11 6 12
REMARK SMILES IDX 7 13 8 14 9 15 13 16 11 17 10 18 12 20 4 22 18 24
REMARK H PARENT 10 19 12 21 4 23 18 25
REMARK Flexibility Score: inf
ROOT
ATOM      1  C   UNL     1      59.471  22.284  22.449  1.00  0.00     0.180 A 
ATOM      2  C   UNL     1      59.532  23.240  23.485  1.00  0.00     0.208 A 
ATOM      3  C   UNL     1      58.365  23.527  24.210  1.00  0.00     0.235 A 
ATOM      4  O   UNL     1      58.397  24.369  25.148  1.00  0.00    -0.285 OA
ATOM      5  C   UNL     1      57.168  22.875  23.876  1.00  0.00     0.069 A 
ATOM      6  C   UNL     1      57.183  21.950  22.810  1.00  0.00     0.142 A 
ATOM      7  O   UNL     1      58.312  21.700  22.154  1.00  0.00    -0.452 OA
ATOM      8  C   UNL     1      56.008  21.287  22.441  1.00  0.00     0.094 A 
ATOM      9  C   UNL     1      54.812  21.538  23.127  1.00  0.00     0.119 A 
ATOM     10  C   UNL     1      54.794  22.453  24.184  1.00  0.00     0.047 A 
ATOM     11  C   UNL     1      55.963  23.121  24.560  1.00  0.00     0.020 A 
ENDROOT
BRANCH   1  12
ATOM     12  C   UNL     1      60.662  21.913  21.651  1.00  0.00     0.025 A 
ATOM     13  C   UNL     1      61.722  21.233  22.268  1.00  0.00     0.016 A 
ATOM     14  C   UNL     1      62.864  20.891  21.540  1.00  0.00     0.051 A 
ATOM     15  C   UNL     1      62.971  21.236  20.189  1.00  0.00     0.157 A 
ATOM     16  C   UNL     1      60.779  22.279  20.297  1.00  0.00     0.062 A 
ATOM     17  C   UNL     1      61.926  21.937  19.564  1.00  0.00     0.158 A 
BRANCH  15  18
ATOM     18  O   UNL     1      64.121  20.880  19.487  1.00  0.00    -0.504 OA
ATOM     19  H   UNL     1      64.619  21.538  18.899  1.00  0.00     0.293 HD
ENDBRANCH  15  18
BRANCH  17  20
ATOM     20  O   UNL     1      62.032  22.297  18.222  1.00  0.00    -0.504 OA
ATOM     21  H   UNL     1      62.801  22.862  17.882  1.00  0.00     0.293 HD
ENDBRANCH  17  20
ENDBRANCH   1  12
BRANCH   2  22
ATOM     22  O   UNL     1      60.728  23.908  23.762  1.00  0.00    -0.502 OA
ATOM     23  H   UNL     1      60.799  24.918  23.749  1.00  0.00     0.293 HD
ENDBRANCH   2  22
BRANCH   9  24
ATOM     24  O   UNL     1      53.636  20.882  22.765  1.00  0.00    -0.508 OA
ATOM     25  H   UNL     1      53.518  19.887  22.915  1.00  0.00     0.293 HD
ENDBRANCH   9  24
TORSDOF 5
ENDMDL
