MODEL 1
REMARK VINA RESULT:    -6.492      0.000      0.000
REMARK INTER + INTRA:         -10.561
REMARK INTER:                  -9.528
REMARK INTRA:                  -1.033
REMARK UNBOUND:                -1.033
REMARK SMILES O=c1c(O[C@@H]2O[C@H](CO)[C@@H](O)[C@@H](O)[C@@H]2O)c(-c2ccc(O)c(O)c2)oc2cc(O)cc(O)c12
REMARK SMILES IDX 4 1 3 2 16 3 25 4 2 5 26 6 1 7 33 8 27 9 31 10 28 11 30 12
REMARK SMILES IDX 17 13 20 14 19 15 22 16 18 17 24 18 21 19 23 21 32 23 29 25
REMARK SMILES IDX 5 27 14 28 6 29 12 30 7 31 10 32 15 33 13 35 8 37 9 38 11 40
REMARK H PARENT 21 20 23 22 32 24 29 26 15 34 13 36 9 39 11 41
REMARK Flexibility Score: inf
ROOT
ATOM      1  O   UNL     1      -5.662   7.218  14.847  1.00  0.00    -0.454 OA
ENDROOT
BRANCH   1   2
ATOM      2  C   UNL     1      -4.671   6.265  15.143  1.00  0.00     0.214 A 
ATOM      3  C   UNL     1      -3.380   6.287  14.551  1.00  0.00     0.180 A 
ATOM      4  O   UNL     1      -2.505   5.337  14.871  1.00  0.00    -0.452 OA
ATOM      5  C   UNL     1      -4.945   5.294  16.120  1.00  0.00     0.239 A 
ATOM      6  C   UNL     1      -2.752   4.360  15.742  1.00  0.00     0.146 A 
ATOM      7  O   UNL     1      -5.979   5.419  16.840  1.00  0.00    -0.285 OA
ATOM      8  C   UNL     1      -4.014   4.257  16.375  1.00  0.00     0.111 A 
ATOM      9  C   UNL     1      -1.757   3.426  15.989  1.00  0.00     0.094 A 
ATOM     10  C   UNL     1      -4.248   3.136  17.239  1.00  0.00     0.134 A 
ATOM     11  C   UNL     1      -1.949   2.381  16.897  1.00  0.00     0.123 A 
ATOM     12  C   UNL     1      -3.182   2.249  17.537  1.00  0.00     0.093 A 
BRANCH   3  13
ATOM     13  C   UNL     1      -2.978   7.313  13.589  1.00  0.00     0.025 A 
ATOM     14  C   UNL     1      -2.097   9.239  11.741  1.00  0.00     0.157 A 
ATOM     15  C   UNL     1      -1.703   9.330  13.078  1.00  0.00     0.051 A 
ATOM     16  C   UNL     1      -3.058   8.289  11.357  1.00  0.00     0.158 A 
ATOM     17  C   UNL     1      -2.178   8.380  14.002  1.00  0.00     0.016 A 
ATOM     18  C   UNL     1      -3.546   7.366  12.296  1.00  0.00     0.062 A 
BRANCH  14  19
ATOM     19  O   UNL     1      -1.557  10.125  10.805  1.00  0.00    -0.504 OA
ATOM     20  H   UNL     1      -2.030  10.300   9.921  1.00  0.00     0.293 HD
ENDBRANCH  14  19
BRANCH  16  21
ATOM     21  O   UNL     1      -3.571   8.291  10.050  1.00  0.00    -0.504 OA
ATOM     22  H   UNL     1      -3.508   9.125   9.461  1.00  0.00     0.293 HD
ENDBRANCH  16  21
ENDBRANCH   3  13
BRANCH  10  23
ATOM     23  O   UNL     1      -5.507   2.817  17.760  1.00  0.00    -0.507 OA
ATOM     24  H   UNL     1      -5.900   3.283  18.578  1.00  0.00     0.293 HD
ENDBRANCH  10  23
BRANCH  11  25
ATOM     25  O   UNL     1      -0.939   1.430  17.079  1.00  0.00    -0.508 OA
ATOM     26  H   UNL     1      -0.691   1.185  18.043  1.00  0.00     0.293 HD
ENDBRANCH  11  25
ENDBRANCH   1   2
BRANCH   1  27
ATOM     27  C   UNL     1      -6.392   7.270  13.611  1.00  0.00     0.339 C 
ATOM     28  C   UNL     1      -7.485   6.159  13.525  1.00  0.00     0.214 C 
ATOM     29  O   UNL     1      -6.999   8.538  13.497  1.00  0.00    -0.332 OA
ATOM     30  C   UNL     1      -8.607   6.538  12.525  1.00  0.00     0.180 C 
ATOM     31  C   UNL     1      -7.497   8.794  12.177  1.00  0.00     0.179 C 
ATOM     32  C   UNL     1      -8.080   7.529  11.470  1.00  0.00     0.177 C 
BRANCH  28  33
ATOM     33  O   UNL     1      -8.062   5.931  14.788  1.00  0.00    -0.384 OA
ATOM     34  H   UNL     1      -7.458   6.385  15.451  1.00  0.00     0.211 HD
ENDBRANCH  28  33
BRANCH  30  35
ATOM     35  O   UNL     1      -9.125   5.379  11.924  1.00  0.00    -0.387 OA
ATOM     36  H   UNL     1      -8.662   5.288  11.041  1.00  0.00     0.211 HD
ENDBRANCH  30  35
BRANCH  31  37
ATOM     37  C   UNL     1      -8.541   9.917  12.271  1.00  0.00     0.191 C 
BRANCH  37  38
ATOM     38  O   UNL     1      -9.085   9.977  13.564  1.00  0.00    -0.394 OA
ATOM     39  H   UNL     1     -10.024   9.642  13.491  1.00  0.00     0.210 HD
ENDBRANCH  37  38
ENDBRANCH  31  37
BRANCH  32  40
ATOM     40  O   UNL     1      -7.077   6.940  10.658  1.00  0.00    -0.387 OA
ATOM     41  H   UNL     1      -7.155   7.350   9.754  1.00  0.00     0.211 HD
ENDBRANCH  32  40
ENDBRANCH   1  27
TORSDOF 12
ENDMDL
MODEL 2
REMARK VINA RESULT:    -6.082      1.048      2.035
REMARK INTER + INTRA:          -9.960
REMARK INTER:                  -9.093
REMARK INTRA:                  -0.867
REMARK UNBOUND:                -1.033
REMARK SMILES O=c1c(O[C@@H]2O[C@H](CO)[C@@H](O)[C@@H](O)[C@@H]2O)c(-c2ccc(O)c(O)c2)oc2cc(O)cc(O)c12
REMARK SMILES IDX 4 1 3 2 16 3 25 4 2 5 26 6 1 7 33 8 27 9 31 10 28 11 30 12
REMARK SMILES IDX 17 13 20 14 19 15 22 16 18 17 24 18 21 19 23 21 32 23 29 25
REMARK SMILES IDX 5 27 14 28 6 29 12 30 7 31 10 32 15 33 13 35 8 37 9 38 11 40
REMARK H PARENT 21 20 23 22 32 24 29 26 15 34 13 36 9 39 11 41
REMARK Flexibility Score: inf
ROOT
ATOM      1  O   UNL     1      -5.505   7.115  14.533  1.00  0.00    -0.454 OA
ENDROOT
BRANCH   1   2
ATOM      2  C   UNL     1      -4.529   6.192  14.948  1.00  0.00     0.214 A 
ATOM      3  C   UNL     1      -3.177   6.255  14.517  1.00  0.00     0.180 A 
ATOM      4  O   UNL     1      -2.319   5.331  14.940  1.00  0.00    -0.452 OA
ATOM      5  C   UNL     1      -4.889   5.209  15.884  1.00  0.00     0.239 A 
ATOM      6  C   UNL     1      -2.639   4.345  15.775  1.00  0.00     0.146 A 
ATOM      7  O   UNL     1      -6.007   5.299  16.473  1.00  0.00    -0.285 OA
ATOM      8  C   UNL     1      -3.965   4.200  16.250  1.00  0.00     0.111 A 
ATOM      9  C   UNL     1      -1.653   3.440  16.140  1.00  0.00     0.094 A 
ATOM     10  C   UNL     1      -4.267   3.069  17.080  1.00  0.00     0.134 A 
ATOM     11  C   UNL     1      -1.921   2.386  17.019  1.00  0.00     0.123 A 
ATOM     12  C   UNL     1      -3.219   2.214  17.505  1.00  0.00     0.093 A 
BRANCH   3  13
ATOM     13  C   UNL     1      -2.693   7.297  13.611  1.00  0.00     0.025 A 
ATOM     14  C   UNL     1      -1.661   9.240  11.861  1.00  0.00     0.157 A 
ATOM     15  C   UNL     1      -1.206   9.183  13.181  1.00  0.00     0.051 A 
ATOM     16  C   UNL     1      -2.743   8.441  11.459  1.00  0.00     0.158 A 
ATOM     17  C   UNL     1      -1.755   8.228  14.057  1.00  0.00     0.016 A 
ATOM     18  C   UNL     1      -3.302   7.513  12.353  1.00  0.00     0.062 A 
BRANCH  14  19
ATOM     19  O   UNL     1      -1.056  10.125  10.964  1.00  0.00    -0.504 OA
ATOM     20  H   UNL     1      -0.061  10.328  11.024  1.00  0.00     0.293 HD
ENDBRANCH  14  19
BRANCH  16  21
ATOM     21  O   UNL     1      -3.305   8.601  10.182  1.00  0.00    -0.504 OA
ATOM     22  H   UNL     1      -4.281   8.356  10.002  1.00  0.00     0.293 HD
ENDBRANCH  16  21
ENDBRANCH   3  13
BRANCH  10  23
ATOM     23  O   UNL     1      -5.570   2.710  17.444  1.00  0.00    -0.507 OA
ATOM     24  H   UNL     1      -6.062   3.139  18.226  1.00  0.00     0.293 HD
ENDBRANCH  10  23
BRANCH  11  25
ATOM     25  O   UNL     1      -0.912   1.466  17.322  1.00  0.00    -0.508 OA
ATOM     26  H   UNL     1       0.057   1.787  17.243  1.00  0.00     0.293 HD
ENDBRANCH  11  25
ENDBRANCH   1   2
BRANCH   1  27
ATOM     27  C   UNL     1      -6.499   6.848  13.530  1.00  0.00     0.339 C 
ATOM     28  C   UNL     1      -7.205   8.151  13.040  1.00  0.00     0.214 C 
ATOM     29  O   UNL     1      -5.879   6.209  12.437  1.00  0.00    -0.332 OA
ATOM     30  C   UNL     1      -7.822   7.970  11.630  1.00  0.00     0.180 C 
ATOM     31  C   UNL     1      -6.825   5.639  11.523  1.00  0.00     0.179 C 
ATOM     32  C   UNL     1      -8.128   6.485  11.358  1.00  0.00     0.177 C 
BRANCH  28  33
ATOM     33  O   UNL     1      -6.296   9.225  13.003  1.00  0.00    -0.384 OA
ATOM     34  H   UNL     1      -5.383   8.809  12.937  1.00  0.00     0.211 HD
ENDBRANCH  28  33
BRANCH  30  35
ATOM     35  O   UNL     1      -8.977   8.761  11.507  1.00  0.00    -0.387 OA
ATOM     36  H   UNL     1      -9.192   8.795  10.529  1.00  0.00     0.211 HD
ENDBRANCH  30  35
BRANCH  31  37
ATOM     37  C   UNL     1      -6.118   5.427  10.176  1.00  0.00     0.191 C 
BRANCH  37  38
ATOM     38  O   UNL     1      -5.292   6.521   9.875  1.00  0.00    -0.394 OA
ATOM     39  H   UNL     1      -5.860   7.338   9.976  1.00  0.00     0.210 HD
ENDBRANCH  37  38
ENDBRANCH  31  37
BRANCH  32  40
ATOM     40  O   UNL     1      -9.125   5.990  12.239  1.00  0.00    -0.387 OA
ATOM     41  H   UNL     1      -9.896   5.708  11.676  1.00  0.00     0.211 HD
ENDBRANCH  32  40
ENDBRANCH   1  27
TORSDOF 12
ENDMDL
MODEL 3
REMARK VINA RESULT:    -5.781      1.982      4.740
REMARK INTER + INTRA:          -9.518
REMARK INTER:                  -8.458
REMARK INTRA:                  -1.060
REMARK UNBOUND:                -1.033
REMARK SMILES O=c1c(O[C@@H]2O[C@H](CO)[C@@H](O)[C@@H](O)[C@@H]2O)c(-c2ccc(O)c(O)c2)oc2cc(O)cc(O)c12
REMARK SMILES IDX 4 1 3 2 16 3 25 4 2 5 26 6 1 7 33 8 27 9 31 10 28 11 30 12
REMARK SMILES IDX 17 13 20 14 19 15 22 16 18 17 24 18 21 19 23 21 32 23 29 25
REMARK SMILES IDX 5 27 14 28 6 29 12 30 7 31 10 32 15 33 13 35 8 37 9 38 11 40
REMARK H PARENT 21 20 23 22 32 24 29 26 15 34 13 36 9 39 11 41
REMARK Flexibility Score: inf
ROOT
ATOM      1  O   UNL     1      -3.363   5.236  14.000  1.00  0.00    -0.454 OA
ENDROOT
BRANCH   1   2
ATOM      2  C   UNL     1      -3.746   4.274  14.950  1.00  0.00     0.214 A 
ATOM      3  C   UNL     1      -5.080   3.800  15.073  1.00  0.00     0.180 A 
ATOM      4  O   UNL     1      -5.364   2.902  16.012  1.00  0.00    -0.452 OA
ATOM      5  C   UNL     1      -2.755   3.704  15.765  1.00  0.00     0.239 A 
ATOM      6  C   UNL     1      -4.464   2.388  16.847  1.00  0.00     0.146 A 
ATOM      7  O   UNL     1      -1.536   3.916  15.493  1.00  0.00    -0.285 OA
ATOM      8  C   UNL     1      -3.112   2.807  16.802  1.00  0.00     0.111 A 
ATOM      9  C   UNL     1      -4.887   1.459  17.787  1.00  0.00     0.094 A 
ATOM     10  C   UNL     1      -2.207   2.279  17.782  1.00  0.00     0.134 A 
ATOM     11  C   UNL     1      -3.991   0.876  18.688  1.00  0.00     0.123 A 
ATOM     12  C   UNL     1      -2.651   1.268  18.671  1.00  0.00     0.093 A 
BRANCH   3  13
ATOM     13  C   UNL     1      -6.160   4.274  14.208  1.00  0.00     0.025 A 
ATOM     14  C   UNL     1      -8.187   5.291  12.547  1.00  0.00     0.157 A 
ATOM     15  C   UNL     1      -8.167   5.628  13.904  1.00  0.00     0.051 A 
ATOM     16  C   UNL     1      -7.300   4.322  12.054  1.00  0.00     0.158 A 
ATOM     17  C   UNL     1      -7.168   5.085  14.733  1.00  0.00     0.016 A 
ATOM     18  C   UNL     1      -6.326   3.766  12.899  1.00  0.00     0.062 A 
BRANCH  14  19
ATOM     19  O   UNL     1      -9.122   5.898  11.704  1.00  0.00    -0.504 OA
ATOM     20  H   UNL     1      -9.645   6.716  12.009  1.00  0.00     0.293 HD
ENDBRANCH  14  19
BRANCH  16  21
ATOM     21  O   UNL     1      -7.414   3.868  10.730  1.00  0.00    -0.504 OA
ATOM     22  H   UNL     1      -7.394   4.524   9.945  1.00  0.00     0.293 HD
ENDBRANCH  16  21
ENDBRANCH   3  13
BRANCH  10  23
ATOM     23  O   UNL     1      -0.906   2.763  17.965  1.00  0.00    -0.507 OA
ATOM     24  H   UNL     1      -0.095   2.352  17.504  1.00  0.00     0.293 HD
ENDBRANCH  10  23
BRANCH  11  25
ATOM     25  O   UNL     1      -4.466  -0.018  19.654  1.00  0.00    -0.508 OA
ATOM     26  H   UNL     1      -5.314   0.247  20.164  1.00  0.00     0.293 HD
ENDBRANCH  11  25
ENDBRANCH   1   2
BRANCH   1  27
ATOM     27  C   UNL     1      -4.056   6.474  13.775  1.00  0.00     0.339 C 
ATOM     28  C   UNL     1      -3.170   7.715  14.110  1.00  0.00     0.214 C 
ATOM     29  O   UNL     1      -4.454   6.531  12.423  1.00  0.00    -0.332 OA
ATOM     30  C   UNL     1      -3.657   8.982  13.363  1.00  0.00     0.180 C 
ATOM     31  C   UNL     1      -5.402   7.577  12.171  1.00  0.00     0.179 C 
ATOM     32  C   UNL     1      -5.154   8.866  13.017  1.00  0.00     0.177 C 
BRANCH  28  33
ATOM     33  O   UNL     1      -1.827   7.474  13.765  1.00  0.00    -0.384 OA
ATOM     34  H   UNL     1      -1.731   7.771  12.810  1.00  0.00     0.211 HD
ENDBRANCH  28  33
BRANCH  30  35
ATOM     35  O   UNL     1      -3.399  10.125  14.139  1.00  0.00    -0.387 OA
ATOM     36  H   UNL     1      -3.128   9.795  15.045  1.00  0.00     0.211 HD
ENDBRANCH  30  35
BRANCH  31  37
ATOM     37  C   UNL     1      -5.387   7.880  10.666  1.00  0.00     0.191 C 
BRANCH  37  38
ATOM     38  O   UNL     1      -6.526   7.345  10.044  1.00  0.00    -0.394 OA
ATOM     39  H   UNL     1      -6.544   6.373  10.277  1.00  0.00     0.210 HD
ENDBRANCH  37  38
ENDBRANCH  31  37
BRANCH  32  40
ATOM     40  O   UNL     1      -5.956   8.824  14.187  1.00  0.00    -0.387 OA
ATOM     41  H   UNL     1      -5.424   9.235  14.920  1.00  0.00     0.211 HD
ENDBRANCH  32  40
ENDBRANCH   1  27
TORSDOF 12
ENDMDL
MODEL 4
REMARK VINA RESULT:    -5.600     13.709     18.627
REMARK INTER + INTRA:          -9.253
REMARK INTER:                  -7.953
REMARK INTRA:                  -1.300
REMARK UNBOUND:                -1.033
REMARK SMILES O=c1c(O[C@@H]2O[C@H](CO)[C@@H](O)[C@@H](O)[C@@H]2O)c(-c2ccc(O)c(O)c2)oc2cc(O)cc(O)c12
REMARK SMILES IDX 4 1 3 2 16 3 25 4 2 5 26 6 1 7 33 8 27 9 31 10 28 11 30 12
REMARK SMILES IDX 17 13 20 14 19 15 22 16 18 17 24 18 21 19 23 21 32 23 29 25
REMARK SMILES IDX 5 27 14 28 6 29 12 30 7 31 10 32 15 33 13 35 8 37 9 38 11 40
REMARK H PARENT 21 20 23 22 32 24 29 26 15 34 13 36 9 39 11 41
REMARK Flexibility Score: inf
ROOT
ATOM      1  O   UNL     1      -5.755  -9.315  25.000  1.00  0.00    -0.454 OA
ENDROOT
BRANCH   1   2
ATOM      2  C   UNL     1      -5.662  -8.426  23.916  1.00  0.00     0.214 A 
ATOM      3  C   UNL     1      -4.771  -7.319  23.901  1.00  0.00     0.180 A 
ATOM      4  O   UNL     1      -4.758  -6.512  22.844  1.00  0.00    -0.452 OA
ATOM      5  C   UNL     1      -6.430  -8.683  22.769  1.00  0.00     0.239 A 
ATOM      6  C   UNL     1      -5.520  -6.686  21.765  1.00  0.00     0.146 A 
ATOM      7  O   UNL     1      -7.022  -9.798  22.661  1.00  0.00    -0.285 OA
ATOM      8  C   UNL     1      -6.442  -7.758  21.696  1.00  0.00     0.111 A 
ATOM      9  C   UNL     1      -5.417  -5.772  20.727  1.00  0.00     0.094 A 
ATOM     10  C   UNL     1      -7.295  -7.844  20.545  1.00  0.00     0.134 A 
ATOM     11  C   UNL     1      -6.183  -5.900  19.565  1.00  0.00     0.123 A 
ATOM     12  C   UNL     1      -7.103  -6.946  19.465  1.00  0.00     0.093 A 
BRANCH   3  13
ATOM     13  C   UNL     1      -3.871  -7.025  25.016  1.00  0.00     0.025 A 
ATOM     14  C   UNL     1      -2.062  -6.423  27.082  1.00  0.00     0.157 A 
ATOM     15  C   UNL     1      -1.851  -7.548  26.281  1.00  0.00     0.051 A 
ATOM     16  C   UNL     1      -3.255  -5.693  26.963  1.00  0.00     0.158 A 
ATOM     17  C   UNL     1      -2.782  -7.859  25.272  1.00  0.00     0.016 A 
ATOM     18  C   UNL     1      -4.190  -6.032  25.972  1.00  0.00     0.062 A 
BRANCH  14  19
ATOM     19  O   UNL     1      -1.095  -6.061  28.024  1.00  0.00    -0.504 OA
ATOM     20  H   UNL     1      -0.565  -5.199  27.921  1.00  0.00     0.293 HD
ENDBRANCH  14  19
BRANCH  16  21
ATOM     21  O   UNL     1      -3.543  -4.656  27.865  1.00  0.00    -0.504 OA
ATOM     22  H   UNL     1      -3.120  -3.731  27.756  1.00  0.00     0.293 HD
ENDBRANCH  16  21
ENDBRANCH   3  13
BRANCH  10  23
ATOM     23  O   UNL     1      -8.372  -8.732  20.452  1.00  0.00    -0.507 OA
ATOM     24  H   UNL     1      -8.705  -9.281  21.244  1.00  0.00     0.293 HD
ENDBRANCH  10  23
BRANCH  11  25
ATOM     25  O   UNL     1      -6.087  -4.929  18.563  1.00  0.00    -0.508 OA
ATOM     26  H   UNL     1      -5.459  -5.125  17.777  1.00  0.00     0.293 HD
ENDBRANCH  11  25
ENDBRANCH   1   2
BRANCH   1  27
ATOM     27  C   UNL     1      -6.785  -9.271  26.000  1.00  0.00     0.339 C 
ATOM     28  C   UNL     1      -6.217  -9.461  27.441  1.00  0.00     0.214 C 
ATOM     29  O   UNL     1      -7.446  -8.027  25.914  1.00  0.00    -0.332 OA
ATOM     30  C   UNL     1      -7.166  -8.866  28.512  1.00  0.00     0.180 C 
ATOM     31  C   UNL     1      -8.670  -8.002  26.659  1.00  0.00     0.179 C 
ATOM     32  C   UNL     1      -8.614  -8.821  27.988  1.00  0.00     0.177 C 
BRANCH  28  33
ATOM     33  O   UNL     1      -4.956  -8.849  27.562  1.00  0.00    -0.384 OA
ATOM     34  H   UNL     1      -4.719  -8.900  28.538  1.00  0.00     0.211 HD
ENDBRANCH  28  33
BRANCH  30  35
ATOM     35  O   UNL     1      -7.075  -9.610  29.700  1.00  0.00    -0.387 OA
ATOM     36  H   UNL     1      -6.160  -9.439  30.070  1.00  0.00     0.211 HD
ENDBRANCH  30  35
BRANCH  31  37
ATOM     37  C   UNL     1      -9.039  -6.533  26.919  1.00  0.00     0.191 C 
BRANCH  37  38
ATOM     38  O   UNL     1      -7.976  -5.688  26.564  1.00  0.00    -0.394 OA
ATOM     39  H   UNL     1      -7.194  -5.970  27.120  1.00  0.00     0.210 HD
ENDBRANCH  37  38
ENDBRANCH  31  37
BRANCH  32  40
ATOM     40  O   UNL     1      -9.125 -10.125  27.759  1.00  0.00    -0.387 OA
ATOM     41  H   UNL     1      -9.190 -10.243  26.773  1.00  0.00     0.211 HD
ENDBRANCH  32  40
ENDBRANCH   1  27
TORSDOF 12
ENDMDL
MODEL 5
REMARK VINA RESULT:    -5.456      1.578      4.763
REMARK INTER + INTRA:          -9.042
REMARK INTER:                  -8.135
REMARK INTRA:                  -0.906
REMARK UNBOUND:                -1.033
REMARK SMILES O=c1c(O[C@@H]2O[C@H](CO)[C@@H](O)[C@@H](O)[C@@H]2O)c(-c2ccc(O)c(O)c2)oc2cc(O)cc(O)c12
REMARK SMILES IDX 4 1 3 2 16 3 25 4 2 5 26 6 1 7 33 8 27 9 31 10 28 11 30 12
REMARK SMILES IDX 17 13 20 14 19 15 22 16 18 17 24 18 21 19 23 21 32 23 29 25
REMARK SMILES IDX 5 27 14 28 6 29 12 30 7 31 10 32 15 33 13 35 8 37 9 38 11 40
REMARK H PARENT 21 20 23 22 32 24 29 26 15 34 13 36 9 39 11 41
REMARK Flexibility Score: inf
ROOT
ATOM      1  O   UNL     1      -3.665   8.028  14.278  1.00  0.00    -0.454 OA
ENDROOT
BRANCH   1   2
ATOM      2  C   UNL     1      -4.197   6.817  14.753  1.00  0.00     0.214 A 
ATOM      3  C   UNL     1      -5.576   6.489  14.653  1.00  0.00     0.180 A 
ATOM      4  O   UNL     1      -6.003   5.330  15.146  1.00  0.00    -0.452 OA
ATOM      5  C   UNL     1      -3.317   5.860  15.283  1.00  0.00     0.239 A 
ATOM      6  C   UNL     1      -5.209   4.426  15.717  1.00  0.00     0.146 A 
ATOM      7  O   UNL     1      -2.069   6.023  15.139  1.00  0.00    -0.285 OA
ATOM      8  C   UNL     1      -3.822   4.671  15.865  1.00  0.00     0.111 A 
ATOM      9  C   UNL     1      -5.776   3.254  16.195  1.00  0.00     0.094 A 
ATOM     10  C   UNL     1      -3.033   3.696  16.563  1.00  0.00     0.134 A 
ATOM     11  C   UNL     1      -4.998   2.262  16.798  1.00  0.00     0.123 A 
ATOM     12  C   UNL     1      -3.627   2.472  16.961  1.00  0.00     0.093 A 
BRANCH   3  13
ATOM     13  C   UNL     1      -6.551   7.389  14.037  1.00  0.00     0.025 A 
ATOM     14  C   UNL     1      -8.335   9.184  12.815  1.00  0.00     0.157 A 
ATOM     15  C   UNL     1      -7.680   9.551  13.994  1.00  0.00     0.051 A 
ATOM     16  C   UNL     1      -8.229   7.869  12.336  1.00  0.00     0.158 A 
ATOM     17  C   UNL     1      -6.816   8.631  14.615  1.00  0.00     0.016 A 
ATOM     18  C   UNL     1      -7.386   6.951  12.983  1.00  0.00     0.062 A 
BRANCH  14  19
ATOM     19  O   UNL     1      -9.124  10.125  12.147  1.00  0.00    -0.504 OA
ATOM     20  H   UNL     1      -9.302  11.039  12.556  1.00  0.00     0.293 HD
ENDBRANCH  14  19
BRANCH  16  21
ATOM     21  O   UNL     1      -9.003   7.450  11.241  1.00  0.00    -0.504 OA
ATOM     22  H   UNL     1      -8.941   6.492  10.889  1.00  0.00     0.293 HD
ENDBRANCH  16  21
ENDBRANCH   3  13
BRANCH  10  23
ATOM     23  O   UNL     1      -1.705   3.915  16.945  1.00  0.00    -0.507 OA
ATOM     24  H   UNL     1      -1.035   3.157  17.070  1.00  0.00     0.293 HD
ENDBRANCH  10  23
BRANCH  11  25
ATOM     25  O   UNL     1      -5.615   1.117  17.313  1.00  0.00    -0.508 OA
ATOM     26  H   UNL     1      -6.298   0.641  16.716  1.00  0.00     0.293 HD
ENDBRANCH  11  25
ENDBRANCH   1   2
BRANCH   1  27
ATOM     27  C   UNL     1      -3.679   8.435  12.900  1.00  0.00     0.339 C 
ATOM     28  C   UNL     1      -2.300   9.004  12.440  1.00  0.00     0.214 C 
ATOM     29  O   UNL     1      -4.019   7.322  12.103  1.00  0.00    -0.332 OA
ATOM     30  C   UNL     1      -2.126   8.906  10.903  1.00  0.00     0.180 C 
ATOM     31  C   UNL     1      -4.349   7.690  10.757  1.00  0.00     0.179 C 
ATOM     32  C   UNL     1      -3.499   8.877  10.203  1.00  0.00     0.177 C 
BRANCH  28  33
ATOM     33  O   UNL     1      -1.244   8.310  13.060  1.00  0.00    -0.384 OA
ATOM     34  H   UNL     1      -1.459   8.306  14.042  1.00  0.00     0.211 HD
ENDBRANCH  28  33
BRANCH  30  35
ATOM     35  O   UNL     1      -1.339   9.974  10.441  1.00  0.00    -0.387 OA
ATOM     36  H   UNL     1      -0.997   9.702   9.540  1.00  0.00     0.211 HD
ENDBRANCH  30  35
BRANCH  31  37
ATOM     37  C   UNL     1      -4.212   6.440   9.875  1.00  0.00     0.191 C 
BRANCH  37  38
ATOM     38  O   UNL     1      -5.404   5.699   9.881  1.00  0.00    -0.394 OA
ATOM     39  H   UNL     1      -5.860   5.906  10.746  1.00  0.00     0.210 HD
ENDBRANCH  37  38
ENDBRANCH  31  37
BRANCH  32  40
ATOM     40  O   UNL     1      -4.206  10.093  10.395  1.00  0.00    -0.387 OA
ATOM     41  H   UNL     1      -3.889  10.481  11.255  1.00  0.00     0.211 HD
ENDBRANCH  32  40
ENDBRANCH   1  27
TORSDOF 12
ENDMDL
MODEL 6
REMARK VINA RESULT:    -5.448     12.459     16.727
REMARK INTER + INTRA:          -9.029
REMARK INTER:                  -7.898
REMARK INTRA:                  -1.131
REMARK UNBOUND:                -1.033
REMARK SMILES O=c1c(O[C@@H]2O[C@H](CO)[C@@H](O)[C@@H](O)[C@@H]2O)c(-c2ccc(O)c(O)c2)oc2cc(O)cc(O)c12
REMARK SMILES IDX 4 1 3 2 16 3 25 4 2 5 26 6 1 7 33 8 27 9 31 10 28 11 30 12
REMARK SMILES IDX 17 13 20 14 19 15 22 16 18 17 24 18 21 19 23 21 32 23 29 25
REMARK SMILES IDX 5 27 14 28 6 29 12 30 7 31 10 32 15 33 13 35 8 37 9 38 11 40
REMARK H PARENT 21 20 23 22 32 24 29 26 15 34 13 36 9 39 11 41
REMARK Flexibility Score: inf
ROOT
ATOM      1  O   UNL     1      -5.205  -5.739  22.588  1.00  0.00    -0.454 OA
ENDROOT
BRANCH   1   2
ATOM      2  C   UNL     1      -4.946  -6.469  23.762  1.00  0.00     0.214 A 
ATOM      3  C   UNL     1      -5.486  -7.761  24.000  1.00  0.00     0.180 A 
ATOM      4  O   UNL     1      -5.209  -8.377  25.146  1.00  0.00    -0.452 OA
ATOM      5  C   UNL     1      -4.060  -5.927  24.706  1.00  0.00     0.239 A 
ATOM      6  C   UNL     1      -4.426  -7.867  26.095  1.00  0.00     0.146 A 
ATOM      7  O   UNL     1      -3.371  -4.911  24.394  1.00  0.00    -0.285 OA
ATOM      8  C   UNL     1      -3.851  -6.582  25.945  1.00  0.00     0.111 A 
ATOM      9  C   UNL     1      -4.216  -8.607  27.249  1.00  0.00     0.094 A 
ATOM     10  C   UNL     1      -3.086  -6.051  27.038  1.00  0.00     0.134 A 
ATOM     11  C   UNL     1      -3.400  -8.133  28.280  1.00  0.00     0.123 A 
ATOM     12  C   UNL     1      -2.819  -6.869  28.165  1.00  0.00     0.093 A 
BRANCH   3  13
ATOM     13  C   UNL     1      -6.349  -8.439  23.032  1.00  0.00     0.025 A 
ATOM     14  C   UNL     1      -8.063  -9.639  21.156  1.00  0.00     0.157 A 
ATOM     15  C   UNL     1      -8.545  -9.311  22.426  1.00  0.00     0.051 A 
ATOM     16  C   UNL     1      -6.692  -9.522  20.876  1.00  0.00     0.158 A 
ATOM     17  C   UNL     1      -7.669  -8.742  23.369  1.00  0.00     0.016 A 
ATOM     18  C   UNL     1      -5.823  -8.981  21.837  1.00  0.00     0.062 A 
BRANCH  14  19
ATOM     19  O   UNL     1      -8.950 -10.121  20.189  1.00  0.00    -0.504 OA
ATOM     20  H   UNL     1      -8.735 -10.960  19.657  1.00  0.00     0.293 HD
ENDBRANCH  14  19
BRANCH  16  21
ATOM     21  O   UNL     1      -6.177  -9.993  19.657  1.00  0.00    -0.504 OA
ATOM     22  H   UNL     1      -6.441  -9.555  18.771  1.00  0.00     0.293 HD
ENDBRANCH  16  21
ENDBRANCH   3  13
BRANCH  10  23
ATOM     23  O   UNL     1      -2.640  -4.726  27.090  1.00  0.00    -0.507 OA
ATOM     24  H   UNL     1      -2.637  -4.112  26.277  1.00  0.00     0.293 HD
ENDBRANCH  10  23
BRANCH  11  25
ATOM     25  O   UNL     1      -3.254  -8.887  29.449  1.00  0.00    -0.508 OA
ATOM     26  H   UNL     1      -2.443  -9.509  29.509  1.00  0.00     0.293 HD
ENDBRANCH  11  25
ENDBRANCH   1   2
BRANCH   1  27
ATOM     27  C   UNL     1      -6.473  -5.146  22.264  1.00  0.00     0.339 C 
ATOM     28  C   UNL     1      -6.313  -3.774  21.539  1.00  0.00     0.214 C 
ATOM     29  O   UNL     1      -7.190  -6.035  21.437  1.00  0.00    -0.332 OA
ATOM     30  C   UNL     1      -7.571  -3.418  20.707  1.00  0.00     0.180 C 
ATOM     31  C   UNL     1      -8.571  -5.672  21.305  1.00  0.00     0.179 C 
ATOM     32  C   UNL     1      -8.814  -4.130  21.272  1.00  0.00     0.177 C 
BRANCH  28  33
ATOM     33  O   UNL     1      -5.194  -3.789  20.686  1.00  0.00    -0.384 OA
ATOM     34  H   UNL     1      -4.526  -4.401  21.121  1.00  0.00     0.211 HD
ENDBRANCH  28  33
BRANCH  30  35
ATOM     35  O   UNL     1      -7.749  -2.024  20.678  1.00  0.00    -0.387 OA
ATOM     36  H   UNL     1      -8.697  -1.867  20.397  1.00  0.00     0.211 HD
ENDBRANCH  30  35
BRANCH  31  37
ATOM     37  C   UNL     1      -9.125  -6.356  20.046  1.00  0.00     0.191 C 
BRANCH  37  38
ATOM     38  O   UNL     1      -8.078  -6.753  19.200  1.00  0.00    -0.394 OA
ATOM     39  H   UNL     1      -8.091  -7.753  19.185  1.00  0.00     0.210 HD
ENDBRANCH  37  38
ENDBRANCH  31  37
BRANCH  32  40
ATOM     40  O   UNL     1      -9.125  -3.674  22.580  1.00  0.00    -0.387 OA
ATOM     41  H   UNL     1      -9.991  -3.188  22.521  1.00  0.00     0.211 HD
ENDBRANCH  32  40
ENDBRANCH   1  27
TORSDOF 12
ENDMDL
MODEL 7
REMARK VINA RESULT:    -5.401     13.971     19.247
REMARK INTER + INTRA:          -8.960
REMARK INTER:                  -7.618
REMARK INTRA:                  -1.343
REMARK UNBOUND:                -1.033
REMARK SMILES O=c1c(O[C@@H]2O[C@H](CO)[C@@H](O)[C@@H](O)[C@@H]2O)c(-c2ccc(O)c(O)c2)oc2cc(O)cc(O)c12
REMARK SMILES IDX 4 1 3 2 16 3 25 4 2 5 26 6 1 7 33 8 27 9 31 10 28 11 30 12
REMARK SMILES IDX 17 13 20 14 19 15 22 16 18 17 24 18 21 19 23 21 32 23 29 25
REMARK SMILES IDX 5 27 14 28 6 29 12 30 7 31 10 32 15 33 13 35 8 37 9 38 11 40
REMARK H PARENT 21 20 23 22 32 24 29 26 15 34 13 36 9 39 11 41
REMARK Flexibility Score: inf
ROOT
ATOM      1  O   UNL     1      -4.717  -5.945  25.813  1.00  0.00    -0.454 OA
ENDROOT
BRANCH   1   2
ATOM      2  C   UNL     1      -5.300  -6.330  24.593  1.00  0.00     0.214 A 
ATOM      3  C   UNL     1      -6.281  -7.354  24.497  1.00  0.00     0.180 A 
ATOM      4  O   UNL     1      -6.768  -7.673  23.301  1.00  0.00    -0.452 OA
ATOM      5  C   UNL     1      -4.951  -5.625  23.430  1.00  0.00     0.239 A 
ATOM      6  C   UNL     1      -6.412  -7.072  22.167  1.00  0.00     0.146 A 
ATOM      7  O   UNL     1      -4.288  -4.551  23.536  1.00  0.00    -0.285 OA
ATOM      8  C   UNL     1      -5.436  -6.046  22.168  1.00  0.00     0.111 A 
ATOM      9  C   UNL     1      -6.991  -7.499  20.981  1.00  0.00     0.094 A 
ATOM     10  C   UNL     1      -5.033  -5.495  20.905  1.00  0.00     0.134 A 
ATOM     11  C   UNL     1      -6.666  -6.906  19.758  1.00  0.00     0.123 A 
ATOM     12  C   UNL     1      -5.707  -5.892  19.723  1.00  0.00     0.093 A 
BRANCH   3  13
ATOM     13  C   UNL     1      -6.768  -8.083  25.668  1.00  0.00     0.025 A 
ATOM     14  C   UNL     1      -7.597  -9.473  27.966  1.00  0.00     0.157 A 
ATOM     15  C   UNL     1      -6.773 -10.106  27.032  1.00  0.00     0.051 A 
ATOM     16  C   UNL     1      -8.141  -8.211  27.678  1.00  0.00     0.158 A 
ATOM     17  C   UNL     1      -6.392  -9.411  25.868  1.00  0.00     0.016 A 
ATOM     18  C   UNL     1      -7.777  -7.542  26.499  1.00  0.00     0.062 A 
BRANCH  14  19
ATOM     19  O   UNL     1      -7.904 -10.125  29.163  1.00  0.00    -0.504 OA
ATOM     20  H   UNL     1      -8.540 -10.919  29.176  1.00  0.00     0.293 HD
ENDBRANCH  14  19
BRANCH  16  21
ATOM     21  O   UNL     1      -9.089  -7.636  28.540  1.00  0.00    -0.504 OA
ATOM     22  H   UNL     1      -8.806  -7.216  29.428  1.00  0.00     0.293 HD
ENDBRANCH  16  21
ENDBRANCH   3  13
BRANCH  10  23
ATOM     23  O   UNL     1      -3.946  -4.627  20.759  1.00  0.00    -0.507 OA
ATOM     24  H   UNL     1      -4.044  -3.672  20.415  1.00  0.00     0.293 HD
ENDBRANCH  10  23
BRANCH  11  25
ATOM     25  O   UNL     1      -7.234  -7.399  18.579  1.00  0.00    -0.508 OA
ATOM     26  H   UNL     1      -6.596  -7.762  17.864  1.00  0.00     0.293 HD
ENDBRANCH  11  25
ENDBRANCH   1   2
BRANCH   1  27
ATOM     27  C   UNL     1      -3.571  -6.580  26.401  1.00  0.00     0.339 C 
ATOM     28  C   UNL     1      -2.697  -5.578  27.218  1.00  0.00     0.214 C 
ATOM     29  O   UNL     1      -4.013  -7.618  27.247  1.00  0.00    -0.332 OA
ATOM     30  C   UNL     1      -1.836  -6.306  28.281  1.00  0.00     0.180 C 
ATOM     31  C   UNL     1      -2.950  -8.496  27.643  1.00  0.00     0.179 C 
ATOM     32  C   UNL     1      -1.586  -7.769  27.866  1.00  0.00     0.177 C 
BRANCH  28  33
ATOM     33  O   UNL     1      -3.506  -4.626  27.866  1.00  0.00    -0.384 OA
ATOM     34  H   UNL     1      -4.452  -4.944  27.747  1.00  0.00     0.211 HD
ENDBRANCH  28  33
BRANCH  30  35
ATOM     35  O   UNL     1      -0.627  -5.616  28.474  1.00  0.00    -0.387 OA
ATOM     36  H   UNL     1      -0.504  -5.535  29.464  1.00  0.00     0.211 HD
ENDBRANCH  30  35
BRANCH  31  37
ATOM     37  C   UNL     1      -3.400  -9.247  28.905  1.00  0.00     0.191 C 
BRANCH  37  38
ATOM     38  O   UNL     1      -4.570  -8.675  29.430  1.00  0.00    -0.394 OA
ATOM     39  H   UNL     1      -4.279  -8.070  30.171  1.00  0.00     0.210 HD
ENDBRANCH  37  38
ENDBRANCH  31  37
BRANCH  32  40
ATOM     40  O   UNL     1      -0.812  -7.848  26.679  1.00  0.00    -0.387 OA
ATOM     41  H   UNL     1      -0.108  -7.146  26.743  1.00  0.00     0.211 HD
ENDBRANCH  32  40
ENDBRANCH   1  27
TORSDOF 12
ENDMDL
MODEL 8
REMARK VINA RESULT:    -5.255     12.426     18.774
REMARK INTER + INTRA:          -8.746
REMARK INTER:                  -7.365
REMARK INTRA:                  -1.381
REMARK UNBOUND:                -1.033
REMARK SMILES O=c1c(O[C@@H]2O[C@H](CO)[C@@H](O)[C@@H](O)[C@@H]2O)c(-c2ccc(O)c(O)c2)oc2cc(O)cc(O)c12
REMARK SMILES IDX 4 1 3 2 16 3 25 4 2 5 26 6 1 7 33 8 27 9 31 10 28 11 30 12
REMARK SMILES IDX 17 13 20 14 19 15 22 16 18 17 24 18 21 19 23 21 32 23 29 25
REMARK SMILES IDX 5 27 14 28 6 29 12 30 7 31 10 32 15 33 13 35 8 37 9 38 11 40
REMARK H PARENT 21 20 23 22 32 24 29 26 15 34 13 36 9 39 11 41
REMARK Flexibility Score: inf
ROOT
ATOM      1  O   UNL     1      -4.654  -8.601  23.963  1.00  0.00    -0.454 OA
ENDROOT
BRANCH   1   2
ATOM      2  C   UNL     1      -5.376  -7.530  23.408  1.00  0.00     0.214 A 
ATOM      3  C   UNL     1      -6.684  -7.179  23.835  1.00  0.00     0.180 A 
ATOM      4  O   UNL     1      -7.308  -6.164  23.244  1.00  0.00    -0.452 OA
ATOM      5  C   UNL     1      -4.748  -6.729  22.440  1.00  0.00     0.239 A 
ATOM      6  C   UNL     1      -6.771  -5.422  22.276  1.00  0.00     0.146 A 
ATOM      7  O   UNL     1      -3.505  -6.861  22.242  1.00  0.00    -0.285 OA
ATOM      8  C   UNL     1      -5.474  -5.704  21.783  1.00  0.00     0.111 A 
ATOM      9  C   UNL     1      -7.525  -4.391  21.737  1.00  0.00     0.094 A 
ATOM     10  C   UNL     1      -4.984  -4.924  20.684  1.00  0.00     0.134 A 
ATOM     11  C   UNL     1      -7.019  -3.571  20.725  1.00  0.00     0.123 A 
ATOM     12  C   UNL     1      -5.744  -3.822  20.215  1.00  0.00     0.093 A 
BRANCH   3  13
ATOM     13  C   UNL     1      -7.381  -7.904  24.897  1.00  0.00     0.025 A 
ATOM     14  C   UNL     1      -8.621  -9.360  26.957  1.00  0.00     0.157 A 
ATOM     15  C   UNL     1      -8.388  -9.968  25.721  1.00  0.00     0.051 A 
ATOM     16  C   UNL     1      -8.388  -7.985  27.115  1.00  0.00     0.158 A 
ATOM     17  C   UNL     1      -7.798  -9.219  24.686  1.00  0.00     0.016 A 
ATOM     18  C   UNL     1      -7.827  -7.242  26.065  1.00  0.00     0.062 A 
BRANCH  14  19
ATOM     19  O   UNL     1      -9.124 -10.125  28.013  1.00  0.00    -0.504 OA
ATOM     20  H   UNL     1     -10.042 -10.559  27.951  1.00  0.00     0.293 HD
ENDBRANCH  14  19
BRANCH  16  21
ATOM     21  O   UNL     1      -8.762  -7.337  28.304  1.00  0.00    -0.504 OA
ATOM     22  H   UNL     1      -9.140  -7.865  29.095  1.00  0.00     0.293 HD
ENDBRANCH  16  21
ENDBRANCH   3  13
BRANCH  10  23
ATOM     23  O   UNL     1      -3.812  -5.234  19.985  1.00  0.00    -0.507 OA
ATOM     24  H   UNL     1      -2.940  -5.481  20.452  1.00  0.00     0.293 HD
ENDBRANCH  10  23
BRANCH  11  25
ATOM     25  O   UNL     1      -7.830  -2.574  20.172  1.00  0.00    -0.508 OA
ATOM     26  H   UNL     1      -7.680  -2.337  19.187  1.00  0.00     0.293 HD
ENDBRANCH  11  25
ENDBRANCH   1   2
BRANCH   1  27
ATOM     27  C   UNL     1      -3.911  -8.528  25.191  1.00  0.00     0.339 C 
ATOM     28  C   UNL     1      -2.497  -9.176  25.062  1.00  0.00     0.214 C 
ATOM     29  O   UNL     1      -3.777  -7.173  25.559  1.00  0.00    -0.332 OA
ATOM     30  C   UNL     1      -1.516  -8.621  26.126  1.00  0.00     0.180 C 
ATOM     31  C   UNL     1      -3.317  -7.012  26.907  1.00  0.00     0.179 C 
ATOM     32  C   UNL     1      -2.287  -8.098  27.354  1.00  0.00     0.177 C 
BRANCH  28  33
ATOM     33  O   UNL     1      -1.957  -8.942  23.783  1.00  0.00    -0.384 OA
ATOM     34  H   UNL     1      -2.352  -8.072  23.474  1.00  0.00     0.211 HD
ENDBRANCH  28  33
BRANCH  30  35
ATOM     35  O   UNL     1      -0.590  -9.614  26.489  1.00  0.00    -0.387 OA
ATOM     36  H   UNL     1      -0.644  -9.699  27.485  1.00  0.00     0.211 HD
ENDBRANCH  30  35
BRANCH  31  37
ATOM     37  C   UNL     1      -2.737  -5.597  27.047  1.00  0.00     0.191 C 
BRANCH  37  38
ATOM     38  O   UNL     1      -3.535  -4.819  27.900  1.00  0.00    -0.394 OA
ATOM     39  H   UNL     1      -4.470  -5.158  27.798  1.00  0.00     0.210 HD
ENDBRANCH  37  38
ENDBRANCH  31  37
BRANCH  32  40
ATOM     40  O   UNL     1      -2.969  -9.147  28.024  1.00  0.00    -0.387 OA
ATOM     41  H   UNL     1      -3.342  -9.747  27.323  1.00  0.00     0.211 HD
ENDBRANCH  32  40
ENDBRANCH   1  27
TORSDOF 12
ENDMDL
