MODEL 1
REMARK VINA RESULT:     1.081      0.000      0.000
REMARK INTER + INTRA:           3.432
REMARK INTER:                   1.650
REMARK INTRA:                   1.782
REMARK UNBOUND:                 1.782
REMARK SMILES CC1=CCC[C@H](C)C(=O)C[C@@H](C(C)C)C(=O)C1
REMARK SMILES IDX 8 1 9 2 6 3 7 4 5 5 4 6 3 7 2 8 1 9 10 11 11 12 15 13 16 14
REMARK SMILES IDX 17 15 12 17 13 18 14 19
REMARK H PARENT
REMARK Flexibility Score: 70.00
ROOT
ATOM      1  C   UNL     1      24.351 -18.263   2.811  1.00  0.00     0.136 C 
ATOM      2  O   UNL     1      23.405 -19.023   2.659  1.00  0.00    -0.299 OA
ENDROOT
BRANCH   1   3
ATOM      3  C   UNL     1      24.081 -16.902   3.443  1.00  0.00     0.053 C 
ATOM      4  C   UNL     1      25.237 -15.893   3.334  1.00  0.00     0.016 C 
BRANCH   3   5
ATOM      5  C   UNL     1      22.727 -16.289   2.984  1.00  0.00     0.015 C 
BRANCH   5   6
ATOM      6  C   UNL     1      21.994 -17.033   1.853  1.00  0.00     0.028 C 
BRANCH   6   7
ATOM      7  C   UNL     1      22.116 -16.321   0.531  1.00  0.00    -0.028 C 
ATOM      8  C   UNL     1      22.929 -16.699  -0.481  1.00  0.00    -0.070 CG0
ATOM      9  C   UNL     1      22.920 -15.875  -1.743  1.00  0.00     0.039 C 
ATOM     10  G   UNL     1      23.842 -17.911  -0.398  1.00  0.00     0.000 G0
ENDBRANCH   6   7
ENDBRANCH   5   6
ENDBRANCH   3   5
ENDBRANCH   1   3
BRANCH   1  11
ATOM     11  C   UNL     1      25.729 -18.765   2.419  1.00  0.00     0.087 C 
BRANCH  11  12
ATOM     12  C   UNL     1      26.032 -18.714   0.895  1.00  0.00     0.066 C 
BRANCH  12  13
ATOM     13  C   UNL     1      25.202 -17.635   0.210  1.00  0.00     0.140 C 
ATOM     14  O   UNL     1      25.590 -16.476   0.253  1.00  0.00    -0.299 OA
BRANCH  13  15
ATOM     15  C   UNL     1      23.862 -17.917  -0.439  1.00  0.00     0.106 CG0
ATOM     16  G   UNL     1      22.916 -16.730  -0.447  1.00  0.00     0.000 G0
ENDBRANCH  13  15
ENDBRANCH  12  13
BRANCH  12  17
ATOM     17  C   UNL     1      25.789 -20.101   0.218  1.00  0.00    -0.006 C 
ATOM     18  C   UNL     1      25.228 -21.137   1.209  1.00  0.00     0.008 C 
ATOM     19  C   UNL     1      27.083 -20.660  -0.405  1.00  0.00     0.008 C 
ENDBRANCH  12  17
ENDBRANCH  11  12
ENDBRANCH   1  11
TORSDOF 1
ENDMDL
MODEL 2
REMARK VINA RESULT:     3.378      1.572      2.307
REMARK INTER + INTRA:           6.938
REMARK INTER:                   4.615
REMARK INTRA:                   2.323
REMARK UNBOUND:                 1.782
REMARK SMILES CC1=CCC[C@H](C)C(=O)C[C@@H](C(C)C)C(=O)C1
REMARK SMILES IDX 8 1 9 2 6 3 7 4 5 5 4 6 3 7 2 8 1 9 10 11 11 12 15 13 16 14
REMARK SMILES IDX 17 15 12 17 13 18 14 19
REMARK H PARENT
REMARK Flexibility Score: 70.00
ROOT
ATOM      1  C   UNL     1      26.680 -18.231   1.950  1.00  0.00     0.136 C 
ATOM      2  O   UNL     1      26.229 -18.676   2.996  1.00  0.00    -0.299 OA
ENDROOT
BRANCH   1   3
ATOM      3  C   UNL     1      26.969 -16.736   1.875  1.00  0.00     0.053 C 
ATOM      4  C   UNL     1      26.902 -16.130   0.461  1.00  0.00     0.016 C 
BRANCH   3   5
ATOM      5  C   UNL     1      26.140 -15.914   2.901  1.00  0.00     0.015 C 
BRANCH   5   6
ATOM      6  C   UNL     1      24.720 -16.432   3.195  1.00  0.00     0.028 C 
BRANCH   6   7
ATOM      7  C   UNL     1      23.746 -16.074   2.101  1.00  0.00    -0.028 C 
ATOM      8  C   UNL     1      23.258 -16.940   1.186  1.00  0.00    -0.070 CG0
ATOM      9  C   UNL     1      22.282 -16.415   0.163  1.00  0.00     0.039 C 
ATOM     10  G   UNL     1      23.647 -18.408   1.146  1.00  0.00     0.000 G0
ENDBRANCH   6   7
ENDBRANCH   5   6
ENDBRANCH   3   5
ENDBRANCH   1   3
BRANCH   1  11
ATOM     11  C   UNL     1      26.976 -19.216   0.834  1.00  0.00     0.087 C 
BRANCH  11  12
ATOM     12  C   UNL     1      25.720 -19.802   0.131  1.00  0.00     0.066 C 
BRANCH  12  13
ATOM     13  C   UNL     1      24.627 -18.748   0.000  1.00  0.00     0.140 C 
ATOM     14  O   UNL     1      24.576 -18.074  -1.020  1.00  0.00    -0.299 OA
BRANCH  13  15
ATOM     15  C   UNL     1      23.659 -18.425   1.120  1.00  0.00     0.106 CG0
ATOM     16  G   UNL     1      23.251 -16.964   1.184  1.00  0.00     0.000 G0
ENDBRANCH  13  15
ENDBRANCH  12  13
BRANCH  12  17
ATOM     17  C   UNL     1      25.178 -21.059   0.884  1.00  0.00    -0.006 C 
ATOM     18  C   UNL     1      26.013 -21.388   2.135  1.00  0.00     0.008 C 
ATOM     19  C   UNL     1      25.147 -22.297  -0.032  1.00  0.00     0.008 C 
ENDBRANCH  12  17
ENDBRANCH  11  12
ENDBRANCH   1  11
TORSDOF 1
ENDMDL
