MODEL 1
REMARK VINA RESULT:    -0.378      0.000      0.000
REMARK INTER + INTRA:          -0.378
REMARK INTER:                  -0.378
REMARK INTRA:                   0.000
REMARK UNBOUND:                 0.000
REMARK SMILES c1cc[nH]c1
REMARK SMILES IDX 1 1 5 2 4 3 3 4 2 5
REMARK H PARENT 4 6
REMARK Flexibility Score: inf
ROOT
ATOM      1  C   UNL     1     129.104  31.787 -16.809  1.00  0.00     0.019 A 
ATOM      2  C   UNL     1     129.125  30.625 -16.065  1.00  0.00     0.082 A 
ATOM      3  N   UNL     1     128.965  29.560 -16.870  1.00  0.00    -0.368 N 
ATOM      4  C   UNL     1     128.843  30.028 -18.125  1.00  0.00     0.082 A 
ATOM      5  C   UNL     1     128.924  31.405 -18.124  1.00  0.00     0.019 A 
ATOM      6  H   UNL     1     128.941  28.558 -16.577  1.00  0.00     0.165 HD
ENDROOT
TORSDOF 0
ENDMDL
MODEL 2
REMARK VINA RESULT:     0.466     26.873     27.320
REMARK INTER + INTRA:           0.466
REMARK INTER:                   0.466
REMARK INTRA:                   0.000
REMARK UNBOUND:                 0.000
REMARK SMILES c1cc[nH]c1
REMARK SMILES IDX 1 1 5 2 4 3 3 4 2 5
REMARK H PARENT 4 6
REMARK Flexibility Score: inf
ROOT
ATOM      1  C   UNL     1     108.913  27.970   2.121  1.00  0.00     0.019 A 
ATOM      2  C   UNL     1     110.242  27.597   2.114  1.00  0.00     0.082 A 
ATOM      3  N   UNL     1     111.026  28.689   2.113  1.00  0.00    -0.368 N 
ATOM      4  C   UNL     1     110.213  29.760   2.120  1.00  0.00     0.082 A 
ATOM      5  C   UNL     1     108.895  29.351   2.125  1.00  0.00     0.019 A 
ATOM      6  H   UNL     1     112.070  28.703   2.108  1.00  0.00     0.165 HD
ENDROOT
TORSDOF 0
ENDMDL
MODEL 3
REMARK VINA RESULT:     0.860     26.823     27.365
REMARK INTER + INTRA:           0.860
REMARK INTER:                   0.860
REMARK INTRA:                   0.000
REMARK UNBOUND:                 0.000
REMARK SMILES c1cc[nH]c1
REMARK SMILES IDX 1 1 5 2 4 3 3 4 2 5
REMARK H PARENT 4 6
REMARK Flexibility Score: inf
ROOT
ATOM      1  C   UNL     1     111.027  28.093   2.125  1.00  0.00     0.019 A 
ATOM      2  C   UNL     1     110.259  29.239   2.125  1.00  0.00     0.082 A 
ATOM      3  N   UNL     1     108.953  28.918   2.113  1.00  0.00    -0.368 N 
ATOM      4  C   UNL     1     108.876  27.576   2.106  1.00  0.00     0.082 A 
ATOM      5  C   UNL     1     110.144  27.031   2.113  1.00  0.00     0.019 A 
ATOM      6  H   UNL     1     108.150  29.586   2.111  1.00  0.00     0.165 HD
ENDROOT
TORSDOF 0
ENDMDL
