MODEL 1
REMARK VINA RESULT:    -6.519      0.000      0.000
REMARK INTER + INTRA:         -10.978
REMARK INTER:                  -8.995
REMARK INTRA:                  -1.982
REMARK UNBOUND:                -1.982
REMARK SMILES CC[C@H](CC[C@@H](C)[C@@H]1CC[C@H]2[C@H]3CC=C4C[C@H](O)CC[C@@]4(C)[C@@H]3CC[C@@]21C)C(C)C
REMARK SMILES IDX 5 1 4 2 3 3 2 4 1 5 28 6 29 7 30 8 6 9 7 10 8 11 9 12 26 13
REMARK SMILES IDX 10 14 11 15 25 16 27 17 12 18 24 19 23 20 13 21 21 22 14 23
REMARK SMILES IDX 15 24 20 25 22 26 16 27 19 28 17 29 18 30
REMARK H PARENT 18 31
REMARK Flexibility Score: inf
ROOT
ATOM      1  C   UNL     1     114.732 123.292 124.241  1.00  0.00     0.004 C 
ENDROOT
BRANCH   1   2
ATOM      2  C   UNL     1     113.683 122.236 124.672  1.00  0.00     0.004 C 
BRANCH   2   3
ATOM      3  C   UNL     1     113.816 120.873 123.937  1.00  0.00    -0.009 C 
BRANCH   3   4
ATOM      4  C   UNL     1     114.873 119.963 124.625  1.00  0.00     0.000 C 
ATOM      5  C   UNL     1     116.254 119.926 123.963  1.00  0.00     0.004 C 
ENDBRANCH   3   4
BRANCH   3   6
ATOM      6  C   UNL     1     112.442 120.196 123.595  1.00  0.00    -0.014 C 
ATOM      7  C   UNL     1     112.028 119.032 124.516  1.00  0.00     0.007 C 
ATOM      8  C   UNL     1     112.351 119.760 122.125  1.00  0.00     0.007 C 
ENDBRANCH   3   6
ENDBRANCH   2   3
ENDBRANCH   1   2
BRANCH   1   9
ATOM      9  C   UNL     1     114.234 124.449 123.316  1.00  0.00    -0.011 C 
ATOM     10  C   UNL     1     114.511 125.844 123.914  1.00  0.00     0.008 C 
BRANCH   9  11
ATOM     11  C   UNL     1     114.653 124.260 121.807  1.00  0.00    -0.002 C 
ATOM     12  C   UNL     1     113.846 123.151 121.065  1.00  0.00     0.005 C 
ATOM     13  C   UNL     1     116.162 123.929 121.467  1.00  0.00    -0.026 C 
ATOM     14  C   UNL     1     114.842 122.097 120.568  1.00  0.00     0.005 C 
ATOM     15  C   UNL     1     116.111 122.394 121.343  1.00  0.00    -0.001 C 
ATOM     16  C   UNL     1     117.287 124.333 122.495  1.00  0.00     0.007 C 
ATOM     17  C   UNL     1     116.468 124.617 120.092  1.00  0.00     0.012 C 
ATOM     18  C   UNL     1     117.433 121.673 120.951  1.00  0.00     0.000 C 
ATOM     19  C   UNL     1     118.436 123.291 122.645  1.00  0.00     0.005 C 
ATOM     20  C   UNL     1     118.698 122.488 121.345  1.00  0.00     0.003 C 
ATOM     21  C   UNL     1     117.565 121.214 119.498  1.00  0.00     0.031 C 
ATOM     22  C   UNL     1     119.977 121.560 121.337  1.00  0.00    -0.008 C 
ATOM     23  C   UNL     1     118.875 120.494 119.289  1.00  0.00    -0.027 C 
ATOM     24  C   UNL     1     119.974 120.678 120.071  1.00  0.00    -0.065 C 
ATOM     25  C   UNL     1     121.263 122.451 121.301  1.00  0.00     0.014 C 
ATOM     26  C   UNL     1     120.022 120.649 122.597  1.00  0.00     0.016 C 
ATOM     27  C   UNL     1     121.239 119.931 119.723  1.00  0.00     0.063 C 
ATOM     28  C   UNL     1     122.555 121.672 120.986  1.00  0.00     0.033 C 
ATOM     29  C   UNL     1     122.431 120.894 119.669  1.00  0.00     0.118 C 
BRANCH  29  30
ATOM     30  O   UNL     1     123.620 120.177 119.445  1.00  0.00    -0.393 OA
ATOM     31  H   UNL     1     124.365 120.825 119.516  1.00  0.00     0.210 HD
ENDBRANCH  29  30
ENDBRANCH   9  11
ENDBRANCH   1   9
TORSDOF 7
ENDMDL
MODEL 2
REMARK VINA RESULT:    -6.276      3.427      6.380
REMARK INTER + INTRA:         -10.643
REMARK INTER:                  -9.699
REMARK INTRA:                  -0.944
REMARK UNBOUND:                -1.982
REMARK SMILES CC[C@H](CC[C@@H](C)[C@@H]1CC[C@H]2[C@H]3CC=C4C[C@H](O)CC[C@@]4(C)[C@@H]3CC[C@@]21C)C(C)C
REMARK SMILES IDX 5 1 4 2 3 3 2 4 1 5 28 6 29 7 30 8 6 9 7 10 8 11 9 12 26 13
REMARK SMILES IDX 10 14 11 15 25 16 27 17 12 18 24 19 23 20 13 21 21 22 14 23
REMARK SMILES IDX 15 24 20 25 22 26 16 27 19 28 17 29 18 30
REMARK H PARENT 18 31
REMARK Flexibility Score: inf
ROOT
ATOM      1  C   UNL     1     116.325 124.189 122.311  1.00  0.00     0.004 C 
ENDROOT
BRANCH   1   2
ATOM      2  C   UNL     1     115.394 125.115 123.133  1.00  0.00     0.004 C 
BRANCH   2   3
ATOM      3  C   UNL     1     116.138 126.028 124.147  1.00  0.00    -0.009 C 
BRANCH   3   4
ATOM      4  C   UNL     1     117.404 126.665 123.506  1.00  0.00     0.000 C 
ATOM      5  C   UNL     1     118.085 127.765 124.326  1.00  0.00     0.004 C 
ENDBRANCH   3   4
BRANCH   3   6
ATOM      6  C   UNL     1     115.199 127.006 124.936  1.00  0.00    -0.014 C 
ATOM      7  C   UNL     1     114.950 126.640 126.413  1.00  0.00     0.007 C 
ATOM      8  C   UNL     1     113.860 127.241 124.221  1.00  0.00     0.007 C 
ENDBRANCH   3   6
ENDBRANCH   2   3
ENDBRANCH   1   2
BRANCH   1   9
ATOM      9  C   UNL     1     115.719 123.533 121.029  1.00  0.00    -0.011 C 
ATOM     10  C   UNL     1     116.723 123.490 119.857  1.00  0.00     0.008 C 
BRANCH   9  11
ATOM     11  C   UNL     1     114.960 122.182 121.323  1.00  0.00    -0.002 C 
ATOM     12  C   UNL     1     113.525 122.381 121.901  1.00  0.00     0.005 C 
ATOM     13  C   UNL     1     115.623 121.128 122.298  1.00  0.00    -0.026 C 
ATOM     14  C   UNL     1     113.471 121.700 123.273  1.00  0.00     0.005 C 
ATOM     15  C   UNL     1     114.928 121.472 123.629  1.00  0.00    -0.001 C 
ATOM     16  C   UNL     1     117.186 121.149 122.503  1.00  0.00     0.007 C 
ATOM     17  C   UNL     1     115.206 119.712 121.769  1.00  0.00     0.012 C 
ATOM     18  C   UNL     1     115.284 120.591 124.861  1.00  0.00     0.000 C 
ATOM     19  C   UNL     1     117.654 120.870 123.963  1.00  0.00     0.005 C 
ATOM     20  C   UNL     1     116.690 119.935 124.739  1.00  0.00     0.003 C 
ATOM     21  C   UNL     1     114.267 119.523 125.265  1.00  0.00     0.031 C 
ATOM     22  C   UNL     1     117.186 119.428 126.151  1.00  0.00    -0.008 C 
ATOM     23  C   UNL     1     114.734 118.788 126.498  1.00  0.00    -0.027 C 
ATOM     24  C   UNL     1     116.038 118.695 126.876  1.00  0.00    -0.065 C 
ATOM     25  C   UNL     1     118.359 118.411 125.953  1.00  0.00     0.014 C 
ATOM     26  C   UNL     1     117.680 120.610 127.034  1.00  0.00     0.016 C 
ATOM     27  C   UNL     1     116.376 117.888 128.107  1.00  0.00     0.063 C 
ATOM     28  C   UNL     1     118.724 117.622 127.226  1.00  0.00     0.033 C 
ATOM     29  C   UNL     1     117.502 116.893 127.801  1.00  0.00     0.118 C 
BRANCH  29  30
ATOM     30  O   UNL     1     117.880 116.217 128.975  1.00  0.00    -0.393 OA
ATOM     31  H   UNL     1     117.546 115.288 128.893  1.00  0.00     0.210 HD
ENDBRANCH  29  30
ENDBRANCH   9  11
ENDBRANCH   1   9
TORSDOF 7
ENDMDL
MODEL 3
REMARK VINA RESULT:    -6.059      2.300      3.308
REMARK INTER + INTRA:         -10.343
REMARK INTER:                  -8.413
REMARK INTRA:                  -1.931
REMARK UNBOUND:                -1.982
REMARK SMILES CC[C@H](CC[C@@H](C)[C@@H]1CC[C@H]2[C@H]3CC=C4C[C@H](O)CC[C@@]4(C)[C@@H]3CC[C@@]21C)C(C)C
REMARK SMILES IDX 5 1 4 2 3 3 2 4 1 5 28 6 29 7 30 8 6 9 7 10 8 11 9 12 26 13
REMARK SMILES IDX 10 14 11 15 25 16 27 17 12 18 24 19 23 20 13 21 21 22 14 23
REMARK SMILES IDX 15 24 20 25 22 26 16 27 19 28 17 29 18 30
REMARK H PARENT 18 31
REMARK Flexibility Score: inf
ROOT
ATOM      1  C   UNL     1     114.239 123.020 122.848  1.00  0.00     0.004 C 
ENDROOT
BRANCH   1   2
ATOM      2  C   UNL     1     113.827 122.056 123.988  1.00  0.00     0.004 C 
BRANCH   2   3
ATOM      3  C   UNL     1     113.226 120.710 123.496  1.00  0.00    -0.009 C 
BRANCH   3   4
ATOM      4  C   UNL     1     113.530 120.476 121.989  1.00  0.00     0.000 C 
ATOM      5  C   UNL     1     112.307 120.328 121.077  1.00  0.00     0.004 C 
ENDBRANCH   3   4
BRANCH   3   6
ATOM      6  C   UNL     1     113.507 119.498 124.452  1.00  0.00    -0.014 C 
ATOM      7  C   UNL     1     112.288 118.978 125.239  1.00  0.00     0.007 C 
ATOM      8  C   UNL     1     114.677 119.762 125.412  1.00  0.00     0.007 C 
ENDBRANCH   3   6
ENDBRANCH   2   3
ENDBRANCH   1   2
BRANCH   1   9
ATOM      9  C   UNL     1     115.343 124.076 123.177  1.00  0.00    -0.011 C 
ATOM     10  C   UNL     1     115.683 124.125 124.682  1.00  0.00     0.008 C 
BRANCH   9  11
ATOM     11  C   UNL     1     116.581 124.004 122.202  1.00  0.00    -0.002 C 
ATOM     12  C   UNL     1     116.268 124.487 120.753  1.00  0.00     0.005 C 
ATOM     13  C   UNL     1     117.313 122.617 121.995  1.00  0.00    -0.026 C 
ATOM     14  C   UNL     1     116.550 123.323 119.797  1.00  0.00     0.005 C 
ATOM     15  C   UNL     1     116.636 122.112 120.706  1.00  0.00    -0.001 C 
ATOM     16  C   UNL     1     117.197 121.513 123.114  1.00  0.00     0.007 C 
ATOM     17  C   UNL     1     118.829 122.946 121.769  1.00  0.00     0.012 C 
ATOM     18  C   UNL     1     117.138 120.757 120.129  1.00  0.00     0.000 C 
ATOM     19  C   UNL     1     117.054 120.057 122.579  1.00  0.00     0.005 C 
ATOM     20  C   UNL     1     117.766 119.840 121.218  1.00  0.00     0.003 C 
ATOM     21  C   UNL     1     118.081 120.825 118.926  1.00  0.00     0.031 C 
ATOM     22  C   UNL     1     117.857 118.350 120.700  1.00  0.00    -0.008 C 
ATOM     23  C   UNL     1     118.439 119.435 118.458  1.00  0.00    -0.027 C 
ATOM     24  C   UNL     1     118.392 118.331 119.254  1.00  0.00    -0.065 C 
ATOM     25  C   UNL     1     118.858 117.550 121.596  1.00  0.00     0.014 C 
ATOM     26  C   UNL     1     116.466 117.653 120.742  1.00  0.00     0.016 C 
ATOM     27  C   UNL     1     118.824 117.006 118.673  1.00  0.00     0.063 C 
ATOM     28  C   UNL     1     119.261 116.180 121.015  1.00  0.00     0.033 C 
ATOM     29  C   UNL     1     119.836 116.322 119.599  1.00  0.00     0.118 C 
BRANCH  29  30
ATOM     30  O   UNL     1     120.157 115.045 119.104  1.00  0.00    -0.393 OA
ATOM     31  H   UNL     1     119.656 114.389 119.650  1.00  0.00     0.210 HD
ENDBRANCH  29  30
ENDBRANCH   9  11
ENDBRANCH   1   9
TORSDOF 7
ENDMDL
MODEL 4
REMARK VINA RESULT:    -6.031      2.563      4.384
REMARK INTER + INTRA:         -10.305
REMARK INTER:                  -9.064
REMARK INTRA:                  -1.241
REMARK UNBOUND:                -1.982
REMARK SMILES CC[C@H](CC[C@@H](C)[C@@H]1CC[C@H]2[C@H]3CC=C4C[C@H](O)CC[C@@]4(C)[C@@H]3CC[C@@]21C)C(C)C
REMARK SMILES IDX 5 1 4 2 3 3 2 4 1 5 28 6 29 7 30 8 6 9 7 10 8 11 9 12 26 13
REMARK SMILES IDX 10 14 11 15 25 16 27 17 12 18 24 19 23 20 13 21 21 22 14 23
REMARK SMILES IDX 15 24 20 25 22 26 16 27 19 28 17 29 18 30
REMARK H PARENT 18 31
REMARK Flexibility Score: inf
ROOT
ATOM      1  C   UNL     1     113.879 119.099 126.898  1.00  0.00     0.004 C 
ENDROOT
BRANCH   1   2
ATOM      2  C   UNL     1     114.623 117.861 127.459  1.00  0.00     0.004 C 
BRANCH   2   3
ATOM      3  C   UNL     1     116.144 118.084 127.688  1.00  0.00    -0.009 C 
BRANCH   3   4
ATOM      4  C   UNL     1     116.398 119.065 128.868  1.00  0.00     0.000 C 
ATOM      5  C   UNL     1     117.583 120.021 128.698  1.00  0.00     0.004 C 
ENDBRANCH   3   4
BRANCH   3   6
ATOM      6  C   UNL     1     116.989 116.762 127.697  1.00  0.00    -0.014 C 
ATOM      7  C   UNL     1     118.265 116.785 126.833  1.00  0.00     0.007 C 
ATOM      8  C   UNL     1     116.147 115.522 127.358  1.00  0.00     0.007 C 
ENDBRANCH   3   6
ENDBRANCH   2   3
ENDBRANCH   1   2
BRANCH   1   9
ATOM      9  C   UNL     1     113.339 118.998 125.435  1.00  0.00    -0.011 C 
ATOM     10  C   UNL     1     111.970 118.289 125.359  1.00  0.00     0.008 C 
BRANCH   9  11
ATOM     11  C   UNL     1     113.447 120.355 124.638  1.00  0.00    -0.002 C 
ATOM     12  C   UNL     1     112.638 120.366 123.305  1.00  0.00     0.005 C 
ATOM     13  C   UNL     1     114.877 120.889 124.224  1.00  0.00    -0.026 C 
ATOM     14  C   UNL     1     113.624 120.621 122.159  1.00  0.00     0.005 C 
ATOM     15  C   UNL     1     114.985 120.367 122.779  1.00  0.00    -0.001 C 
ATOM     16  C   UNL     1     116.138 120.419 125.045  1.00  0.00     0.007 C 
ATOM     17  C   UNL     1     114.798 122.453 124.277  1.00  0.00     0.012 C 
ATOM     18  C   UNL     1     116.269 120.744 121.986  1.00  0.00     0.000 C 
ATOM     19  C   UNL     1     117.409 120.145 124.185  1.00  0.00     0.005 C 
ATOM     20  C   UNL     1     117.482 121.033 122.916  1.00  0.00     0.003 C 
ATOM     21  C   UNL     1     116.142 121.873 120.961  1.00  0.00     0.031 C 
ATOM     22  C   UNL     1     118.831 120.978 122.095  1.00  0.00    -0.008 C 
ATOM     23  C   UNL     1     117.454 122.086 120.246  1.00  0.00    -0.027 C 
ATOM     24  C   UNL     1     118.664 121.737 120.763  1.00  0.00    -0.065 C 
ATOM     25  C   UNL     1     119.964 121.681 122.913  1.00  0.00     0.014 C 
ATOM     26  C   UNL     1     119.252 119.509 121.799  1.00  0.00     0.016 C 
ATOM     27  C   UNL     1     119.907 122.051 119.963  1.00  0.00     0.063 C 
ATOM     28  C   UNL     1     121.243 121.958 122.099  1.00  0.00     0.033 C 
ATOM     29  C   UNL     1     120.936 122.777 120.838  1.00  0.00     0.118 C 
BRANCH  29  30
ATOM     30  O   UNL     1     122.127 122.975 120.117  1.00  0.00    -0.393 OA
ATOM     31  H   UNL     1     122.731 122.226 120.346  1.00  0.00     0.210 HD
ENDBRANCH  29  30
ENDBRANCH   9  11
ENDBRANCH   1   9
TORSDOF 7
ENDMDL
MODEL 5
REMARK VINA RESULT:    -6.015      2.352      3.735
REMARK INTER + INTRA:         -10.283
REMARK INTER:                  -8.226
REMARK INTRA:                  -2.057
REMARK UNBOUND:                -1.982
REMARK SMILES CC[C@H](CC[C@@H](C)[C@@H]1CC[C@H]2[C@H]3CC=C4C[C@H](O)CC[C@@]4(C)[C@@H]3CC[C@@]21C)C(C)C
REMARK SMILES IDX 5 1 4 2 3 3 2 4 1 5 28 6 29 7 30 8 6 9 7 10 8 11 9 12 26 13
REMARK SMILES IDX 10 14 11 15 25 16 27 17 12 18 24 19 23 20 13 21 21 22 14 23
REMARK SMILES IDX 15 24 20 25 22 26 16 27 19 28 17 29 18 30
REMARK H PARENT 18 31
REMARK Flexibility Score: inf
ROOT
ATOM      1  C   UNL     1     113.897 122.558 124.179  1.00  0.00     0.004 C 
ENDROOT
BRANCH   1   2
ATOM      2  C   UNL     1     113.132 121.457 124.955  1.00  0.00     0.004 C 
BRANCH   2   3
ATOM      3  C   UNL     1     113.588 120.010 124.618  1.00  0.00    -0.009 C 
BRANCH   3   4
ATOM      4  C   UNL     1     114.353 119.369 125.811  1.00  0.00     0.000 C 
ATOM      5  C   UNL     1     115.879 119.500 125.772  1.00  0.00     0.004 C 
ENDBRANCH   3   4
BRANCH   3   6
ATOM      6  C   UNL     1     112.472 119.125 123.961  1.00  0.00    -0.014 C 
ATOM      7  C   UNL     1     111.553 119.852 122.959  1.00  0.00     0.007 C 
ATOM      8  C   UNL     1     111.625 118.375 125.000  1.00  0.00     0.007 C 
ENDBRANCH   3   6
ENDBRANCH   2   3
ENDBRANCH   1   2
BRANCH   1   9
ATOM      9  C   UNL     1     114.529 122.151 122.809  1.00  0.00    -0.011 C 
ATOM     10  C   UNL     1     113.892 122.900 121.619  1.00  0.00     0.008 C 
BRANCH   9  11
ATOM     11  C   UNL     1     116.106 122.131 122.834  1.00  0.00    -0.002 C 
ATOM     12  C   UNL     1     116.761 123.362 122.136  1.00  0.00     0.005 C 
ATOM     13  C   UNL     1     116.866 120.890 122.215  1.00  0.00    -0.026 C 
ATOM     14  C   UNL     1     117.639 122.843 120.992  1.00  0.00     0.005 C 
ATOM     15  C   UNL     1     117.184 121.409 120.800  1.00  0.00    -0.001 C 
ATOM     16  C   UNL     1     116.118 119.506 122.109  1.00  0.00     0.007 C 
ATOM     17  C   UNL     1     118.165 120.694 123.072  1.00  0.00     0.012 C 
ATOM     18  C   UNL     1     118.000 120.466 119.869  1.00  0.00     0.000 C 
ATOM     19  C   UNL     1     116.415 118.705 120.807  1.00  0.00     0.005 C 
ATOM     20  C   UNL     1     117.837 118.966 120.247  1.00  0.00     0.003 C 
ATOM     21  C   UNL     1     119.487 120.782 119.698  1.00  0.00     0.031 C 
ATOM     22  C   UNL     1     118.304 118.043 119.052  1.00  0.00    -0.008 C 
ATOM     23  C   UNL     1     120.125 119.811 118.734  1.00  0.00    -0.027 C 
ATOM     24  C   UNL     1     119.636 118.567 118.476  1.00  0.00    -0.065 C 
ATOM     25  C   UNL     1     118.547 116.592 119.584  1.00  0.00     0.014 C 
ATOM     26  C   UNL     1     117.237 118.000 117.921  1.00  0.00     0.016 C 
ATOM     27  C   UNL     1     120.399 117.676 117.525  1.00  0.00     0.063 C 
ATOM     28  C   UNL     1     119.289 115.677 118.589  1.00  0.00     0.033 C 
ATOM     29  C   UNL     1     120.624 116.295 118.152  1.00  0.00     0.118 C 
BRANCH  29  30
ATOM     30  O   UNL     1     121.245 115.440 117.224  1.00  0.00    -0.393 OA
ATOM     31  H   UNL     1     121.133 114.516 117.563  1.00  0.00     0.210 HD
ENDBRANCH  29  30
ENDBRANCH   9  11
ENDBRANCH   1   9
TORSDOF 7
ENDMDL
MODEL 6
REMARK VINA RESULT:    -5.972      2.598      4.914
REMARK INTER + INTRA:         -10.223
REMARK INTER:                  -8.934
REMARK INTRA:                  -1.289
REMARK UNBOUND:                -1.982
REMARK SMILES CC[C@H](CC[C@@H](C)[C@@H]1CC[C@H]2[C@H]3CC=C4C[C@H](O)CC[C@@]4(C)[C@@H]3CC[C@@]21C)C(C)C
REMARK SMILES IDX 5 1 4 2 3 3 2 4 1 5 28 6 29 7 30 8 6 9 7 10 8 11 9 12 26 13
REMARK SMILES IDX 10 14 11 15 25 16 27 17 12 18 24 19 23 20 13 21 21 22 14 23
REMARK SMILES IDX 15 24 20 25 22 26 16 27 19 28 17 29 18 30
REMARK H PARENT 18 31
REMARK Flexibility Score: inf
ROOT
ATOM      1  C   UNL     1     114.247 124.737 123.948  1.00  0.00     0.004 C 
ENDROOT
BRANCH   1   2
ATOM      2  C   UNL     1     114.660 126.230 123.998  1.00  0.00     0.004 C 
BRANCH   2   3
ATOM      3  C   UNL     1     115.724 126.558 125.082  1.00  0.00    -0.009 C 
BRANCH   3   4
ATOM      4  C   UNL     1     116.614 127.759 124.652  1.00  0.00     0.000 C 
ATOM      5  C   UNL     1     117.902 127.401 123.904  1.00  0.00     0.004 C 
ENDBRANCH   3   4
BRANCH   3   6
ATOM      6  C   UNL     1     115.153 126.612 126.542  1.00  0.00    -0.014 C 
ATOM      7  C   UNL     1     113.704 127.124 126.670  1.00  0.00     0.007 C 
ATOM      8  C   UNL     1     116.068 127.383 127.505  1.00  0.00     0.007 C 
ENDBRANCH   3   6
ENDBRANCH   2   3
ENDBRANCH   1   2
BRANCH   1   9
ATOM      9  C   UNL     1     114.666 123.929 122.678  1.00  0.00    -0.011 C 
ATOM     10  C   UNL     1     113.919 124.393 121.410  1.00  0.00     0.008 C 
BRANCH   9  11
ATOM     11  C   UNL     1     116.229 123.775 122.529  1.00  0.00    -0.002 C 
ATOM     12  C   UNL     1     116.836 124.624 121.370  1.00  0.00     0.005 C 
ATOM     13  C   UNL     1     116.839 122.333 122.307  1.00  0.00    -0.026 C 
ATOM     14  C   UNL     1     117.521 123.665 120.392  1.00  0.00     0.005 C 
ATOM     15  C   UNL     1     116.980 122.300 120.773  1.00  0.00    -0.001 C 
ATOM     16  C   UNL     1     116.021 121.072 122.783  1.00  0.00     0.007 C 
ATOM     17  C   UNL     1     118.233 122.326 123.023  1.00  0.00     0.012 C 
ATOM     18  C   UNL     1     117.615 121.024 120.149  1.00  0.00     0.000 C 
ATOM     19  C   UNL     1     116.097 119.846 121.824  1.00  0.00     0.005 C 
ATOM     20  C   UNL     1     117.438 119.767 121.049  1.00  0.00     0.003 C 
ATOM     21  C   UNL     1     119.077 121.124 119.709  1.00  0.00     0.031 C 
ATOM     22  C   UNL     1     117.692 118.450 120.214  1.00  0.00    -0.008 C 
ATOM     23  C   UNL     1     119.530 119.826 119.085  1.00  0.00    -0.027 C 
ATOM     24  C   UNL     1     118.953 118.620 119.341  1.00  0.00    -0.065 C 
ATOM     25  C   UNL     1     117.940 117.256 121.193  1.00  0.00     0.014 C 
ATOM     26  C   UNL     1     116.477 118.118 119.300  1.00  0.00     0.016 C 
ATOM     27  C   UNL     1     119.535 117.390 118.687  1.00  0.00     0.063 C 
ATOM     28  C   UNL     1     118.494 115.991 120.508  1.00  0.00     0.033 C 
ATOM     29  C   UNL     1     119.783 116.296 119.732  1.00  0.00     0.118 C 
BRANCH  29  30
ATOM     30  O   UNL     1     120.229 115.120 119.102  1.00  0.00    -0.393 OA
ATOM     31  H   UNL     1     120.545 115.377 118.200  1.00  0.00     0.210 HD
ENDBRANCH  29  30
ENDBRANCH   9  11
ENDBRANCH   1   9
TORSDOF 7
ENDMDL
MODEL 7
REMARK VINA RESULT:    -5.958      1.931      3.724
REMARK INTER + INTRA:         -10.204
REMARK INTER:                  -8.858
REMARK INTRA:                  -1.347
REMARK UNBOUND:                -1.982
REMARK SMILES CC[C@H](CC[C@@H](C)[C@@H]1CC[C@H]2[C@H]3CC=C4C[C@H](O)CC[C@@]4(C)[C@@H]3CC[C@@]21C)C(C)C
REMARK SMILES IDX 5 1 4 2 3 3 2 4 1 5 28 6 29 7 30 8 6 9 7 10 8 11 9 12 26 13
REMARK SMILES IDX 10 14 11 15 25 16 27 17 12 18 24 19 23 20 13 21 21 22 14 23
REMARK SMILES IDX 15 24 20 25 22 26 16 27 19 28 17 29 18 30
REMARK H PARENT 18 31
REMARK Flexibility Score: inf
ROOT
ATOM      1  C   UNL     1     113.847 121.541 124.370  1.00  0.00     0.004 C 
ENDROOT
BRANCH   1   2
ATOM      2  C   UNL     1     114.057 120.019 124.570  1.00  0.00     0.004 C 
BRANCH   2   3
ATOM      3  C   UNL     1     113.531 119.478 125.928  1.00  0.00    -0.009 C 
BRANCH   3   4
ATOM      4  C   UNL     1     112.345 118.492 125.720  1.00  0.00     0.000 C 
ATOM      5  C   UNL     1     111.629 118.586 124.369  1.00  0.00     0.004 C 
ENDBRANCH   3   4
BRANCH   3   6
ATOM      6  C   UNL     1     114.661 119.000 126.906  1.00  0.00    -0.014 C 
ATOM      7  C   UNL     1     116.096 119.073 126.347  1.00  0.00     0.007 C 
ATOM      8  C   UNL     1     114.391 117.601 127.480  1.00  0.00     0.007 C 
ENDBRANCH   3   6
ENDBRANCH   2   3
ENDBRANCH   1   2
BRANCH   1   9
ATOM      9  C   UNL     1     114.717 122.239 123.274  1.00  0.00    -0.011 C 
ATOM     10  C   UNL     1     114.194 123.645 122.914  1.00  0.00     0.008 C 
BRANCH   9  11
ATOM     11  C   UNL     1     116.266 122.140 123.556  1.00  0.00    -0.002 C 
ATOM     12  C   UNL     1     117.016 123.501 123.426  1.00  0.00     0.005 C 
ATOM     13  C   UNL     1     117.138 121.139 122.696  1.00  0.00    -0.026 C 
ATOM     14  C   UNL     1     118.085 123.348 122.338  1.00  0.00     0.005 C 
ATOM     15  C   UNL     1     117.689 122.079 121.608  1.00  0.00    -0.001 C 
ATOM     16  C   UNL     1     116.437 119.902 122.013  1.00  0.00     0.007 C 
ATOM     17  C   UNL     1     118.271 120.613 123.643  1.00  0.00     0.012 C 
ATOM     18  C   UNL     1     118.666 121.460 120.567  1.00  0.00     0.000 C 
ATOM     19  C   UNL     1     116.965 119.562 120.587  1.00  0.00     0.005 C 
ATOM     20  C   UNL     1     118.459 119.928 120.392  1.00  0.00     0.003 C 
ATOM     21  C   UNL     1     120.156 121.746 120.763  1.00  0.00     0.031 C 
ATOM     22  C   UNL     1     119.138 119.429 119.055  1.00  0.00    -0.008 C 
ATOM     23  C   UNL     1     120.964 121.119 119.652  1.00  0.00    -0.027 C 
ATOM     24  C   UNL     1     120.542 120.053 118.917  1.00  0.00    -0.065 C 
ATOM     25  C   UNL     1     119.304 117.875 119.107  1.00  0.00     0.014 C 
ATOM     26  C   UNL     1     118.283 119.810 117.812  1.00  0.00     0.016 C 
ATOM     27  C   UNL     1     121.470 119.491 117.866  1.00  0.00     0.063 C 
ATOM     28  C   UNL     1     120.219 117.306 118.004  1.00  0.00     0.033 C 
ATOM     29  C   UNL     1     121.601 117.972 118.028  1.00  0.00     0.118 C 
BRANCH  29  30
ATOM     30  O   UNL     1     122.384 117.443 116.986  1.00  0.00    -0.393 OA
ATOM     31  H   UNL     1     123.316 117.735 117.148  1.00  0.00     0.210 HD
ENDBRANCH  29  30
ENDBRANCH   9  11
ENDBRANCH   1   9
TORSDOF 7
ENDMDL
MODEL 8
REMARK VINA RESULT:    -5.902      3.767      8.545
REMARK INTER + INTRA:         -10.127
REMARK INTER:                  -9.160
REMARK INTRA:                  -0.967
REMARK UNBOUND:                -1.982
REMARK SMILES CC[C@H](CC[C@@H](C)[C@@H]1CC[C@H]2[C@H]3CC=C4C[C@H](O)CC[C@@]4(C)[C@@H]3CC[C@@]21C)C(C)C
REMARK SMILES IDX 5 1 4 2 3 3 2 4 1 5 28 6 29 7 30 8 6 9 7 10 8 11 9 12 26 13
REMARK SMILES IDX 10 14 11 15 25 16 27 17 12 18 24 19 23 20 13 21 21 22 14 23
REMARK SMILES IDX 15 24 20 25 22 26 16 27 19 28 17 29 18 30
REMARK H PARENT 18 31
REMARK Flexibility Score: inf
ROOT
ATOM      1  C   UNL     1     120.524 119.087 117.366  1.00  0.00     0.004 C 
ENDROOT
BRANCH   1   2
ATOM      2  C   UNL     1     120.550 118.740 115.856  1.00  0.00     0.004 C 
BRANCH   2   3
ATOM      3  C   UNL     1     121.624 119.515 115.045  1.00  0.00    -0.009 C 
BRANCH   3   4
ATOM      4  C   UNL     1     122.829 119.915 115.944  1.00  0.00     0.000 C 
ATOM      5  C   UNL     1     124.204 119.434 115.469  1.00  0.00     0.004 C 
ENDBRANCH   3   4
BRANCH   3   6
ATOM      6  C   UNL     1     121.981 118.858 113.666  1.00  0.00    -0.014 C 
ATOM      7  C   UNL     1     122.090 119.831 112.475  1.00  0.00     0.007 C 
ATOM      8  C   UNL     1     121.046 117.693 113.308  1.00  0.00     0.007 C 
ENDBRANCH   3   6
ENDBRANCH   2   3
ENDBRANCH   1   2
BRANCH   1   9
ATOM      9  C   UNL     1     119.189 119.670 117.935  1.00  0.00    -0.011 C 
ATOM     10  C   UNL     1     117.994 119.441 116.986  1.00  0.00     0.008 C 
BRANCH   9  11
ATOM     11  C   UNL     1     118.941 119.291 119.446  1.00  0.00    -0.002 C 
ATOM     12  C   UNL     1     117.837 118.208 119.648  1.00  0.00     0.005 C 
ATOM     13  C   UNL     1     118.549 120.433 120.467  1.00  0.00    -0.026 C 
ATOM     14  C   UNL     1     116.736 118.816 120.523  1.00  0.00     0.005 C 
ATOM     15  C   UNL     1     117.014 120.307 120.484  1.00  0.00    -0.001 C 
ATOM     16  C   UNL     1     118.947 121.924 120.142  1.00  0.00     0.007 C 
ATOM     17  C   UNL     1     119.184 120.034 121.844  1.00  0.00     0.012 C 
ATOM     18  C   UNL     1     116.238 121.255 121.443  1.00  0.00     0.000 C 
ATOM     19  C   UNL     1     117.873 122.984 120.530  1.00  0.00     0.005 C 
ATOM     20  C   UNL     1     117.022 122.562 121.755  1.00  0.00     0.003 C 
ATOM     21  C   UNL     1     115.730 120.649 122.753  1.00  0.00     0.031 C 
ATOM     22  C   UNL     1     116.052 123.658 122.350  1.00  0.00    -0.008 C 
ATOM     23  C   UNL     1     114.961 121.678 123.546  1.00  0.00    -0.027 C 
ATOM     24  C   UNL     1     115.132 123.022 123.412  1.00  0.00    -0.065 C 
ATOM     25  C   UNL     1     116.898 124.773 123.050  1.00  0.00     0.014 C 
ATOM     26  C   UNL     1     115.179 124.304 121.236  1.00  0.00     0.016 C 
ATOM     27  C   UNL     1     114.333 123.942 124.304  1.00  0.00     0.063 C 
ATOM     28  C   UNL     1     116.067 125.733 123.924  1.00  0.00     0.033 C 
ATOM     29  C   UNL     1     115.254 124.967 124.976  1.00  0.00     0.118 C 
BRANCH  29  30
ATOM     30  O   UNL     1     114.491 125.882 125.724  1.00  0.00    -0.393 OA
ATOM     31  H   UNL     1     113.752 125.371 126.139  1.00  0.00     0.210 HD
ENDBRANCH  29  30
ENDBRANCH   9  11
ENDBRANCH   1   9
TORSDOF 7
ENDMDL
MODEL 9
REMARK VINA RESULT:    -5.892      8.488     11.749
REMARK INTER + INTRA:         -10.114
REMARK INTER:                  -7.992
REMARK INTRA:                  -2.122
REMARK UNBOUND:                -1.982
REMARK SMILES CC[C@H](CC[C@@H](C)[C@@H]1CC[C@H]2[C@H]3CC=C4C[C@H](O)CC[C@@]4(C)[C@@H]3CC[C@@]21C)C(C)C
REMARK SMILES IDX 5 1 4 2 3 3 2 4 1 5 28 6 29 7 30 8 6 9 7 10 8 11 9 12 26 13
REMARK SMILES IDX 10 14 11 15 25 16 27 17 12 18 24 19 23 20 13 21 21 22 14 23
REMARK SMILES IDX 15 24 20 25 22 26 16 27 19 28 17 29 18 30
REMARK H PARENT 18 31
REMARK Flexibility Score: inf
ROOT
ATOM      1  C   UNL     1     123.055 120.112 113.148  1.00  0.00     0.004 C 
ENDROOT
BRANCH   1   2
ATOM      2  C   UNL     1     122.014 119.174 112.487  1.00  0.00     0.004 C 
BRANCH   2   3
ATOM      3  C   UNL     1     121.205 118.312 113.495  1.00  0.00    -0.009 C 
BRANCH   3   4
ATOM      4  C   UNL     1     121.142 116.825 113.041  1.00  0.00     0.000 C 
ATOM      5  C   UNL     1     122.292 116.352 112.146  1.00  0.00     0.004 C 
ENDBRANCH   3   4
BRANCH   3   6
ATOM      6  C   UNL     1     121.587 118.559 114.996  1.00  0.00    -0.014 C 
ATOM      7  C   UNL     1     122.169 117.341 115.741  1.00  0.00     0.007 C 
ATOM      8  C   UNL     1     120.432 119.166 115.806  1.00  0.00     0.007 C 
ENDBRANCH   3   6
ENDBRANCH   2   3
ENDBRANCH   1   2
BRANCH   1   9
ATOM      9  C   UNL     1     124.244 120.592 112.254  1.00  0.00    -0.011 C 
ATOM     10  C   UNL     1     124.412 122.126 112.270  1.00  0.00     0.008 C 
BRANCH   9  11
ATOM     11  C   UNL     1     125.566 119.760 112.480  1.00  0.00    -0.002 C 
ATOM     12  C   UNL     1     125.511 118.320 111.883  1.00  0.00     0.005 C 
ATOM     13  C   UNL     1     126.091 119.544 113.956  1.00  0.00    -0.026 C 
ATOM     14  C   UNL     1     125.722 117.327 113.031  1.00  0.00     0.005 C 
ATOM     15  C   UNL     1     125.506 118.156 114.282  1.00  0.00    -0.001 C 
ATOM     16  C   UNL     1     125.668 120.566 115.079  1.00  0.00     0.007 C 
ATOM     17  C   UNL     1     127.656 119.513 113.869  1.00  0.00     0.012 C 
ATOM     18  C   UNL     1     125.857 117.551 115.671  1.00  0.00     0.000 C 
ATOM     19  C   UNL     1     125.366 119.922 116.465  1.00  0.00     0.005 C 
ATOM     20  C   UNL     1     126.197 118.640 116.730  1.00  0.00     0.003 C 
ATOM     21  C   UNL     1     126.939 116.469 115.700  1.00  0.00     0.031 C 
ATOM     22  C   UNL     1     126.116 118.036 118.188  1.00  0.00    -0.008 C 
ATOM     23  C   UNL     1     127.130 115.952 117.106  1.00  0.00    -0.027 C 
ATOM     24  C   UNL     1     126.814 116.661 118.224  1.00  0.00    -0.065 C 
ATOM     25  C   UNL     1     126.863 118.984 119.182  1.00  0.00     0.014 C 
ATOM     26  C   UNL     1     124.639 117.874 118.650  1.00  0.00     0.016 C 
ATOM     27  C   UNL     1     127.102 116.046 119.573  1.00  0.00     0.063 C 
ATOM     28  C   UNL     1     127.114 118.361 120.570  1.00  0.00     0.033 C 
ATOM     29  C   UNL     1     127.873 117.032 120.456  1.00  0.00     0.118 C 
BRANCH  29  30
ATOM     30  O   UNL     1     128.049 116.492 121.743  1.00  0.00    -0.393 OA
ATOM     31  H   UNL     1     127.978 115.508 121.655  1.00  0.00     0.210 HD
ENDBRANCH  29  30
ENDBRANCH   9  11
ENDBRANCH   1   9
TORSDOF 7
ENDMDL
