MODEL 1
REMARK VINA RESULT:    -4.669      0.000      0.000
REMARK INTER + INTRA:          -5.497
REMARK INTER:                  -5.215
REMARK INTRA:                  -0.282
REMARK UNBOUND:                -0.282
REMARK SMILES O=C([O-])C=Cc1ccccc1
REMARK SMILES IDX 4 1 5 2 2 3 1 4 3 5 6 6 7 7 11 8 8 9 10 10 9 11
REMARK H PARENT
REMARK Flexibility Score: inf
ROOT
ATOM      1  C   UNL     1     -18.208   2.611 -16.737  1.00  0.00     0.025 C 
ATOM      2  C   UNL     1     -19.301   3.340 -17.007  1.00  0.00     0.010 C 
ENDROOT
BRANCH   1   3
ATOM      3  C   UNL     1     -16.877   3.153 -16.406  1.00  0.00     0.064 C 
ATOM      4  O   UNL     1     -16.082   3.444 -17.337  1.00  0.00    -0.545 OA
ATOM      5  O   UNL     1     -16.507   3.418 -15.093  1.00  0.00    -0.545 OA
ENDBRANCH   1   3
BRANCH   2   6
ATOM      6  C   UNL     1     -19.416   4.803 -16.836  1.00  0.00    -0.026 A 
ATOM      7  C   UNL     1     -19.775   5.366 -15.598  1.00  0.00     0.008 A 
ATOM      8  C   UNL     1     -19.269   5.639 -17.953  1.00  0.00     0.008 A 
ATOM      9  C   UNL     1     -19.929   6.750 -15.471  1.00  0.00     0.001 A 
ATOM     10  C   UNL     1     -19.424   7.024 -17.823  1.00  0.00     0.001 A 
ATOM     11  C   UNL     1     -19.749   7.578 -16.582  1.00  0.00     0.000 A 
ENDBRANCH   2   6
TORSDOF 2
ENDMDL
MODEL 2
REMARK VINA RESULT:    -4.568      2.500      4.378
REMARK INTER + INTRA:          -5.385
REMARK INTER:                  -5.115
REMARK INTRA:                  -0.269
REMARK UNBOUND:                -0.282
REMARK SMILES O=C([O-])C=Cc1ccccc1
REMARK SMILES IDX 4 1 5 2 2 3 1 4 3 5 6 6 7 7 11 8 8 9 10 10 9 11
REMARK H PARENT
REMARK Flexibility Score: inf
ROOT
ATOM      1  C   UNL     1     -19.578   7.889 -14.969  1.00  0.00     0.025 C 
ATOM      2  C   UNL     1     -19.975   7.203 -16.052  1.00  0.00     0.010 C 
ENDROOT
BRANCH   1   3
ATOM      3  C   UNL     1     -19.306   7.309 -13.641  1.00  0.00     0.064 C 
ATOM      4  O   UNL     1     -18.144   6.911 -13.368  1.00  0.00    -0.545 OA
ATOM      5  O   UNL     1     -20.287   7.256 -12.658  1.00  0.00    -0.545 OA
ENDBRANCH   1   3
BRANCH   2   6
ATOM      6  C   UNL     1     -20.026   5.730 -16.160  1.00  0.00    -0.026 A 
ATOM      7  C   UNL     1     -18.914   4.994 -16.607  1.00  0.00     0.008 A 
ATOM      8  C   UNL     1     -21.235   5.065 -15.914  1.00  0.00     0.008 A 
ATOM      9  C   UNL     1     -19.000   3.605 -16.752  1.00  0.00     0.001 A 
ATOM     10  C   UNL     1     -21.319   3.676 -16.059  1.00  0.00     0.001 A 
ATOM     11  C   UNL     1     -20.201   2.947 -16.474  1.00  0.00     0.000 A 
ENDBRANCH   2   6
TORSDOF 2
ENDMDL
MODEL 3
REMARK VINA RESULT:    -4.511      2.199      2.612
REMARK INTER + INTRA:          -5.321
REMARK INTER:                  -5.127
REMARK INTRA:                  -0.194
REMARK UNBOUND:                -0.282
REMARK SMILES O=C([O-])C=Cc1ccccc1
REMARK SMILES IDX 4 1 5 2 2 3 1 4 3 5 6 6 7 7 11 8 8 9 10 10 9 11
REMARK H PARENT
REMARK Flexibility Score: inf
ROOT
ATOM      1  C   UNL     1     -18.875   2.647 -17.002  1.00  0.00     0.025 C 
ATOM      2  C   UNL     1     -18.230   3.741 -16.569  1.00  0.00     0.010 C 
ENDROOT
BRANCH   1   3
ATOM      3  C   UNL     1     -20.297   2.589 -17.389  1.00  0.00     0.064 C 
ATOM      4  O   UNL     1     -21.182   2.714 -16.503  1.00  0.00    -0.545 OA
ATOM      5  O   UNL     1     -20.684   2.470 -18.719  1.00  0.00    -0.545 OA
ENDBRANCH   1   3
BRANCH   2   6
ATOM      6  C   UNL     1     -18.772   5.115 -16.584  1.00  0.00    -0.026 A 
ATOM      7  C   UNL     1     -19.272   5.715 -15.414  1.00  0.00     0.008 A 
ATOM      8  C   UNL     1     -18.888   5.795 -17.806  1.00  0.00     0.008 A 
ATOM      9  C   UNL     1     -19.829   6.997 -15.462  1.00  0.00     0.001 A 
ATOM     10  C   UNL     1     -19.445   7.077 -17.851  1.00  0.00     0.001 A 
ATOM     11  C   UNL     1     -19.911   7.679 -16.679  1.00  0.00     0.000 A 
ENDBRANCH   2   6
TORSDOF 2
ENDMDL
MODEL 4
REMARK VINA RESULT:    -4.382      6.434      9.121
REMARK INTER + INTRA:          -5.177
REMARK INTER:                  -4.895
REMARK INTRA:                  -0.282
REMARK UNBOUND:                -0.282
REMARK SMILES O=C([O-])C=Cc1ccccc1
REMARK SMILES IDX 4 1 5 2 2 3 1 4 3 5 6 6 7 7 11 8 8 9 10 10 9 11
REMARK H PARENT
REMARK Flexibility Score: inf
ROOT
ATOM      1  C   UNL     1     -13.913   0.558 -19.095  1.00  0.00     0.025 C 
ATOM      2  C   UNL     1     -12.780   0.207 -19.721  1.00  0.00     0.010 C 
ENDROOT
BRANCH   1   3
ATOM      3  C   UNL     1     -14.008   1.045 -17.706  1.00  0.00     0.064 C 
ATOM      4  O   UNL     1     -14.101   0.213 -16.767  1.00  0.00    -0.545 OA
ATOM      5  O   UNL     1     -13.926   2.399 -17.404  1.00  0.00    -0.545 OA
ENDBRANCH   1   3
BRANCH   2   6
ATOM      6  C   UNL     1     -11.413   0.425 -19.202  1.00  0.00    -0.026 A 
ATOM      7  C   UNL     1     -10.715   1.617 -19.466  1.00  0.00     0.008 A 
ATOM      8  C   UNL     1     -10.762  -0.616 -18.524  1.00  0.00     0.008 A 
ATOM      9  C   UNL     1      -9.403   1.781 -19.010  1.00  0.00     0.001 A 
ATOM     10  C   UNL     1      -9.450  -0.448 -18.068  1.00  0.00     0.001 A 
ATOM     11  C   UNL     1      -8.773   0.750 -18.307  1.00  0.00     0.000 A 
ENDBRANCH   2   6
TORSDOF 2
ENDMDL
MODEL 5
REMARK VINA RESULT:    -4.381      2.749      4.481
REMARK INTER + INTRA:          -5.176
REMARK INTER:                  -5.133
REMARK INTRA:                  -0.043
REMARK UNBOUND:                -0.282
REMARK SMILES O=C([O-])C=Cc1ccccc1
REMARK SMILES IDX 4 1 5 2 2 3 1 4 3 5 6 6 7 7 11 8 8 9 10 10 9 11
REMARK H PARENT
REMARK Flexibility Score: inf
ROOT
ATOM      1  C   UNL     1     -19.822   7.534 -16.286  1.00  0.00     0.025 C 
ATOM      2  C   UNL     1     -19.543   6.444 -15.555  1.00  0.00     0.010 C 
ENDROOT
BRANCH   1   3
ATOM      3  C   UNL     1     -20.139   7.541 -17.725  1.00  0.00     0.064 C 
ATOM      4  O   UNL     1     -21.032   8.315 -18.156  1.00  0.00    -0.545 OA
ATOM      5  O   UNL     1     -19.425   6.763 -18.630  1.00  0.00    -0.545 OA
ENDBRANCH   1   3
BRANCH   2   6
ATOM      6  C   UNL     1     -19.690   5.047 -16.013  1.00  0.00    -0.026 A 
ATOM      7  C   UNL     1     -20.941   4.405 -16.004  1.00  0.00     0.008 A 
ATOM      8  C   UNL     1     -18.546   4.315 -16.364  1.00  0.00     0.008 A 
ATOM      9  C   UNL     1     -21.050   3.065 -16.392  1.00  0.00     0.001 A 
ATOM     10  C   UNL     1     -18.657   2.975 -16.752  1.00  0.00     0.001 A 
ATOM     11  C   UNL     1     -19.908   2.353 -16.770  1.00  0.00     0.000 A 
ENDBRANCH   2   6
TORSDOF 2
ENDMDL
MODEL 6
REMARK VINA RESULT:    -4.323      2.258      4.188
REMARK INTER + INTRA:          -5.110
REMARK INTER:                  -4.867
REMARK INTRA:                  -0.243
REMARK UNBOUND:                -0.282
REMARK SMILES O=C([O-])C=Cc1ccccc1
REMARK SMILES IDX 4 1 5 2 2 3 1 4 3 5 6 6 7 7 11 8 8 9 10 10 9 11
REMARK H PARENT
REMARK Flexibility Score: inf
ROOT
ATOM      1  C   UNL     1     -20.228   4.966 -15.962  1.00  0.00     0.025 C 
ATOM      2  C   UNL     1     -19.683   3.843 -16.456  1.00  0.00     0.010 C 
ENDROOT
BRANCH   1   3
ATOM      3  C   UNL     1     -19.488   6.188 -15.599  1.00  0.00     0.064 C 
ATOM      4  O   UNL     1     -19.554   7.195 -16.351  1.00  0.00    -0.545 OA
ATOM      5  O   UNL     1     -18.776   6.280 -14.408  1.00  0.00    -0.545 OA
ENDBRANCH   1   3
BRANCH   2   6
ATOM      6  C   UNL     1     -18.282   3.698 -16.903  1.00  0.00    -0.026 A 
ATOM      7  C   UNL     1     -17.854   4.215 -18.140  1.00  0.00     0.008 A 
ATOM      8  C   UNL     1     -17.389   2.942 -16.130  1.00  0.00     0.008 A 
ATOM      9  C   UNL     1     -16.537   4.020 -18.567  1.00  0.00     0.001 A 
ATOM     10  C   UNL     1     -16.072   2.750 -16.559  1.00  0.00     0.001 A 
ATOM     11  C   UNL     1     -15.645   3.292 -17.774  1.00  0.00     0.000 A 
ENDBRANCH   2   6
TORSDOF 2
ENDMDL
MODEL 7
REMARK VINA RESULT:    -4.300      1.591      2.635
REMARK INTER + INTRA:          -5.085
REMARK INTER:                  -4.921
REMARK INTRA:                  -0.164
REMARK UNBOUND:                -0.282
REMARK SMILES O=C([O-])C=Cc1ccccc1
REMARK SMILES IDX 4 1 5 2 2 3 1 4 3 5 6 6 7 7 11 8 8 9 10 10 9 11
REMARK H PARENT
REMARK Flexibility Score: inf
ROOT
ATOM      1  C   UNL     1     -16.476   3.686 -17.960  1.00  0.00     0.025 C 
ATOM      2  C   UNL     1     -17.641   4.338 -18.099  1.00  0.00     0.010 C 
ENDROOT
BRANCH   1   3
ATOM      3  C   UNL     1     -16.154   2.730 -16.884  1.00  0.00     0.064 C 
ATOM      4  O   UNL     1     -15.827   1.553 -17.184  1.00  0.00    -0.545 OA
ATOM      5  O   UNL     1     -16.132   3.119 -15.550  1.00  0.00    -0.545 OA
ENDBRANCH   1   3
BRANCH   2   6
ATOM      6  C   UNL     1     -18.867   4.074 -17.317  1.00  0.00    -0.026 A 
ATOM      7  C   UNL     1     -19.612   2.897 -17.507  1.00  0.00     0.008 A 
ATOM      8  C   UNL     1     -19.352   5.062 -16.448  1.00  0.00     0.008 A 
ATOM      9  C   UNL     1     -20.799   2.692 -16.794  1.00  0.00     0.001 A 
ATOM     10  C   UNL     1     -20.539   4.854 -15.736  1.00  0.00     0.001 A 
ATOM     11  C   UNL     1     -21.258   3.668 -15.906  1.00  0.00     0.000 A 
ENDBRANCH   2   6
TORSDOF 2
ENDMDL
MODEL 8
REMARK VINA RESULT:    -4.279      3.029      4.465
REMARK INTER + INTRA:          -5.062
REMARK INTER:                  -4.828
REMARK INTRA:                  -0.234
REMARK UNBOUND:                -0.282
REMARK SMILES O=C([O-])C=Cc1ccccc1
REMARK SMILES IDX 4 1 5 2 2 3 1 4 3 5 6 6 7 7 11 8 8 9 10 10 9 11
REMARK H PARENT
REMARK Flexibility Score: inf
ROOT
ATOM      1  C   UNL     1     -20.525   3.593 -16.675  1.00  0.00     0.025 C 
ATOM      2  C   UNL     1     -19.291   4.044 -16.403  1.00  0.00     0.010 C 
ENDROOT
BRANCH   1   3
ATOM      3  C   UNL     1     -20.875   2.658 -17.759  1.00  0.00     0.064 C 
ATOM      4  O   UNL     1     -21.362   1.534 -17.470  1.00  0.00    -0.545 OA
ATOM      5  O   UNL     1     -20.747   3.015 -19.096  1.00  0.00    -0.545 OA
ENDBRANCH   1   3
BRANCH   2   6
ATOM      6  C   UNL     1     -18.043   3.540 -17.013  1.00  0.00    -0.026 A 
ATOM      7  C   UNL     1     -17.436   2.356 -16.557  1.00  0.00     0.008 A 
ATOM      8  C   UNL     1     -17.398   4.309 -17.992  1.00  0.00     0.008 A 
ATOM      9  C   UNL     1     -16.227   1.925 -17.113  1.00  0.00     0.001 A 
ATOM     10  C   UNL     1     -16.189   3.875 -18.547  1.00  0.00     0.001 A 
ATOM     11  C   UNL     1     -15.607   2.682 -18.111  1.00  0.00     0.000 A 
ENDBRANCH   2   6
TORSDOF 2
ENDMDL
MODEL 9
REMARK VINA RESULT:    -4.272      6.830      8.722
REMARK INTER + INTRA:          -5.054
REMARK INTER:                  -4.881
REMARK INTRA:                  -0.173
REMARK UNBOUND:                -0.282
REMARK SMILES O=C([O-])C=Cc1ccccc1
REMARK SMILES IDX 4 1 5 2 2 3 1 4 3 5 6 6 7 7 11 8 8 9 10 10 9 11
REMARK H PARENT
REMARK Flexibility Score: inf
ROOT
ATOM      1  C   UNL     1     -10.129  -1.023 -19.617  1.00  0.00     0.025 C 
ATOM      2  C   UNL     1     -11.432  -1.254 -19.841  1.00  0.00     0.010 C 
ENDROOT
BRANCH   1   3
ATOM      3  C   UNL     1      -9.576   0.146 -18.909  1.00  0.00     0.064 C 
ATOM      4  O   UNL     1      -9.000  -0.019 -17.803  1.00  0.00    -0.545 OA
ATOM      5  O   UNL     1      -9.613   1.419 -19.468  1.00  0.00    -0.545 OA
ENDBRANCH   1   3
BRANCH   2   6
ATOM      6  C   UNL     1     -12.549  -0.484 -19.255  1.00  0.00    -0.026 A 
ATOM      7  C   UNL     1     -12.827  -0.536 -17.878  1.00  0.00     0.008 A 
ATOM      8  C   UNL     1     -13.411   0.228 -20.102  1.00  0.00     0.008 A 
ATOM      9  C   UNL     1     -13.921   0.159 -17.352  1.00  0.00     0.001 A 
ATOM     10  C   UNL     1     -14.504   0.923 -19.574  1.00  0.00     0.001 A 
ATOM     11  C   UNL     1     -14.756   0.892 -18.200  1.00  0.00     0.000 A 
ENDBRANCH   2   6
TORSDOF 2
ENDMDL
