MODEL 1
REMARK VINA RESULT:    -3.310      0.000      0.000
REMARK INTER + INTRA:          -5.515
REMARK INTER:                  -5.051
REMARK INTRA:                  -0.464
REMARK UNBOUND:                -0.464
REMARK SMILES CC1=CCC[C@H](C)C(=O)C[C@H](C(C)C)C(=O)C1
REMARK SMILES IDX 8 1 9 2 6 3 7 4 5 5 4 6 3 7 2 8 1 9 10 11 11 12 15 13 16 14
REMARK SMILES IDX 17 15 12 17 13 18 14 19
REMARK H PARENT
REMARK Flexibility Score: 70.00
ROOT
ATOM      1  C   UNL     1       0.059   9.796  19.388  1.00  0.00     0.136 C 
ATOM      2  O   UNL     1      -0.850   9.105  19.826  1.00  0.00    -0.299 OA
ENDROOT
BRANCH   1   3
ATOM      3  C   UNL     1       1.369   9.137  19.001  1.00  0.00     0.053 C 
ATOM      4  C   UNL     1       1.553   7.812  19.750  1.00  0.00     0.016 C 
BRANCH   3   5
ATOM      5  C   UNL     1       1.408   8.930  17.461  1.00  0.00     0.015 C 
BRANCH   5   6
ATOM      6  C   UNL     1       2.473   9.760  16.719  1.00  0.00     0.028 C 
BRANCH   6   7
ATOM      7  C   UNL     1       1.950  10.825  15.774  1.00  0.00    -0.028 C 
ATOM      8  C   UNL     1       1.872  12.154  16.021  1.00  0.00    -0.070 CG0
ATOM      9  C   UNL     1       1.241  13.034  14.970  1.00  0.00     0.039 C 
ATOM     10  G   UNL     1       2.440  12.811  17.264  1.00  0.00     0.000 G0
ENDBRANCH   6   7
ENDBRANCH   5   6
ENDBRANCH   3   5
ENDBRANCH   1   3
BRANCH   1  11
ATOM     11  C   UNL     1      -0.163  11.288  19.246  1.00  0.00     0.087 C 
BRANCH  11  12
ATOM     12  C   UNL     1       1.110  12.143  19.500  1.00  0.00     0.066 C 
BRANCH  12  13
ATOM     13  C   UNL     1       1.402  13.105  18.349  1.00  0.00     0.140 C 
ATOM     14  O   UNL     1       0.789  14.161  18.293  1.00  0.00    -0.299 OA
BRANCH  13  15
ATOM     15  C   UNL     1       2.441  12.838  17.271  1.00  0.00     0.106 CG0
ATOM     16  G   UNL     1       1.892  12.171  16.024  1.00  0.00     0.000 G0
ENDBRANCH  13  15
ENDBRANCH  12  13
BRANCH  12  17
ATOM     17  C   UNL     1       1.101  12.900  20.865  1.00  0.00    -0.006 C 
ATOM     18  C   UNL     1      -0.300  13.109  21.467  1.00  0.00     0.008 C 
ATOM     19  C   UNL     1       2.018  12.225  21.898  1.00  0.00     0.008 C 
ENDBRANCH  12  17
ENDBRANCH  11  12
ENDBRANCH   1  11
TORSDOF 1
ENDMDL
MODEL 2
REMARK VINA RESULT:    -3.304      2.405      5.607
REMARK INTER + INTRA:          -5.506
REMARK INTER:                  -5.194
REMARK INTRA:                  -0.311
REMARK UNBOUND:                -0.464
REMARK SMILES CC1=CCC[C@H](C)C(=O)C[C@H](C(C)C)C(=O)C1
REMARK SMILES IDX 8 1 9 2 6 3 7 4 5 5 4 6 3 7 2 8 1 9 10 11 11 12 15 13 16 14
REMARK SMILES IDX 17 15 12 17 13 18 14 19
REMARK H PARENT
REMARK Flexibility Score: 70.00
ROOT
ATOM      1  C   UNL     1       1.614  12.391  19.441  1.00  0.00     0.136 C 
ATOM      2  O   UNL     1       2.767  12.098  19.723  1.00  0.00    -0.299 OA
ENDROOT
BRANCH   1   3
ATOM      3  C   UNL     1       0.936  13.526  20.184  1.00  0.00     0.053 C 
ATOM      4  C   UNL     1      -0.414  13.866  19.541  1.00  0.00     0.016 C 
BRANCH   3   5
ATOM      5  C   UNL     1       0.772  13.140  21.680  1.00  0.00     0.015 C 
BRANCH   5   6
ATOM      6  C   UNL     1      -0.432  12.231  21.990  1.00  0.00     0.028 C 
BRANCH   6   7
ATOM      7  C   UNL     1      -0.112  10.783  22.308  1.00  0.00    -0.028 C 
ATOM      8  C   UNL     1      -0.358   9.711  21.519  1.00  0.00    -0.070 CG0
ATOM      9  C   UNL     1      -0.032   8.341  22.062  1.00  0.00     0.039 C 
ATOM     10  G   UNL     1      -0.881   9.816  20.099  1.00  0.00     0.000 G0
ENDBRANCH   6   7
ENDBRANCH   5   6
ENDBRANCH   3   5
ENDBRANCH   1   3
BRANCH   1  11
ATOM     11  C   UNL     1       0.907  11.605  18.355  1.00  0.00     0.087 C 
BRANCH  11  12
ATOM     12  C   UNL     1       1.200  10.079  18.388  1.00  0.00     0.066 C 
BRANCH  12  13
ATOM     13  C   UNL     1       0.051   9.281  19.004  1.00  0.00     0.140 C 
ATOM     14  O   UNL     1      -0.130   8.129  18.636  1.00  0.00    -0.299 OA
BRANCH  13  15
ATOM     15  C   UNL     1      -0.874   9.830  20.079  1.00  0.00     0.106 CG0
ATOM     16  G   UNL     1      -0.346   9.688  21.493  1.00  0.00     0.000 G0
ENDBRANCH  13  15
ENDBRANCH  12  13
BRANCH  12  17
ATOM     17  C   UNL     1       1.607   9.484  17.003  1.00  0.00    -0.006 C 
ATOM     18  C   UNL     1       1.768  10.528  15.884  1.00  0.00     0.008 C 
ATOM     19  C   UNL     1       2.877   8.624  17.102  1.00  0.00     0.008 C 
ENDBRANCH  12  17
ENDBRANCH  11  12
ENDBRANCH   1  11
TORSDOF 1
ENDMDL
MODEL 3
REMARK VINA RESULT:    -3.212      3.835      6.384
REMARK INTER + INTRA:          -5.366
REMARK INTER:                  -4.967
REMARK INTRA:                  -0.399
REMARK UNBOUND:                -0.464
REMARK SMILES CC1=CCC[C@H](C)C(=O)C[C@H](C(C)C)C(=O)C1
REMARK SMILES IDX 8 1 9 2 6 3 7 4 5 5 4 6 3 7 2 8 1 9 10 11 11 12 15 13 16 14
REMARK SMILES IDX 17 15 12 17 13 18 14 19
REMARK H PARENT
REMARK Flexibility Score: 70.00
ROOT
ATOM      1  C   UNL     1       0.750  15.678  21.538  1.00  0.00     0.136 C 
ATOM      2  O   UNL     1       0.231  16.718  21.916  1.00  0.00    -0.299 OA
ENDROOT
BRANCH   1   3
ATOM      3  C   UNL     1       2.204  15.690  21.106  1.00  0.00     0.053 C 
ATOM      4  C   UNL     1       2.413  16.653  19.931  1.00  0.00     0.016 C 
BRANCH   3   5
ATOM      5  C   UNL     1       3.099  16.070  22.318  1.00  0.00     0.015 C 
BRANCH   5   6
ATOM      6  C   UNL     1       3.028  15.099  23.511  1.00  0.00     0.028 C 
BRANCH   6   7
ATOM      7  C   UNL     1       3.718  13.761  23.325  1.00  0.00    -0.028 C 
ATOM      8  C   UNL     1       3.117  12.562  23.144  1.00  0.00    -0.070 CG0
ATOM      9  C   UNL     1       3.992  11.335  23.060  1.00  0.00     0.039 C 
ATOM     10  G   UNL     1       1.621  12.393  22.957  1.00  0.00     0.000 G0
ENDBRANCH   6   7
ENDBRANCH   5   6
ENDBRANCH   3   5
ENDBRANCH   1   3
BRANCH   1  11
ATOM     11  C   UNL     1      -0.083  14.412  21.520  1.00  0.00     0.087 C 
BRANCH  11  12
ATOM     12  C   UNL     1       0.524  13.269  20.658  1.00  0.00     0.066 C 
BRANCH  12  13
ATOM     13  C   UNL     1       1.165  12.176  21.512  1.00  0.00     0.140 C 
ATOM     14  O   UNL     1       1.364  11.078  21.012  1.00  0.00    -0.299 OA
BRANCH  13  15
ATOM     15  C   UNL     1       1.600  12.381  22.955  1.00  0.00     0.106 CG0
ATOM     16  G   UNL     1       3.095  12.551  23.141  1.00  0.00     0.000 G0
ENDBRANCH  13  15
ENDBRANCH  12  13
BRANCH  12  17
ATOM     17  C   UNL     1      -0.478  12.653  19.631  1.00  0.00    -0.006 C 
ATOM     18  C   UNL     1      -1.829  12.232  20.233  1.00  0.00     0.008 C 
ATOM     19  C   UNL     1      -0.709  13.585  18.430  1.00  0.00     0.008 C 
ENDBRANCH  12  17
ENDBRANCH  11  12
ENDBRANCH   1  11
TORSDOF 1
ENDMDL
MODEL 4
REMARK VINA RESULT:    -3.152      2.800      4.639
REMARK INTER + INTRA:          -5.274
REMARK INTER:                  -4.970
REMARK INTRA:                  -0.304
REMARK UNBOUND:                -0.464
REMARK SMILES CC1=CCC[C@H](C)C(=O)C[C@H](C(C)C)C(=O)C1
REMARK SMILES IDX 8 1 9 2 6 3 7 4 5 5 4 6 3 7 2 8 1 9 10 11 11 12 15 13 16 14
REMARK SMILES IDX 17 15 12 17 13 18 14 19
REMARK H PARENT
REMARK Flexibility Score: 70.00
ROOT
ATOM      1  C   UNL     1       2.901  10.852  18.452  1.00  0.00     0.136 C 
ATOM      2  O   UNL     1       3.967  10.959  17.862  1.00  0.00    -0.299 OA
ENDROOT
BRANCH   1   3
ATOM      3  C   UNL     1       1.675  10.393  17.687  1.00  0.00     0.053 C 
ATOM      4  C   UNL     1       1.820  10.700  16.192  1.00  0.00     0.016 C 
BRANCH   3   5
ATOM      5  C   UNL     1       1.449   8.875  17.935  1.00  0.00     0.015 C 
BRANCH   5   6
ATOM      6  C   UNL     1       0.160   8.526  18.704  1.00  0.00     0.028 C 
BRANCH   6   7
ATOM      7  C   UNL     1       0.347   7.967  20.101  1.00  0.00    -0.028 C 
ATOM      8  C   UNL     1       0.238   8.652  21.265  1.00  0.00    -0.070 CG0
ATOM      9  C   UNL     1       0.544   7.921  22.549  1.00  0.00     0.039 C 
ATOM     10  G   UNL     1      -0.238  10.089  21.350  1.00  0.00     0.000 G0
ENDBRANCH   6   7
ENDBRANCH   5   6
ENDBRANCH   3   5
ENDBRANCH   1   3
BRANCH   1  11
ATOM     11  C   UNL     1       2.850  11.182  19.930  1.00  0.00     0.087 C 
BRANCH  11  12
ATOM     12  C   UNL     1       1.521  11.851  20.382  1.00  0.00     0.066 C 
BRANCH  12  13
ATOM     13  C   UNL     1       0.866  11.112  21.548  1.00  0.00     0.140 C 
ATOM     14  O   UNL     1       1.236  11.361  22.686  1.00  0.00    -0.299 OA
BRANCH  13  15
ATOM     15  C   UNL     1      -0.249  10.092  21.378  1.00  0.00     0.106 CG0
ATOM     16  G   UNL     1       0.225   8.656  21.268  1.00  0.00     0.000 G0
ENDBRANCH  13  15
ENDBRANCH  12  13
BRANCH  12  17
ATOM     17  C   UNL     1       1.657  13.374  20.697  1.00  0.00    -0.006 C 
ATOM     18  C   UNL     1       2.327  14.197  19.584  1.00  0.00     0.008 C 
ATOM     19  C   UNL     1       0.305  14.003  21.071  1.00  0.00     0.008 C 
ENDBRANCH  12  17
ENDBRANCH  11  12
ENDBRANCH   1  11
TORSDOF 1
ENDMDL
MODEL 5
REMARK VINA RESULT:    -3.132      3.302      5.395
REMARK INTER + INTRA:          -5.244
REMARK INTER:                  -4.876
REMARK INTRA:                  -0.367
REMARK UNBOUND:                -0.464
REMARK SMILES CC1=CCC[C@H](C)C(=O)C[C@H](C(C)C)C(=O)C1
REMARK SMILES IDX 8 1 9 2 6 3 7 4 5 5 4 6 3 7 2 8 1 9 10 11 11 12 15 13 16 14
REMARK SMILES IDX 17 15 12 17 13 18 14 19
REMARK H PARENT
REMARK Flexibility Score: 70.00
ROOT
ATOM      1  C   UNL     1       2.328  15.660  22.345  1.00  0.00     0.136 C 
ATOM      2  O   UNL     1       2.498  16.348  23.342  1.00  0.00    -0.299 OA
ENDROOT
BRANCH   1   3
ATOM      3  C   UNL     1       1.183  15.989  21.406  1.00  0.00     0.053 C 
ATOM      4  C   UNL     1       0.254  17.037  22.028  1.00  0.00     0.016 C 
BRANCH   3   5
ATOM      5  C   UNL     1       1.755  16.473  20.044  1.00  0.00     0.015 C 
BRANCH   5   6
ATOM      6  C   UNL     1       1.410  15.579  18.838  1.00  0.00     0.028 C 
BRANCH   6   7
ATOM      7  C   UNL     1       2.564  14.805  18.229  1.00  0.00    -0.028 C 
ATOM      8  C   UNL     1       2.944  13.543  18.543  1.00  0.00    -0.070 CG0
ATOM      9  C   UNL     1       4.176  12.986  17.873  1.00  0.00     0.039 C 
ATOM     10  G   UNL     1       2.163  12.641  19.478  1.00  0.00     0.000 G0
ENDBRANCH   6   7
ENDBRANCH   5   6
ENDBRANCH   3   5
ENDBRANCH   1   3
BRANCH   1  11
ATOM     11  C   UNL     1       3.273  14.504  22.086  1.00  0.00     0.087 C 
BRANCH  11  12
ATOM     12  C   UNL     1       2.583  13.111  22.090  1.00  0.00     0.066 C 
BRANCH  12  13
ATOM     13  C   UNL     1       2.847  12.329  20.804  1.00  0.00     0.140 C 
ATOM     14  O   UNL     1       3.629  11.390  20.835  1.00  0.00    -0.299 OA
BRANCH  13  15
ATOM     15  C   UNL     1       2.168  12.636  19.478  1.00  0.00     0.106 CG0
ATOM     16  G   UNL     1       2.976  13.521  18.549  1.00  0.00     0.000 G0
ENDBRANCH  13  15
ENDBRANCH  12  13
BRANCH  12  17
ATOM     17  C   UNL     1       2.918  12.244  23.344  1.00  0.00    -0.006 C 
ATOM     18  C   UNL     1       4.018  12.828  24.247  1.00  0.00     0.008 C 
ATOM     19  C   UNL     1       1.664  11.938  24.179  1.00  0.00     0.008 C 
ENDBRANCH  12  17
ENDBRANCH  11  12
ENDBRANCH   1  11
TORSDOF 1
ENDMDL
MODEL 6
REMARK VINA RESULT:    -3.084      2.523      3.452
REMARK INTER + INTRA:          -5.171
REMARK INTER:                  -4.858
REMARK INTRA:                  -0.312
REMARK UNBOUND:                -0.464
REMARK SMILES CC1=CCC[C@H](C)C(=O)C[C@H](C(C)C)C(=O)C1
REMARK SMILES IDX 8 1 9 2 6 3 7 4 5 5 4 6 3 7 2 8 1 9 10 11 11 12 15 13 16 14
REMARK SMILES IDX 17 15 12 17 13 18 14 19
REMARK H PARENT
REMARK Flexibility Score: 70.00
ROOT
ATOM      1  C   UNL     1       0.694  13.014  19.759  1.00  0.00     0.136 C 
ATOM      2  O   UNL     1       1.098  12.479  20.782  1.00  0.00    -0.299 OA
ENDROOT
BRANCH   1   3
ATOM      3  C   UNL     1       0.306  12.149  18.575  1.00  0.00     0.053 C 
ATOM      4  C   UNL     1      -0.397  12.985  17.499  1.00  0.00     0.016 C 
BRANCH   3   5
ATOM      5  C   UNL     1       1.572  11.446  18.011  1.00  0.00     0.015 C 
BRANCH   5   6
ATOM      6  C   UNL     1       2.154  12.079  16.734  1.00  0.00     0.028 C 
BRANCH   6   7
ATOM      7  C   UNL     1       3.482  12.795  16.889  1.00  0.00    -0.028 C 
ATOM      8  C   UNL     1       3.664  14.120  17.103  1.00  0.00    -0.070 CG0
ATOM      9  C   UNL     1       5.078  14.644  17.148  1.00  0.00     0.039 C 
ATOM     10  G   UNL     1       2.528  15.090  17.365  1.00  0.00     0.000 G0
ENDBRANCH   6   7
ENDBRANCH   5   6
ENDBRANCH   3   5
ENDBRANCH   1   3
BRANCH   1  11
ATOM     11  C   UNL     1       0.595  14.526  19.717  1.00  0.00     0.087 C 
BRANCH  11  12
ATOM     12  C   UNL     1       1.940  15.254  19.994  1.00  0.00     0.066 C 
BRANCH  12  13
ATOM     13  C   UNL     1       2.572  15.810  18.718  1.00  0.00     0.140 C 
ATOM     14  O   UNL     1       3.179  16.870  18.774  1.00  0.00    -0.299 OA
BRANCH  13  15
ATOM     15  C   UNL     1       2.514  15.103  17.372  1.00  0.00     0.106 CG0
ATOM     16  G   UNL     1       3.660  14.144  17.118  1.00  0.00     0.000 G0
ENDBRANCH  13  15
ENDBRANCH  12  13
BRANCH  12  17
ATOM     17  C   UNL     1       1.846  16.359  21.092  1.00  0.00    -0.006 C 
ATOM     18  C   UNL     1       0.410  16.713  21.516  1.00  0.00     0.008 C 
ATOM     19  C   UNL     1       2.685  16.007  22.331  1.00  0.00     0.008 C 
ENDBRANCH  12  17
ENDBRANCH  11  12
ENDBRANCH   1  11
TORSDOF 1
ENDMDL
MODEL 7
REMARK VINA RESULT:    -3.053      2.921      3.849
REMARK INTER + INTRA:          -5.123
REMARK INTER:                  -4.612
REMARK INTRA:                  -0.511
REMARK UNBOUND:                -0.464
REMARK SMILES CC1=CCC[C@H](C)C(=O)C[C@H](C(C)C)C(=O)C1
REMARK SMILES IDX 8 1 9 2 6 3 7 4 5 5 4 6 3 7 2 8 1 9 10 11 11 12 15 13 16 14
REMARK SMILES IDX 17 15 12 17 13 18 14 19
REMARK H PARENT
REMARK Flexibility Score: 70.00
ROOT
ATOM      1  C   UNL     1      -0.190  13.321  21.244  1.00  0.00     0.136 C 
ATOM      2  O   UNL     1      -1.365  13.185  21.556  1.00  0.00    -0.299 OA
ENDROOT
BRANCH   1   3
ATOM      3  C   UNL     1       0.507  12.208  20.485  1.00  0.00     0.053 C 
ATOM      4  C   UNL     1       0.607  10.944  21.346  1.00  0.00     0.016 C 
BRANCH   3   5
ATOM      5  C   UNL     1      -0.253  11.933  19.158  1.00  0.00     0.015 C 
BRANCH   5   6
ATOM      6  C   UNL     1       0.189  12.797  17.963  1.00  0.00     0.028 C 
BRANCH   6   7
ATOM      7  C   UNL     1      -0.635  14.043  17.699  1.00  0.00    -0.028 C 
ATOM      8  C   UNL     1      -0.234  15.326  17.869  1.00  0.00    -0.070 CG0
ATOM      9  C   UNL     1      -1.242  16.422  17.624  1.00  0.00     0.039 C 
ATOM     10  G   UNL     1       1.186  15.721  18.226  1.00  0.00     0.000 G0
ENDBRANCH   6   7
ENDBRANCH   5   6
ENDBRANCH   3   5
ENDBRANCH   1   3
BRANCH   1  11
ATOM     11  C   UNL     1       0.523  14.602  21.627  1.00  0.00     0.087 C 
BRANCH  11  12
ATOM     12  C   UNL     1       1.745  14.937  20.727  1.00  0.00     0.066 C 
BRANCH  12  13
ATOM     13  C   UNL     1       1.426  16.017  19.693  1.00  0.00     0.140 C 
ATOM     14  O   UNL     1       1.364  17.182  20.058  1.00  0.00    -0.299 OA
BRANCH  13  15
ATOM     15  C   UNL     1       1.203  15.728  18.217  1.00  0.00     0.106 CG0
ATOM     16  G   UNL     1      -0.216  15.326  17.863  1.00  0.00     0.000 G0
ENDBRANCH  13  15
ENDBRANCH  12  13
BRANCH  12  17
ATOM     17  C   UNL     1       3.036  15.300  21.526  1.00  0.00    -0.006 C 
ATOM     18  C   UNL     1       2.776  15.879  22.927  1.00  0.00     0.008 C 
ATOM     19  C   UNL     1       4.002  14.108  21.623  1.00  0.00     0.008 C 
ENDBRANCH  12  17
ENDBRANCH  11  12
ENDBRANCH   1  11
TORSDOF 1
ENDMDL
MODEL 8
REMARK VINA RESULT:    -2.983      2.251      3.091
REMARK INTER + INTRA:          -5.016
REMARK INTER:                  -4.621
REMARK INTRA:                  -0.395
REMARK UNBOUND:                -0.464
REMARK SMILES CC1=CCC[C@H](C)C(=O)C[C@H](C(C)C)C(=O)C1
REMARK SMILES IDX 8 1 9 2 6 3 7 4 5 5 4 6 3 7 2 8 1 9 10 11 11 12 15 13 16 14
REMARK SMILES IDX 17 15 12 17 13 18 14 19
REMARK H PARENT
REMARK Flexibility Score: 70.00
ROOT
ATOM      1  C   UNL     1       1.289   8.121  20.843  1.00  0.00     0.136 C 
ATOM      2  O   UNL     1       1.788   7.233  21.519  1.00  0.00    -0.299 OA
ENDROOT
BRANCH   1   3
ATOM      3  C   UNL     1       1.070   7.890  19.360  1.00  0.00     0.053 C 
ATOM      4  C   UNL     1      -0.384   8.183  18.974  1.00  0.00     0.016 C 
BRANCH   3   5
ATOM      5  C   UNL     1       2.062   8.767  18.548  1.00  0.00     0.015 C 
BRANCH   5   6
ATOM      6  C   UNL     1       1.419   9.934  17.775  1.00  0.00     0.028 C 
BRANCH   6   7
ATOM      7  C   UNL     1       2.152  11.260  17.835  1.00  0.00    -0.028 C 
ATOM      8  C   UNL     1       1.986  12.232  18.763  1.00  0.00    -0.070 CG0
ATOM      9  C   UNL     1       2.761  13.515  18.593  1.00  0.00     0.039 C 
ATOM     10  G   UNL     1       1.114  12.076  19.994  1.00  0.00     0.000 G0
ENDBRANCH   6   7
ENDBRANCH   5   6
ENDBRANCH   3   5
ENDBRANCH   1   3
BRANCH   1  11
ATOM     11  C   UNL     1       0.905   9.423  21.519  1.00  0.00     0.087 C 
BRANCH  11  12
ATOM     12  C   UNL     1       2.110  10.359  21.816  1.00  0.00     0.066 C 
BRANCH  12  13
ATOM     13  C   UNL     1       1.888  11.776  21.287  1.00  0.00     0.140 C 
ATOM     14  O   UNL     1       2.368  12.716  21.904  1.00  0.00    -0.299 OA
BRANCH  13  15
ATOM     15  C   UNL     1       1.120  12.088  20.013  1.00  0.00     0.106 CG0
ATOM     16  G   UNL     1       1.986  12.219  18.775  1.00  0.00     0.000 G0
ENDBRANCH  13  15
ENDBRANCH  12  13
BRANCH  12  17
ATOM     17  C   UNL     1       2.531  10.388  23.319  1.00  0.00    -0.006 C 
ATOM     18  C   UNL     1       1.506   9.761  24.280  1.00  0.00     0.008 C 
ATOM     19  C   UNL     1       3.911   9.747  23.538  1.00  0.00     0.008 C 
ENDBRANCH  12  17
ENDBRANCH  11  12
ENDBRANCH   1  11
TORSDOF 1
ENDMDL
MODEL 9
REMARK VINA RESULT:    -2.893      3.609      5.626
REMARK INTER + INTRA:          -4.879
REMARK INTER:                  -4.368
REMARK INTRA:                  -0.511
REMARK UNBOUND:                -0.464
REMARK SMILES CC1=CCC[C@H](C)C(=O)C[C@H](C(C)C)C(=O)C1
REMARK SMILES IDX 8 1 9 2 6 3 7 4 5 5 4 6 3 7 2 8 1 9 10 11 11 12 15 13 16 14
REMARK SMILES IDX 17 15 12 17 13 18 14 19
REMARK H PARENT
REMARK Flexibility Score: 70.00
ROOT
ATOM      1  C   UNL     1       0.519  14.759  20.099  1.00  0.00     0.136 C 
ATOM      2  O   UNL     1      -0.218  14.064  20.785  1.00  0.00    -0.299 OA
ENDROOT
BRANCH   1   3
ATOM      3  C   UNL     1       1.234  15.933  20.737  1.00  0.00     0.053 C 
ATOM      4  C   UNL     1       0.232  17.012  21.164  1.00  0.00     0.016 C 
BRANCH   3   5
ATOM      5  C   UNL     1       2.077  15.432  21.943  1.00  0.00     0.015 C 
BRANCH   5   6
ATOM      6  C   UNL     1       3.579  15.249  21.656  1.00  0.00     0.028 C 
BRANCH   6   7
ATOM      7  C   UNL     1       4.016  13.854  21.250  1.00  0.00    -0.028 C 
ATOM      8  C   UNL     1       4.288  13.429  19.993  1.00  0.00    -0.070 CG0
ATOM      9  C   UNL     1       4.630  11.972  19.796  1.00  0.00     0.039 C 
ATOM     10  G   UNL     1       4.331  14.347  18.787  1.00  0.00     0.000 G0
ENDBRANCH   6   7
ENDBRANCH   5   6
ENDBRANCH   3   5
ENDBRANCH   1   3
BRANCH   1  11
ATOM     11  C   UNL     1       0.689  14.414  18.633  1.00  0.00     0.087 C 
BRANCH  11  12
ATOM     12  C   UNL     1       1.891  15.129  17.952  1.00  0.00     0.066 C 
BRANCH  12  13
ATOM     13  C   UNL     1       3.122  14.229  17.856  1.00  0.00     0.140 C 
ATOM     14  O   UNL     1       3.164  13.378  16.979  1.00  0.00    -0.299 OA
BRANCH  13  15
ATOM     15  C   UNL     1       4.325  14.347  18.779  1.00  0.00     0.106 CG0
ATOM     16  G   UNL     1       4.285  13.424  19.982  1.00  0.00     0.000 G0
ENDBRANCH  13  15
ENDBRANCH  12  13
BRANCH  12  17
ATOM     17  C   UNL     1       1.549  15.751  16.562  1.00  0.00    -0.006 C 
ATOM     18  C   UNL     1       0.097  16.242  16.423  1.00  0.00     0.008 C 
ATOM     19  C   UNL     1       2.521  16.882  16.188  1.00  0.00     0.008 C 
ENDBRANCH  12  17
ENDBRANCH  11  12
ENDBRANCH   1  11
TORSDOF 1
ENDMDL
