MODEL 1
REMARK VINA RESULT:    32.061      0.000      0.000
REMARK INTER + INTRA:          48.554
REMARK INTER:                  43.307
REMARK INTRA:                   5.247
REMARK UNBOUND:                 5.247
REMARK SMILES O=c1c(-c2ccc(O)cc2)coc2c([C@@H]3O[C@@H](CO)[C@@H](O)[C@H](O)[C@@H]3O)c(O)ccc12
REMARK SMILES IDX 3 1 11 2 12 3 13 4 30 5 2 6 1 7 29 8 28 9 26 10 14 11 4 12
REMARK SMILES IDX 5 13 6 14 7 15 10 16 9 17 8 18 15 20 24 21 16 22 22 23 17 24
REMARK SMILES IDX 20 25 25 26 23 28 18 30 19 31 21 33 27 35
REMARK H PARENT 8 19 25 27 23 29 19 32 21 34 27 36
REMARK Flexibility Score: inf
ROOT
ATOM      1  C   UNL     1      19.791  13.458  11.530  1.00  0.00     0.065 A 
ATOM      2  C   UNL     1      20.209  12.290  10.876  1.00  0.00     0.208 A 
ATOM      3  O   UNL     1      19.716  11.110  11.217  1.00  0.00    -0.463 OA
ATOM      4  C   UNL     1      18.780  10.966  12.157  1.00  0.00     0.147 A 
ATOM      5  C   UNL     1      18.154  12.127  12.704  1.00  0.00     0.066 A 
ATOM      6  C   UNL     1      18.711  13.384  12.417  1.00  0.00     0.200 A 
ATOM      7  O   UNL     1      18.240  14.437  12.940  1.00  0.00    -0.288 OA
ATOM      8  C   UNL     1      17.085  11.952  13.601  1.00  0.00     0.020 A 
ATOM      9  C   UNL     1      16.626  10.671  13.896  1.00  0.00     0.047 A 
ATOM     10  C   UNL     1      17.331   9.539  13.497  1.00  0.00     0.125 A 
ATOM     11  C   UNL     1      18.472   9.674  12.676  1.00  0.00     0.069 A 
ENDROOT
BRANCH   1  12
ATOM     12  C   UNL     1      20.708  14.633  11.515  1.00  0.00    -0.011 A 
ATOM     13  C   UNL     1      20.219  15.830  10.954  1.00  0.00     0.013 A 
ATOM     14  C   UNL     1      20.875  17.046  11.208  1.00  0.00     0.047 A 
ATOM     15  C   UNL     1      22.015  17.077  12.022  1.00  0.00     0.115 A 
ATOM     16  C   UNL     1      21.904  14.643  12.258  1.00  0.00     0.013 A 
ATOM     17  C   UNL     1      22.547  15.874  12.515  1.00  0.00     0.047 A 
BRANCH  15  18
ATOM     18  O   UNL     1      22.582  18.326  12.363  1.00  0.00    -0.508 OA
ATOM     19  H   UNL     1      22.371  18.790  13.238  1.00  0.00     0.293 HD
ENDBRANCH  15  18
ENDBRANCH   1  12
BRANCH  11  20
ATOM     20  C   UNL     1      19.466   8.515  12.527  1.00  0.00     0.188 C 
ATOM     21  C   UNL     1      18.972   7.203  13.211  1.00  0.00     0.179 C 
ATOM     22  O   UNL     1      19.758   8.339  11.153  1.00  0.00    -0.362 OA
ATOM     23  C   UNL     1      19.273   5.967  12.322  1.00  0.00     0.177 C 
ATOM     24  C   UNL     1      20.792   7.412  10.877  1.00  0.00     0.176 C 
ATOM     25  C   UNL     1      20.676   6.071  11.691  1.00  0.00     0.177 C 
BRANCH  21  26
ATOM     26  O   UNL     1      17.578   7.239  13.511  1.00  0.00    -0.387 OA
ATOM     27  H   UNL     1      17.483   7.680  14.393  1.00  0.00     0.211 HD
ENDBRANCH  21  26
BRANCH  23  28
ATOM     28  O   UNL     1      18.319   5.876  11.289  1.00  0.00    -0.387 OA
ATOM     29  H   UNL     1      18.150   4.907  11.134  1.00  0.00     0.211 HD
ENDBRANCH  23  28
BRANCH  24  30
ATOM     30  C   UNL     1      22.167   8.121  10.915  1.00  0.00     0.191 C 
BRANCH  30  31
ATOM     31  O   UNL     1      21.983   9.484  11.218  1.00  0.00    -0.394 OA
ATOM     32  H   UNL     1      22.388   9.971  10.459  1.00  0.00     0.210 HD
ENDBRANCH  30  31
ENDBRANCH  24  30
BRANCH  25  33
ATOM     33  O   UNL     1      21.692   5.913  12.660  1.00  0.00    -0.388 OA
ATOM     34  H   UNL     1      22.258   6.732  12.690  1.00  0.00     0.211 HD
ENDBRANCH  25  33
ENDBRANCH  11  20
BRANCH  10  35
ATOM     35  O   UNL     1      16.963   8.280  13.990  1.00  0.00    -0.507 OA
ATOM     36  H   UNL     1      17.439   7.842  14.766  1.00  0.00     0.293 HD
ENDBRANCH  10  35
TORSDOF 9
ENDMDL
