MODEL 1
REMARK VINA RESULT:    -4.222      0.000      0.000
REMARK INTER + INTRA:          -6.668
REMARK INTER:                  -5.949
REMARK INTRA:                  -0.718
REMARK UNBOUND:                -0.718
REMARK SMILES CCCCCCCCC(=O)[O-]
REMARK SMILES IDX 6 1 7 2 8 3 9 4 10 5 11 6 5 7 4 8 3 9 2 10 1 11
REMARK H PARENT
REMARK Flexibility Score: inf
ROOT
ATOM      1  C   UNL     1      49.595  12.151  -9.173  1.00  0.00     0.000 C 
ENDROOT
BRANCH   1   2
ATOM      2  C   UNL     1      48.590  11.794 -10.284  1.00  0.00     0.006 C 
BRANCH   2   3
ATOM      3  C   UNL     1      47.514  10.783  -9.859  1.00  0.00     0.053 C 
BRANCH   3   4
ATOM      4  C   UNL     1      46.130  11.320 -10.052  1.00  0.00     0.041 C 
ATOM      5  O   UNL     1      45.752  12.340  -9.418  1.00  0.00    -0.550 OA
ATOM      6  O   UNL     1      45.247  10.674 -10.908  1.00  0.00    -0.550 OA
ENDBRANCH   3   4
ENDBRANCH   2   3
ENDBRANCH   1   2
BRANCH   1   7
ATOM      7  C   UNL     1      48.975  12.080  -7.767  1.00  0.00     0.000 C 
BRANCH   7   8
ATOM      8  C   UNL     1      49.913  11.428  -6.738  1.00  0.00    -0.000 C 
BRANCH   8   9
ATOM      9  C   UNL     1      50.320   9.998  -7.134  1.00  0.00    -0.000 C 
BRANCH   9  10
ATOM     10  C   UNL     1      49.198   8.977  -6.886  1.00  0.00    -0.003 C 
ATOM     11  C   UNL     1      49.102   7.921  -7.987  1.00  0.00     0.004 C 
ENDBRANCH   9  10
ENDBRANCH   8   9
ENDBRANCH   7   8
ENDBRANCH   1   7
TORSDOF 7
ENDMDL
MODEL 2
REMARK VINA RESULT:    -4.183     20.601     21.794
REMARK INTER + INTRA:          -6.613
REMARK INTER:                  -5.805
REMARK INTRA:                  -0.808
REMARK UNBOUND:                -0.718
REMARK SMILES CCCCCCCCC(=O)[O-]
REMARK SMILES IDX 6 1 7 2 8 3 9 4 10 5 11 6 5 7 4 8 3 9 2 10 1 11
REMARK H PARENT
REMARK Flexibility Score: inf
ROOT
ATOM      1  C   UNL     1      34.267   0.884   3.005  1.00  0.00     0.000 C 
ENDROOT
BRANCH   1   2
ATOM      2  C   UNL     1      34.630   2.246   3.624  1.00  0.00     0.006 C 
BRANCH   2   3
ATOM      3  C   UNL     1      33.565   2.807   4.581  1.00  0.00     0.053 C 
BRANCH   3   4
ATOM      4  C   UNL     1      34.178   3.464   5.779  1.00  0.00     0.041 C 
ATOM      5  O   UNL     1      33.465   4.141   6.565  1.00  0.00    -0.550 OA
ATOM      6  O   UNL     1      35.545   3.357   6.007  1.00  0.00    -0.550 OA
ENDBRANCH   3   4
ENDBRANCH   2   3
ENDBRANCH   1   2
BRANCH   1   7
ATOM      7  C   UNL     1      35.410  -0.140   3.111  1.00  0.00     0.000 C 
BRANCH   7   8
ATOM      8  C   UNL     1      35.190  -1.161   4.238  1.00  0.00    -0.000 C 
BRANCH   8   9
ATOM      9  C   UNL     1      36.015  -0.837   5.497  1.00  0.00    -0.000 C 
BRANCH   9  10
ATOM     10  C   UNL     1      35.188  -0.109   6.569  1.00  0.00    -0.003 C 
ATOM     11  C   UNL     1      33.698  -0.440   6.497  1.00  0.00     0.004 C 
ENDBRANCH   9  10
ENDBRANCH   8   9
ENDBRANCH   7   8
ENDBRANCH   1   7
TORSDOF 7
ENDMDL
MODEL 3
REMARK VINA RESULT:    -4.162      1.757      3.015
REMARK INTER + INTRA:          -6.583
REMARK INTER:                  -5.995
REMARK INTRA:                  -0.588
REMARK UNBOUND:                -0.718
REMARK SMILES CCCCCCCCC(=O)[O-]
REMARK SMILES IDX 6 1 7 2 8 3 9 4 10 5 11 6 5 7 4 8 3 9 2 10 1 11
REMARK H PARENT
REMARK Flexibility Score: inf
ROOT
ATOM      1  C   UNL     1      49.135   8.578  -7.711  1.00  0.00     0.000 C 
ENDROOT
BRANCH   1   2
ATOM      2  C   UNL     1      47.785   9.037  -8.293  1.00  0.00     0.006 C 
BRANCH   2   3
ATOM      3  C   UNL     1      47.681  10.553  -8.521  1.00  0.00     0.053 C 
BRANCH   3   4
ATOM      4  C   UNL     1      47.340  10.885  -9.941  1.00  0.00     0.041 C 
ATOM      5  O   UNL     1      46.183  10.662 -10.384  1.00  0.00    -0.550 OA
ATOM      6  O   UNL     1      48.311  11.409 -10.785  1.00  0.00    -0.550 OA
ENDBRANCH   3   4
ENDBRANCH   2   3
ENDBRANCH   1   2
BRANCH   1   7
ATOM      7  C   UNL     1      50.062   9.755  -7.361  1.00  0.00     0.000 C 
BRANCH   7   8
ATOM      8  C   UNL     1      50.262   9.923  -5.846  1.00  0.00    -0.000 C 
BRANCH   8   9
ATOM      9  C   UNL     1      50.077  11.379  -5.384  1.00  0.00    -0.000 C 
BRANCH   9  10
ATOM     10  C   UNL     1      48.856  11.554  -4.466  1.00  0.00    -0.003 C 
ATOM     11  C   UNL     1      47.644  12.133  -5.194  1.00  0.00     0.004 C 
ENDBRANCH   9  10
ENDBRANCH   8   9
ENDBRANCH   7   8
ENDBRANCH   1   7
TORSDOF 7
ENDMDL
MODEL 4
REMARK VINA RESULT:    -4.137     21.003     22.065
REMARK INTER + INTRA:          -6.549
REMARK INTER:                  -5.952
REMARK INTRA:                  -0.597
REMARK UNBOUND:                -0.718
REMARK SMILES CCCCCCCCC(=O)[O-]
REMARK SMILES IDX 6 1 7 2 8 3 9 4 10 5 11 6 5 7 4 8 3 9 2 10 1 11
REMARK H PARENT
REMARK Flexibility Score: inf
ROOT
ATOM      1  C   UNL     1      37.242   3.346   6.969  1.00  0.00     0.000 C 
ENDROOT
BRANCH   1   2
ATOM      2  C   UNL     1      36.655   1.986   7.391  1.00  0.00     0.006 C 
BRANCH   2   3
ATOM      3  C   UNL     1      37.207   0.790   6.600  1.00  0.00     0.053 C 
BRANCH   3   4
ATOM      4  C   UNL     1      36.128  -0.179   6.224  1.00  0.00     0.041 C 
ATOM      5  O   UNL     1      36.381  -1.141   5.453  1.00  0.00    -0.550 OA
ATOM      6  O   UNL     1      34.836   0.000   6.702  1.00  0.00    -0.550 OA
ENDBRANCH   3   4
ENDBRANCH   2   3
ENDBRANCH   1   2
BRANCH   1   7
ATOM      7  C   UNL     1      36.923   4.468   7.972  1.00  0.00     0.000 C 
BRANCH   7   8
ATOM      8  C   UNL     1      35.442   4.493   8.383  1.00  0.00    -0.000 C 
BRANCH   8   9
ATOM      9  C   UNL     1      34.524   4.987   7.251  1.00  0.00    -0.000 C 
BRANCH   9  10
ATOM     10  C   UNL     1      33.485   3.933   6.834  1.00  0.00    -0.003 C 
ATOM     11  C   UNL     1      33.698   3.421   5.410  1.00  0.00     0.004 C 
ENDBRANCH   9  10
ENDBRANCH   8   9
ENDBRANCH   7   8
ENDBRANCH   1   7
TORSDOF 7
ENDMDL
MODEL 5
REMARK VINA RESULT:    -4.135      1.758      2.436
REMARK INTER + INTRA:          -6.545
REMARK INTER:                  -6.034
REMARK INTRA:                  -0.511
REMARK UNBOUND:                -0.718
REMARK SMILES CCCCCCCCC(=O)[O-]
REMARK SMILES IDX 6 1 7 2 8 3 9 4 10 5 11 6 5 7 4 8 3 9 2 10 1 11
REMARK H PARENT
REMARK Flexibility Score: inf
ROOT
ATOM      1  C   UNL     1      47.237  12.297  -5.470  1.00  0.00     0.000 C 
ENDROOT
BRANCH   1   2
ATOM      2  C   UNL     1      47.441  12.341  -6.995  1.00  0.00     0.006 C 
BRANCH   2   3
ATOM      3  C   UNL     1      46.235  12.888  -7.775  1.00  0.00     0.053 C 
BRANCH   3   4
ATOM      4  C   UNL     1      46.134  12.289  -9.144  1.00  0.00     0.041 C 
ATOM      5  O   UNL     1      47.172  12.098  -9.831  1.00  0.00    -0.550 OA
ATOM      6  O   UNL     1      44.890  11.973  -9.675  1.00  0.00    -0.550 OA
ENDBRANCH   3   4
ENDBRANCH   2   3
ENDBRANCH   1   2
BRANCH   1   7
ATOM      7  C   UNL     1      48.473  11.767  -4.721  1.00  0.00     0.000 C 
BRANCH   7   8
ATOM      8  C   UNL     1      49.727  11.716  -5.608  1.00  0.00    -0.000 C 
BRANCH   8   9
ATOM      9  C   UNL     1      50.254  10.283  -5.801  1.00  0.00    -0.000 C 
BRANCH   9  10
ATOM     10  C   UNL     1      50.143   9.807  -7.259  1.00  0.00    -0.003 C 
ATOM     11  C   UNL     1      48.945   8.888  -7.494  1.00  0.00     0.004 C 
ENDBRANCH   9  10
ENDBRANCH   8   9
ENDBRANCH   7   8
ENDBRANCH   1   7
TORSDOF 7
ENDMDL
MODEL 6
REMARK VINA RESULT:    -4.102      2.570      3.309
REMARK INTER + INTRA:          -6.499
REMARK INTER:                  -5.807
REMARK INTRA:                  -0.693
REMARK UNBOUND:                -0.718
REMARK SMILES CCCCCCCCC(=O)[O-]
REMARK SMILES IDX 6 1 7 2 8 3 9 4 10 5 11 6 5 7 4 8 3 9 2 10 1 11
REMARK H PARENT
REMARK Flexibility Score: inf
ROOT
ATOM      1  C   UNL     1      48.723  11.222  -4.445  1.00  0.00     0.000 C 
ENDROOT
BRANCH   1   2
ATOM      2  C   UNL     1      47.979  12.436  -5.031  1.00  0.00     0.006 C 
BRANCH   2   3
ATOM      3  C   UNL     1      46.745  12.073  -5.871  1.00  0.00     0.053 C 
BRANCH   3   4
ATOM      4  C   UNL     1      46.844  12.597  -7.270  1.00  0.00     0.041 C 
ATOM      5  O   UNL     1      45.913  13.291  -7.756  1.00  0.00    -0.550 OA
ATOM      6  O   UNL     1      47.953  12.290  -8.050  1.00  0.00    -0.550 OA
ENDBRANCH   3   4
ENDBRANCH   2   3
ENDBRANCH   1   2
BRANCH   1   7
ATOM      7  C   UNL     1      50.113  11.018  -5.071  1.00  0.00     0.000 C 
BRANCH   7   8
ATOM      8  C   UNL     1      50.272   9.636  -5.724  1.00  0.00    -0.000 C 
BRANCH   8   9
ATOM      9  C   UNL     1      49.988   9.662  -7.237  1.00  0.00    -0.000 C 
BRANCH   9  10
ATOM     10  C   UNL     1      49.121   8.477  -7.692  1.00  0.00    -0.003 C 
ATOM     11  C   UNL     1      47.623   8.754  -7.564  1.00  0.00     0.004 C 
ENDBRANCH   9  10
ENDBRANCH   8   9
ENDBRANCH   7   8
ENDBRANCH   1   7
TORSDOF 7
ENDMDL
MODEL 7
REMARK VINA RESULT:    -4.096     21.552     22.932
REMARK INTER + INTRA:          -6.491
REMARK INTER:                  -5.690
REMARK INTRA:                  -0.800
REMARK UNBOUND:                -0.718
REMARK SMILES CCCCCCCCC(=O)[O-]
REMARK SMILES IDX 6 1 7 2 8 3 9 4 10 5 11 6 5 7 4 8 3 9 2 10 1 11
REMARK H PARENT
REMARK Flexibility Score: inf
ROOT
ATOM      1  C   UNL     1      33.923  -0.328   7.251  1.00  0.00     0.000 C 
ENDROOT
BRANCH   1   2
ATOM      2  C   UNL     1      33.236   0.759   8.098  1.00  0.00     0.006 C 
BRANCH   2   3
ATOM      3  C   UNL     1      34.209   1.725   8.792  1.00  0.00     0.053 C 
BRANCH   3   4
ATOM      4  C   UNL     1      34.420   2.977   7.997  1.00  0.00     0.041 C 
ATOM      5  O   UNL     1      33.531   3.381   7.203  1.00  0.00    -0.550 OA
ATOM      6  O   UNL     1      35.614   3.678   8.109  1.00  0.00    -0.550 OA
ENDBRANCH   3   4
ENDBRANCH   2   3
ENDBRANCH   1   2
BRANCH   1   7
ATOM      7  C   UNL     1      34.102   0.090   5.781  1.00  0.00     0.000 C 
BRANCH   7   8
ATOM      8  C   UNL     1      35.578   0.139   5.354  1.00  0.00    -0.000 C 
BRANCH   8   9
ATOM      9  C   UNL     1      36.523  -0.417   6.434  1.00  0.00    -0.000 C 
BRANCH   9  10
ATOM     10  C   UNL     1      37.537   0.630   6.924  1.00  0.00    -0.003 C 
ATOM     11  C   UNL     1      37.676   1.814   5.968  1.00  0.00     0.004 C 
ENDBRANCH   9  10
ENDBRANCH   8   9
ENDBRANCH   7   8
ENDBRANCH   1   7
TORSDOF 7
ENDMDL
MODEL 8
REMARK VINA RESULT:    -4.093      1.309      2.650
REMARK INTER + INTRA:          -6.486
REMARK INTER:                  -5.873
REMARK INTRA:                  -0.613
REMARK UNBOUND:                -0.718
REMARK SMILES CCCCCCCCC(=O)[O-]
REMARK SMILES IDX 6 1 7 2 8 3 9 4 10 5 11 6 5 7 4 8 3 9 2 10 1 11
REMARK H PARENT
REMARK Flexibility Score: inf
ROOT
ATOM      1  C   UNL     1      47.834   9.746  -8.495  1.00  0.00     0.000 C 
ENDROOT
BRANCH   1   2
ATOM      2  C   UNL     1      48.349  11.104  -9.007  1.00  0.00     0.006 C 
BRANCH   2   3
ATOM      3  C   UNL     1      47.396  11.812  -9.982  1.00  0.00     0.053 C 
BRANCH   3   4
ATOM      4  C   UNL     1      46.097  12.177  -9.332  1.00  0.00     0.041 C 
ATOM      5  O   UNL     1      45.008  11.792  -9.831  1.00  0.00    -0.550 OA
ATOM      6  O   UNL     1      46.090  12.971  -8.192  1.00  0.00    -0.550 OA
ENDBRANCH   3   4
ENDBRANCH   2   3
ENDBRANCH   1   2
BRANCH   1   7
ATOM      7  C   UNL     1      48.917   8.939  -7.759  1.00  0.00     0.000 C 
BRANCH   7   8
ATOM      8  C   UNL     1      50.111   9.805  -7.327  1.00  0.00    -0.000 C 
BRANCH   8   9
ATOM      9  C   UNL     1      50.112  10.097  -5.816  1.00  0.00    -0.000 C 
BRANCH   9  10
ATOM     10  C   UNL     1      49.982  11.598  -5.507  1.00  0.00    -0.003 C 
ATOM     11  C   UNL     1      48.548  12.016  -5.186  1.00  0.00     0.004 C 
ENDBRANCH   9  10
ENDBRANCH   8   9
ENDBRANCH   7   8
ENDBRANCH   1   7
TORSDOF 7
ENDMDL
MODEL 9
REMARK VINA RESULT:    -4.062     21.154     22.043
REMARK INTER + INTRA:          -6.443
REMARK INTER:                  -5.698
REMARK INTRA:                  -0.745
REMARK UNBOUND:                -0.718
REMARK SMILES CCCCCCCCC(=O)[O-]
REMARK SMILES IDX 6 1 7 2 8 3 9 4 10 5 11 6 5 7 4 8 3 9 2 10 1 11
REMARK H PARENT
REMARK Flexibility Score: inf
ROOT
ATOM      1  C   UNL     1      37.211   0.302   5.850  1.00  0.00     0.000 C 
ENDROOT
BRANCH   1   2
ATOM      2  C   UNL     1      37.358   1.297   7.017  1.00  0.00     0.006 C 
BRANCH   2   3
ATOM      3  C   UNL     1      36.674   2.652   6.777  1.00  0.00     0.053 C 
BRANCH   3   4
ATOM      4  C   UNL     1      35.455   2.823   7.630  1.00  0.00     0.041 C 
ATOM      5  O   UNL     1      35.013   1.858   8.307  1.00  0.00    -0.550 OA
ATOM      6  O   UNL     1      34.788   4.042   7.652  1.00  0.00    -0.550 OA
ENDBRANCH   3   4
ENDBRANCH   2   3
ENDBRANCH   1   2
BRANCH   1   7
ATOM      7  C   UNL     1      36.106  -0.740   6.095  1.00  0.00     0.000 C 
BRANCH   7   8
ATOM      8  C   UNL     1      34.772  -0.356   5.435  1.00  0.00    -0.000 C 
BRANCH   8   9
ATOM      9  C   UNL     1      34.757  -0.645   3.923  1.00  0.00    -0.000 C 
BRANCH   9  10
ATOM     10  C   UNL     1      34.646   0.636   3.081  1.00  0.00    -0.003 C 
ATOM     11  C   UNL     1      34.338   1.874   3.921  1.00  0.00     0.004 C 
ENDBRANCH   9  10
ENDBRANCH   8   9
ENDBRANCH   7   8
ENDBRANCH   1   7
TORSDOF 7
ENDMDL
