MODEL 1
REMARK VINA RESULT:    -4.703      0.000      0.000
REMARK INTER + INTRA:         -18.511
REMARK INTER:                 -12.400
REMARK INTRA:                  -6.111
REMARK UNBOUND:                -6.111
REMARK SMILES CCCCCCCCCCCCCCCCCCCCCCCCCCCCCC(=O)[O-]
REMARK SMILES IDX 16 1 17 2 18 3 19 4 20 5 21 6 22 7 23 8 24 9 25 10 26 11
REMARK SMILES IDX 27 12 28 13 29 14 30 15 31 16 32 17 15 18 14 19 13 20 12 21
REMARK SMILES IDX 11 22 10 23 9 24 8 25 7 26 6 27 5 28 4 29 3 30 2 31 1 32
REMARK H PARENT
REMARK Flexibility Score: inf
ROOT
ATOM      1  C   UNL     1      49.293  44.536  36.983  1.00  0.00     0.000 C 
ENDROOT
BRANCH   1   2
ATOM      2  C   UNL     1      49.901  43.702  35.843  1.00  0.00     0.000 C 
BRANCH   2   3
ATOM      3  C   UNL     1      48.996  43.650  34.597  1.00  0.00     0.000 C 
BRANCH   3   4
ATOM      4  C   UNL     1      48.184  44.948  34.397  1.00  0.00     0.000 C 
BRANCH   4   5
ATOM      5  C   UNL     1      46.823  44.730  33.716  1.00  0.00     0.000 C 
BRANCH   5   6
ATOM      6  C   UNL     1      45.655  45.329  34.516  1.00  0.00     0.000 C 
BRANCH   6   7
ATOM      7  C   UNL     1      46.071  45.818  35.914  1.00  0.00     0.000 C 
BRANCH   7   8
ATOM      8  C   UNL     1      45.665  47.266  36.251  1.00  0.00     0.000 C 
BRANCH   8   9
ATOM      9  C   UNL     1      46.810  48.293  36.093  1.00  0.00     0.000 C 
BRANCH   9  10
ATOM     10  C   UNL     1      47.997  48.041  37.040  1.00  0.00     0.000 C 
BRANCH  10  11
ATOM     11  C   UNL     1      47.626  48.275  38.517  1.00  0.00     0.000 C 
BRANCH  11  12
ATOM     12  C   UNL     1      47.898  47.041  39.391  1.00  0.00     0.000 C 
BRANCH  12  13
ATOM     13  C   UNL     1      46.819  46.826  40.466  1.00  0.00     0.006 C 
BRANCH  13  14
ATOM     14  C   UNL     1      45.403  46.893  39.881  1.00  0.00     0.053 C 
BRANCH  14  15
ATOM     15  C   UNL     1      44.706  45.568  39.966  1.00  0.00     0.041 C 
ATOM     16  O   UNL     1      45.124  44.586  39.297  1.00  0.00    -0.550 OA
ATOM     17  O   UNL     1      43.614  45.411  40.811  1.00  0.00    -0.550 OA
ENDBRANCH  14  15
ENDBRANCH  13  14
ENDBRANCH  12  13
ENDBRANCH  11  12
ENDBRANCH  10  11
ENDBRANCH   9  10
ENDBRANCH   8   9
ENDBRANCH   7   8
ENDBRANCH   6   7
ENDBRANCH   5   6
ENDBRANCH   4   5
ENDBRANCH   3   4
ENDBRANCH   2   3
ENDBRANCH   1   2
BRANCH   1  18
ATOM     18  C   UNL     1      48.733  43.666  38.123  1.00  0.00     0.000 C 
BRANCH  18  19
ATOM     19  C   UNL     1      49.551  42.382  38.339  1.00  0.00     0.000 C 
BRANCH  19  20
ATOM     20  C   UNL     1      48.791  41.316  39.142  1.00  0.00     0.000 C 
BRANCH  20  21
ATOM     21  C   UNL     1      48.497  40.088  38.267  1.00  0.00     0.000 C 
BRANCH  21  22
ATOM     22  C   UNL     1      48.622  40.383  36.762  1.00  0.00     0.000 C 
BRANCH  22  23
ATOM     23  C   UNL     1      47.382  39.927  35.973  1.00  0.00     0.000 C 
BRANCH  23  24
ATOM     24  C   UNL     1      46.639  41.092  35.291  1.00  0.00    -0.000 C 
BRANCH  24  25
ATOM     25  C   UNL     1      45.669  41.876  36.196  1.00  0.00    -0.000 C 
BRANCH  25  26
ATOM     26  C   UNL     1      44.782  40.962  37.060  1.00  0.00    -0.000 C 
BRANCH  26  27
ATOM     27  C   UNL     1      44.996  41.180  38.567  1.00  0.00    -0.000 C 
BRANCH  27  28
ATOM     28  C   UNL     1      44.818  39.885  39.379  1.00  0.00    -0.000 C 
BRANCH  28  29
ATOM     29  C   UNL     1      44.982  38.622  38.519  1.00  0.00    -0.000 C 
BRANCH  29  30
ATOM     30  C   UNL     1      45.991  37.627  39.113  1.00  0.00    -0.000 C 
BRANCH  30  31
ATOM     31  C   UNL     1      46.413  36.584  38.071  1.00  0.00    -0.003 C 
ATOM     32  C   UNL     1      45.734  36.841  36.728  1.00  0.00     0.004 C 
ENDBRANCH  30  31
ENDBRANCH  29  30
ENDBRANCH  28  29
ENDBRANCH  27  28
ENDBRANCH  26  27
ENDBRANCH  25  26
ENDBRANCH  24  25
ENDBRANCH  23  24
ENDBRANCH  22  23
ENDBRANCH  21  22
ENDBRANCH  20  21
ENDBRANCH  19  20
ENDBRANCH  18  19
ENDBRANCH   1  18
TORSDOF 28
ENDMDL
MODEL 2
REMARK VINA RESULT:    -4.631      1.119      2.242
REMARK INTER + INTRA:         -18.322
REMARK INTER:                 -12.325
REMARK INTRA:                  -5.997
REMARK UNBOUND:                -6.111
REMARK SMILES CCCCCCCCCCCCCCCCCCCCCCCCCCCCCC(=O)[O-]
REMARK SMILES IDX 16 1 17 2 18 3 19 4 20 5 21 6 22 7 23 8 24 9 25 10 26 11
REMARK SMILES IDX 27 12 28 13 29 14 30 15 31 16 32 17 15 18 14 19 13 20 12 21
REMARK SMILES IDX 11 22 10 23 9 24 8 25 7 26 6 27 5 28 4 29 3 30 2 31 1 32
REMARK H PARENT
REMARK Flexibility Score: inf
ROOT
ATOM      1  C   UNL     1      49.480  44.098  36.520  1.00  0.00     0.000 C 
ENDROOT
BRANCH   1   2
ATOM      2  C   UNL     1      49.746  43.211  35.293  1.00  0.00     0.000 C 
BRANCH   2   3
ATOM      3  C   UNL     1      48.741  43.458  34.151  1.00  0.00     0.000 C 
BRANCH   3   4
ATOM      4  C   UNL     1      47.903  44.737  34.363  1.00  0.00     0.000 C 
BRANCH   4   5
ATOM      5  C   UNL     1      46.462  44.630  33.838  1.00  0.00     0.000 C 
BRANCH   5   6
ATOM      6  C   UNL     1      45.518  45.662  34.475  1.00  0.00     0.000 C 
BRANCH   6   7
ATOM      7  C   UNL     1      46.091  46.291  35.757  1.00  0.00     0.000 C 
BRANCH   7   8
ATOM      8  C   UNL     1      45.871  47.810  35.899  1.00  0.00     0.000 C 
BRANCH   8   9
ATOM      9  C   UNL     1      47.051  48.556  36.565  1.00  0.00     0.000 C 
BRANCH   9  10
ATOM     10  C   UNL     1      48.339  47.716  36.652  1.00  0.00     0.000 C 
BRANCH  10  11
ATOM     11  C   UNL     1      48.756  47.436  38.108  1.00  0.00     0.000 C 
BRANCH  11  12
ATOM     12  C   UNL     1      47.784  48.055  39.124  1.00  0.00     0.000 C 
BRANCH  12  13
ATOM     13  C   UNL     1      47.177  47.010  40.077  1.00  0.00     0.006 C 
BRANCH  13  14
ATOM     14  C   UNL     1      45.725  46.676  39.713  1.00  0.00     0.053 C 
BRANCH  14  15
ATOM     15  C   UNL     1      44.932  46.270  40.918  1.00  0.00     0.041 C 
ATOM     16  O   UNL     1      45.295  46.629  42.069  1.00  0.00    -0.550 OA
ATOM     17  O   UNL     1      43.770  45.522  40.765  1.00  0.00    -0.550 OA
ENDBRANCH  14  15
ENDBRANCH  13  14
ENDBRANCH  12  13
ENDBRANCH  11  12
ENDBRANCH  10  11
ENDBRANCH   9  10
ENDBRANCH   8   9
ENDBRANCH   7   8
ENDBRANCH   6   7
ENDBRANCH   5   6
ENDBRANCH   4   5
ENDBRANCH   3   4
ENDBRANCH   2   3
ENDBRANCH   1   2
BRANCH   1  18
ATOM     18  C   UNL     1      48.979  43.296  37.736  1.00  0.00     0.000 C 
BRANCH  18  19
ATOM     19  C   UNL     1      47.716  43.908  38.364  1.00  0.00     0.000 C 
BRANCH  19  20
ATOM     20  C   UNL     1      46.419  43.298  37.813  1.00  0.00     0.000 C 
BRANCH  20  21
ATOM     21  C   UNL     1      46.693  41.923  37.185  1.00  0.00     0.000 C 
BRANCH  21  22
ATOM     22  C   UNL     1      45.996  41.737  35.826  1.00  0.00     0.000 C 
BRANCH  22  23
ATOM     23  C   UNL     1      46.421  40.434  35.126  1.00  0.00     0.000 C 
BRANCH  23  24
ATOM     24  C   UNL     1      47.559  39.698  35.858  1.00  0.00    -0.000 C 
BRANCH  24  25
ATOM     25  C   UNL     1      47.303  38.205  36.143  1.00  0.00    -0.000 C 
BRANCH  25  26
ATOM     26  C   UNL     1      45.836  37.905  36.499  1.00  0.00    -0.000 C 
BRANCH  26  27
ATOM     27  C   UNL     1      45.696  37.067  37.781  1.00  0.00    -0.000 C 
BRANCH  27  28
ATOM     28  C   UNL     1      46.225  37.803  39.024  1.00  0.00    -0.000 C 
BRANCH  28  29
ATOM     29  C   UNL     1      45.655  39.224  39.154  1.00  0.00    -0.000 C 
BRANCH  29  30
ATOM     30  C   UNL     1      44.236  39.243  39.743  1.00  0.00    -0.000 C 
BRANCH  30  31
ATOM     31  C   UNL     1      43.390  40.351  39.105  1.00  0.00    -0.003 C 
ATOM     32  C   UNL     1      43.335  40.197  37.587  1.00  0.00     0.004 C 
ENDBRANCH  30  31
ENDBRANCH  29  30
ENDBRANCH  28  29
ENDBRANCH  27  28
ENDBRANCH  26  27
ENDBRANCH  25  26
ENDBRANCH  24  25
ENDBRANCH  23  24
ENDBRANCH  22  23
ENDBRANCH  21  22
ENDBRANCH  20  21
ENDBRANCH  19  20
ENDBRANCH  18  19
ENDBRANCH   1  18
TORSDOF 28
ENDMDL
MODEL 3
REMARK VINA RESULT:    -4.621      1.605      3.074
REMARK INTER + INTRA:         -18.296
REMARK INTER:                 -13.106
REMARK INTRA:                  -5.190
REMARK UNBOUND:                -6.111
REMARK SMILES CCCCCCCCCCCCCCCCCCCCCCCCCCCCCC(=O)[O-]
REMARK SMILES IDX 16 1 17 2 18 3 19 4 20 5 21 6 22 7 23 8 24 9 25 10 26 11
REMARK SMILES IDX 27 12 28 13 29 14 30 15 31 16 32 17 15 18 14 19 13 20 12 21
REMARK SMILES IDX 11 22 10 23 9 24 8 25 7 26 6 27 5 28 4 29 3 30 2 31 1 32
REMARK H PARENT
REMARK Flexibility Score: inf
ROOT
ATOM      1  C   UNL     1      46.462  43.294  34.939  1.00  0.00     0.000 C 
ENDROOT
BRANCH   1   2
ATOM      2  C   UNL     1      46.383  44.447  33.924  1.00  0.00     0.000 C 
BRANCH   2   3
ATOM      3  C   UNL     1      45.562  45.642  34.445  1.00  0.00     0.000 C 
BRANCH   3   4
ATOM      4  C   UNL     1      46.010  46.105  35.848  1.00  0.00     0.000 C 
BRANCH   4   5
ATOM      5  C   UNL     1      47.296  46.949  35.843  1.00  0.00     0.000 C 
BRANCH   5   6
ATOM      6  C   UNL     1      48.076  46.852  37.164  1.00  0.00     0.000 C 
BRANCH   6   7
ATOM      7  C   UNL     1      48.704  48.190  37.591  1.00  0.00     0.000 C 
BRANCH   7   8
ATOM      8  C   UNL     1      47.867  49.443  37.264  1.00  0.00     0.000 C 
BRANCH   8   9
ATOM      9  C   UNL     1      46.799  49.780  38.331  1.00  0.00     0.000 C 
BRANCH   9  10
ATOM     10  C   UNL     1      45.423  50.127  37.735  1.00  0.00     0.000 C 
BRANCH  10  11
ATOM     11  C   UNL     1      44.558  48.874  37.495  1.00  0.00     0.000 C 
BRANCH  11  12
ATOM     12  C   UNL     1      44.096  48.223  38.807  1.00  0.00     0.000 C 
BRANCH  12  13
ATOM     13  C   UNL     1      44.697  46.822  39.019  1.00  0.00     0.006 C 
BRANCH  13  14
ATOM     14  C   UNL     1      44.680  46.407  40.495  1.00  0.00     0.053 C 
BRANCH  14  15
ATOM     15  C   UNL     1      46.002  46.656  41.156  1.00  0.00     0.041 C 
ATOM     16  O   UNL     1      47.052  46.741  40.465  1.00  0.00    -0.550 OA
ATOM     17  O   UNL     1      46.069  46.830  42.533  1.00  0.00    -0.550 OA
ENDBRANCH  14  15
ENDBRANCH  13  14
ENDBRANCH  12  13
ENDBRANCH  11  12
ENDBRANCH  10  11
ENDBRANCH   9  10
ENDBRANCH   8   9
ENDBRANCH   7   8
ENDBRANCH   6   7
ENDBRANCH   5   6
ENDBRANCH   4   5
ENDBRANCH   3   4
ENDBRANCH   2   3
ENDBRANCH   1   2
BRANCH   1  18
ATOM     18  C   UNL     1      47.804  42.541  34.879  1.00  0.00     0.000 C 
BRANCH  18  19
ATOM     19  C   UNL     1      48.989  43.474  34.579  1.00  0.00     0.000 C 
BRANCH  19  20
ATOM     20  C   UNL     1      49.736  43.918  35.845  1.00  0.00     0.000 C 
BRANCH  20  21
ATOM     21  C   UNL     1      49.891  42.742  36.821  1.00  0.00     0.000 C 
BRANCH  21  22
ATOM     22  C   UNL     1      49.442  43.089  38.251  1.00  0.00     0.000 C 
BRANCH  22  23
ATOM     23  C   UNL     1      48.009  42.610  38.546  1.00  0.00     0.000 C 
BRANCH  23  24
ATOM     24  C   UNL     1      46.973  43.750  38.514  1.00  0.00    -0.000 C 
BRANCH  24  25
ATOM     25  C   UNL     1      45.500  43.304  38.596  1.00  0.00    -0.000 C 
BRANCH  25  26
ATOM     26  C   UNL     1      45.323  41.783  38.448  1.00  0.00    -0.000 C 
BRANCH  26  27
ATOM     27  C   UNL     1      43.852  41.344  38.544  1.00  0.00    -0.000 C 
BRANCH  27  28
ATOM     28  C   UNL     1      43.704  39.877  38.984  1.00  0.00    -0.000 C 
BRANCH  28  29
ATOM     29  C   UNL     1      44.878  39.402  39.855  1.00  0.00    -0.000 C 
BRANCH  29  30
ATOM     30  C   UNL     1      45.348  37.984  39.495  1.00  0.00    -0.000 C 
BRANCH  30  31
ATOM     31  C   UNL     1      46.243  38.000  38.251  1.00  0.00    -0.003 C 
ATOM     32  C   UNL     1      45.805  36.940  37.243  1.00  0.00     0.004 C 
ENDBRANCH  30  31
ENDBRANCH  29  30
ENDBRANCH  28  29
ENDBRANCH  27  28
ENDBRANCH  26  27
ENDBRANCH  25  26
ENDBRANCH  24  25
ENDBRANCH  23  24
ENDBRANCH  22  23
ENDBRANCH  21  22
ENDBRANCH  20  21
ENDBRANCH  19  20
ENDBRANCH  18  19
ENDBRANCH   1  18
TORSDOF 28
ENDMDL
MODEL 4
REMARK VINA RESULT:    -4.618      1.500      3.148
REMARK INTER + INTRA:         -18.288
REMARK INTER:                 -12.758
REMARK INTRA:                  -5.531
REMARK UNBOUND:                -6.111
REMARK SMILES CCCCCCCCCCCCCCCCCCCCCCCCCCCCCC(=O)[O-]
REMARK SMILES IDX 16 1 17 2 18 3 19 4 20 5 21 6 22 7 23 8 24 9 25 10 26 11
REMARK SMILES IDX 27 12 28 13 29 14 30 15 31 16 32 17 15 18 14 19 13 20 12 21
REMARK SMILES IDX 11 22 10 23 9 24 8 25 7 26 6 27 5 28 4 29 3 30 2 31 1 32
REMARK H PARENT
REMARK Flexibility Score: inf
ROOT
ATOM      1  C   UNL     1      48.414  41.458  38.872  1.00  0.00     0.000 C 
ENDROOT
BRANCH   1   2
ATOM      2  C   UNL     1      49.520  42.478  38.554  1.00  0.00     0.000 C 
BRANCH   2   3
ATOM      3  C   UNL     1      48.965  43.886  38.265  1.00  0.00     0.000 C 
BRANCH   3   4
ATOM      4  C   UNL     1      47.540  43.854  37.673  1.00  0.00     0.000 C 
BRANCH   4   5
ATOM      5  C   UNL     1      47.455  44.375  36.229  1.00  0.00     0.000 C 
BRANCH   5   6
ATOM      6  C   UNL     1      46.075  44.960  35.888  1.00  0.00     0.000 C 
BRANCH   6   7
ATOM      7  C   UNL     1      46.122  46.463  35.562  1.00  0.00     0.000 C 
BRANCH   7   8
ATOM      8  C   UNL     1      47.343  47.218  36.122  1.00  0.00     0.000 C 
BRANCH   8   9
ATOM      9  C   UNL     1      47.072  48.710  36.430  1.00  0.00     0.000 C 
BRANCH   9  10
ATOM     10  C   UNL     1      45.579  49.039  36.609  1.00  0.00     0.000 C 
BRANCH  10  11
ATOM     11  C   UNL     1      45.180  49.158  38.092  1.00  0.00     0.000 C 
BRANCH  11  12
ATOM     12  C   UNL     1      43.953  48.301  38.438  1.00  0.00     0.000 C 
BRANCH  12  13
ATOM     13  C   UNL     1      44.223  47.311  39.584  1.00  0.00     0.006 C 
BRANCH  13  14
ATOM     14  C   UNL     1      45.395  46.373  39.267  1.00  0.00     0.053 C 
BRANCH  14  15
ATOM     15  C   UNL     1      46.579  46.652  40.143  1.00  0.00     0.041 C 
ATOM     16  O   UNL     1      47.699  46.916  39.633  1.00  0.00    -0.550 OA
ATOM     17  O   UNL     1      46.435  46.654  41.526  1.00  0.00    -0.550 OA
ENDBRANCH  14  15
ENDBRANCH  13  14
ENDBRANCH  12  13
ENDBRANCH  11  12
ENDBRANCH  10  11
ENDBRANCH   9  10
ENDBRANCH   8   9
ENDBRANCH   7   8
ENDBRANCH   6   7
ENDBRANCH   5   6
ENDBRANCH   4   5
ENDBRANCH   3   4
ENDBRANCH   2   3
ENDBRANCH   1   2
BRANCH   1  18
ATOM     18  C   UNL     1      48.512  40.188  38.007  1.00  0.00     0.000 C 
BRANCH  18  19
ATOM     19  C   UNL     1      48.417  40.492  36.502  1.00  0.00     0.000 C 
BRANCH  19  20
ATOM     20  C   UNL     1      47.255  39.756  35.816  1.00  0.00     0.000 C 
BRANCH  20  21
ATOM     21  C   UNL     1      46.261  40.760  35.214  1.00  0.00     0.000 C 
BRANCH  21  22
ATOM     22  C   UNL     1      45.319  41.371  36.264  1.00  0.00     0.000 C 
BRANCH  22  23
ATOM     23  C   UNL     1      44.768  40.316  37.240  1.00  0.00     0.000 C 
BRANCH  23  24
ATOM     24  C   UNL     1      44.779  40.786  38.707  1.00  0.00    -0.000 C 
BRANCH  24  25
ATOM     25  C   UNL     1      45.257  39.738  39.731  1.00  0.00    -0.000 C 
BRANCH  25  26
ATOM     26  C   UNL     1      45.174  38.297  39.200  1.00  0.00    -0.000 C 
BRANCH  26  27
ATOM     27  C   UNL     1      46.510  37.544  39.314  1.00  0.00    -0.000 C 
BRANCH  27  28
ATOM     28  C   UNL     1      46.798  36.669  38.081  1.00  0.00    -0.000 C 
BRANCH  28  29
ATOM     29  C   UNL     1      45.665  36.719  37.045  1.00  0.00    -0.000 C 
BRANCH  29  30
ATOM     30  C   UNL     1      46.113  36.251  35.652  1.00  0.00    -0.000 C 
BRANCH  30  31
ATOM     31  C   UNL     1      47.613  35.929  35.636  1.00  0.00    -0.003 C 
ATOM     32  C   UNL     1      48.248  36.329  34.307  1.00  0.00     0.004 C 
ENDBRANCH  30  31
ENDBRANCH  29  30
ENDBRANCH  28  29
ENDBRANCH  27  28
ENDBRANCH  26  27
ENDBRANCH  25  26
ENDBRANCH  24  25
ENDBRANCH  23  24
ENDBRANCH  22  23
ENDBRANCH  21  22
ENDBRANCH  20  21
ENDBRANCH  19  20
ENDBRANCH  18  19
ENDBRANCH   1  18
TORSDOF 28
ENDMDL
MODEL 5
REMARK VINA RESULT:    -4.605      2.033      3.157
REMARK INTER + INTRA:         -18.255
REMARK INTER:                 -12.556
REMARK INTRA:                  -5.698
REMARK UNBOUND:                -6.111
REMARK SMILES CCCCCCCCCCCCCCCCCCCCCCCCCCCCCC(=O)[O-]
REMARK SMILES IDX 16 1 17 2 18 3 19 4 20 5 21 6 22 7 23 8 24 9 25 10 26 11
REMARK SMILES IDX 27 12 28 13 29 14 30 15 31 16 32 17 15 18 14 19 13 20 12 21
REMARK SMILES IDX 11 22 10 23 9 24 8 25 7 26 6 27 5 28 4 29 3 30 2 31 1 32
REMARK H PARENT
REMARK Flexibility Score: inf
ROOT
ATOM      1  C   UNL     1      48.955  43.299  34.426  1.00  0.00     0.000 C 
ENDROOT
BRANCH   1   2
ATOM      2  C   UNL     1      48.712  44.493  33.488  1.00  0.00     0.000 C 
BRANCH   2   3
ATOM      3  C   UNL     1      47.215  44.774  33.260  1.00  0.00     0.000 C 
BRANCH   3   4
ATOM      4  C   UNL     1      46.344  44.378  34.471  1.00  0.00     0.000 C 
BRANCH   4   5
ATOM      5  C   UNL     1      46.144  45.512  35.491  1.00  0.00     0.000 C 
BRANCH   5   6
ATOM      6  C   UNL     1      46.820  45.224  36.841  1.00  0.00     0.000 C 
BRANCH   6   7
ATOM      7  C   UNL     1      47.954  46.212  37.169  1.00  0.00     0.000 C 
BRANCH   7   8
ATOM      8  C   UNL     1      48.183  46.472  38.671  1.00  0.00     0.000 C 
BRANCH   8   9
ATOM      9  C   UNL     1      47.138  45.800  39.592  1.00  0.00     0.000 C 
BRANCH   9  10
ATOM     10  C   UNL     1      46.159  46.796  40.240  1.00  0.00     0.000 C 
BRANCH  10  11
ATOM     11  C   UNL     1      44.702  46.549  39.805  1.00  0.00     0.000 C 
BRANCH  11  12
ATOM     12  C   UNL     1      44.077  47.780  39.130  1.00  0.00     0.000 C 
BRANCH  12  13
ATOM     13  C   UNL     1      44.785  48.161  37.819  1.00  0.00     0.006 C 
BRANCH  13  14
ATOM     14  C   UNL     1      45.263  49.618  37.827  1.00  0.00     0.053 C 
BRANCH  14  15
ATOM     15  C   UNL     1      46.675  49.740  37.340  1.00  0.00     0.041 C 
ATOM     16  O   UNL     1      47.589  50.107  38.125  1.00  0.00    -0.550 OA
ATOM     17  O   UNL     1      46.988  49.414  36.026  1.00  0.00    -0.550 OA
ENDBRANCH  14  15
ENDBRANCH  13  14
ENDBRANCH  12  13
ENDBRANCH  11  12
ENDBRANCH  10  11
ENDBRANCH   9  10
ENDBRANCH   8   9
ENDBRANCH   7   8
ENDBRANCH   6   7
ENDBRANCH   5   6
ENDBRANCH   4   5
ENDBRANCH   3   4
ENDBRANCH   2   3
ENDBRANCH   1   2
BRANCH   1  18
ATOM     18  C   UNL     1      49.986  43.609  35.528  1.00  0.00     0.000 C 
BRANCH  18  19
ATOM     19  C   UNL     1      50.062  42.500  36.590  1.00  0.00     0.000 C 
BRANCH  19  20
ATOM     20  C   UNL     1      49.627  42.977  37.984  1.00  0.00     0.000 C 
BRANCH  20  21
ATOM     21  C   UNL     1      48.375  42.219  38.448  1.00  0.00     0.000 C 
BRANCH  21  22
ATOM     22  C   UNL     1      47.827  41.259  37.378  1.00  0.00     0.000 C 
BRANCH  22  23
ATOM     23  C   UNL     1      46.349  41.532  37.050  1.00  0.00     0.000 C 
BRANCH  23  24
ATOM     24  C   UNL     1      45.617  42.310  38.161  1.00  0.00    -0.000 C 
BRANCH  24  25
ATOM     25  C   UNL     1      44.255  41.730  38.586  1.00  0.00    -0.000 C 
BRANCH  25  26
ATOM     26  C   UNL     1      44.157  40.209  38.372  1.00  0.00    -0.000 C 
BRANCH  26  27
ATOM     27  C   UNL     1      43.775  39.453  39.656  1.00  0.00    -0.000 C 
BRANCH  27  28
ATOM     28  C   UNL     1      44.922  38.573  40.183  1.00  0.00    -0.000 C 
BRANCH  28  29
ATOM     29  C   UNL     1      46.166  38.624  39.282  1.00  0.00    -0.000 C 
BRANCH  29  30
ATOM     30  C   UNL     1      46.613  37.232  38.808  1.00  0.00    -0.000 C 
BRANCH  30  31
ATOM     31  C   UNL     1      45.761  36.753  37.627  1.00  0.00    -0.003 C 
ATOM     32  C   UNL     1      45.926  37.674  36.419  1.00  0.00     0.004 C 
ENDBRANCH  30  31
ENDBRANCH  29  30
ENDBRANCH  28  29
ENDBRANCH  27  28
ENDBRANCH  26  27
ENDBRANCH  25  26
ENDBRANCH  24  25
ENDBRANCH  23  24
ENDBRANCH  22  23
ENDBRANCH  21  22
ENDBRANCH  20  21
ENDBRANCH  19  20
ENDBRANCH  18  19
ENDBRANCH   1  18
TORSDOF 28
ENDMDL
MODEL 6
REMARK VINA RESULT:    -4.604      2.439      7.651
REMARK INTER + INTRA:         -18.252
REMARK INTER:                 -12.775
REMARK INTRA:                  -5.476
REMARK UNBOUND:                -6.111
REMARK SMILES CCCCCCCCCCCCCCCCCCCCCCCCCCCCCC(=O)[O-]
REMARK SMILES IDX 16 1 17 2 18 3 19 4 20 5 21 6 22 7 23 8 24 9 25 10 26 11
REMARK SMILES IDX 27 12 28 13 29 14 30 15 31 16 32 17 15 18 14 19 13 20 12 21
REMARK SMILES IDX 11 22 10 23 9 24 8 25 7 26 6 27 5 28 4 29 3 30 2 31 1 32
REMARK H PARENT
REMARK Flexibility Score: inf
ROOT
ATOM      1  C   UNL     1      48.838  44.132  33.989  1.00  0.00     0.000 C 
ENDROOT
BRANCH   1   2
ATOM      2  C   UNL     1      48.996  42.923  34.925  1.00  0.00     0.000 C 
BRANCH   2   3
ATOM      3  C   UNL     1      49.848  43.241  36.169  1.00  0.00     0.000 C 
BRANCH   3   4
ATOM      4  C   UNL     1      49.491  42.350  37.378  1.00  0.00     0.000 C 
BRANCH   4   5
ATOM      5  C   UNL     1      48.086  42.609  37.948  1.00  0.00     0.000 C 
BRANCH   5   6
ATOM      6  C   UNL     1      47.130  41.424  37.736  1.00  0.00     0.000 C 
BRANCH   6   7
ATOM      7  C   UNL     1      45.672  41.755  38.097  1.00  0.00     0.000 C 
BRANCH   7   8
ATOM      8  C   UNL     1      44.605  41.021  37.260  1.00  0.00     0.000 C 
BRANCH   8   9
ATOM      9  C   UNL     1      43.712  40.062  38.083  1.00  0.00     0.000 C 
BRANCH   9  10
ATOM     10  C   UNL     1      44.147  39.926  39.553  1.00  0.00     0.000 C 
BRANCH  10  11
ATOM     11  C   UNL     1      44.503  38.474  39.925  1.00  0.00     0.000 C 
BRANCH  11  12
ATOM     12  C   UNL     1      45.935  38.099  39.516  1.00  0.00     0.000 C 
BRANCH  12  13
ATOM     13  C   UNL     1      46.009  36.747  38.786  1.00  0.00     0.006 C 
BRANCH  13  14
ATOM     14  C   UNL     1      46.874  36.824  37.521  1.00  0.00     0.053 C 
BRANCH  14  15
ATOM     15  C   UNL     1      46.196  37.603  36.434  1.00  0.00     0.041 C 
ATOM     16  O   UNL     1      46.851  38.421  35.735  1.00  0.00    -0.550 OA
ATOM     17  O   UNL     1      44.847  37.400  36.172  1.00  0.00    -0.550 OA
ENDBRANCH  14  15
ENDBRANCH  13  14
ENDBRANCH  12  13
ENDBRANCH  11  12
ENDBRANCH  10  11
ENDBRANCH   9  10
ENDBRANCH   8   9
ENDBRANCH   7   8
ENDBRANCH   6   7
ENDBRANCH   5   6
ENDBRANCH   4   5
ENDBRANCH   3   4
ENDBRANCH   2   3
ENDBRANCH   1   2
BRANCH   1  18
ATOM     18  C   UNL     1      47.363  44.498  33.735  1.00  0.00     0.000 C 
BRANCH  18  19
ATOM     19  C   UNL     1      46.435  44.011  34.860  1.00  0.00     0.000 C 
BRANCH  19  20
ATOM     20  C   UNL     1      46.228  45.061  35.962  1.00  0.00     0.000 C 
BRANCH  20  21
ATOM     21  C   UNL     1      46.531  46.470  35.428  1.00  0.00     0.000 C 
BRANCH  21  22
ATOM     22  C   UNL     1      47.461  47.272  36.355  1.00  0.00     0.000 C 
BRANCH  22  23
ATOM     23  C   UNL     1      48.628  46.422  36.888  1.00  0.00     0.000 C 
BRANCH  23  24
ATOM     24  C   UNL     1      48.920  46.667  38.381  1.00  0.00    -0.000 C 
BRANCH  24  25
ATOM     25  C   UNL     1      47.923  47.593  39.105  1.00  0.00    -0.000 C 
BRANCH  25  26
ATOM     26  C   UNL     1      47.080  46.857  40.161  1.00  0.00    -0.000 C 
BRANCH  26  27
ATOM     27  C   UNL     1      46.345  45.634  39.587  1.00  0.00    -0.000 C 
BRANCH  27  28
ATOM     28  C   UNL     1      44.934  45.982  39.079  1.00  0.00    -0.000 C 
BRANCH  28  29
ATOM     29  C   UNL     1      44.260  47.079  39.918  1.00  0.00    -0.000 C 
BRANCH  29  30
ATOM     30  C   UNL     1      43.669  48.206  39.057  1.00  0.00    -0.000 C 
BRANCH  30  31
ATOM     31  C   UNL     1      44.552  48.484  37.835  1.00  0.00    -0.003 C 
ATOM     32  C   UNL     1      45.145  49.890  37.892  1.00  0.00     0.004 C 
ENDBRANCH  30  31
ENDBRANCH  29  30
ENDBRANCH  28  29
ENDBRANCH  27  28
ENDBRANCH  26  27
ENDBRANCH  25  26
ENDBRANCH  24  25
ENDBRANCH  23  24
ENDBRANCH  22  23
ENDBRANCH  21  22
ENDBRANCH  20  21
ENDBRANCH  19  20
ENDBRANCH  18  19
ENDBRANCH   1  18
TORSDOF 28
ENDMDL
MODEL 7
REMARK VINA RESULT:    -4.587      2.518      7.703
REMARK INTER + INTRA:         -18.208
REMARK INTER:                 -13.152
REMARK INTRA:                  -5.055
REMARK UNBOUND:                -6.111
REMARK SMILES CCCCCCCCCCCCCCCCCCCCCCCCCCCCCC(=O)[O-]
REMARK SMILES IDX 16 1 17 2 18 3 19 4 20 5 21 6 22 7 23 8 24 9 25 10 26 11
REMARK SMILES IDX 27 12 28 13 29 14 30 15 31 16 32 17 15 18 14 19 13 20 12 21
REMARK SMILES IDX 11 22 10 23 9 24 8 25 7 26 6 27 5 28 4 29 3 30 2 31 1 32
REMARK H PARENT
REMARK Flexibility Score: inf
ROOT
ATOM      1  C   UNL     1      47.693  44.339  38.486  1.00  0.00     0.000 C 
ENDROOT
BRANCH   1   2
ATOM      2  C   UNL     1      48.803  43.415  37.959  1.00  0.00     0.000 C 
BRANCH   2   3
ATOM      3  C   UNL     1      48.696  41.981  38.513  1.00  0.00     0.000 C 
BRANCH   3   4
ATOM      4  C   UNL     1      48.593  40.919  37.398  1.00  0.00     0.000 C 
BRANCH   4   5
ATOM      5  C   UNL     1      48.494  41.511  35.982  1.00  0.00     0.000 C 
BRANCH   5   6
ATOM      6  C   UNL     1      47.348  40.899  35.160  1.00  0.00     0.000 C 
BRANCH   6   7
ATOM      7  C   UNL     1      45.957  41.213  35.739  1.00  0.00     0.000 C 
BRANCH   7   8
ATOM      8  C   UNL     1      45.254  40.032  36.436  1.00  0.00     0.000 C 
BRANCH   8   9
ATOM      9  C   UNL     1      43.886  40.395  37.059  1.00  0.00     0.000 C 
BRANCH   9  10
ATOM     10  C   UNL     1      43.875  40.334  38.597  1.00  0.00     0.000 C 
BRANCH  10  11
ATOM     11  C   UNL     1      45.253  39.957  39.177  1.00  0.00     0.000 C 
BRANCH  11  12
ATOM     12  C   UNL     1      45.251  38.564  39.826  1.00  0.00     0.000 C 
BRANCH  12  13
ATOM     13  C   UNL     1      46.337  37.639  39.250  1.00  0.00     0.006 C 
BRANCH  13  14
ATOM     14  C   UNL     1      45.788  36.726  38.148  1.00  0.00     0.053 C 
BRANCH  14  15
ATOM     15  C   UNL     1      46.668  36.732  36.935  1.00  0.00     0.041 C 
ATOM     16  O   UNL     1      46.311  36.131  35.887  1.00  0.00    -0.550 OA
ATOM     17  O   UNL     1      47.869  37.431  36.951  1.00  0.00    -0.550 OA
ENDBRANCH  14  15
ENDBRANCH  13  14
ENDBRANCH  12  13
ENDBRANCH  11  12
ENDBRANCH  10  11
ENDBRANCH   9  10
ENDBRANCH   8   9
ENDBRANCH   7   8
ENDBRANCH   6   7
ENDBRANCH   5   6
ENDBRANCH   4   5
ENDBRANCH   3   4
ENDBRANCH   2   3
ENDBRANCH   1   2
BRANCH   1  18
ATOM     18  C   UNL     1      46.289  43.725  38.341  1.00  0.00     0.000 C 
BRANCH  18  19
ATOM     19  C   UNL     1      45.217  44.521  39.104  1.00  0.00     0.000 C 
BRANCH  19  20
ATOM     20  C   UNL     1      45.551  46.016  39.217  1.00  0.00     0.000 C 
BRANCH  20  21
ATOM     21  C   UNL     1      45.922  46.378  40.663  1.00  0.00     0.000 C 
BRANCH  21  22
ATOM     22  C   UNL     1      47.012  47.459  40.748  1.00  0.00     0.000 C 
BRANCH  22  23
ATOM     23  C   UNL     1      47.610  47.795  39.370  1.00  0.00     0.000 C 
BRANCH  23  24
ATOM     24  C   UNL     1      47.839  49.304  39.162  1.00  0.00    -0.000 C 
BRANCH  24  25
ATOM     25  C   UNL     1      47.096  49.926  37.964  1.00  0.00    -0.000 C 
BRANCH  25  26
ATOM     26  C   UNL     1      45.596  49.585  37.945  1.00  0.00    -0.000 C 
BRANCH  26  27
ATOM     27  C   UNL     1      45.200  48.715  36.741  1.00  0.00    -0.000 C 
BRANCH  27  28
ATOM     28  C   UNL     1      46.387  48.437  35.802  1.00  0.00    -0.000 C 
BRANCH  28  29
ATOM     29  C   UNL     1      46.828  46.965  35.831  1.00  0.00    -0.000 C 
BRANCH  29  30
ATOM     30  C   UNL     1      45.665  45.992  35.580  1.00  0.00    -0.000 C 
BRANCH  30  31
ATOM     31  C   UNL     1      45.658  45.507  34.125  1.00  0.00    -0.003 C 
ATOM     32  C   UNL     1      46.715  44.428  33.899  1.00  0.00     0.004 C 
ENDBRANCH  30  31
ENDBRANCH  29  30
ENDBRANCH  28  29
ENDBRANCH  27  28
ENDBRANCH  26  27
ENDBRANCH  25  26
ENDBRANCH  24  25
ENDBRANCH  23  24
ENDBRANCH  22  23
ENDBRANCH  21  22
ENDBRANCH  20  21
ENDBRANCH  19  20
ENDBRANCH  18  19
ENDBRANCH   1  18
TORSDOF 28
ENDMDL
MODEL 8
REMARK VINA RESULT:    -4.578      1.072      2.380
REMARK INTER + INTRA:         -18.182
REMARK INTER:                 -11.921
REMARK INTRA:                  -6.261
REMARK UNBOUND:                -6.111
REMARK SMILES CCCCCCCCCCCCCCCCCCCCCCCCCCCCCC(=O)[O-]
REMARK SMILES IDX 16 1 17 2 18 3 19 4 20 5 21 6 22 7 23 8 24 9 25 10 26 11
REMARK SMILES IDX 27 12 28 13 29 14 30 15 31 16 32 17 15 18 14 19 13 20 12 21
REMARK SMILES IDX 11 22 10 23 9 24 8 25 7 26 6 27 5 28 4 29 3 30 2 31 1 32
REMARK H PARENT
REMARK Flexibility Score: inf
ROOT
ATOM      1  C   UNL     1      47.950  43.083  38.352  1.00  0.00     0.000 C 
ENDROOT
BRANCH   1   2
ATOM      2  C   UNL     1      48.607  44.450  38.100  1.00  0.00     0.000 C 
BRANCH   2   3
ATOM      3  C   UNL     1      49.827  44.360  37.164  1.00  0.00     0.000 C 
BRANCH   3   4
ATOM      4  C   UNL     1      49.625  45.138  35.846  1.00  0.00     0.000 C 
BRANCH   4   5
ATOM      5  C   UNL     1      49.943  44.318  34.585  1.00  0.00     0.000 C 
BRANCH   5   6
ATOM      6  C   UNL     1      48.686  43.721  33.931  1.00  0.00     0.000 C 
BRANCH   6   7
ATOM      7  C   UNL     1      47.606  44.776  33.630  1.00  0.00     0.000 C 
BRANCH   7   8
ATOM      8  C   UNL     1      46.221  44.491  34.244  1.00  0.00     0.000 C 
BRANCH   8   9
ATOM      9  C   UNL     1      46.055  45.015  35.690  1.00  0.00     0.000 C 
BRANCH   9  10
ATOM     10  C   UNL     1      45.726  46.517  35.765  1.00  0.00     0.000 C 
BRANCH  10  11
ATOM     11  C   UNL     1      46.832  47.322  36.476  1.00  0.00     0.000 C 
BRANCH  11  12
ATOM     12  C   UNL     1      46.378  47.857  37.842  1.00  0.00     0.000 C 
BRANCH  12  13
ATOM     13  C   UNL     1      44.858  47.745  38.049  1.00  0.00     0.006 C 
BRANCH  13  14
ATOM     14  C   UNL     1      44.506  47.209  39.442  1.00  0.00     0.053 C 
BRANCH  14  15
ATOM     15  C   UNL     1      45.297  45.981  39.778  1.00  0.00     0.041 C 
ATOM     16  O   UNL     1      45.044  44.886  39.210  1.00  0.00    -0.550 OA
ATOM     17  O   UNL     1      46.339  46.055  40.695  1.00  0.00    -0.550 OA
ENDBRANCH  14  15
ENDBRANCH  13  14
ENDBRANCH  12  13
ENDBRANCH  11  12
ENDBRANCH  10  11
ENDBRANCH   9  10
ENDBRANCH   8   9
ENDBRANCH   7   8
ENDBRANCH   6   7
ENDBRANCH   5   6
ENDBRANCH   4   5
ENDBRANCH   3   4
ENDBRANCH   2   3
ENDBRANCH   1   2
BRANCH   1  18
ATOM     18  C   UNL     1      48.956  42.018  38.826  1.00  0.00     0.000 C 
BRANCH  18  19
ATOM     19  C   UNL     1      48.911  40.743  37.968  1.00  0.00     0.000 C 
BRANCH  19  20
ATOM     20  C   UNL     1      48.741  41.037  36.469  1.00  0.00     0.000 C 
BRANCH  20  21
ATOM     21  C   UNL     1      47.786  40.020  35.825  1.00  0.00     0.000 C 
BRANCH  21  22
ATOM     22  C   UNL     1      46.608  40.687  35.095  1.00  0.00     0.000 C 
BRANCH  22  23
ATOM     23  C   UNL     1      45.580  41.287  36.070  1.00  0.00     0.000 C 
BRANCH  23  24
ATOM     24  C   UNL     1      44.456  40.302  36.445  1.00  0.00    -0.000 C 
BRANCH  24  25
ATOM     25  C   UNL     1      43.931  40.419  37.889  1.00  0.00    -0.000 C 
BRANCH  25  26
ATOM     26  C   UNL     1      44.996  40.928  38.877  1.00  0.00    -0.000 C 
BRANCH  26  27
ATOM     27  C   UNL     1      45.742  39.785  39.585  1.00  0.00    -0.000 C 
BRANCH  27  28
ATOM     28  C   UNL     1      44.866  38.533  39.765  1.00  0.00    -0.000 C 
BRANCH  28  29
ATOM     29  C   UNL     1      45.549  37.257  39.249  1.00  0.00    -0.000 C 
BRANCH  29  30
ATOM     30  C   UNL     1      46.819  37.552  38.435  1.00  0.00    -0.000 C 
BRANCH  30  31
ATOM     31  C   UNL     1      46.848  36.727  37.143  1.00  0.00    -0.003 C 
ATOM     32  C   UNL     1      45.521  36.829  36.394  1.00  0.00     0.004 C 
ENDBRANCH  30  31
ENDBRANCH  29  30
ENDBRANCH  28  29
ENDBRANCH  27  28
ENDBRANCH  26  27
ENDBRANCH  25  26
ENDBRANCH  24  25
ENDBRANCH  23  24
ENDBRANCH  22  23
ENDBRANCH  21  22
ENDBRANCH  20  21
ENDBRANCH  19  20
ENDBRANCH  18  19
ENDBRANCH   1  18
TORSDOF 28
ENDMDL
MODEL 9
REMARK VINA RESULT:    -4.509      3.260      8.300
REMARK INTER + INTRA:         -18.000
REMARK INTER:                 -12.416
REMARK INTRA:                  -5.584
REMARK UNBOUND:                -6.111
REMARK SMILES CCCCCCCCCCCCCCCCCCCCCCCCCCCCCC(=O)[O-]
REMARK SMILES IDX 16 1 17 2 18 3 19 4 20 5 21 6 22 7 23 8 24 9 25 10 26 11
REMARK SMILES IDX 27 12 28 13 29 14 30 15 31 16 32 17 15 18 14 19 13 20 12 21
REMARK SMILES IDX 11 22 10 23 9 24 8 25 7 26 6 27 5 28 4 29 3 30 2 31 1 32
REMARK H PARENT
REMARK Flexibility Score: inf
ROOT
ATOM      1  C   UNL     1      48.259  41.080  36.431  1.00  0.00     0.000 C 
ENDROOT
BRANCH   1   2
ATOM      2  C   UNL     1      47.602  39.927  35.655  1.00  0.00     0.000 C 
BRANCH   2   3
ATOM      3  C   UNL     1      46.190  40.280  35.148  1.00  0.00     0.000 C 
BRANCH   3   4
ATOM      4  C   UNL     1      45.386  41.121  36.162  1.00  0.00     0.000 C 
BRANCH   4   5
ATOM      5  C   UNL     1      44.323  40.318  36.930  1.00  0.00     0.000 C 
BRANCH   5   6
ATOM      6  C   UNL     1      44.238  40.711  38.414  1.00  0.00     0.000 C 
BRANCH   6   7
ATOM      7  C   UNL     1      45.279  39.990  39.288  1.00  0.00     0.000 C 
BRANCH   7   8
ATOM      8  C   UNL     1      44.799  38.673  39.930  1.00  0.00     0.000 C 
BRANCH   8   9
ATOM      9  C   UNL     1      45.439  37.406  39.316  1.00  0.00     0.000 C 
BRANCH   9  10
ATOM     10  C   UNL     1      46.768  37.679  38.589  1.00  0.00     0.000 C 
BRANCH  10  11
ATOM     11  C   UNL     1      47.059  36.637  37.492  1.00  0.00     0.000 C 
BRANCH  11  12
ATOM     12  C   UNL     1      46.018  36.673  36.362  1.00  0.00     0.000 C 
BRANCH  12  13
ATOM     13  C   UNL     1      46.388  35.753  35.185  1.00  0.00     0.006 C 
BRANCH  13  14
ATOM     14  C   UNL     1      47.671  36.208  34.481  1.00  0.00     0.053 C 
BRANCH  14  15
ATOM     15  C   UNL     1      48.730  35.147  34.519  1.00  0.00     0.041 C 
ATOM     16  O   UNL     1      49.682  35.228  35.340  1.00  0.00    -0.550 OA
ATOM     17  O   UNL     1      48.644  34.050  33.671  1.00  0.00    -0.550 OA
ENDBRANCH  14  15
ENDBRANCH  13  14
ENDBRANCH  12  13
ENDBRANCH  11  12
ENDBRANCH  10  11
ENDBRANCH   9  10
ENDBRANCH   8   9
ENDBRANCH   7   8
ENDBRANCH   6   7
ENDBRANCH   5   6
ENDBRANCH   4   5
ENDBRANCH   3   4
ENDBRANCH   2   3
ENDBRANCH   1   2
BRANCH   1  18
ATOM     18  C   UNL     1      48.663  40.679  37.862  1.00  0.00     0.000 C 
BRANCH  18  19
ATOM     19  C   UNL     1      48.959  41.897  38.752  1.00  0.00     0.000 C 
BRANCH  19  20
ATOM     20  C   UNL     1      48.943  43.223  37.976  1.00  0.00     0.000 C 
BRANCH  20  21
ATOM     21  C   UNL     1      47.910  44.188  38.578  1.00  0.00     0.000 C 
BRANCH  21  22
ATOM     22  C   UNL     1      46.460  43.772  38.281  1.00  0.00     0.000 C 
BRANCH  22  23
ATOM     23  C   UNL     1      45.436  44.748  38.888  1.00  0.00     0.000 C 
BRANCH  23  24
ATOM     24  C   UNL     1      46.072  45.766  39.855  1.00  0.00    -0.000 C 
BRANCH  24  25
ATOM     25  C   UNL     1      45.928  47.245  39.444  1.00  0.00    -0.000 C 
BRANCH  25  26
ATOM     26  C   UNL     1      44.723  47.497  38.522  1.00  0.00    -0.000 C 
BRANCH  26  27
ATOM     27  C   UNL     1      45.116  48.197  37.210  1.00  0.00    -0.000 C 
BRANCH  27  28
ATOM     28  C   UNL     1      46.525  47.802  36.733  1.00  0.00    -0.000 C 
BRANCH  28  29
ATOM     29  C   UNL     1      46.499  46.670  35.694  1.00  0.00    -0.000 C 
BRANCH  29  30
ATOM     30  C   UNL     1      47.833  45.912  35.609  1.00  0.00    -0.000 C 
BRANCH  30  31
ATOM     31  C   UNL     1      47.755  44.775  34.583  1.00  0.00    -0.003 C 
ATOM     32  C   UNL     1      46.366  44.142  34.567  1.00  0.00     0.004 C 
ENDBRANCH  30  31
ENDBRANCH  29  30
ENDBRANCH  28  29
ENDBRANCH  27  28
ENDBRANCH  26  27
ENDBRANCH  25  26
ENDBRANCH  24  25
ENDBRANCH  23  24
ENDBRANCH  22  23
ENDBRANCH  21  22
ENDBRANCH  20  21
ENDBRANCH  19  20
ENDBRANCH  18  19
ENDBRANCH   1  18
TORSDOF 28
ENDMDL
