MODEL 1
REMARK VINA RESULT:    -4.701      0.000      0.000
REMARK INTER + INTRA:         -14.528
REMARK INTER:                 -10.746
REMARK INTRA:                  -3.782
REMARK UNBOUND:                -3.782
REMARK SMILES CCCCCCCCCCCCCCCCCCCCCCCC(=O)[O-]
REMARK SMILES IDX 13 1 14 2 15 3 16 4 17 5 18 6 19 7 20 8 21 9 22 10 23 11
REMARK SMILES IDX 24 12 25 13 26 14 12 15 11 16 10 17 9 18 8 19 7 20 6 21 5 22
REMARK SMILES IDX 4 23 3 24 2 25 1 26
REMARK H PARENT
REMARK Flexibility Score: inf
ROOT
ATOM      1  C   UNL     1      17.366  19.610  30.594  1.00  0.00     0.000 C 
ENDROOT
BRANCH   1   2
ATOM      2  C   UNL     1      17.300  20.815  29.641  1.00  0.00     0.000 C 
BRANCH   2   3
ATOM      3  C   UNL     1      17.704  22.131  30.329  1.00  0.00     0.000 C 
BRANCH   3   4
ATOM      4  C   UNL     1      16.520  22.830  31.018  1.00  0.00     0.000 C 
BRANCH   4   5
ATOM      5  C   UNL     1      15.214  22.723  30.213  1.00  0.00     0.000 C 
BRANCH   5   6
ATOM      6  C   UNL     1      14.840  24.035  29.498  1.00  0.00     0.000 C 
BRANCH   6   7
ATOM      7  C   UNL     1      13.692  24.833  30.144  1.00  0.00     0.000 C 
BRANCH   7   8
ATOM      8  C   UNL     1      12.666  23.934  30.855  1.00  0.00     0.000 C 
BRANCH   8   9
ATOM      9  C   UNL     1      11.283  23.969  30.185  1.00  0.00     0.000 C 
BRANCH   9  10
ATOM     10  C   UNL     1      10.149  23.556  31.136  1.00  0.00     0.006 C 
BRANCH  10  11
ATOM     11  C   UNL     1      10.044  22.031  31.232  1.00  0.00     0.053 C 
BRANCH  11  12
ATOM     12  C   UNL     1       8.935  21.525  30.365  1.00  0.00     0.041 C 
ATOM     13  O   UNL     1       8.089  22.326  29.887  1.00  0.00    -0.550 OA
ATOM     14  O   UNL     1       8.866  20.175  30.040  1.00  0.00    -0.550 OA
ENDBRANCH  11  12
ENDBRANCH  10  11
ENDBRANCH   9  10
ENDBRANCH   8   9
ENDBRANCH   7   8
ENDBRANCH   6   7
ENDBRANCH   5   6
ENDBRANCH   4   5
ENDBRANCH   3   4
ENDBRANCH   2   3
ENDBRANCH   1   2
BRANCH   1  15
ATOM     15  C   UNL     1      16.015  18.884  30.721  1.00  0.00     0.000 C 
BRANCH  15  16
ATOM     16  C   UNL     1      15.084  19.539  31.754  1.00  0.00     0.000 C 
BRANCH  16  17
ATOM     17  C   UNL     1      13.628  19.623  31.264  1.00  0.00     0.000 C 
BRANCH  17  18
ATOM     18  C   UNL     1      13.465  19.148  29.810  1.00  0.00    -0.000 C 
BRANCH  18  19
ATOM     19  C   UNL     1      12.251  19.782  29.112  1.00  0.00    -0.000 C 
BRANCH  19  20
ATOM     20  C   UNL     1      12.640  21.092  28.410  1.00  0.00    -0.000 C 
BRANCH  20  21
ATOM     21  C   UNL     1      14.011  21.019  27.710  1.00  0.00    -0.000 C 
BRANCH  21  22
ATOM     22  C   UNL     1      13.972  21.105  26.172  1.00  0.00    -0.000 C 
BRANCH  22  23
ATOM     23  C   UNL     1      15.121  21.942  25.586  1.00  0.00    -0.000 C 
BRANCH  23  24
ATOM     24  C   UNL     1      16.301  22.100  26.564  1.00  0.00    -0.000 C 
BRANCH  24  25
ATOM     25  C   UNL     1      16.812  23.541  26.738  1.00  0.00    -0.003 C 
ATOM     26  C   UNL     1      16.252  24.502  25.690  1.00  0.00     0.004 C 
ENDBRANCH  24  25
ENDBRANCH  23  24
ENDBRANCH  22  23
ENDBRANCH  21  22
ENDBRANCH  20  21
ENDBRANCH  19  20
ENDBRANCH  18  19
ENDBRANCH  17  18
ENDBRANCH  16  17
ENDBRANCH  15  16
ENDBRANCH   1  15
TORSDOF 22
ENDMDL
MODEL 2
REMARK VINA RESULT:    -4.469      1.100      3.740
REMARK INTER + INTRA:         -13.999
REMARK INTER:                 -10.853
REMARK INTRA:                  -3.146
REMARK UNBOUND:                -3.782
REMARK SMILES CCCCCCCCCCCCCCCCCCCCCCCC(=O)[O-]
REMARK SMILES IDX 13 1 14 2 15 3 16 4 17 5 18 6 19 7 20 8 21 9 22 10 23 11
REMARK SMILES IDX 24 12 25 13 26 14 12 15 11 16 10 17 9 18 8 19 7 20 6 21 5 22
REMARK SMILES IDX 4 23 3 24 2 25 1 26
REMARK H PARENT
REMARK Flexibility Score: inf
ROOT
ATOM      1  C   UNL     1      16.265  22.279  25.933  1.00  0.00     0.000 C 
ENDROOT
BRANCH   1   2
ATOM      2  C   UNL     1      16.262  23.783  26.251  1.00  0.00     0.000 C 
BRANCH   2   3
ATOM      3  C   UNL     1      17.007  24.108  27.559  1.00  0.00     0.000 C 
BRANCH   3   4
ATOM      4  C   UNL     1      16.227  23.674  28.811  1.00  0.00     0.000 C 
BRANCH   4   5
ATOM      5  C   UNL     1      14.757  24.126  28.785  1.00  0.00     0.000 C 
BRANCH   5   6
ATOM      6  C   UNL     1      14.002  23.790  30.085  1.00  0.00     0.000 C 
BRANCH   6   7
ATOM      7  C   UNL     1      12.505  24.150  30.088  1.00  0.00     0.000 C 
BRANCH   7   8
ATOM      8  C   UNL     1      11.934  24.315  31.506  1.00  0.00     0.000 C 
BRANCH   8   9
ATOM      9  C   UNL     1      11.074  23.117  31.941  1.00  0.00     0.000 C 
BRANCH   9  10
ATOM     10  C   UNL     1       9.572  23.442  31.975  1.00  0.00     0.006 C 
BRANCH  10  11
ATOM     11  C   UNL     1       8.733  22.171  31.812  1.00  0.00     0.053 C 
BRANCH  11  12
ATOM     12  C   UNL     1       8.439  21.918  30.367  1.00  0.00     0.041 C 
ATOM     13  O   UNL     1       9.380  21.795  29.540  1.00  0.00    -0.550 OA
ATOM     14  O   UNL     1       7.124  21.762  29.941  1.00  0.00    -0.550 OA
ENDBRANCH  11  12
ENDBRANCH  10  11
ENDBRANCH   9  10
ENDBRANCH   8   9
ENDBRANCH   7   8
ENDBRANCH   6   7
ENDBRANCH   5   6
ENDBRANCH   4   5
ENDBRANCH   3   4
ENDBRANCH   2   3
ENDBRANCH   1   2
BRANCH   1  15
ATOM     15  C   UNL     1      14.846  21.682  25.894  1.00  0.00     0.000 C 
BRANCH  15  16
ATOM     16  C   UNL     1      14.449  21.011  27.219  1.00  0.00     0.000 C 
BRANCH  16  17
ATOM     17  C   UNL     1      13.015  21.366  27.651  1.00  0.00     0.000 C 
BRANCH  17  18
ATOM     18  C   UNL     1      12.465  20.407  28.721  1.00  0.00    -0.000 C 
BRANCH  18  19
ATOM     19  C   UNL     1      13.486  19.336  29.138  1.00  0.00    -0.000 C 
BRANCH  19  20
ATOM     20  C   UNL     1      13.406  19.055  30.646  1.00  0.00    -0.000 C 
BRANCH  20  21
ATOM     21  C   UNL     1      13.639  20.311  31.508  1.00  0.00    -0.000 C 
BRANCH  21  22
ATOM     22  C   UNL     1      15.045  20.437  32.124  1.00  0.00    -0.000 C 
BRANCH  22  23
ATOM     23  C   UNL     1      16.001  19.319  31.675  1.00  0.00    -0.000 C 
BRANCH  23  24
ATOM     24  C   UNL     1      17.479  19.753  31.701  1.00  0.00    -0.000 C 
BRANCH  24  25
ATOM     25  C   UNL     1      17.872  20.781  30.627  1.00  0.00    -0.003 C 
ATOM     26  C   UNL     1      17.266  20.475  29.258  1.00  0.00     0.004 C 
ENDBRANCH  24  25
ENDBRANCH  23  24
ENDBRANCH  22  23
ENDBRANCH  21  22
ENDBRANCH  20  21
ENDBRANCH  19  20
ENDBRANCH  18  19
ENDBRANCH  17  18
ENDBRANCH  16  17
ENDBRANCH  15  16
ENDBRANCH   1  15
TORSDOF 22
ENDMDL
MODEL 3
REMARK VINA RESULT:    -4.430      2.105      4.443
REMARK INTER + INTRA:         -13.910
REMARK INTER:                 -10.459
REMARK INTRA:                  -3.451
REMARK UNBOUND:                -3.782
REMARK SMILES CCCCCCCCCCCCCCCCCCCCCCCC(=O)[O-]
REMARK SMILES IDX 13 1 14 2 15 3 16 4 17 5 18 6 19 7 20 8 21 9 22 10 23 11
REMARK SMILES IDX 24 12 25 13 26 14 12 15 11 16 10 17 9 18 8 19 7 20 6 21 5 22
REMARK SMILES IDX 4 23 3 24 2 25 1 26
REMARK H PARENT
REMARK Flexibility Score: inf
ROOT
ATOM      1  C   UNL     1      12.437  19.568  31.847  1.00  0.00     0.000 C 
ENDROOT
BRANCH   1   2
ATOM      2  C   UNL     1      12.051  18.932  30.501  1.00  0.00     0.000 C 
BRANCH   2   3
ATOM      3  C   UNL     1      12.113  19.938  29.337  1.00  0.00     0.000 C 
BRANCH   3   4
ATOM      4  C   UNL     1      10.723  20.428  28.899  1.00  0.00     0.000 C 
BRANCH   4   5
ATOM      5  C   UNL     1       9.609  20.006  29.871  1.00  0.00     0.000 C 
BRANCH   5   6
ATOM      6  C   UNL     1       8.738  21.189  30.337  1.00  0.00     0.000 C 
BRANCH   6   7
ATOM      7  C   UNL     1       8.930  21.609  31.806  1.00  0.00     0.000 C 
BRANCH   7   8
ATOM      8  C   UNL     1      10.169  22.494  32.017  1.00  0.00     0.000 C 
BRANCH   8   9
ATOM      9  C   UNL     1       9.951  23.942  31.548  1.00  0.00     0.000 C 
BRANCH   9  10
ATOM     10  C   UNL     1      11.138  24.493  30.744  1.00  0.00     0.006 C 
BRANCH  10  11
ATOM     11  C   UNL     1      12.165  23.392  30.460  1.00  0.00     0.053 C 
BRANCH  11  12
ATOM     12  C   UNL     1      13.498  23.989  30.134  1.00  0.00     0.041 C 
ATOM     13  O   UNL     1      13.569  25.048  29.456  1.00  0.00    -0.550 OA
ATOM     14  O   UNL     1      14.661  23.406  30.624  1.00  0.00    -0.550 OA
ENDBRANCH  11  12
ENDBRANCH  10  11
ENDBRANCH   9  10
ENDBRANCH   8   9
ENDBRANCH   7   8
ENDBRANCH   6   7
ENDBRANCH   5   6
ENDBRANCH   4   5
ENDBRANCH   3   4
ENDBRANCH   2   3
ENDBRANCH   1   2
BRANCH   1  15
ATOM     15  C   UNL     1      13.889  20.079  31.862  1.00  0.00     0.000 C 
BRANCH  15  16
ATOM     16  C   UNL     1      14.917  18.946  31.709  1.00  0.00     0.000 C 
BRANCH  16  17
ATOM     17  C   UNL     1      16.353  19.411  32.008  1.00  0.00     0.000 C 
BRANCH  17  18
ATOM     18  C   UNL     1      16.472  20.942  32.102  1.00  0.00    -0.000 C 
BRANCH  18  19
ATOM     19  C   UNL     1      17.553  21.511  31.170  1.00  0.00    -0.000 C 
BRANCH  19  20
ATOM     20  C   UNL     1      17.726  20.631  29.922  1.00  0.00    -0.000 C 
BRANCH  20  21
ATOM     21  C   UNL     1      16.983  21.178  28.689  1.00  0.00    -0.000 C 
BRANCH  21  22
ATOM     22  C   UNL     1      15.478  20.853  28.627  1.00  0.00    -0.000 C 
BRANCH  22  23
ATOM     23  C   UNL     1      14.769  21.510  27.431  1.00  0.00    -0.000 C 
BRANCH  23  24
ATOM     24  C   UNL     1      15.256  22.947  27.166  1.00  0.00    -0.000 C 
BRANCH  24  25
ATOM     25  C   UNL     1      15.975  23.150  25.822  1.00  0.00    -0.003 C 
ATOM     26  C   UNL     1      16.167  24.623  25.464  1.00  0.00     0.004 C 
ENDBRANCH  24  25
ENDBRANCH  23  24
ENDBRANCH  22  23
ENDBRANCH  21  22
ENDBRANCH  20  21
ENDBRANCH  19  20
ENDBRANCH  18  19
ENDBRANCH  17  18
ENDBRANCH  16  17
ENDBRANCH  15  16
ENDBRANCH   1  15
TORSDOF 22
ENDMDL
MODEL 4
REMARK VINA RESULT:    -4.262      1.806      4.043
REMARK INTER + INTRA:         -13.525
REMARK INTER:                 -10.321
REMARK INTRA:                  -3.205
REMARK UNBOUND:                -3.782
REMARK SMILES CCCCCCCCCCCCCCCCCCCCCCCC(=O)[O-]
REMARK SMILES IDX 13 1 14 2 15 3 16 4 17 5 18 6 19 7 20 8 21 9 22 10 23 11
REMARK SMILES IDX 24 12 25 13 26 14 12 15 11 16 10 17 9 18 8 19 7 20 6 21 5 22
REMARK SMILES IDX 4 23 3 24 2 25 1 26
REMARK H PARENT
REMARK Flexibility Score: inf
ROOT
ATOM      1  C   UNL     1      13.473  21.744  30.802  1.00  0.00     0.000 C 
ENDROOT
BRANCH   1   2
ATOM      2  C   UNL     1      13.645  22.335  29.393  1.00  0.00     0.000 C 
BRANCH   2   3
ATOM      3  C   UNL     1      13.258  21.338  28.286  1.00  0.00     0.000 C 
BRANCH   3   4
ATOM      4  C   UNL     1      13.403  19.872  28.728  1.00  0.00     0.000 C 
BRANCH   4   5
ATOM      5  C   UNL     1      12.097  19.286  29.289  1.00  0.00     0.000 C 
BRANCH   5   6
ATOM      6  C   UNL     1      10.839  19.968  28.717  1.00  0.00     0.000 C 
BRANCH   6   7
ATOM      7  C   UNL     1       9.800  20.415  29.762  1.00  0.00     0.000 C 
BRANCH   7   8
ATOM      8  C   UNL     1      10.318  20.301  31.206  1.00  0.00     0.000 C 
BRANCH   8   9
ATOM      9  C   UNL     1       9.766  21.406  32.122  1.00  0.00     0.000 C 
BRANCH   9  10
ATOM     10  C   UNL     1       9.378  22.678  31.354  1.00  0.00     0.006 C 
BRANCH  10  11
ATOM     11  C   UNL     1      10.024  23.917  31.983  1.00  0.00     0.053 C 
BRANCH  11  12
ATOM     12  C   UNL     1      11.136  24.424  31.119  1.00  0.00     0.041 C 
ATOM     13  O   UNL     1      12.204  24.842  31.641  1.00  0.00    -0.550 OA
ATOM     14  O   UNL     1      11.015  24.385  29.735  1.00  0.00    -0.550 OA
ENDBRANCH  11  12
ENDBRANCH  10  11
ENDBRANCH   9  10
ENDBRANCH   8   9
ENDBRANCH   7   8
ENDBRANCH   6   7
ENDBRANCH   5   6
ENDBRANCH   4   5
ENDBRANCH   3   4
ENDBRANCH   2   3
ENDBRANCH   1   2
BRANCH   1  15
ATOM     15  C   UNL     1      14.821  21.472  31.495  1.00  0.00     0.000 C 
BRANCH  15  16
ATOM     16  C   UNL     1      14.979  20.006  31.931  1.00  0.00     0.000 C 
BRANCH  16  17
ATOM     17  C   UNL     1      16.351  19.424  31.548  1.00  0.00     0.000 C 
BRANCH  17  18
ATOM     18  C   UNL     1      17.502  20.416  31.785  1.00  0.00    -0.000 C 
BRANCH  18  19
ATOM     19  C   UNL     1      18.011  21.056  30.484  1.00  0.00    -0.000 C 
BRANCH  19  20
ATOM     20  C   UNL     1      17.256  20.504  29.265  1.00  0.00    -0.000 C 
BRANCH  20  21
ATOM     21  C   UNL     1      17.056  21.550  28.153  1.00  0.00    -0.000 C 
BRANCH  21  22
ATOM     22  C   UNL     1      17.181  23.020  28.599  1.00  0.00    -0.000 C 
BRANCH  22  23
ATOM     23  C   UNL     1      16.782  24.019  27.501  1.00  0.00    -0.000 C 
BRANCH  23  24
ATOM     24  C   UNL     1      15.740  23.444  26.522  1.00  0.00    -0.000 C 
BRANCH  24  25
ATOM     25  C   UNL     1      16.266  23.170  25.103  1.00  0.00    -0.003 C 
ATOM     26  C   UNL     1      15.499  22.058  24.388  1.00  0.00     0.004 C 
ENDBRANCH  24  25
ENDBRANCH  23  24
ENDBRANCH  22  23
ENDBRANCH  21  22
ENDBRANCH  20  21
ENDBRANCH  19  20
ENDBRANCH  18  19
ENDBRANCH  17  18
ENDBRANCH  16  17
ENDBRANCH  15  16
ENDBRANCH   1  15
TORSDOF 22
ENDMDL
MODEL 5
REMARK VINA RESULT:    -4.103      1.682      5.042
REMARK INTER + INTRA:         -13.163
REMARK INTER:                 -10.674
REMARK INTRA:                  -2.488
REMARK UNBOUND:                -3.782
REMARK SMILES CCCCCCCCCCCCCCCCCCCCCCCC(=O)[O-]
REMARK SMILES IDX 13 1 14 2 15 3 16 4 17 5 18 6 19 7 20 8 21 9 22 10 23 11
REMARK SMILES IDX 24 12 25 13 26 14 12 15 11 16 10 17 9 18 8 19 7 20 6 21 5 22
REMARK SMILES IDX 4 23 3 24 2 25 1 26
REMARK H PARENT
REMARK Flexibility Score: inf
ROOT
ATOM      1  C   UNL     1      12.070  24.434  30.123  1.00  0.00     0.000 C 
ENDROOT
BRANCH   1   2
ATOM      2  C   UNL     1      11.461  24.454  31.535  1.00  0.00     0.000 C 
BRANCH   2   3
ATOM      3  C   UNL     1       9.924  24.381  31.513  1.00  0.00     0.000 C 
BRANCH   3   4
ATOM      4  C   UNL     1       9.380  23.079  32.124  1.00  0.00     0.000 C 
BRANCH   4   5
ATOM      5  C   UNL     1       8.621  22.213  31.105  1.00  0.00     0.000 C 
BRANCH   5   6
ATOM      6  C   UNL     1       9.284  20.843  30.868  1.00  0.00     0.000 C 
BRANCH   6   7
ATOM      7  C   UNL     1      10.353  20.442  31.901  1.00  0.00     0.000 C 
BRANCH   7   8
ATOM      8  C   UNL     1      11.126  19.175  31.499  1.00  0.00     0.000 C 
BRANCH   8   9
ATOM      9  C   UNL     1      12.646  19.404  31.435  1.00  0.00     0.000 C 
BRANCH   9  10
ATOM     10  C   UNL     1      13.201  19.324  30.005  1.00  0.00     0.006 C 
BRANCH  10  11
ATOM     11  C   UNL     1      12.088  19.535  28.973  1.00  0.00     0.053 C 
BRANCH  11  12
ATOM     12  C   UNL     1      12.175  20.905  28.378  1.00  0.00     0.041 C 
ATOM     13  O   UNL     1      13.266  21.324  27.911  1.00  0.00    -0.550 OA
ATOM     14  O   UNL     1      11.037  21.699  28.291  1.00  0.00    -0.550 OA
ENDBRANCH  11  12
ENDBRANCH  10  11
ENDBRANCH   9  10
ENDBRANCH   8   9
ENDBRANCH   7   8
ENDBRANCH   6   7
ENDBRANCH   5   6
ENDBRANCH   4   5
ENDBRANCH   3   4
ENDBRANCH   2   3
ENDBRANCH   1   2
BRANCH   1  15
ATOM     15  C   UNL     1      13.592  24.208  30.140  1.00  0.00     0.000 C 
BRANCH  15  16
ATOM     16  C   UNL     1      13.987  22.883  30.813  1.00  0.00     0.000 C 
BRANCH  16  17
ATOM     17  C   UNL     1      15.502  22.622  30.754  1.00  0.00     0.000 C 
BRANCH  17  18
ATOM     18  C   UNL     1      15.880  21.218  31.256  1.00  0.00    -0.000 C 
BRANCH  18  19
ATOM     19  C   UNL     1      16.780  20.458  30.269  1.00  0.00    -0.000 C 
BRANCH  19  20
ATOM     20  C   UNL     1      16.377  20.751  28.816  1.00  0.00    -0.000 C 
BRANCH  20  21
ATOM     21  C   UNL     1      17.376  21.669  28.085  1.00  0.00    -0.000 C 
BRANCH  21  22
ATOM     22  C   UNL     1      17.359  23.145  28.525  1.00  0.00    -0.000 C 
BRANCH  22  23
ATOM     23  C   UNL     1      16.993  24.110  27.385  1.00  0.00    -0.000 C 
BRANCH  23  24
ATOM     24  C   UNL     1      15.769  23.640  26.577  1.00  0.00    -0.000 C 
BRANCH  24  25
ATOM     25  C   UNL     1      16.045  23.346  25.092  1.00  0.00    -0.003 C 
ATOM     26  C   UNL     1      15.612  21.942  24.671  1.00  0.00     0.004 C 
ENDBRANCH  24  25
ENDBRANCH  23  24
ENDBRANCH  22  23
ENDBRANCH  21  22
ENDBRANCH  20  21
ENDBRANCH  19  20
ENDBRANCH  18  19
ENDBRANCH  17  18
ENDBRANCH  16  17
ENDBRANCH  15  16
ENDBRANCH   1  15
TORSDOF 22
ENDMDL
MODEL 6
REMARK VINA RESULT:    -3.990     21.564     24.394
REMARK INTER + INTRA:         -12.903
REMARK INTER:                  -9.151
REMARK INTRA:                  -3.751
REMARK UNBOUND:                -3.782
REMARK SMILES CCCCCCCCCCCCCCCCCCCCCCCC(=O)[O-]
REMARK SMILES IDX 13 1 14 2 15 3 16 4 17 5 18 6 19 7 20 8 21 9 22 10 23 11
REMARK SMILES IDX 24 12 25 13 26 14 12 15 11 16 10 17 9 18 8 19 7 20 6 21 5 22
REMARK SMILES IDX 4 23 3 24 2 25 1 26
REMARK H PARENT
REMARK Flexibility Score: inf
ROOT
ATOM      1  C   UNL     1       2.577  35.632  14.739  1.00  0.00     0.000 C 
ENDROOT
BRANCH   1   2
ATOM      2  C   UNL     1       1.788  36.776  15.399  1.00  0.00     0.000 C 
BRANCH   2   3
ATOM      3  C   UNL     1       2.687  37.965  15.781  1.00  0.00     0.000 C 
BRANCH   3   4
ATOM      4  C   UNL     1       2.604  39.122  14.771  1.00  0.00     0.000 C 
BRANCH   4   5
ATOM      5  C   UNL     1       3.771  39.125  13.770  1.00  0.00     0.000 C 
BRANCH   5   6
ATOM      6  C   UNL     1       4.889  38.134  14.148  1.00  0.00     0.000 C 
BRANCH   6   7
ATOM      7  C   UNL     1       6.033  38.724  14.993  1.00  0.00     0.000 C 
BRANCH   7   8
ATOM      8  C   UNL     1       6.685  37.687  15.923  1.00  0.00     0.000 C 
BRANCH   8   9
ATOM      9  C   UNL     1       5.905  36.363  15.973  1.00  0.00     0.000 C 
BRANCH   9  10
ATOM     10  C   UNL     1       5.764  35.809  17.399  1.00  0.00     0.006 C 
BRANCH  10  11
ATOM     11  C   UNL     1       5.338  34.338  17.374  1.00  0.00     0.053 C 
BRANCH  11  12
ATOM     12  C   UNL     1       6.007  33.579  18.477  1.00  0.00     0.041 C 
ATOM     13  O   UNL     1       7.255  33.407  18.461  1.00  0.00    -0.550 OA
ATOM     14  O   UNL     1       5.260  33.107  19.550  1.00  0.00    -0.550 OA
ENDBRANCH  11  12
ENDBRANCH  10  11
ENDBRANCH   9  10
ENDBRANCH   8   9
ENDBRANCH   7   8
ENDBRANCH   6   7
ENDBRANCH   5   6
ENDBRANCH   4   5
ENDBRANCH   3   4
ENDBRANCH   2   3
ENDBRANCH   1   2
BRANCH   1  15
ATOM     15  C   UNL     1       1.947  35.171  13.413  1.00  0.00     0.000 C 
BRANCH  15  16
ATOM     16  C   UNL     1       1.713  36.331  12.432  1.00  0.00     0.000 C 
BRANCH  16  17
ATOM     17  C   UNL     1       0.225  36.525  12.094  1.00  0.00     0.000 C 
BRANCH  17  18
ATOM     18  C   UNL     1      -0.160  38.006  11.945  1.00  0.00    -0.000 C 
BRANCH  18  19
ATOM     19  C   UNL     1      -1.680  38.231  11.988  1.00  0.00    -0.000 C 
BRANCH  19  20
ATOM     20  C   UNL     1      -2.076  39.098  13.192  1.00  0.00    -0.000 C 
BRANCH  20  21
ATOM     21  C   UNL     1      -1.197  38.849  14.432  1.00  0.00    -0.000 C 
BRANCH  21  22
ATOM     22  C   UNL     1      -1.964  38.542  15.733  1.00  0.00    -0.000 C 
BRANCH  22  23
ATOM     23  C   UNL     1      -1.619  37.165  16.325  1.00  0.00    -0.000 C 
BRANCH  23  24
ATOM     24  C   UNL     1      -1.605  36.048  15.264  1.00  0.00    -0.000 C 
BRANCH  24  25
ATOM     25  C   UNL     1      -1.244  34.651  15.798  1.00  0.00    -0.003 C 
ATOM     26  C   UNL     1      -0.710  34.679  17.229  1.00  0.00     0.004 C 
ENDBRANCH  24  25
ENDBRANCH  23  24
ENDBRANCH  22  23
ENDBRANCH  21  22
ENDBRANCH  20  21
ENDBRANCH  19  20
ENDBRANCH  18  19
ENDBRANCH  17  18
ENDBRANCH  16  17
ENDBRANCH  15  16
ENDBRANCH   1  15
TORSDOF 22
ENDMDL
MODEL 7
REMARK VINA RESULT:    -3.785      1.311      3.873
REMARK INTER + INTRA:         -12.434
REMARK INTER:                  -9.941
REMARK INTRA:                  -2.494
REMARK UNBOUND:                -3.782
REMARK SMILES CCCCCCCCCCCCCCCCCCCCCCCC(=O)[O-]
REMARK SMILES IDX 13 1 14 2 15 3 16 4 17 5 18 6 19 7 20 8 21 9 22 10 23 11
REMARK SMILES IDX 24 12 25 13 26 14 12 15 11 16 10 17 9 18 8 19 7 20 6 21 5 22
REMARK SMILES IDX 4 23 3 24 2 25 1 26
REMARK H PARENT
REMARK Flexibility Score: inf
ROOT
ATOM      1  C   UNL     1      14.321  24.453  29.120  1.00  0.00     0.000 C 
ENDROOT
BRANCH   1   2
ATOM      2  C   UNL     1      13.479  24.814  30.355  1.00  0.00     0.000 C 
BRANCH   2   3
ATOM      3  C   UNL     1      12.029  24.311  30.246  1.00  0.00     0.000 C 
BRANCH   3   4
ATOM      4  C   UNL     1      11.734  23.133  31.190  1.00  0.00     0.000 C 
BRANCH   4   5
ATOM      5  C   UNL     1      12.565  21.882  30.861  1.00  0.00     0.000 C 
BRANCH   5   6
ATOM      6  C   UNL     1      12.466  21.468  29.381  1.00  0.00     0.000 C 
BRANCH   6   7
ATOM      7  C   UNL     1      12.531  19.952  29.116  1.00  0.00     0.000 C 
BRANCH   7   8
ATOM      8  C   UNL     1      11.238  19.220  29.509  1.00  0.00     0.000 C 
BRANCH   8   9
ATOM      9  C   UNL     1      11.016  19.185  31.030  1.00  0.00     0.000 C 
BRANCH   9  10
ATOM     10  C   UNL     1       9.803  20.017  31.474  1.00  0.00     0.006 C 
BRANCH  10  11
ATOM     11  C   UNL     1       9.091  20.634  30.267  1.00  0.00     0.053 C 
BRANCH  11  12
ATOM     12  C   UNL     1       7.921  21.456  30.710  1.00  0.00     0.041 C 
ATOM     13  O   UNL     1       7.848  21.865  31.899  1.00  0.00    -0.550 OA
ATOM     14  O   UNL     1       6.937  21.816  29.796  1.00  0.00    -0.550 OA
ENDBRANCH  11  12
ENDBRANCH  10  11
ENDBRANCH   9  10
ENDBRANCH   8   9
ENDBRANCH   7   8
ENDBRANCH   6   7
ENDBRANCH   5   6
ENDBRANCH   4   5
ENDBRANCH   3   4
ENDBRANCH   2   3
ENDBRANCH   1   2
BRANCH   1  15
ATOM     15  C   UNL     1      15.651  23.774  29.492  1.00  0.00     0.000 C 
BRANCH  15  16
ATOM     16  C   UNL     1      15.557  22.953  30.788  1.00  0.00     0.000 C 
BRANCH  16  17
ATOM     17  C   UNL     1      16.937  22.526  31.315  1.00  0.00     0.000 C 
BRANCH  17  18
ATOM     18  C   UNL     1      17.076  20.999  31.441  1.00  0.00    -0.000 C 
BRANCH  18  19
ATOM     19  C   UNL     1      15.863  20.245  30.872  1.00  0.00    -0.000 C 
BRANCH  19  20
ATOM     20  C   UNL     1      16.119  19.801  29.424  1.00  0.00    -0.000 C 
BRANCH  20  21
ATOM     21  C   UNL     1      17.299  20.540  28.764  1.00  0.00    -0.000 C 
BRANCH  21  22
ATOM     22  C   UNL     1      16.950  21.338  27.493  1.00  0.00    -0.000 C 
BRANCH  22  23
ATOM     23  C   UNL     1      15.437  21.417  27.228  1.00  0.00    -0.000 C 
BRANCH  23  24
ATOM     24  C   UNL     1      15.106  21.954  25.823  1.00  0.00    -0.000 C 
BRANCH  24  25
ATOM     25  C   UNL     1      16.176  22.874  25.211  1.00  0.00    -0.003 C 
ATOM     26  C   UNL     1      16.127  24.297  25.766  1.00  0.00     0.004 C 
ENDBRANCH  24  25
ENDBRANCH  23  24
ENDBRANCH  22  23
ENDBRANCH  21  22
ENDBRANCH  20  21
ENDBRANCH  19  20
ENDBRANCH  18  19
ENDBRANCH  17  18
ENDBRANCH  16  17
ENDBRANCH  15  16
ENDBRANCH   1  15
TORSDOF 22
ENDMDL
MODEL 8
REMARK VINA RESULT:    -3.771      2.918      6.209
REMARK INTER + INTRA:         -12.402
REMARK INTER:                  -9.591
REMARK INTRA:                  -2.811
REMARK UNBOUND:                -3.782
REMARK SMILES CCCCCCCCCCCCCCCCCCCCCCCC(=O)[O-]
REMARK SMILES IDX 13 1 14 2 15 3 16 4 17 5 18 6 19 7 20 8 21 9 22 10 23 11
REMARK SMILES IDX 24 12 25 13 26 14 12 15 11 16 10 17 9 18 8 19 7 20 6 21 5 22
REMARK SMILES IDX 4 23 3 24 2 25 1 26
REMARK H PARENT
REMARK Flexibility Score: inf
ROOT
ATOM      1  C   UNL     1      14.459  24.091  29.126  1.00  0.00     0.000 C 
ENDROOT
BRANCH   1   2
ATOM      2  C   UNL     1      15.844  23.599  29.580  1.00  0.00     0.000 C 
BRANCH   2   3
ATOM      3  C   UNL     1      15.803  22.926  30.963  1.00  0.00     0.000 C 
BRANCH   3   4
ATOM      4  C   UNL     1      17.088  22.144  31.283  1.00  0.00     0.000 C 
BRANCH   4   5
ATOM      5  C   UNL     1      16.808  20.740  31.844  1.00  0.00     0.000 C 
BRANCH   5   6
ATOM      6  C   UNL     1      16.960  19.630  30.787  1.00  0.00     0.000 C 
BRANCH   6   7
ATOM      7  C   UNL     1      15.763  19.460  29.834  1.00  0.00     0.000 C 
BRANCH   7   8
ATOM      8  C   UNL     1      15.872  20.338  28.576  1.00  0.00     0.000 C 
BRANCH   8   9
ATOM      9  C   UNL     1      14.511  20.578  27.902  1.00  0.00     0.000 C 
BRANCH   9  10
ATOM     10  C   UNL     1      14.578  21.629  26.783  1.00  0.00     0.006 C 
BRANCH  10  11
ATOM     11  C   UNL     1      16.024  21.859  26.334  1.00  0.00     0.053 C 
BRANCH  11  12
ATOM     12  C   UNL     1      16.066  22.758  25.139  1.00  0.00     0.041 C 
ATOM     13  O   UNL     1      16.116  24.008  25.287  1.00  0.00    -0.550 OA
ATOM     14  O   UNL     1      16.105  22.215  23.860  1.00  0.00    -0.550 OA
ENDBRANCH  11  12
ENDBRANCH  10  11
ENDBRANCH   9  10
ENDBRANCH   8   9
ENDBRANCH   7   8
ENDBRANCH   6   7
ENDBRANCH   5   6
ENDBRANCH   4   5
ENDBRANCH   3   4
ENDBRANCH   2   3
ENDBRANCH   1   2
BRANCH   1  15
ATOM     15  C   UNL     1      13.547  24.459  30.310  1.00  0.00     0.000 C 
BRANCH  15  16
ATOM     16  C   UNL     1      12.222  23.679  30.304  1.00  0.00     0.000 C 
BRANCH  16  17
ATOM     17  C   UNL     1      12.170  22.600  31.399  1.00  0.00     0.000 C 
BRANCH  17  18
ATOM     18  C   UNL     1      13.046  21.380  31.070  1.00  0.00    -0.000 C 
BRANCH  18  19
ATOM     19  C   UNL     1      12.558  20.097  31.762  1.00  0.00    -0.000 C 
BRANCH  19  20
ATOM     20  C   UNL     1      11.995  19.098  30.740  1.00  0.00    -0.000 C 
BRANCH  20  21
ATOM     21  C   UNL     1      11.794  19.712  29.341  1.00  0.00    -0.000 C 
BRANCH  21  22
ATOM     22  C   UNL     1      10.398  20.310  29.078  1.00  0.00    -0.000 C 
BRANCH  22  23
ATOM     23  C   UNL     1       9.386  19.987  30.189  1.00  0.00    -0.000 C 
BRANCH  23  24
ATOM     24  C   UNL     1       9.210  21.145  31.191  1.00  0.00    -0.000 C 
BRANCH  24  25
ATOM     25  C   UNL     1       8.160  22.195  30.791  1.00  0.00    -0.003 C 
ATOM     26  C   UNL     1       6.971  21.594  30.042  1.00  0.00     0.004 C 
ENDBRANCH  24  25
ENDBRANCH  23  24
ENDBRANCH  22  23
ENDBRANCH  21  22
ENDBRANCH  20  21
ENDBRANCH  19  20
ENDBRANCH  18  19
ENDBRANCH  17  18
ENDBRANCH  16  17
ENDBRANCH  15  16
ENDBRANCH   1  15
TORSDOF 22
ENDMDL
MODEL 9
REMARK VINA RESULT:    -3.698      2.730      6.166
REMARK INTER + INTRA:         -12.235
REMARK INTER:                  -8.755
REMARK INTRA:                  -3.480
REMARK UNBOUND:                -3.782
REMARK SMILES CCCCCCCCCCCCCCCCCCCCCCCC(=O)[O-]
REMARK SMILES IDX 13 1 14 2 15 3 16 4 17 5 18 6 19 7 20 8 21 9 22 10 23 11
REMARK SMILES IDX 24 12 25 13 26 14 12 15 11 16 10 17 9 18 8 19 7 20 6 21 5 22
REMARK SMILES IDX 4 23 3 24 2 25 1 26
REMARK H PARENT
REMARK Flexibility Score: inf
ROOT
ATOM      1  C   UNL     1      11.480  24.453  30.379  1.00  0.00     0.000 C 
ENDROOT
BRANCH   1   2
ATOM      2  C   UNL     1      10.379  23.403  30.157  1.00  0.00     0.000 C 
BRANCH   2   3
ATOM      3  C   UNL     1      10.014  22.653  31.450  1.00  0.00     0.000 C 
BRANCH   3   4
ATOM      4  C   UNL     1       8.861  21.655  31.254  1.00  0.00     0.000 C 
BRANCH   4   5
ATOM      5  C   UNL     1       9.194  20.552  30.236  1.00  0.00     0.000 C 
BRANCH   5   6
ATOM      6  C   UNL     1      10.683  20.159  30.241  1.00  0.00     0.000 C 
BRANCH   6   7
ATOM      7  C   UNL     1      11.289  19.855  28.858  1.00  0.00     0.000 C 
BRANCH   7   8
ATOM      8  C   UNL     1      12.008  21.066  28.242  1.00  0.00     0.000 C 
BRANCH   8   9
ATOM      9  C   UNL     1      13.513  20.822  28.040  1.00  0.00     0.000 C 
BRANCH   9  10
ATOM     10  C   UNL     1      14.057  21.476  26.761  1.00  0.00     0.006 C 
BRANCH  10  11
ATOM     11  C   UNL     1      15.543  21.817  26.909  1.00  0.00     0.053 C 
BRANCH  11  12
ATOM     12  C   UNL     1      15.979  22.749  25.822  1.00  0.00     0.041 C 
ATOM     13  O   UNL     1      16.345  22.294  24.707  1.00  0.00    -0.550 OA
ATOM     14  O   UNL     1      15.929  24.123  26.023  1.00  0.00    -0.550 OA
ENDBRANCH  11  12
ENDBRANCH  10  11
ENDBRANCH   9  10
ENDBRANCH   8   9
ENDBRANCH   7   8
ENDBRANCH   6   7
ENDBRANCH   5   6
ENDBRANCH   4   5
ENDBRANCH   3   4
ENDBRANCH   2   3
ENDBRANCH   1   2
BRANCH   1  15
ATOM     15  C   UNL     1      12.772  24.123  29.609  1.00  0.00     0.000 C 
BRANCH  15  16
ATOM     16  C   UNL     1      14.006  24.052  30.523  1.00  0.00     0.000 C 
BRANCH  16  17
ATOM     17  C   UNL     1      14.562  22.624  30.650  1.00  0.00     0.000 C 
BRANCH  17  18
ATOM     18  C   UNL     1      13.598  21.676  31.382  1.00  0.00    -0.000 C 
BRANCH  18  19
ATOM     19  C   UNL     1      14.311  20.457  31.989  1.00  0.00    -0.000 C 
BRANCH  19  20
ATOM     20  C   UNL     1      14.233  19.246  31.046  1.00  0.00    -0.000 C 
BRANCH  20  21
ATOM     21  C   UNL     1      15.594  18.875  30.425  1.00  0.00    -0.000 C 
BRANCH  21  22
ATOM     22  C   UNL     1      16.790  18.900  31.395  1.00  0.00    -0.000 C 
BRANCH  22  23
ATOM     23  C   UNL     1      18.019  19.622  30.818  1.00  0.00    -0.000 C 
BRANCH  23  24
ATOM     24  C   UNL     1      17.643  20.726  29.812  1.00  0.00    -0.000 C 
BRANCH  24  25
ATOM     25  C   UNL     1      17.932  22.161  30.284  1.00  0.00    -0.003 C 
ATOM     26  C   UNL     1      17.889  22.308  31.805  1.00  0.00     0.004 C 
ENDBRANCH  24  25
ENDBRANCH  23  24
ENDBRANCH  22  23
ENDBRANCH  21  22
ENDBRANCH  20  21
ENDBRANCH  19  20
ENDBRANCH  18  19
ENDBRANCH  17  18
ENDBRANCH  16  17
ENDBRANCH  15  16
ENDBRANCH   1  15
TORSDOF 22
ENDMDL
