MODEL 1
REMARK VINA RESULT:    -4.035      0.000      0.000
REMARK INTER + INTRA:          -5.442
REMARK INTER:                  -5.215
REMARK INTRA:                  -0.227
REMARK UNBOUND:                -0.227
REMARK SMILES CCCCCCC(=O)[O-]
REMARK SMILES IDX 5 1 6 2 7 3 8 4 9 5 4 6 3 7 2 8 1 9
REMARK H PARENT
REMARK Flexibility Score: inf
ROOT
ATOM      1  C   UNL     1     -13.001  -2.694 -25.156  1.00  0.00     0.006 C 
ENDROOT
BRANCH   1   2
ATOM      2  C   UNL     1     -12.285  -2.601 -26.511  1.00  0.00     0.053 C 
BRANCH   2   3
ATOM      3  C   UNL     1     -11.601  -1.280 -26.691  1.00  0.00     0.041 C 
ATOM      4  O   UNL     1     -10.377  -1.235 -26.984  1.00  0.00    -0.550 OA
ATOM      5  O   UNL     1     -12.321  -0.100 -26.563  1.00  0.00    -0.550 OA
ENDBRANCH   2   3
ENDBRANCH   1   2
BRANCH   1   6
ATOM      6  C   UNL     1     -12.013  -2.704 -23.978  1.00  0.00     0.000 C 
BRANCH   6   7
ATOM      7  C   UNL     1     -12.671  -2.292 -22.652  1.00  0.00    -0.000 C 
BRANCH   7   8
ATOM      8  C   UNL     1     -11.730  -1.477 -21.753  1.00  0.00    -0.003 C 
ATOM      9  C   UNL     1     -10.509  -0.994 -22.530  1.00  0.00     0.004 C 
ENDBRANCH   7   8
ENDBRANCH   6   7
ENDBRANCH   1   6
TORSDOF 5
ENDMDL
MODEL 2
REMARK VINA RESULT:    -3.979      2.690      4.304
REMARK INTER + INTRA:          -5.370
REMARK INTER:                  -5.198
REMARK INTRA:                  -0.172
REMARK UNBOUND:                -0.227
REMARK SMILES CCCCCCC(=O)[O-]
REMARK SMILES IDX 5 1 6 2 7 3 8 4 9 5 4 6 3 7 2 8 1 9
REMARK H PARENT
REMARK Flexibility Score: inf
ROOT
ATOM      1  C   UNL     1     -12.220  -2.624 -23.688  1.00  0.00     0.006 C 
ENDROOT
BRANCH   1   2
ATOM      2  C   UNL     1     -12.752  -1.710 -22.576  1.00  0.00     0.053 C 
BRANCH   2   3
ATOM      3  C   UNL     1     -11.653  -1.223 -21.681  1.00  0.00     0.041 C 
ATOM      4  O   UNL     1     -10.485  -1.086 -22.129  1.00  0.00    -0.550 OA
ATOM      5  O   UNL     1     -11.926  -0.893 -20.360  1.00  0.00    -0.550 OA
ENDBRANCH   2   3
ENDBRANCH   1   2
BRANCH   1   6
ATOM      6  C   UNL     1     -13.086  -2.557 -24.958  1.00  0.00     0.000 C 
BRANCH   6   7
ATOM      7  C   UNL     1     -12.283  -2.843 -26.237  1.00  0.00    -0.000 C 
BRANCH   7   8
ATOM      8  C   UNL     1     -11.905  -1.565 -26.997  1.00  0.00    -0.003 C 
ATOM      9  C   UNL     1     -10.518  -1.074 -26.592  1.00  0.00     0.004 C 
ENDBRANCH   7   8
ENDBRANCH   6   7
ENDBRANCH   1   6
TORSDOF 5
ENDMDL
MODEL 3
REMARK VINA RESULT:    -3.966      3.268      4.850
REMARK INTER + INTRA:          -5.352
REMARK INTER:                  -5.210
REMARK INTRA:                  -0.142
REMARK UNBOUND:                -0.227
REMARK SMILES CCCCCCC(=O)[O-]
REMARK SMILES IDX 5 1 6 2 7 3 8 4 9 5 4 6 3 7 2 8 1 9
REMARK H PARENT
REMARK Flexibility Score: inf
ROOT
ATOM      1  C   UNL     1     -13.008  -1.618 -22.548  1.00  0.00     0.006 C 
ENDROOT
BRANCH   1   2
ATOM      2  C   UNL     1     -11.731  -1.608 -21.696  1.00  0.00     0.053 C 
BRANCH   2   3
ATOM      3  C   UNL     1     -11.768  -0.537 -20.649  1.00  0.00     0.041 C 
ATOM      4  O   UNL     1     -10.700  -0.135 -20.116  1.00  0.00    -0.550 OA
ATOM      5  O   UNL     1     -12.978   0.038 -20.283  1.00  0.00    -0.550 OA
ENDBRANCH   2   3
ENDBRANCH   1   2
BRANCH   1   6
ATOM      6  C   UNL     1     -12.864  -2.498 -23.800  1.00  0.00     0.000 C 
BRANCH   6   7
ATOM      7  C   UNL     1     -11.772  -1.992 -24.756  1.00  0.00    -0.000 C 
BRANCH   7   8
ATOM      8  C   UNL     1     -12.014  -2.421 -26.210  1.00  0.00    -0.003 C 
ATOM      9  C   UNL     1     -12.878  -3.677 -26.276  1.00  0.00     0.004 C 
ENDBRANCH   7   8
ENDBRANCH   6   7
ENDBRANCH   1   6
TORSDOF 5
ENDMDL
MODEL 4
REMARK VINA RESULT:    -3.924      1.725      2.117
REMARK INTER + INTRA:          -5.298
REMARK INTER:                  -5.126
REMARK INTRA:                  -0.173
REMARK UNBOUND:                -0.227
REMARK SMILES CCCCCCC(=O)[O-]
REMARK SMILES IDX 5 1 6 2 7 3 8 4 9 5 4 6 3 7 2 8 1 9
REMARK H PARENT
REMARK Flexibility Score: inf
ROOT
ATOM      1  C   UNL     1     -12.724  -1.692 -23.979  1.00  0.00     0.006 C 
ENDROOT
BRANCH   1   2
ATOM      2  C   UNL     1     -12.073  -2.909 -24.651  1.00  0.00     0.053 C 
BRANCH   2   3
ATOM      3  C   UNL     1     -12.389  -2.974 -26.115  1.00  0.00     0.041 C 
ATOM      4  O   UNL     1     -13.093  -3.913 -26.570  1.00  0.00    -0.550 OA
ATOM      5  O   UNL     1     -11.931  -1.980 -26.970  1.00  0.00    -0.550 OA
ENDBRANCH   2   3
ENDBRANCH   1   2
BRANCH   1   6
ATOM      6  C   UNL     1     -13.039  -1.948 -22.496  1.00  0.00     0.000 C 
BRANCH   6   7
ATOM      7  C   UNL     1     -12.948  -0.671 -21.644  1.00  0.00    -0.000 C 
BRANCH   7   8
ATOM      8  C   UNL     1     -11.891  -0.772 -20.536  1.00  0.00    -0.003 C 
ATOM      9  C   UNL     1     -10.493  -0.497 -21.085  1.00  0.00     0.004 C 
ENDBRANCH   7   8
ENDBRANCH   6   7
ENDBRANCH   1   6
TORSDOF 5
ENDMDL
MODEL 5
REMARK VINA RESULT:    -3.862      2.035      3.619
REMARK INTER + INTRA:          -5.217
REMARK INTER:                  -4.841
REMARK INTRA:                  -0.376
REMARK UNBOUND:                -0.227
REMARK SMILES CCCCCCC(=O)[O-]
REMARK SMILES IDX 5 1 6 2 7 3 8 4 9 5 4 6 3 7 2 8 1 9
REMARK H PARENT
REMARK Flexibility Score: inf
ROOT
ATOM      1  C   UNL     1     -13.083  -2.316 -23.323  1.00  0.00     0.006 C 
ENDROOT
BRANCH   1   2
ATOM      2  C   UNL     1     -12.646  -1.243 -22.315  1.00  0.00     0.053 C 
BRANCH   2   3
ATOM      3  C   UNL     1     -12.249   0.032 -22.996  1.00  0.00     0.041 C 
ATOM      4  O   UNL     1     -11.112   0.532 -22.792  1.00  0.00    -0.550 OA
ATOM      5  O   UNL     1     -13.125   0.652 -23.877  1.00  0.00    -0.550 OA
ENDBRANCH   2   3
ENDBRANCH   1   2
BRANCH   1   6
ATOM      6  C   UNL     1     -11.933  -2.742 -24.251  1.00  0.00     0.000 C 
BRANCH   6   7
ATOM      7  C   UNL     1     -12.421  -3.131 -25.656  1.00  0.00    -0.000 C 
BRANCH   7   8
ATOM      8  C   UNL     1     -12.058  -2.085 -26.719  1.00  0.00    -0.003 C 
ATOM      9  C   UNL     1     -10.853  -1.255 -26.285  1.00  0.00     0.004 C 
ENDBRANCH   7   8
ENDBRANCH   6   7
ENDBRANCH   1   6
TORSDOF 5
ENDMDL
MODEL 6
REMARK VINA RESULT:    -3.846      1.265      1.976
REMARK INTER + INTRA:          -5.198
REMARK INTER:                  -4.891
REMARK INTRA:                  -0.307
REMARK UNBOUND:                -0.227
REMARK SMILES CCCCCCC(=O)[O-]
REMARK SMILES IDX 5 1 6 2 7 3 8 4 9 5 4 6 3 7 2 8 1 9
REMARK H PARENT
REMARK Flexibility Score: inf
ROOT
ATOM      1  C   UNL     1     -11.995  -1.953 -26.724  1.00  0.00     0.006 C 
ENDROOT
BRANCH   1   2
ATOM      2  C   UNL     1     -10.903  -1.107 -26.055  1.00  0.00     0.053 C 
BRANCH   2   3
ATOM      3  C   UNL     1     -11.352   0.304 -25.825  1.00  0.00     0.041 C 
ATOM      4  O   UNL     1     -10.536   1.256 -25.937  1.00  0.00    -0.550 OA
ATOM      5  O   UNL     1     -12.680   0.570 -25.516  1.00  0.00    -0.550 OA
ENDBRANCH   2   3
ENDBRANCH   1   2
BRANCH   1   6
ATOM      6  C   UNL     1     -12.672  -2.915 -25.734  1.00  0.00     0.000 C 
BRANCH   6   7
ATOM      7  C   UNL     1     -11.986  -2.925 -24.358  1.00  0.00    -0.000 C 
BRANCH   7   8
ATOM      8  C   UNL     1     -12.868  -2.326 -23.253  1.00  0.00    -0.003 C 
ATOM      9  C   UNL     1     -12.019  -1.661 -22.173  1.00  0.00     0.004 C 
ENDBRANCH   7   8
ENDBRANCH   6   7
ENDBRANCH   1   6
TORSDOF 5
ENDMDL
MODEL 7
REMARK VINA RESULT:    -3.741     19.049     19.874
REMARK INTER + INTRA:          -5.061
REMARK INTER:                  -4.815
REMARK INTRA:                  -0.246
REMARK UNBOUND:                -0.227
REMARK SMILES CCCCCCC(=O)[O-]
REMARK SMILES IDX 5 1 6 2 7 3 8 4 9 5 4 6 3 7 2 8 1 9
REMARK H PARENT
REMARK Flexibility Score: inf
ROOT
ATOM      1  C   UNL     1       5.992   7.749 -25.115  1.00  0.00     0.006 C 
ENDROOT
BRANCH   1   2
ATOM      2  C   UNL     1       6.449   7.413 -26.541  1.00  0.00     0.053 C 
BRANCH   2   3
ATOM      3  C   UNL     1       5.921   6.087 -26.998  1.00  0.00     0.041 C 
ATOM      4  O   UNL     1       4.759   5.998 -27.474  1.00  0.00    -0.550 OA
ATOM      5  O   UNL     1       6.723   4.956 -26.925  1.00  0.00    -0.550 OA
ENDBRANCH   2   3
ENDBRANCH   1   2
BRANCH   1   6
ATOM      6  C   UNL     1       7.125   7.584 -24.088  1.00  0.00     0.000 C 
BRANCH   6   7
ATOM      7  C   UNL     1       7.029   6.263 -23.309  1.00  0.00    -0.000 C 
BRANCH   7   8
ATOM      8  C   UNL     1       5.620   6.001 -22.759  1.00  0.00    -0.003 C 
ATOM      9  C   UNL     1       5.617   5.998 -21.233  1.00  0.00     0.004 C 
ENDBRANCH   7   8
ENDBRANCH   6   7
ENDBRANCH   1   6
TORSDOF 5
ENDMDL
MODEL 8
REMARK VINA RESULT:    -3.600     18.846     20.027
REMARK INTER + INTRA:          -4.879
REMARK INTER:                  -4.734
REMARK INTRA:                  -0.145
REMARK UNBOUND:                -0.227
REMARK SMILES CCCCCCC(=O)[O-]
REMARK SMILES IDX 5 1 6 2 7 3 8 4 9 5 4 6 3 7 2 8 1 9
REMARK H PARENT
REMARK Flexibility Score: inf
ROOT
ATOM      1  C   UNL     1       5.948   6.209 -23.437  1.00  0.00     0.006 C 
ENDROOT
BRANCH   1   2
ATOM      2  C   UNL     1       6.431   5.986 -21.997  1.00  0.00     0.053 C 
BRANCH   2   3
ATOM      3  C   UNL     1       5.286   5.790 -21.050  1.00  0.00     0.041 C 
ATOM      4  O   UNL     1       5.503   5.632 -19.819  1.00  0.00    -0.550 OA
ATOM      5  O   UNL     1       3.981   5.811 -21.522  1.00  0.00    -0.550 OA
ENDBRANCH   2   3
ENDBRANCH   1   2
BRANCH   1   6
ATOM      6  C   UNL     1       6.725   7.334 -24.142  1.00  0.00     0.000 C 
BRANCH   6   7
ATOM      7  C   UNL     1       5.989   7.876 -25.378  1.00  0.00    -0.000 C 
BRANCH   7   8
ATOM      8  C   UNL     1       6.536   7.301 -26.692  1.00  0.00    -0.003 C 
ATOM      9  C   UNL     1       5.561   6.297 -27.300  1.00  0.00     0.004 C 
ENDBRANCH   7   8
ENDBRANCH   6   7
ENDBRANCH   1   6
TORSDOF 5
ENDMDL
MODEL 9
REMARK VINA RESULT:    -3.512     16.106     16.661
REMARK INTER + INTRA:          -4.765
REMARK INTER:                  -4.632
REMARK INTRA:                  -0.133
REMARK UNBOUND:                -0.227
REMARK SMILES CCCCCCC(=O)[O-]
REMARK SMILES IDX 5 1 6 2 7 3 8 4 9 5 4 6 3 7 2 8 1 9
REMARK H PARENT
REMARK Flexibility Score: inf
ROOT
ATOM      1  C   UNL     1     -12.763   3.879  -9.151  1.00  0.00     0.006 C 
ENDROOT
BRANCH   1   2
ATOM      2  C   UNL     1     -13.120   2.386  -9.147  1.00  0.00     0.053 C 
BRANCH   2   3
ATOM      3  C   UNL     1     -12.084   1.567  -8.440  1.00  0.00     0.041 C 
ATOM      4  O   UNL     1     -12.342   0.386  -8.087  1.00  0.00    -0.550 OA
ATOM      5  O   UNL     1     -10.823   2.097  -8.198  1.00  0.00    -0.550 OA
ENDBRANCH   2   3
ENDBRANCH   1   2
BRANCH   1   6
ATOM      6  C   UNL     1     -12.846   4.492 -10.559  1.00  0.00     0.000 C 
BRANCH   6   7
ATOM      7  C   UNL     1     -12.964   6.024 -10.531  1.00  0.00    -0.000 C 
BRANCH   7   8
ATOM      8  C   UNL     1     -12.022   6.709 -11.532  1.00  0.00    -0.003 C 
ATOM      9  C   UNL     1     -10.714   7.121 -10.863  1.00  0.00     0.004 C 
ENDBRANCH   7   8
ENDBRANCH   6   7
ENDBRANCH   1   6
TORSDOF 5
ENDMDL
