MODEL 1
REMARK VINA RESULT:    -3.649      0.000      0.000
REMARK INTER + INTRA:         -14.266
REMARK INTER:                  -9.623
REMARK INTRA:                  -4.643
REMARK UNBOUND:                -4.643
REMARK SMILES CCCCCCCCCCCCCCCCCCCCCCCCCCCCCC(=O)[O-]
REMARK SMILES IDX 16 1 17 2 18 3 19 4 20 5 21 6 22 7 23 8 24 9 25 10 26 11
REMARK SMILES IDX 27 12 28 13 29 14 30 15 31 16 32 17 15 18 14 19 13 20 12 21
REMARK SMILES IDX 11 22 10 23 9 24 8 25 7 26 6 27 5 28 4 29 3 30 2 31 1 32
REMARK H PARENT
REMARK Flexibility Score: inf
ROOT
ATOM      1  C   UNL     1      -5.736  -1.688   2.058  1.00  0.00     0.000 C 
ENDROOT
BRANCH   1   2
ATOM      2  C   UNL     1      -6.679  -2.326   1.019  1.00  0.00     0.000 C 
BRANCH   2   3
ATOM      3  C   UNL     1      -8.140  -2.496   1.482  1.00  0.00     0.000 C 
BRANCH   3   4
ATOM      4  C   UNL     1      -8.638  -3.952   1.533  1.00  0.00     0.000 C 
BRANCH   4   5
ATOM      5  C   UNL     1      -7.725  -4.864   2.372  1.00  0.00     0.000 C 
BRANCH   5   6
ATOM      6  C   UNL     1      -8.519  -5.929   3.156  1.00  0.00     0.000 C 
BRANCH   6   7
ATOM      7  C   UNL     1      -8.216  -5.955   4.667  1.00  0.00     0.000 C 
BRANCH   7   8
ATOM      8  C   UNL     1      -7.206  -7.044   5.090  1.00  0.00     0.000 C 
BRANCH   8   9
ATOM      9  C   UNL     1      -5.896  -7.019   4.283  1.00  0.00     0.000 C 
BRANCH   9  10
ATOM     10  C   UNL     1      -5.237  -8.408   4.191  1.00  0.00     0.000 C 
BRANCH  10  11
ATOM     11  C   UNL     1      -5.275  -8.981   2.760  1.00  0.00     0.000 C 
BRANCH  11  12
ATOM     12  C   UNL     1      -6.666  -8.929   2.098  1.00  0.00     0.000 C 
BRANCH  12  13
ATOM     13  C   UNL     1      -6.657  -8.415   0.644  1.00  0.00     0.006 C 
BRANCH  13  14
ATOM     14  C   UNL     1      -8.049  -7.984   0.164  1.00  0.00     0.053 C 
BRANCH  14  15
ATOM     15  C   UNL     1      -7.936  -6.882  -0.842  1.00  0.00     0.041 C 
ATOM     16  O   UNL     1      -8.949  -6.510  -1.490  1.00  0.00    -0.550 OA
ATOM     17  O   UNL     1      -6.701  -6.301  -1.099  1.00  0.00    -0.550 OA
ENDBRANCH  14  15
ENDBRANCH  13  14
ENDBRANCH  12  13
ENDBRANCH  11  12
ENDBRANCH  10  11
ENDBRANCH   9  10
ENDBRANCH   8   9
ENDBRANCH   7   8
ENDBRANCH   6   7
ENDBRANCH   5   6
ENDBRANCH   4   5
ENDBRANCH   3   4
ENDBRANCH   2   3
ENDBRANCH   1   2
BRANCH   1  18
ATOM     18  C   UNL     1      -6.194  -1.819   3.524  1.00  0.00     0.000 C 
BRANCH  18  19
ATOM     19  C   UNL     1      -5.250  -2.626   4.436  1.00  0.00     0.000 C 
BRANCH  19  20
ATOM     20  C   UNL     1      -6.004  -3.459   5.487  1.00  0.00     0.000 C 
BRANCH  20  21
ATOM     21  C   UNL     1      -6.715  -2.590   6.541  1.00  0.00     0.000 C 
BRANCH  21  22
ATOM     22  C   UNL     1      -8.039  -3.165   7.082  1.00  0.00     0.000 C 
BRANCH  22  23
ATOM     23  C   UNL     1      -9.310  -2.438   6.604  1.00  0.00     0.000 C 
BRANCH  23  24
ATOM     24  C   UNL     1      -9.463  -2.395   5.069  1.00  0.00    -0.000 C 
BRANCH  24  25
ATOM     25  C   UNL     1      -9.519  -0.958   4.522  1.00  0.00    -0.000 C 
BRANCH  25  26
ATOM     26  C   UNL     1      -9.040   0.085   5.555  1.00  0.00    -0.000 C 
BRANCH  26  27
ATOM     27  C   UNL     1      -8.061   1.126   4.978  1.00  0.00    -0.000 C 
BRANCH  27  28
ATOM     28  C   UNL     1      -7.295   1.954   6.028  1.00  0.00    -0.000 C 
BRANCH  28  29
ATOM     29  C   UNL     1      -5.804   2.178   5.713  1.00  0.00    -0.000 C 
BRANCH  29  30
ATOM     30  C   UNL     1      -5.266   3.502   6.284  1.00  0.00    -0.000 C 
BRANCH  30  31
ATOM     31  C   UNL     1      -3.947   3.934   5.624  1.00  0.00    -0.003 C 
ATOM     32  C   UNL     1      -3.967   3.770   4.104  1.00  0.00     0.004 C 
ENDBRANCH  30  31
ENDBRANCH  29  30
ENDBRANCH  28  29
ENDBRANCH  27  28
ENDBRANCH  26  27
ENDBRANCH  25  26
ENDBRANCH  24  25
ENDBRANCH  23  24
ENDBRANCH  22  23
ENDBRANCH  21  22
ENDBRANCH  20  21
ENDBRANCH  19  20
ENDBRANCH  18  19
ENDBRANCH   1  18
TORSDOF 28
ENDMDL
MODEL 2
REMARK VINA RESULT:    -3.636      3.048      8.740
REMARK INTER + INTRA:         -14.231
REMARK INTER:                  -8.875
REMARK INTRA:                  -5.356
REMARK UNBOUND:                -4.643
REMARK SMILES CCCCCCCCCCCCCCCCCCCCCCCCCCCCCC(=O)[O-]
REMARK SMILES IDX 16 1 17 2 18 3 19 4 20 5 21 6 22 7 23 8 24 9 25 10 26 11
REMARK SMILES IDX 27 12 28 13 29 14 30 15 31 16 32 17 15 18 14 19 13 20 12 21
REMARK SMILES IDX 11 22 10 23 9 24 8 25 7 26 6 27 5 28 4 29 3 30 2 31 1 32
REMARK H PARENT
REMARK Flexibility Score: inf
ROOT
ATOM      1  C   UNL     1      -5.619  -1.715   1.880  1.00  0.00     0.000 C 
ENDROOT
BRANCH   1   2
ATOM      2  C   UNL     1      -6.542  -1.388   3.070  1.00  0.00     0.000 C 
BRANCH   2   3
ATOM      3  C   UNL     1      -5.914  -1.605   4.461  1.00  0.00     0.000 C 
BRANCH   3   4
ATOM      4  C   UNL     1      -5.517  -3.059   4.774  1.00  0.00     0.000 C 
BRANCH   4   5
ATOM      5  C   UNL     1      -6.361  -3.676   5.903  1.00  0.00     0.000 C 
BRANCH   5   6
ATOM      6  C   UNL     1      -6.984  -2.607   6.824  1.00  0.00     0.000 C 
BRANCH   6   7
ATOM      7  C   UNL     1      -8.510  -2.736   6.997  1.00  0.00     0.000 C 
BRANCH   7   8
ATOM      8  C   UNL     1      -9.266  -3.082   5.697  1.00  0.00     0.000 C 
BRANCH   8   9
ATOM      9  C   UNL     1      -9.671  -1.848   4.870  1.00  0.00     0.000 C 
BRANCH   9  10
ATOM     10  C   UNL     1      -9.711  -0.562   5.717  1.00  0.00     0.000 C 
BRANCH  10  11
ATOM     11  C   UNL     1      -9.271   0.680   4.917  1.00  0.00     0.000 C 
BRANCH  11  12
ATOM     12  C   UNL     1      -7.913   1.264   5.357  1.00  0.00     0.000 C 
BRANCH  12  13
ATOM     13  C   UNL     1      -7.850   2.804   5.339  1.00  0.00     0.006 C 
BRANCH  13  14
ATOM     14  C   UNL     1      -6.739   3.358   6.241  1.00  0.00     0.053 C 
BRANCH  14  15
ATOM     15  C   UNL     1      -5.394   2.997   5.693  1.00  0.00     0.041 C 
ATOM     16  O   UNL     1      -4.546   2.420   6.423  1.00  0.00    -0.550 OA
ATOM     17  O   UNL     1      -5.060   3.344   4.390  1.00  0.00    -0.550 OA
ENDBRANCH  14  15
ENDBRANCH  13  14
ENDBRANCH  12  13
ENDBRANCH  11  12
ENDBRANCH  10  11
ENDBRANCH   9  10
ENDBRANCH   8   9
ENDBRANCH   7   8
ENDBRANCH   6   7
ENDBRANCH   5   6
ENDBRANCH   4   5
ENDBRANCH   3   4
ENDBRANCH   2   3
ENDBRANCH   1   2
BRANCH   1  18
ATOM     18  C   UNL     1      -6.264  -2.564   0.766  1.00  0.00     0.000 C 
BRANCH  18  19
ATOM     19  C   UNL     1      -6.832  -3.922   1.222  1.00  0.00     0.000 C 
BRANCH  19  20
ATOM     20  C   UNL     1      -8.341  -3.871   1.510  1.00  0.00     0.000 C 
BRANCH  20  21
ATOM     21  C   UNL     1      -8.802  -4.968   2.489  1.00  0.00     0.000 C 
BRANCH  21  22
ATOM     22  C   UNL     1      -7.668  -5.750   3.179  1.00  0.00     0.000 C 
BRANCH  22  23
ATOM     23  C   UNL     1      -8.076  -6.494   4.465  1.00  0.00     0.000 C 
BRANCH  23  24
ATOM     24  C   UNL     1      -6.900  -7.187   5.183  1.00  0.00    -0.000 C 
BRANCH  24  25
ATOM     25  C   UNL     1      -5.597  -7.137   4.365  1.00  0.00    -0.000 C 
BRANCH  25  26
ATOM     26  C   UNL     1      -5.195  -8.520   3.811  1.00  0.00    -0.000 C 
BRANCH  26  27
ATOM     27  C   UNL     1      -5.730  -8.801   2.394  1.00  0.00    -0.000 C 
BRANCH  27  28
ATOM     28  C   UNL     1      -7.172  -9.340   2.336  1.00  0.00    -0.000 C 
BRANCH  28  29
ATOM     29  C   UNL     1      -7.884  -9.142   0.983  1.00  0.00    -0.000 C 
BRANCH  29  30
ATOM     30  C   UNL     1      -6.952  -8.577  -0.103  1.00  0.00    -0.000 C 
BRANCH  30  31
ATOM     31  C   UNL     1      -7.303  -7.130  -0.484  1.00  0.00    -0.003 C 
ATOM     32  C   UNL     1      -8.800  -6.928  -0.716  1.00  0.00     0.004 C 
ENDBRANCH  30  31
ENDBRANCH  29  30
ENDBRANCH  28  29
ENDBRANCH  27  28
ENDBRANCH  26  27
ENDBRANCH  25  26
ENDBRANCH  24  25
ENDBRANCH  23  24
ENDBRANCH  22  23
ENDBRANCH  21  22
ENDBRANCH  20  21
ENDBRANCH  19  20
ENDBRANCH  18  19
ENDBRANCH   1  18
TORSDOF 28
ENDMDL
MODEL 3
REMARK VINA RESULT:    -3.626      1.401      3.025
REMARK INTER + INTRA:         -14.203
REMARK INTER:                  -9.088
REMARK INTRA:                  -5.115
REMARK UNBOUND:                -4.643
REMARK SMILES CCCCCCCCCCCCCCCCCCCCCCCCCCCCCC(=O)[O-]
REMARK SMILES IDX 16 1 17 2 18 3 19 4 20 5 21 6 22 7 23 8 24 9 25 10 26 11
REMARK SMILES IDX 27 12 28 13 29 14 30 15 31 16 32 17 15 18 14 19 13 20 12 21
REMARK SMILES IDX 11 22 10 23 9 24 8 25 7 26 6 27 5 28 4 29 3 30 2 31 1 32
REMARK H PARENT
REMARK Flexibility Score: inf
ROOT
ATOM      1  C   UNL     1      -5.415  -3.269   5.255  1.00  0.00     0.000 C 
ENDROOT
BRANCH   1   2
ATOM      2  C   UNL     1      -5.597  -4.798   5.181  1.00  0.00     0.000 C 
BRANCH   2   3
ATOM      3  C   UNL     1      -6.606  -5.384   6.189  1.00  0.00     0.000 C 
BRANCH   3   4
ATOM      4  C   UNL     1      -6.356  -6.853   6.575  1.00  0.00     0.000 C 
BRANCH   4   5
ATOM      5  C   UNL     1      -7.612  -7.730   6.423  1.00  0.00     0.000 C 
BRANCH   5   6
ATOM      6  C   UNL     1      -7.268  -9.222   6.236  1.00  0.00     0.000 C 
BRANCH   6   7
ATOM      7  C   UNL     1      -5.784  -9.491   5.913  1.00  0.00     0.000 C 
BRANCH   7   8
ATOM      8  C   UNL     1      -5.540 -10.067   4.502  1.00  0.00     0.000 C 
BRANCH   8   9
ATOM      9  C   UNL     1      -5.021  -9.027   3.492  1.00  0.00     0.000 C 
BRANCH   9  10
ATOM     10  C   UNL     1      -6.115  -8.569   2.509  1.00  0.00     0.000 C 
BRANCH  10  11
ATOM     11  C   UNL     1      -6.578  -7.123   2.781  1.00  0.00     0.000 C 
BRANCH  11  12
ATOM     12  C   UNL     1      -8.100  -6.974   2.968  1.00  0.00     0.000 C 
BRANCH  12  13
ATOM     13  C   UNL     1      -8.803  -6.188   1.843  1.00  0.00     0.006 C 
BRANCH  13  14
ATOM     14  C   UNL     1      -7.840  -5.783   0.719  1.00  0.00     0.053 C 
BRANCH  14  15
ATOM     15  C   UNL     1      -7.919  -6.757  -0.413  1.00  0.00     0.041 C 
ATOM     16  O   UNL     1      -9.007  -7.332  -0.681  1.00  0.00    -0.550 OA
ATOM     17  O   UNL     1      -6.779  -7.067  -1.143  1.00  0.00    -0.550 OA
ENDBRANCH  14  15
ENDBRANCH  13  14
ENDBRANCH  12  13
ENDBRANCH  11  12
ENDBRANCH  10  11
ENDBRANCH   9  10
ENDBRANCH   8   9
ENDBRANCH   7   8
ENDBRANCH   6   7
ENDBRANCH   5   6
ENDBRANCH   4   5
ENDBRANCH   3   4
ENDBRANCH   2   3
ENDBRANCH   1   2
BRANCH   1  18
ATOM     18  C   UNL     1      -5.865  -2.496   3.999  1.00  0.00     0.000 C 
BRANCH  18  19
ATOM     19  C   UNL     1      -6.945  -3.194   3.151  1.00  0.00     0.000 C 
BRANCH  19  20
ATOM     20  C   UNL     1      -8.337  -2.563   3.321  1.00  0.00     0.000 C 
BRANCH  20  21
ATOM     21  C   UNL     1      -9.291  -3.434   4.160  1.00  0.00     0.000 C 
BRANCH  21  22
ATOM     22  C   UNL     1      -9.356  -3.081   5.658  1.00  0.00     0.000 C 
BRANCH  22  23
ATOM     23  C   UNL     1      -9.093  -1.600   5.992  1.00  0.00     0.000 C 
BRANCH  23  24
ATOM     24  C   UNL     1      -8.051  -1.389   7.109  1.00  0.00    -0.000 C 
BRANCH  24  25
ATOM     25  C   UNL     1      -7.230  -0.102   6.914  1.00  0.00    -0.000 C 
BRANCH  25  26
ATOM     26  C   UNL     1      -7.237   0.385   5.449  1.00  0.00    -0.000 C 
BRANCH  26  27
ATOM     27  C   UNL     1      -6.495   1.718   5.235  1.00  0.00    -0.000 C 
BRANCH  27  28
ATOM     28  C   UNL     1      -6.740   2.783   6.321  1.00  0.00    -0.000 C 
BRANCH  28  29
ATOM     29  C   UNL     1      -5.470   3.281   7.037  1.00  0.00    -0.000 C 
BRANCH  29  30
ATOM     30  C   UNL     1      -4.179   2.926   6.279  1.00  0.00    -0.000 C 
BRANCH  30  31
ATOM     31  C   UNL     1      -3.615   4.117   5.489  1.00  0.00    -0.003 C 
ATOM     32  C   UNL     1      -3.966   4.057   4.002  1.00  0.00     0.004 C 
ENDBRANCH  30  31
ENDBRANCH  29  30
ENDBRANCH  28  29
ENDBRANCH  27  28
ENDBRANCH  26  27
ENDBRANCH  25  26
ENDBRANCH  24  25
ENDBRANCH  23  24
ENDBRANCH  22  23
ENDBRANCH  21  22
ENDBRANCH  20  21
ENDBRANCH  19  20
ENDBRANCH  18  19
ENDBRANCH   1  18
TORSDOF 28
ENDMDL
MODEL 4
REMARK VINA RESULT:    -3.605      3.118      9.172
REMARK INTER + INTRA:         -14.148
REMARK INTER:                  -9.299
REMARK INTRA:                  -4.849
REMARK UNBOUND:                -4.643
REMARK SMILES CCCCCCCCCCCCCCCCCCCCCCCCCCCCCC(=O)[O-]
REMARK SMILES IDX 16 1 17 2 18 3 19 4 20 5 21 6 22 7 23 8 24 9 25 10 26 11
REMARK SMILES IDX 27 12 28 13 29 14 30 15 31 16 32 17 15 18 14 19 13 20 12 21
REMARK SMILES IDX 11 22 10 23 9 24 8 25 7 26 6 27 5 28 4 29 3 30 2 31 1 32
REMARK H PARENT
REMARK Flexibility Score: inf
ROOT
ATOM      1  C   UNL     1      -5.857  -1.893   2.078  1.00  0.00     0.000 C 
ENDROOT
BRANCH   1   2
ATOM      2  C   UNL     1      -6.362  -1.735   3.525  1.00  0.00     0.000 C 
BRANCH   2   3
ATOM      3  C   UNL     1      -5.547  -2.499   4.588  1.00  0.00     0.000 C 
BRANCH   3   4
ATOM      4  C   UNL     1      -6.380  -3.103   5.733  1.00  0.00     0.000 C 
BRANCH   4   5
ATOM      5  C   UNL     1      -7.891  -2.872   5.555  1.00  0.00     0.000 C 
BRANCH   5   6
ATOM      6  C   UNL     1      -8.562  -2.349   6.842  1.00  0.00     0.000 C 
BRANCH   6   7
ATOM      7  C   UNL     1      -7.591  -2.151   8.023  1.00  0.00     0.000 C 
BRANCH   7   8
ATOM      8  C   UNL     1      -7.383  -0.676   8.428  1.00  0.00     0.000 C 
BRANCH   8   9
ATOM      9  C   UNL     1      -7.763   0.328   7.324  1.00  0.00     0.000 C 
BRANCH   9  10
ATOM     10  C   UNL     1      -6.585   0.636   6.381  1.00  0.00     0.000 C 
BRANCH  10  11
ATOM     11  C   UNL     1      -5.226   0.593   7.108  1.00  0.00     0.000 C 
BRANCH  11  12
ATOM     12  C   UNL     1      -4.911   1.859   7.930  1.00  0.00     0.000 C 
BRANCH  12  13
ATOM     13  C   UNL     1      -5.241   3.181   7.208  1.00  0.00     0.006 C 
BRANCH  13  14
ATOM     14  C   UNL     1      -4.046   3.738   6.424  1.00  0.00     0.053 C 
BRANCH  14  15
ATOM     15  C   UNL     1      -4.303   3.658   4.953  1.00  0.00     0.041 C 
ATOM     16  O   UNL     1      -3.388   3.933   4.133  1.00  0.00    -0.550 OA
ATOM     17  O   UNL     1      -5.569   3.327   4.487  1.00  0.00    -0.550 OA
ENDBRANCH  14  15
ENDBRANCH  13  14
ENDBRANCH  12  13
ENDBRANCH  11  12
ENDBRANCH  10  11
ENDBRANCH   9  10
ENDBRANCH   8   9
ENDBRANCH   7   8
ENDBRANCH   6   7
ENDBRANCH   5   6
ENDBRANCH   4   5
ENDBRANCH   3   4
ENDBRANCH   2   3
ENDBRANCH   1   2
BRANCH   1  18
ATOM     18  C   UNL     1      -6.843  -2.580   1.112  1.00  0.00     0.000 C 
BRANCH  18  19
ATOM     19  C   UNL     1      -7.883  -3.499   1.781  1.00  0.00     0.000 C 
BRANCH  19  20
ATOM     20  C   UNL     1      -7.319  -4.888   2.121  1.00  0.00     0.000 C 
BRANCH  20  21
ATOM     21  C   UNL     1      -8.276  -5.726   2.991  1.00  0.00     0.000 C 
BRANCH  21  22
ATOM     22  C   UNL     1      -7.605  -6.515   4.132  1.00  0.00     0.000 C 
BRANCH  22  23
ATOM     23  C   UNL     1      -6.122  -6.178   4.374  1.00  0.00     0.000 C 
BRANCH  23  24
ATOM     24  C   UNL     1      -5.271  -7.390   4.810  1.00  0.00    -0.000 C 
BRANCH  24  25
ATOM     25  C   UNL     1      -5.783  -8.714   4.215  1.00  0.00    -0.000 C 
BRANCH  25  26
ATOM     26  C   UNL     1      -5.143  -9.033   2.848  1.00  0.00    -0.000 C 
BRANCH  26  27
ATOM     27  C   UNL     1      -6.053  -8.712   1.646  1.00  0.00    -0.000 C 
BRANCH  27  28
ATOM     28  C   UNL     1      -7.473  -9.305   1.727  1.00  0.00    -0.000 C 
BRANCH  28  29
ATOM     29  C   UNL     1      -8.243  -9.324   0.392  1.00  0.00    -0.000 C 
BRANCH  29  30
ATOM     30  C   UNL     1      -8.970  -7.999   0.104  1.00  0.00    -0.000 C 
BRANCH  30  31
ATOM     31  C   UNL     1      -8.508  -7.347  -1.208  1.00  0.00    -0.003 C 
ATOM     32  C   UNL     1      -7.169  -6.624  -1.067  1.00  0.00     0.004 C 
ENDBRANCH  30  31
ENDBRANCH  29  30
ENDBRANCH  28  29
ENDBRANCH  27  28
ENDBRANCH  26  27
ENDBRANCH  25  26
ENDBRANCH  24  25
ENDBRANCH  23  24
ENDBRANCH  22  23
ENDBRANCH  21  22
ENDBRANCH  20  21
ENDBRANCH  19  20
ENDBRANCH  18  19
ENDBRANCH   1  18
TORSDOF 28
ENDMDL
MODEL 5
REMARK VINA RESULT:    -3.601      1.686      3.623
REMARK INTER + INTRA:         -14.139
REMARK INTER:                  -9.423
REMARK INTRA:                  -4.717
REMARK UNBOUND:                -4.643
REMARK SMILES CCCCCCCCCCCCCCCCCCCCCCCCCCCCCC(=O)[O-]
REMARK SMILES IDX 16 1 17 2 18 3 19 4 20 5 21 6 22 7 23 8 24 9 25 10 26 11
REMARK SMILES IDX 27 12 28 13 29 14 30 15 31 16 32 17 15 18 14 19 13 20 12 21
REMARK SMILES IDX 11 22 10 23 9 24 8 25 7 26 6 27 5 28 4 29 3 30 2 31 1 32
REMARK H PARENT
REMARK Flexibility Score: inf
ROOT
ATOM      1  C   UNL     1      -5.114  -3.110   4.846  1.00  0.00     0.000 C 
ENDROOT
BRANCH   1   2
ATOM      2  C   UNL     1      -5.869  -4.217   5.607  1.00  0.00     0.000 C 
BRANCH   2   3
ATOM      3  C   UNL     1      -5.362  -5.650   5.348  1.00  0.00     0.000 C 
BRANCH   3   4
ATOM      4  C   UNL     1      -6.087  -6.748   6.145  1.00  0.00     0.000 C 
BRANCH   4   5
ATOM      5  C   UNL     1      -6.076  -8.110   5.428  1.00  0.00     0.000 C 
BRANCH   5   6
ATOM      6  C   UNL     1      -5.239  -8.086   4.133  1.00  0.00     0.000 C 
BRANCH   6   7
ATOM      7  C   UNL     1      -5.610  -9.188   3.122  1.00  0.00     0.000 C 
BRANCH   7   8
ATOM      8  C   UNL     1      -5.984  -8.660   1.721  1.00  0.00     0.000 C 
BRANCH   8   9
ATOM      9  C   UNL     1      -7.421  -9.010   1.291  1.00  0.00     0.000 C 
BRANCH   9  10
ATOM     10  C   UNL     1      -8.309  -9.407   2.485  1.00  0.00     0.000 C 
BRANCH  10  11
ATOM     11  C   UNL     1      -8.927  -8.182   3.189  1.00  0.00     0.000 C 
BRANCH  11  12
ATOM     12  C   UNL     1      -9.261  -7.013   2.241  1.00  0.00     0.000 C 
BRANCH  12  13
ATOM     13  C   UNL     1      -8.708  -5.649   2.699  1.00  0.00     0.006 C 
BRANCH  13  14
ATOM     14  C   UNL     1      -7.242  -5.443   2.297  1.00  0.00     0.053 C 
BRANCH  14  15
ATOM     15  C   UNL     1      -7.154  -4.838   0.932  1.00  0.00     0.041 C 
ATOM     16  O   UNL     1      -6.959  -5.569  -0.075  1.00  0.00    -0.550 OA
ATOM     17  O   UNL     1      -7.238  -3.460   0.777  1.00  0.00    -0.550 OA
ENDBRANCH  14  15
ENDBRANCH  13  14
ENDBRANCH  12  13
ENDBRANCH  11  12
ENDBRANCH  10  11
ENDBRANCH   9  10
ENDBRANCH   8   9
ENDBRANCH   7   8
ENDBRANCH   6   7
ENDBRANCH   5   6
ENDBRANCH   4   5
ENDBRANCH   3   4
ENDBRANCH   2   3
ENDBRANCH   1   2
BRANCH   1  18
ATOM     18  C   UNL     1      -5.986  -2.251   3.907  1.00  0.00     0.000 C 
BRANCH  18  19
ATOM     19  C   UNL     1      -7.498  -2.288   4.200  1.00  0.00     0.000 C 
BRANCH  19  20
ATOM     20  C   UNL     1      -8.117  -0.886   4.318  1.00  0.00     0.000 C 
BRANCH  20  21
ATOM     21  C   UNL     1      -8.330  -0.446   5.779  1.00  0.00     0.000 C 
BRANCH  21  22
ATOM     22  C   UNL     1      -8.242  -1.576   6.824  1.00  0.00     0.000 C 
BRANCH  22  23
ATOM     23  C   UNL     1      -7.062  -1.464   7.808  1.00  0.00     0.000 C 
BRANCH  23  24
ATOM     24  C   UNL     1      -6.125  -0.271   7.522  1.00  0.00    -0.000 C 
BRANCH  24  25
ATOM     25  C   UNL     1      -5.616   0.399   8.811  1.00  0.00    -0.000 C 
BRANCH  25  26
ATOM     26  C   UNL     1      -6.502   1.586   9.247  1.00  0.00    -0.000 C 
BRANCH  26  27
ATOM     27  C   UNL     1      -7.342   2.187   8.104  1.00  0.00    -0.000 C 
BRANCH  27  28
ATOM     28  C   UNL     1      -6.776   3.481   7.488  1.00  0.00    -0.000 C 
BRANCH  28  29
ATOM     29  C   UNL     1      -6.454   3.394   5.984  1.00  0.00    -0.000 C 
BRANCH  29  30
ATOM     30  C   UNL     1      -5.099   2.723   5.701  1.00  0.00    -0.000 C 
BRANCH  30  31
ATOM     31  C   UNL     1      -3.969   3.744   5.492  1.00  0.00    -0.003 C 
ATOM     32  C   UNL     1      -3.867   4.220   4.042  1.00  0.00     0.004 C 
ENDBRANCH  30  31
ENDBRANCH  29  30
ENDBRANCH  28  29
ENDBRANCH  27  28
ENDBRANCH  26  27
ENDBRANCH  25  26
ENDBRANCH  24  25
ENDBRANCH  23  24
ENDBRANCH  22  23
ENDBRANCH  21  22
ENDBRANCH  20  21
ENDBRANCH  19  20
ENDBRANCH  18  19
ENDBRANCH   1  18
TORSDOF 28
ENDMDL
MODEL 6
REMARK VINA RESULT:    -3.582      1.164      2.648
REMARK INTER + INTRA:         -14.089
REMARK INTER:                  -8.537
REMARK INTRA:                  -5.552
REMARK UNBOUND:                -4.643
REMARK SMILES CCCCCCCCCCCCCCCCCCCCCCCCCCCCCC(=O)[O-]
REMARK SMILES IDX 16 1 17 2 18 3 19 4 20 5 21 6 22 7 23 8 24 9 25 10 26 11
REMARK SMILES IDX 27 12 28 13 29 14 30 15 31 16 32 17 15 18 14 19 13 20 12 21
REMARK SMILES IDX 11 22 10 23 9 24 8 25 7 26 6 27 5 28 4 29 3 30 2 31 1 32
REMARK H PARENT
REMARK Flexibility Score: inf
ROOT
ATOM      1  C   UNL     1      -5.864  -1.508   1.751  1.00  0.00     0.000 C 
ENDROOT
BRANCH   1   2
ATOM      2  C   UNL     1      -6.451  -1.605   3.172  1.00  0.00     0.000 C 
BRANCH   2   3
ATOM      3  C   UNL     1      -5.632  -2.460   4.160  1.00  0.00     0.000 C 
BRANCH   3   4
ATOM      4  C   UNL     1      -6.365  -2.826   5.463  1.00  0.00     0.000 C 
BRANCH   4   5
ATOM      5  C   UNL     1      -6.369  -4.340   5.738  1.00  0.00     0.000 C 
BRANCH   5   6
ATOM      6  C   UNL     1      -5.111  -5.042   5.189  1.00  0.00     0.000 C 
BRANCH   6   7
ATOM      7  C   UNL     1      -5.213  -6.579   5.148  1.00  0.00     0.000 C 
BRANCH   7   8
ATOM      8  C   UNL     1      -6.649  -7.121   5.313  1.00  0.00     0.000 C 
BRANCH   8   9
ATOM      9  C   UNL     1      -6.927  -8.396   4.496  1.00  0.00     0.000 C 
BRANCH   9  10
ATOM     10  C   UNL     1      -5.701  -8.849   3.681  1.00  0.00     0.000 C 
BRANCH  10  11
ATOM     11  C   UNL     1      -5.850  -8.538   2.178  1.00  0.00     0.000 C 
BRANCH  11  12
ATOM     12  C   UNL     1      -7.107  -9.150   1.529  1.00  0.00     0.000 C 
BRANCH  12  13
ATOM     13  C   UNL     1      -7.252  -8.850   0.024  1.00  0.00     0.006 C 
BRANCH  13  14
ATOM     14  C   UNL     1      -8.262  -7.730  -0.257  1.00  0.00     0.053 C 
BRANCH  14  15
ATOM     15  C   UNL     1      -7.790  -6.871  -1.387  1.00  0.00     0.041 C 
ATOM     16  O   UNL     1      -6.678  -6.284  -1.316  1.00  0.00    -0.550 OA
ATOM     17  O   UNL     1      -8.601  -6.679  -2.498  1.00  0.00    -0.550 OA
ENDBRANCH  14  15
ENDBRANCH  13  14
ENDBRANCH  12  13
ENDBRANCH  11  12
ENDBRANCH  10  11
ENDBRANCH   9  10
ENDBRANCH   8   9
ENDBRANCH   7   8
ENDBRANCH   6   7
ENDBRANCH   5   6
ENDBRANCH   4   5
ENDBRANCH   3   4
ENDBRANCH   2   3
ENDBRANCH   1   2
BRANCH   1  18
ATOM     18  C   UNL     1      -6.045  -2.768   0.881  1.00  0.00     0.000 C 
BRANCH  18  19
ATOM     19  C   UNL     1      -7.365  -3.531   1.099  1.00  0.00     0.000 C 
BRANCH  19  20
ATOM     20  C   UNL     1      -7.159  -4.900   1.770  1.00  0.00     0.000 C 
BRANCH  20  21
ATOM     21  C   UNL     1      -8.277  -5.250   2.771  1.00  0.00     0.000 C 
BRANCH  21  22
ATOM     22  C   UNL     1      -9.289  -4.122   3.046  1.00  0.00     0.000 C 
BRANCH  22  23
ATOM     23  C   UNL     1      -9.852  -4.086   4.480  1.00  0.00     0.000 C 
BRANCH  23  24
ATOM     24  C   UNL     1     -10.060  -2.660   5.032  1.00  0.00    -0.000 C 
BRANCH  24  25
ATOM     25  C   UNL     1     -10.037  -1.591   3.925  1.00  0.00    -0.000 C 
BRANCH  25  26
ATOM     26  C   UNL     1      -9.743  -0.179   4.476  1.00  0.00    -0.000 C 
BRANCH  26  27
ATOM     27  C   UNL     1      -8.859  -0.177   5.738  1.00  0.00    -0.000 C 
BRANCH  27  28
ATOM     28  C   UNL     1      -8.061   1.120   5.974  1.00  0.00    -0.000 C 
BRANCH  28  29
ATOM     29  C   UNL     1      -6.577   1.049   5.565  1.00  0.00    -0.000 C 
BRANCH  29  30
ATOM     30  C   UNL     1      -5.659   0.621   6.723  1.00  0.00    -0.000 C 
BRANCH  30  31
ATOM     31  C   UNL     1      -5.093   1.820   7.500  1.00  0.00    -0.003 C 
ATOM     32  C   UNL     1      -4.663   2.965   6.583  1.00  0.00     0.004 C 
ENDBRANCH  30  31
ENDBRANCH  29  30
ENDBRANCH  28  29
ENDBRANCH  27  28
ENDBRANCH  26  27
ENDBRANCH  25  26
ENDBRANCH  24  25
ENDBRANCH  23  24
ENDBRANCH  22  23
ENDBRANCH  21  22
ENDBRANCH  20  21
ENDBRANCH  19  20
ENDBRANCH  18  19
ENDBRANCH   1  18
TORSDOF 28
ENDMDL
MODEL 7
REMARK VINA RESULT:    -3.529      1.468      2.188
REMARK INTER + INTRA:         -13.950
REMARK INTER:                  -8.949
REMARK INTRA:                  -5.000
REMARK UNBOUND:                -4.643
REMARK SMILES CCCCCCCCCCCCCCCCCCCCCCCCCCCCCC(=O)[O-]
REMARK SMILES IDX 16 1 17 2 18 3 19 4 20 5 21 6 22 7 23 8 24 9 25 10 26 11
REMARK SMILES IDX 27 12 28 13 29 14 30 15 31 16 32 17 15 18 14 19 13 20 12 21
REMARK SMILES IDX 11 22 10 23 9 24 8 25 7 26 6 27 5 28 4 29 3 30 2 31 1 32
REMARK H PARENT
REMARK Flexibility Score: inf
ROOT
ATOM      1  C   UNL     1      -5.787  -1.504   1.815  1.00  0.00     0.000 C 
ENDROOT
BRANCH   1   2
ATOM      2  C   UNL     1      -6.158  -2.560   0.757  1.00  0.00     0.000 C 
BRANCH   2   3
ATOM      3  C   UNL     1      -7.349  -3.467   1.129  1.00  0.00     0.000 C 
BRANCH   3   4
ATOM      4  C   UNL     1      -7.031  -4.973   1.163  1.00  0.00     0.000 C 
BRANCH   4   5
ATOM      5  C   UNL     1      -7.835  -5.727   2.237  1.00  0.00     0.000 C 
BRANCH   5   6
ATOM      6  C   UNL     1      -8.697  -4.781   3.098  1.00  0.00     0.000 C 
BRANCH   6   7
ATOM      7  C   UNL     1      -9.572  -5.502   4.142  1.00  0.00     0.000 C 
BRANCH   7   8
ATOM      8  C   UNL     1      -8.907  -6.742   4.776  1.00  0.00     0.000 C 
BRANCH   8   9
ATOM      9  C   UNL     1      -8.420  -6.514   6.218  1.00  0.00     0.000 C 
BRANCH   9  10
ATOM     10  C   UNL     1      -6.892  -6.651   6.350  1.00  0.00     0.000 C 
BRANCH  10  11
ATOM     11  C   UNL     1      -6.332  -7.809   5.500  1.00  0.00     0.000 C 
BRANCH  11  12
ATOM     12  C   UNL     1      -5.322  -7.367   4.422  1.00  0.00     0.000 C 
BRANCH  12  13
ATOM     13  C   UNL     1      -5.298  -8.269   3.171  1.00  0.00     0.006 C 
BRANCH  13  14
ATOM     14  C   UNL     1      -6.382  -9.353   3.206  1.00  0.00     0.053 C 
BRANCH  14  15
ATOM     15  C   UNL     1      -7.150  -9.367   1.922  1.00  0.00     0.041 C 
ATOM     16  O   UNL     1      -8.215 -10.031   1.827  1.00  0.00    -0.550 OA
ATOM     17  O   UNL     1      -6.661  -8.685   0.815  1.00  0.00    -0.550 OA
ENDBRANCH  14  15
ENDBRANCH  13  14
ENDBRANCH  12  13
ENDBRANCH  11  12
ENDBRANCH  10  11
ENDBRANCH   9  10
ENDBRANCH   8   9
ENDBRANCH   7   8
ENDBRANCH   6   7
ENDBRANCH   5   6
ENDBRANCH   4   5
ENDBRANCH   3   4
ENDBRANCH   2   3
ENDBRANCH   1   2
BRANCH   1  18
ATOM     18  C   UNL     1      -6.377  -1.748   3.218  1.00  0.00     0.000 C 
BRANCH  18  19
ATOM     19  C   UNL     1      -5.400  -2.356   4.243  1.00  0.00     0.000 C 
BRANCH  19  20
ATOM     20  C   UNL     1      -6.033  -3.489   5.069  1.00  0.00     0.000 C 
BRANCH  20  21
ATOM     21  C   UNL     1      -6.760  -2.978   6.328  1.00  0.00     0.000 C 
BRANCH  21  22
ATOM     22  C   UNL     1      -8.256  -2.661   6.138  1.00  0.00     0.000 C 
BRANCH  22  23
ATOM     23  C   UNL     1      -8.800  -1.526   7.026  1.00  0.00     0.000 C 
BRANCH  23  24
ATOM     24  C   UNL     1      -9.633  -0.479   6.257  1.00  0.00    -0.000 C 
BRANCH  24  25
ATOM     25  C   UNL     1      -8.939   0.893   6.190  1.00  0.00    -0.000 C 
BRANCH  25  26
ATOM     26  C   UNL     1      -7.759   0.908   5.195  1.00  0.00    -0.000 C 
BRANCH  26  27
ATOM     27  C   UNL     1      -6.380   1.045   5.869  1.00  0.00    -0.000 C 
BRANCH  27  28
ATOM     28  C   UNL     1      -6.385   1.792   7.217  1.00  0.00    -0.000 C 
BRANCH  28  29
ATOM     29  C   UNL     1      -5.072   2.526   7.554  1.00  0.00    -0.000 C 
BRANCH  29  30
ATOM     30  C   UNL     1      -4.145   2.680   6.336  1.00  0.00    -0.000 C 
BRANCH  30  31
ATOM     31  C   UNL     1      -4.239   4.074   5.697  1.00  0.00    -0.003 C 
ATOM     32  C   UNL     1      -3.749   4.093   4.249  1.00  0.00     0.004 C 
ENDBRANCH  30  31
ENDBRANCH  29  30
ENDBRANCH  28  29
ENDBRANCH  27  28
ENDBRANCH  26  27
ENDBRANCH  25  26
ENDBRANCH  24  25
ENDBRANCH  23  24
ENDBRANCH  22  23
ENDBRANCH  21  22
ENDBRANCH  20  21
ENDBRANCH  19  20
ENDBRANCH  18  19
ENDBRANCH   1  18
TORSDOF 28
ENDMDL
MODEL 8
REMARK VINA RESULT:    -3.509      3.275      8.874
REMARK INTER + INTRA:         -13.896
REMARK INTER:                  -8.878
REMARK INTRA:                  -5.018
REMARK UNBOUND:                -4.643
REMARK SMILES CCCCCCCCCCCCCCCCCCCCCCCCCCCCCC(=O)[O-]
REMARK SMILES IDX 16 1 17 2 18 3 19 4 20 5 21 6 22 7 23 8 24 9 25 10 26 11
REMARK SMILES IDX 27 12 28 13 29 14 30 15 31 16 32 17 15 18 14 19 13 20 12 21
REMARK SMILES IDX 11 22 10 23 9 24 8 25 7 26 6 27 5 28 4 29 3 30 2 31 1 32
REMARK H PARENT
REMARK Flexibility Score: inf
ROOT
ATOM      1  C   UNL     1      -6.037  -1.860   4.833  1.00  0.00     0.000 C 
ENDROOT
BRANCH   1   2
ATOM      2  C   UNL     1      -5.286  -3.205   4.814  1.00  0.00     0.000 C 
BRANCH   2   3
ATOM      3  C   UNL     1      -6.181  -4.454   4.936  1.00  0.00     0.000 C 
BRANCH   3   4
ATOM      4  C   UNL     1      -7.364  -4.312   5.910  1.00  0.00     0.000 C 
BRANCH   4   5
ATOM      5  C   UNL     1      -8.726  -4.527   5.229  1.00  0.00     0.000 C 
BRANCH   5   6
ATOM      6  C   UNL     1      -9.785  -3.507   5.695  1.00  0.00     0.000 C 
BRANCH   6   7
ATOM      7  C   UNL     1      -9.761  -2.174   4.920  1.00  0.00     0.000 C 
BRANCH   7   8
ATOM      8  C   UNL     1      -9.430  -0.944   5.791  1.00  0.00     0.000 C 
BRANCH   8   9
ATOM      9  C   UNL     1      -9.268  -1.270   7.287  1.00  0.00     0.000 C 
BRANCH   9  10
ATOM     10  C   UNL     1      -7.801  -1.188   7.749  1.00  0.00     0.000 C 
BRANCH  10  11
ATOM     11  C   UNL     1      -7.271   0.259   7.761  1.00  0.00     0.000 C 
BRANCH  11  12
ATOM     12  C   UNL     1      -5.782   0.382   8.144  1.00  0.00     0.000 C 
BRANCH  12  13
ATOM     13  C   UNL     1      -4.919   1.119   7.100  1.00  0.00     0.006 C 
BRANCH  13  14
ATOM     14  C   UNL     1      -5.760   1.760   5.989  1.00  0.00     0.053 C 
BRANCH  14  15
ATOM     15  C   UNL     1      -5.189   3.087   5.601  1.00  0.00     0.041 C 
ATOM     16  O   UNL     1      -4.921   3.945   6.483  1.00  0.00    -0.550 OA
ATOM     17  O   UNL     1      -4.999   3.395   4.260  1.00  0.00    -0.550 OA
ENDBRANCH  14  15
ENDBRANCH  13  14
ENDBRANCH  12  13
ENDBRANCH  11  12
ENDBRANCH  10  11
ENDBRANCH   9  10
ENDBRANCH   8   9
ENDBRANCH   7   8
ENDBRANCH   6   7
ENDBRANCH   5   6
ENDBRANCH   4   5
ENDBRANCH   3   4
ENDBRANCH   2   3
ENDBRANCH   1   2
BRANCH   1  18
ATOM     18  C   UNL     1      -6.492  -1.344   3.453  1.00  0.00     0.000 C 
BRANCH  18  19
ATOM     19  C   UNL     1      -5.664  -1.854   2.258  1.00  0.00     0.000 C 
BRANCH  19  20
ATOM     20  C   UNL     1      -6.537  -2.441   1.136  1.00  0.00     0.000 C 
BRANCH  20  21
ATOM     21  C   UNL     1      -8.009  -2.622   1.555  1.00  0.00     0.000 C 
BRANCH  21  22
ATOM     22  C   UNL     1      -8.523  -4.074   1.536  1.00  0.00     0.000 C 
BRANCH  22  23
ATOM     23  C   UNL     1      -7.436  -5.154   1.698  1.00  0.00     0.000 C 
BRANCH  23  24
ATOM     24  C   UNL     1      -7.096  -5.896   0.388  1.00  0.00    -0.000 C 
BRANCH  24  25
ATOM     25  C   UNL     1      -8.285  -6.709  -0.154  1.00  0.00    -0.000 C 
BRANCH  25  26
ATOM     26  C   UNL     1      -7.835  -7.903  -1.023  1.00  0.00    -0.000 C 
BRANCH  26  27
ATOM     27  C   UNL     1      -7.258  -9.079  -0.212  1.00  0.00    -0.000 C 
BRANCH  27  28
ATOM     28  C   UNL     1      -8.108  -9.519   0.996  1.00  0.00    -0.000 C 
BRANCH  28  29
ATOM     29  C   UNL     1      -7.452  -9.281   2.370  1.00  0.00    -0.000 C 
BRANCH  29  30
ATOM     30  C   UNL     1      -5.974  -8.868   2.262  1.00  0.00    -0.000 C 
BRANCH  30  31
ATOM     31  C   UNL     1      -5.350  -8.554   3.631  1.00  0.00    -0.003 C 
ATOM     32  C   UNL     1      -5.255  -9.786   4.531  1.00  0.00     0.004 C 
ENDBRANCH  30  31
ENDBRANCH  29  30
ENDBRANCH  28  29
ENDBRANCH  27  28
ENDBRANCH  26  27
ENDBRANCH  25  26
ENDBRANCH  24  25
ENDBRANCH  23  24
ENDBRANCH  22  23
ENDBRANCH  21  22
ENDBRANCH  20  21
ENDBRANCH  19  20
ENDBRANCH  18  19
ENDBRANCH   1  18
TORSDOF 28
ENDMDL
MODEL 9
REMARK VINA RESULT:    -3.479      2.921      4.099
REMARK INTER + INTRA:         -13.816
REMARK INTER:                  -9.127
REMARK INTRA:                  -4.689
REMARK UNBOUND:                -4.643
REMARK SMILES CCCCCCCCCCCCCCCCCCCCCCCCCCCCCC(=O)[O-]
REMARK SMILES IDX 16 1 17 2 18 3 19 4 20 5 21 6 22 7 23 8 24 9 25 10 26 11
REMARK SMILES IDX 27 12 28 13 29 14 30 15 31 16 32 17 15 18 14 19 13 20 12 21
REMARK SMILES IDX 11 22 10 23 9 24 8 25 7 26 6 27 5 28 4 29 3 30 2 31 1 32
REMARK H PARENT
REMARK Flexibility Score: inf
ROOT
ATOM      1  C   UNL     1      -6.305  -2.040   3.450  1.00  0.00     0.000 C 
ENDROOT
BRANCH   1   2
ATOM      2  C   UNL     1      -5.793  -1.490   2.104  1.00  0.00     0.000 C 
BRANCH   2   3
ATOM      3  C   UNL     1      -6.193  -2.318   0.866  1.00  0.00     0.000 C 
BRANCH   3   4
ATOM      4  C   UNL     1      -7.240  -3.415   1.131  1.00  0.00     0.000 C 
BRANCH   4   5
ATOM      5  C   UNL     1      -6.745  -4.818   0.735  1.00  0.00     0.000 C 
BRANCH   5   6
ATOM      6  C   UNL     1      -7.807  -5.908   0.984  1.00  0.00     0.000 C 
BRANCH   6   7
ATOM      7  C   UNL     1      -7.547  -7.226   0.227  1.00  0.00     0.000 C 
BRANCH   7   8
ATOM      8  C   UNL     1      -6.642  -8.221   0.984  1.00  0.00     0.000 C 
BRANCH   8   9
ATOM      9  C   UNL     1      -6.889  -8.248   2.504  1.00  0.00     0.000 C 
BRANCH   9  10
ATOM     10  C   UNL     1      -5.581  -8.365   3.309  1.00  0.00     0.000 C 
BRANCH  10  11
ATOM     11  C   UNL     1      -5.488  -9.694   4.085  1.00  0.00     0.000 C 
BRANCH  11  12
ATOM     12  C   UNL     1      -5.589  -9.538   5.616  1.00  0.00     0.000 C 
BRANCH  12  13
ATOM     13  C   UNL     1      -6.601  -8.470   6.077  1.00  0.00     0.006 C 
BRANCH  13  14
ATOM     14  C   UNL     1      -5.956  -7.387   6.951  1.00  0.00     0.053 C 
BRANCH  14  15
ATOM     15  C   UNL     1      -6.196  -7.672   8.400  1.00  0.00     0.041 C 
ATOM     16  O   UNL     1      -5.539  -8.571   8.987  1.00  0.00    -0.550 OA
ATOM     17  O   UNL     1      -7.183  -6.977   9.089  1.00  0.00    -0.550 OA
ENDBRANCH  14  15
ENDBRANCH  13  14
ENDBRANCH  12  13
ENDBRANCH  11  12
ENDBRANCH  10  11
ENDBRANCH   9  10
ENDBRANCH   8   9
ENDBRANCH   7   8
ENDBRANCH   6   7
ENDBRANCH   5   6
ENDBRANCH   4   5
ENDBRANCH   3   4
ENDBRANCH   2   3
ENDBRANCH   1   2
BRANCH   1  18
ATOM     18  C   UNL     1      -5.218  -2.628   4.372  1.00  0.00     0.000 C 
BRANCH  18  19
ATOM     19  C   UNL     1      -5.652  -3.853   5.199  1.00  0.00     0.000 C 
BRANCH  19  20
ATOM     20  C   UNL     1      -6.595  -4.790   4.426  1.00  0.00     0.000 C 
BRANCH  20  21
ATOM     21  C   UNL     1      -7.984  -4.916   5.081  1.00  0.00     0.000 C 
BRANCH  21  22
ATOM     22  C   UNL     1      -9.136  -4.239   4.313  1.00  0.00     0.000 C 
BRANCH  22  23
ATOM     23  C   UNL     1      -9.554  -2.857   4.850  1.00  0.00     0.000 C 
BRANCH  23  24
ATOM     24  C   UNL     1      -8.932  -2.505   6.217  1.00  0.00    -0.000 C 
BRANCH  24  25
ATOM     25  C   UNL     1      -8.372  -1.072   6.259  1.00  0.00    -0.000 C 
BRANCH  25  26
ATOM     26  C   UNL     1      -7.104  -0.960   7.132  1.00  0.00    -0.000 C 
BRANCH  26  27
ATOM     27  C   UNL     1      -6.140   0.156   6.685  1.00  0.00    -0.000 C 
BRANCH  27  28
ATOM     28  C   UNL     1      -6.686   1.089   5.586  1.00  0.00    -0.000 C 
BRANCH  28  29
ATOM     29  C   UNL     1      -5.866   2.374   5.362  1.00  0.00    -0.000 C 
BRANCH  29  30
ATOM     30  C   UNL     1      -4.705   2.523   6.361  1.00  0.00    -0.000 C 
BRANCH  30  31
ATOM     31  C   UNL     1      -3.831   3.752   6.068  1.00  0.00    -0.003 C 
ATOM     32  C   UNL     1      -3.791   4.105   4.581  1.00  0.00     0.004 C 
ENDBRANCH  30  31
ENDBRANCH  29  30
ENDBRANCH  28  29
ENDBRANCH  27  28
ENDBRANCH  26  27
ENDBRANCH  25  26
ENDBRANCH  24  25
ENDBRANCH  23  24
ENDBRANCH  22  23
ENDBRANCH  21  22
ENDBRANCH  20  21
ENDBRANCH  19  20
ENDBRANCH  18  19
ENDBRANCH   1  18
TORSDOF 28
ENDMDL
