MODEL 1
REMARK VINA RESULT:    -3.369      0.000      0.000
REMARK INTER + INTRA:          -4.629
REMARK INTER:                  -4.452
REMARK INTRA:                  -0.177
REMARK UNBOUND:                -0.177
REMARK SMILES CCCCCCCO
REMARK SMILES IDX 5 1 4 2 3 3 2 4 1 5 6 6 7 7 8 8
REMARK H PARENT 8 9
REMARK Flexibility Score: inf
ROOT
ATOM      1  C   UNL     1       6.666  11.386  11.499  1.00  0.00     0.002 C 
ENDROOT
BRANCH   1   2
ATOM      2  C   UNL     1       5.812  11.073  10.261  1.00  0.00     0.000 C 
BRANCH   2   3
ATOM      3  C   UNL     1       4.462  11.808  10.272  1.00  0.00    -0.000 C 
BRANCH   3   4
ATOM      4  C   UNL     1       4.263  12.663  11.532  1.00  0.00    -0.003 C 
ATOM      5  C   UNL     1       3.186  12.069  12.434  1.00  0.00     0.004 C 
ENDBRANCH   3   4
ENDBRANCH   2   3
ENDBRANCH   1   2
BRANCH   1   6
ATOM      6  C   UNL     1       8.125  10.969  11.277  1.00  0.00     0.028 C 
BRANCH   6   7
ATOM      7  C   UNL     1       8.277  10.058  10.054  1.00  0.00     0.156 C 
BRANCH   7   8
ATOM      8  O   UNL     1       9.142   8.988  10.329  1.00  0.00    -0.396 OA
ATOM      9  H   UNL     1       9.414   9.081  11.279  1.00  0.00     0.210 HD
ENDBRANCH   7   8
ENDBRANCH   6   7
ENDBRANCH   1   6
TORSDOF 6
ENDMDL
MODEL 2
REMARK VINA RESULT:    -3.364      4.994      6.022
REMARK INTER + INTRA:          -4.624
REMARK INTER:                  -4.528
REMARK INTRA:                  -0.096
REMARK UNBOUND:                -0.177
REMARK SMILES CCCCCCCO
REMARK SMILES IDX 5 1 4 2 3 3 2 4 1 5 6 6 7 7 8 8
REMARK H PARENT 8 9
REMARK Flexibility Score: inf
ROOT
ATOM      1  C   UNL     1       5.487  12.591  15.588  1.00  0.00     0.002 C 
ENDROOT
BRANCH   1   2
ATOM      2  C   UNL     1       4.437  12.329  14.497  1.00  0.00     0.000 C 
BRANCH   2   3
ATOM      3  C   UNL     1       4.677  13.168  13.232  1.00  0.00    -0.000 C 
BRANCH   3   4
ATOM      4  C   UNL     1       3.662  12.864  12.119  1.00  0.00    -0.003 C 
ATOM      5  C   UNL     1       4.322  12.124  10.961  1.00  0.00     0.004 C 
ENDBRANCH   3   4
ENDBRANCH   2   3
ENDBRANCH   1   2
BRANCH   1   6
ATOM      6  C   UNL     1       5.571  14.087  15.918  1.00  0.00     0.028 C 
BRANCH   6   7
ATOM      7  C   UNL     1       5.512  14.340  17.429  1.00  0.00     0.156 C 
BRANCH   7   8
ATOM      8  O   UNL     1       4.654  15.409  17.726  1.00  0.00    -0.396 OA
ATOM      9  H   UNL     1       3.782  15.009  17.981  1.00  0.00     0.210 HD
ENDBRANCH   7   8
ENDBRANCH   6   7
ENDBRANCH   1   6
TORSDOF 6
ENDMDL
MODEL 3
REMARK VINA RESULT:    -3.320      1.124      1.577
REMARK INTER + INTRA:          -4.565
REMARK INTER:                  -4.375
REMARK INTRA:                  -0.190
REMARK UNBOUND:                -0.177
REMARK SMILES CCCCCCCO
REMARK SMILES IDX 5 1 4 2 3 3 2 4 1 5 6 6 7 7 8 8
REMARK H PARENT 8 9
REMARK Flexibility Score: inf
ROOT
ATOM      1  C   UNL     1       5.624  10.705  10.679  1.00  0.00     0.002 C 
ENDROOT
BRANCH   1   2
ATOM      2  C   UNL     1       4.661  11.820  10.247  1.00  0.00     0.000 C 
BRANCH   2   3
ATOM      3  C   UNL     1       4.042  12.564  11.441  1.00  0.00    -0.000 C 
BRANCH   3   4
ATOM      4  C   UNL     1       4.875  12.420  12.724  1.00  0.00    -0.003 C 
ATOM      5  C   UNL     1       5.213  13.786  13.315  1.00  0.00     0.004 C 
ENDBRANCH   3   4
ENDBRANCH   2   3
ENDBRANCH   1   2
BRANCH   1   6
ATOM      6  C   UNL     1       6.990  10.867   9.999  1.00  0.00     0.028 C 
BRANCH   6   7
ATOM      7  C   UNL     1       8.125  10.299  10.859  1.00  0.00     0.156 C 
BRANCH   7   8
ATOM      8  O   UNL     1       8.566   9.066  10.356  1.00  0.00    -0.396 OA
ATOM      9  H   UNL     1       8.592   8.440  11.126  1.00  0.00     0.210 HD
ENDBRANCH   7   8
ENDBRANCH   6   7
ENDBRANCH   1   6
TORSDOF 6
ENDMDL
MODEL 4
REMARK VINA RESULT:    -3.298      5.985      7.279
REMARK INTER + INTRA:          -4.536
REMARK INTER:                  -4.231
REMARK INTRA:                  -0.305
REMARK UNBOUND:                -0.177
REMARK SMILES CCCCCCCO
REMARK SMILES IDX 5 1 4 2 3 3 2 4 1 5 6 6 7 7 8 8
REMARK H PARENT 8 9
REMARK Flexibility Score: inf
ROOT
ATOM      1  C   UNL     1       5.979  14.145  14.678  1.00  0.00     0.002 C 
ENDROOT
BRANCH   1   2
ATOM      2  C   UNL     1       7.048  15.160  15.110  1.00  0.00     0.000 C 
BRANCH   2   3
ATOM      3  C   UNL     1       8.462  14.755  14.667  1.00  0.00    -0.000 C 
BRANCH   3   4
ATOM      4  C   UNL     1       8.818  13.314  15.065  1.00  0.00    -0.003 C 
ATOM      5  C   UNL     1       9.453  13.268  16.451  1.00  0.00     0.004 C 
ENDBRANCH   3   4
ENDBRANCH   2   3
ENDBRANCH   1   2
BRANCH   1   6
ATOM      6  C   UNL     1       5.078  13.761  15.859  1.00  0.00     0.028 C 
BRANCH   6   7
ATOM      7  C   UNL     1       5.546  14.411  17.166  1.00  0.00     0.156 C 
BRANCH   7   8
ATOM      8  O   UNL     1       4.590  15.319  17.646  1.00  0.00    -0.396 OA
ATOM      9  H   UNL     1       5.087  16.129  17.932  1.00  0.00     0.210 HD
ENDBRANCH   7   8
ENDBRANCH   6   7
ENDBRANCH   1   6
TORSDOF 6
ENDMDL
MODEL 5
REMARK VINA RESULT:    -3.289      3.135      4.707
REMARK INTER + INTRA:          -4.524
REMARK INTER:                  -4.245
REMARK INTRA:                  -0.279
REMARK UNBOUND:                -0.177
REMARK SMILES CCCCCCCO
REMARK SMILES IDX 5 1 4 2 3 3 2 4 1 5 6 6 7 7 8 8
REMARK H PARENT 8 9
REMARK Flexibility Score: inf
ROOT
ATOM      1  C   UNL     1       3.735  12.039  13.577  1.00  0.00     0.002 C 
ENDROOT
BRANCH   1   2
ATOM      2  C   UNL     1       4.408  12.926  14.635  1.00  0.00     0.000 C 
BRANCH   2   3
ATOM      3  C   UNL     1       5.923  12.687  14.730  1.00  0.00    -0.000 C 
BRANCH   3   4
ATOM      4  C   UNL     1       6.740  13.773  14.013  1.00  0.00    -0.003 C 
ATOM      5  C   UNL     1       7.798  13.154  13.105  1.00  0.00     0.004 C 
ENDBRANCH   3   4
ENDBRANCH   2   3
ENDBRANCH   1   2
BRANCH   1   6
ATOM      6  C   UNL     1       3.666  12.758  12.223  1.00  0.00     0.028 C 
BRANCH   6   7
ATOM      7  C   UNL     1       4.551  12.078  11.173  1.00  0.00     0.156 C 
BRANCH   7   8
ATOM      8  O   UNL     1       4.158  12.440   9.876  1.00  0.00    -0.396 OA
ATOM      9  H   UNL     1       4.959  12.829   9.436  1.00  0.00     0.210 HD
ENDBRANCH   7   8
ENDBRANCH   6   7
ENDBRANCH   1   6
TORSDOF 6
ENDMDL
MODEL 6
REMARK VINA RESULT:    -3.269      1.599      2.214
REMARK INTER + INTRA:          -4.498
REMARK INTER:                  -4.337
REMARK INTRA:                  -0.161
REMARK UNBOUND:                -0.177
REMARK SMILES CCCCCCCO
REMARK SMILES IDX 5 1 4 2 3 3 2 4 1 5 6 6 7 7 8 8
REMARK H PARENT 8 9
REMARK Flexibility Score: inf
ROOT
ATOM      1  C   UNL     1       7.740  11.353  12.454  1.00  0.00     0.002 C 
ENDROOT
BRANCH   1   2
ATOM      2  C   UNL     1       7.469  12.812  12.848  1.00  0.00     0.000 C 
BRANCH   2   3
ATOM      3  C   UNL     1       6.302  12.952  13.838  1.00  0.00    -0.000 C 
BRANCH   3   4
ATOM      4  C   UNL     1       5.134  13.770  13.265  1.00  0.00    -0.003 C 
ATOM      5  C   UNL     1       4.244  12.908  12.376  1.00  0.00     0.004 C 
ENDBRANCH   3   4
ENDBRANCH   2   3
ENDBRANCH   1   2
BRANCH   1   6
ATOM      6  C   UNL     1       8.213  11.257  10.998  1.00  0.00     0.028 C 
BRANCH   6   7
ATOM      7  C   UNL     1       8.003   9.852  10.422  1.00  0.00     0.156 C 
BRANCH   7   8
ATOM      8  O   UNL     1       9.226   9.177  10.287  1.00  0.00    -0.396 OA
ATOM      9  H   UNL     1       9.008   8.212  10.205  1.00  0.00     0.210 HD
ENDBRANCH   7   8
ENDBRANCH   6   7
ENDBRANCH   1   6
TORSDOF 6
ENDMDL
MODEL 7
REMARK VINA RESULT:    -3.241      2.835      4.009
REMARK INTER + INTRA:          -4.461
REMARK INTER:                  -4.111
REMARK INTRA:                  -0.350
REMARK UNBOUND:                -0.177
REMARK SMILES CCCCCCCO
REMARK SMILES IDX 5 1 4 2 3 3 2 4 1 5 6 6 7 7 8 8
REMARK H PARENT 8 9
REMARK Flexibility Score: inf
ROOT
ATOM      1  C   UNL     1       4.678  12.970  14.557  1.00  0.00     0.002 C 
ENDROOT
BRANCH   1   2
ATOM      2  C   UNL     1       4.119  12.071  13.444  1.00  0.00     0.000 C 
BRANCH   2   3
ATOM      3  C   UNL     1       3.819  12.845  12.151  1.00  0.00    -0.000 C 
BRANCH   3   4
ATOM      4  C   UNL     1       4.257  12.084  10.890  1.00  0.00    -0.003 C 
ATOM      5  C   UNL     1       5.682  11.559  11.033  1.00  0.00     0.004 C 
ENDBRANCH   3   4
ENDBRANCH   2   3
ENDBRANCH   1   2
BRANCH   1   6
ATOM      6  C   UNL     1       5.633  14.024  13.980  1.00  0.00     0.028 C 
BRANCH   6   7
ATOM      7  C   UNL     1       7.099  13.601  14.121  1.00  0.00     0.156 C 
BRANCH   7   8
ATOM      8  O   UNL     1       7.786  13.757  12.908  1.00  0.00    -0.396 OA
ATOM      9  H   UNL     1       7.186  14.271  12.307  1.00  0.00     0.210 HD
ENDBRANCH   7   8
ENDBRANCH   6   7
ENDBRANCH   1   6
TORSDOF 6
ENDMDL
MODEL 8
REMARK VINA RESULT:    -3.174      5.765      6.919
REMARK INTER + INTRA:          -4.372
REMARK INTER:                  -4.193
REMARK INTRA:                  -0.179
REMARK UNBOUND:                -0.177
REMARK SMILES CCCCCCCO
REMARK SMILES IDX 5 1 4 2 3 3 2 4 1 5 6 6 7 7 8 8
REMARK H PARENT 8 9
REMARK Flexibility Score: inf
ROOT
ATOM      1  C   UNL     1       7.127  15.242  15.181  1.00  0.00     0.002 C 
ENDROOT
BRANCH   1   2
ATOM      2  C   UNL     1       8.548  14.758  14.855  1.00  0.00     0.000 C 
BRANCH   2   3
ATOM      3  C   UNL     1       8.589  13.277  14.444  1.00  0.00    -0.000 C 
BRANCH   3   4
ATOM      4  C   UNL     1       7.425  12.887  13.520  1.00  0.00    -0.003 C 
ATOM      5  C   UNL     1       7.939  12.305  12.206  1.00  0.00     0.004 C 
ENDBRANCH   3   4
ENDBRANCH   2   3
ENDBRANCH   1   2
BRANCH   1   6
ATOM      6  C   UNL     1       6.844  15.135  16.685  1.00  0.00     0.028 C 
BRANCH   6   7
ATOM      7  C   UNL     1       5.478  14.498  16.963  1.00  0.00     0.156 C 
BRANCH   7   8
ATOM      8  O   UNL     1       4.686  15.337  17.761  1.00  0.00    -0.396 OA
ATOM      9  H   UNL     1       5.158  16.209  17.812  1.00  0.00     0.210 HD
ENDBRANCH   7   8
ENDBRANCH   6   7
ENDBRANCH   1   6
TORSDOF 6
ENDMDL
MODEL 9
REMARK VINA RESULT:    -3.161      2.630      3.862
REMARK INTER + INTRA:          -4.355
REMARK INTER:                  -4.121
REMARK INTRA:                  -0.234
REMARK UNBOUND:                -0.177
REMARK SMILES CCCCCCCO
REMARK SMILES IDX 5 1 4 2 3 3 2 4 1 5 6 6 7 7 8 8
REMARK H PARENT 8 9
REMARK Flexibility Score: inf
ROOT
ATOM      1  C   UNL     1       4.930  12.574  13.109  1.00  0.00     0.002 C 
ENDROOT
BRANCH   1   2
ATOM      2  C   UNL     1       3.922  12.769  11.966  1.00  0.00     0.000 C 
BRANCH   2   3
ATOM      3  C   UNL     1       4.360  12.077  10.666  1.00  0.00    -0.000 C 
BRANCH   3   4
ATOM      4  C   UNL     1       5.728  11.389  10.793  1.00  0.00    -0.003 C 
ATOM      5  C   UNL     1       5.659   9.939  10.324  1.00  0.00     0.004 C 
ENDBRANCH   3   4
ENDBRANCH   2   3
ENDBRANCH   1   2
BRANCH   1   6
ATOM      6  C   UNL     1       5.469  13.924  13.600  1.00  0.00     0.028 C 
BRANCH   6   7
ATOM      7  C   UNL     1       6.944  13.834  14.006  1.00  0.00     0.156 C 
BRANCH   7   8
ATOM      8  O   UNL     1       7.767  13.686  12.879  1.00  0.00    -0.396 OA
ATOM      9  H   UNL     1       7.276  14.087  12.115  1.00  0.00     0.210 HD
ENDBRANCH   7   8
ENDBRANCH   6   7
ENDBRANCH   1   6
TORSDOF 6
ENDMDL
