MODEL 1
REMARK VINA RESULT:    -4.734      0.000      0.000
REMARK INTER + INTRA:          -7.013
REMARK INTER:                  -6.394
REMARK INTRA:                  -0.619
REMARK UNBOUND:                -0.619
REMARK SMILES CCCCCCCC(=O)[O-]
REMARK SMILES IDX 5 1 6 2 7 3 8 4 9 5 10 6 4 7 3 8 2 9 1 10
REMARK H PARENT
REMARK Flexibility Score: inf
ROOT
ATOM      1  C   UNL     1      -2.749  35.110  98.497  1.00  0.00     0.000 C 
ENDROOT
BRANCH   1   2
ATOM      2  C   UNL     1      -3.291  36.322  97.716  1.00  0.00     0.006 C 
BRANCH   2   3
ATOM      3  C   UNL     1      -4.815  36.290  97.494  1.00  0.00     0.053 C 
BRANCH   3   4
ATOM      4  C   UNL     1      -5.447  37.642  97.629  1.00  0.00     0.041 C 
ATOM      5  O   UNL     1      -4.841  38.571  98.225  1.00  0.00    -0.550 OA
ATOM      6  O   UNL     1      -6.694  37.886  97.069  1.00  0.00    -0.550 OA
ENDBRANCH   3   4
ENDBRANCH   2   3
ENDBRANCH   1   2
BRANCH   1   7
ATOM      7  C   UNL     1      -3.313  35.012  99.924  1.00  0.00     0.000 C 
BRANCH   7   8
ATOM      8  C   UNL     1      -2.730  36.079 100.864  1.00  0.00    -0.000 C 
BRANCH   8   9
ATOM      9  C   UNL     1      -3.793  37.068 101.364  1.00  0.00    -0.003 C 
ATOM     10  C   UNL     1      -5.194  36.475 101.248  1.00  0.00     0.004 C 
ENDBRANCH   8   9
ENDBRANCH   7   8
ENDBRANCH   1   7
TORSDOF 6
ENDMDL
MODEL 2
REMARK VINA RESULT:    -4.614      1.484      2.045
REMARK INTER + INTRA:          -6.851
REMARK INTER:                  -6.282
REMARK INTRA:                  -0.569
REMARK UNBOUND:                -0.619
REMARK SMILES CCCCCCCC(=O)[O-]
REMARK SMILES IDX 5 1 6 2 7 3 8 4 9 5 10 6 4 7 3 8 2 9 1 10
REMARK H PARENT
REMARK Flexibility Score: inf
ROOT
ATOM      1  C   UNL     1      -3.944  34.544  99.936  1.00  0.00     0.000 C 
ENDROOT
BRANCH   1   2
ATOM      2  C   UNL     1      -4.556  34.525  98.524  1.00  0.00     0.006 C 
BRANCH   2   3
ATOM      3  C   UNL     1      -5.391  35.775  98.189  1.00  0.00     0.053 C 
BRANCH   3   4
ATOM      4  C   UNL     1      -4.841  36.542  97.025  1.00  0.00     0.041 C 
ATOM      5  O   UNL     1      -5.619  37.066  96.185  1.00  0.00    -0.550 OA
ATOM      6  O   UNL     1      -3.469  36.708  96.886  1.00  0.00    -0.550 OA
ENDBRANCH   3   4
ENDBRANCH   2   3
ENDBRANCH   1   2
BRANCH   1   7
ATOM      7  C   UNL     1      -2.718  35.465 100.050  1.00  0.00     0.000 C 
BRANCH   7   8
ATOM      8  C   UNL     1      -2.772  36.371 101.290  1.00  0.00    -0.000 C 
BRANCH   8   9
ATOM      9  C   UNL     1      -3.698  37.581 101.096  1.00  0.00    -0.003 C 
ATOM     10  C   UNL     1      -3.240  38.441  99.923  1.00  0.00     0.004 C 
ENDBRANCH   8   9
ENDBRANCH   7   8
ENDBRANCH   1   7
TORSDOF 6
ENDMDL
MODEL 3
REMARK VINA RESULT:    -4.525      1.895      3.862
REMARK INTER + INTRA:          -6.731
REMARK INTER:                  -6.208
REMARK INTRA:                  -0.523
REMARK UNBOUND:                -0.619
REMARK SMILES CCCCCCCC(=O)[O-]
REMARK SMILES IDX 5 1 6 2 7 3 8 4 9 5 10 6 4 7 3 8 2 9 1 10
REMARK H PARENT
REMARK Flexibility Score: inf
ROOT
ATOM      1  C   UNL     1      -4.980  35.618 100.465  1.00  0.00     0.000 C 
ENDROOT
BRANCH   1   2
ATOM      2  C   UNL     1      -4.667  36.696 101.518  1.00  0.00     0.006 C 
BRANCH   2   3
ATOM      3  C   UNL     1      -3.162  36.941 101.732  1.00  0.00     0.053 C 
BRANCH   3   4
ATOM      4  C   UNL     1      -2.685  38.208 101.089  1.00  0.00     0.041 C 
ATOM      5  O   UNL     1      -1.635  38.772 101.495  1.00  0.00    -0.550 OA
ATOM      6  O   UNL     1      -3.383  38.749 100.017  1.00  0.00    -0.550 OA
ENDBRANCH   3   4
ENDBRANCH   2   3
ENDBRANCH   1   2
BRANCH   1   7
ATOM      7  C   UNL     1      -3.786  34.693 100.176  1.00  0.00     0.000 C 
BRANCH   7   8
ATOM      8  C   UNL     1      -3.202  34.904  98.770  1.00  0.00    -0.000 C 
BRANCH   8   9
ATOM      9  C   UNL     1      -4.073  35.824  97.902  1.00  0.00    -0.003 C 
ATOM     10  C   UNL     1      -3.216  36.804  97.108  1.00  0.00     0.004 C 
ENDBRANCH   8   9
ENDBRANCH   7   8
ENDBRANCH   1   7
TORSDOF 6
ENDMDL
MODEL 4
REMARK VINA RESULT:    -4.513      1.380      2.363
REMARK INTER + INTRA:          -6.715
REMARK INTER:                  -6.143
REMARK INTRA:                  -0.572
REMARK UNBOUND:                -0.619
REMARK SMILES CCCCCCCC(=O)[O-]
REMARK SMILES IDX 5 1 6 2 7 3 8 4 9 5 10 6 4 7 3 8 2 9 1 10
REMARK H PARENT
REMARK Flexibility Score: inf
ROOT
ATOM      1  C   UNL     1      -3.248  38.093 100.181  1.00  0.00     0.000 C 
ENDROOT
BRANCH   1   2
ATOM      2  C   UNL     1      -3.488  38.023  98.661  1.00  0.00     0.006 C 
BRANCH   2   3
ATOM      3  C   UNL     1      -4.804  38.680  98.207  1.00  0.00     0.053 C 
BRANCH   3   4
ATOM      4  C   UNL     1      -5.656  37.761  97.384  1.00  0.00     0.041 C 
ATOM      5  O   UNL     1      -6.849  38.065  97.122  1.00  0.00    -0.550 OA
ATOM      6  O   UNL     1      -5.121  36.584  96.878  1.00  0.00    -0.550 OA
ENDBRANCH   3   4
ENDBRANCH   2   3
ENDBRANCH   1   2
BRANCH   1   7
ATOM      7  C   UNL     1      -3.485  36.751 100.891  1.00  0.00     0.000 C 
BRANCH   7   8
ATOM      8  C   UNL     1      -4.978  36.433 101.072  1.00  0.00    -0.000 C 
BRANCH   8   9
ATOM      9  C   UNL     1      -5.442  35.261 100.195  1.00  0.00    -0.003 C 
ATOM     10  C   UNL     1      -4.252  34.497  99.624  1.00  0.00     0.004 C 
ENDBRANCH   8   9
ENDBRANCH   7   8
ENDBRANCH   1   7
TORSDOF 6
ENDMDL
MODEL 5
REMARK VINA RESULT:    -4.493      3.343      4.528
REMARK INTER + INTRA:          -6.688
REMARK INTER:                  -6.359
REMARK INTRA:                  -0.329
REMARK UNBOUND:                -0.619
REMARK SMILES CCCCCCCC(=O)[O-]
REMARK SMILES IDX 5 1 6 2 7 3 8 4 9 5 10 6 4 7 3 8 2 9 1 10
REMARK H PARENT
REMARK Flexibility Score: inf
ROOT
ATOM      1  C   UNL     1      -2.513  36.463 100.887  1.00  0.00     0.000 C 
ENDROOT
BRANCH   1   2
ATOM      2  C   UNL     1      -3.546  37.588 101.077  1.00  0.00     0.006 C 
BRANCH   2   3
ATOM      3  C   UNL     1      -2.933  39.001 101.100  1.00  0.00     0.053 C 
BRANCH   3   4
ATOM      4  C   UNL     1      -2.314  39.340 102.422  1.00  0.00     0.041 C 
ATOM      5  O   UNL     1      -2.844  38.942 103.493  1.00  0.00    -0.550 OA
ATOM      6  O   UNL     1      -1.133  40.069 102.471  1.00  0.00    -0.550 OA
ENDBRANCH   3   4
ENDBRANCH   2   3
ENDBRANCH   1   2
BRANCH   1   7
ATOM      7  C   UNL     1      -3.152  35.117 100.508  1.00  0.00     0.000 C 
BRANCH   7   8
ATOM      8  C   UNL     1      -3.247  34.915  98.987  1.00  0.00    -0.000 C 
BRANCH   8   9
ATOM      9  C   UNL     1      -4.598  34.326  98.555  1.00  0.00    -0.003 C 
ATOM     10  C   UNL     1      -5.759  35.131  99.128  1.00  0.00     0.004 C 
ENDBRANCH   8   9
ENDBRANCH   7   8
ENDBRANCH   1   7
TORSDOF 6
ENDMDL
MODEL 6
REMARK VINA RESULT:    -4.486      2.489      3.766
REMARK INTER + INTRA:          -6.679
REMARK INTER:                  -6.136
REMARK INTRA:                  -0.543
REMARK UNBOUND:                -0.619
REMARK SMILES CCCCCCCC(=O)[O-]
REMARK SMILES IDX 5 1 6 2 7 3 8 4 9 5 10 6 4 7 3 8 2 9 1 10
REMARK H PARENT
REMARK Flexibility Score: inf
ROOT
ATOM      1  C   UNL     1      -3.243  37.797  98.105  1.00  0.00     0.000 C 
ENDROOT
BRANCH   1   2
ATOM      2  C   UNL     1      -4.029  38.261  99.345  1.00  0.00     0.006 C 
BRANCH   2   3
ATOM      3  C   UNL     1      -3.141  38.603 100.555  1.00  0.00     0.053 C 
BRANCH   3   4
ATOM      4  C   UNL     1      -3.450  37.761 101.756  1.00  0.00     0.041 C 
ATOM      5  O   UNL     1      -2.947  38.041 102.875  1.00  0.00    -0.550 OA
ATOM      6  O   UNL     1      -4.321  36.685 101.645  1.00  0.00    -0.550 OA
ENDBRANCH   3   4
ENDBRANCH   2   3
ENDBRANCH   1   2
BRANCH   1   7
ATOM      7  C   UNL     1      -3.622  36.379  97.647  1.00  0.00     0.000 C 
BRANCH   7   8
ATOM      8  C   UNL     1      -3.046  35.288  98.564  1.00  0.00    -0.000 C 
BRANCH   8   9
ATOM      9  C   UNL     1      -4.113  34.287  99.032  1.00  0.00    -0.003 C 
ATOM     10  C   UNL     1      -5.518  34.836  98.809  1.00  0.00     0.004 C 
ENDBRANCH   8   9
ENDBRANCH   7   8
ENDBRANCH   1   7
TORSDOF 6
ENDMDL
MODEL 7
REMARK VINA RESULT:    -4.414      1.918      3.789
REMARK INTER + INTRA:          -6.581
REMARK INTER:                  -6.023
REMARK INTRA:                  -0.558
REMARK UNBOUND:                -0.619
REMARK SMILES CCCCCCCC(=O)[O-]
REMARK SMILES IDX 5 1 6 2 7 3 8 4 9 5 10 6 4 7 3 8 2 9 1 10
REMARK H PARENT
REMARK Flexibility Score: inf
ROOT
ATOM      1  C   UNL     1      -3.001  35.244  99.812  1.00  0.00     0.000 C 
ENDROOT
BRANCH   1   2
ATOM      2  C   UNL     1      -4.410  35.260 100.433  1.00  0.00     0.006 C 
BRANCH   2   3
ATOM      3  C   UNL     1      -4.865  36.652 100.910  1.00  0.00     0.053 C 
BRANCH   3   4
ATOM      4  C   UNL     1      -3.724  37.505 101.376  1.00  0.00     0.041 C 
ATOM      5  O   UNL     1      -3.333  38.479 100.680  1.00  0.00    -0.550 OA
ATOM      6  O   UNL     1      -3.114  37.245 102.596  1.00  0.00    -0.550 OA
ENDBRANCH   3   4
ENDBRANCH   2   3
ENDBRANCH   1   2
BRANCH   1   7
ATOM      7  C   UNL     1      -3.020  35.204  98.276  1.00  0.00     0.000 C 
BRANCH   7   8
ATOM      8  C   UNL     1      -3.103  36.604  97.649  1.00  0.00    -0.000 C 
BRANCH   8   9
ATOM      9  C   UNL     1      -4.406  36.823  96.865  1.00  0.00    -0.003 C 
ATOM     10  C   UNL     1      -5.203  37.990  97.438  1.00  0.00     0.004 C 
ENDBRANCH   8   9
ENDBRANCH   7   8
ENDBRANCH   1   7
TORSDOF 6
ENDMDL
MODEL 8
REMARK VINA RESULT:    -4.393      2.124      3.130
REMARK INTER + INTRA:          -6.552
REMARK INTER:                  -6.137
REMARK INTRA:                  -0.415
REMARK UNBOUND:                -0.619
REMARK SMILES CCCCCCCC(=O)[O-]
REMARK SMILES IDX 5 1 6 2 7 3 8 4 9 5 10 6 4 7 3 8 2 9 1 10
REMARK H PARENT
REMARK Flexibility Score: inf
ROOT
ATOM      1  C   UNL     1      -5.036  36.725 100.718  1.00  0.00     0.000 C 
ENDROOT
BRANCH   1   2
ATOM      2  C   UNL     1      -5.137  35.284 100.183  1.00  0.00     0.006 C 
BRANCH   2   3
ATOM      3  C   UNL     1      -4.958  35.170  98.658  1.00  0.00     0.053 C 
BRANCH   3   4
ATOM      4  C   UNL     1      -3.608  35.630  98.198  1.00  0.00     0.041 C 
ATOM      5  O   UNL     1      -3.495  36.670  97.497  1.00  0.00    -0.550 OA
ATOM      6  O   UNL     1      -2.470  34.929  98.573  1.00  0.00    -0.550 OA
ENDBRANCH   3   4
ENDBRANCH   2   3
ENDBRANCH   1   2
BRANCH   1   7
ATOM      7  C   UNL     1      -4.052  36.864 101.891  1.00  0.00     0.000 C 
BRANCH   7   8
ATOM      8  C   UNL     1      -2.604  37.086 101.425  1.00  0.00    -0.000 C 
BRANCH   8   9
ATOM      9  C   UNL     1      -2.291  38.566 101.160  1.00  0.00    -0.003 C 
ATOM     10  C   UNL     1      -2.797  39.448 102.297  1.00  0.00     0.004 C 
ENDBRANCH   8   9
ENDBRANCH   7   8
ENDBRANCH   1   7
TORSDOF 6
ENDMDL
MODEL 9
REMARK VINA RESULT:    -4.259      2.622      3.553
REMARK INTER + INTRA:          -6.371
REMARK INTER:                  -5.905
REMARK INTRA:                  -0.466
REMARK UNBOUND:                -0.619
REMARK SMILES CCCCCCCC(=O)[O-]
REMARK SMILES IDX 5 1 6 2 7 3 8 4 9 5 10 6 4 7 3 8 2 9 1 10
REMARK H PARENT
REMARK Flexibility Score: inf
ROOT
ATOM      1  C   UNL     1      -5.335  36.935  97.684  1.00  0.00     0.000 C 
ENDROOT
BRANCH   1   2
ATOM      2  C   UNL     1      -5.800  35.739  98.535  1.00  0.00     0.006 C 
BRANCH   2   3
ATOM      3  C   UNL     1      -4.902  34.495  98.406  1.00  0.00     0.053 C 
BRANCH   3   4
ATOM      4  C   UNL     1      -3.610  34.635  99.154  1.00  0.00     0.041 C 
ATOM      5  O   UNL     1      -2.542  34.886  98.537  1.00  0.00    -0.550 OA
ATOM      6  O   UNL     1      -3.592  34.519 100.538  1.00  0.00    -0.550 OA
ENDBRANCH   3   4
ENDBRANCH   2   3
ENDBRANCH   1   2
BRANCH   1   7
ATOM      7  C   UNL     1      -5.007  38.181  98.524  1.00  0.00     0.000 C 
BRANCH   7   8
ATOM      8  C   UNL     1      -3.511  38.288  98.861  1.00  0.00    -0.000 C 
BRANCH   8   9
ATOM      9  C   UNL     1      -3.263  38.869 100.261  1.00  0.00    -0.003 C 
ATOM     10  C   UNL     1      -2.637  37.829 101.185  1.00  0.00     0.004 C 
ENDBRANCH   8   9
ENDBRANCH   7   8
ENDBRANCH   1   7
TORSDOF 6
ENDMDL
