MODEL 1
REMARK VINA RESULT:    -4.160      0.000      0.000
REMARK INTER + INTRA:          -4.552
REMARK INTER:                  -4.525
REMARK INTRA:                  -0.027
REMARK UNBOUND:                -0.027
REMARK SMILES O=C([O-])c1ccc(O)cc1
REMARK SMILES IDX 7 1 6 2 9 3 5 4 10 5 4 6 8 7 2 9 1 10 3 11
REMARK H PARENT 8 8
REMARK Flexibility Score: inf
ROOT
ATOM      1  C   UNL     1       2.452 -14.489  14.729  1.00  0.00     0.115 A 
ATOM      2  C   UNL     1       2.804 -15.839  14.822  1.00  0.00     0.047 A 
ATOM      3  C   UNL     1       3.455 -13.512  14.678  1.00  0.00     0.047 A 
ATOM      4  C   UNL     1       4.150 -16.215  14.864  1.00  0.00     0.014 A 
ATOM      5  C   UNL     1       4.802 -13.884  14.719  1.00  0.00     0.014 A 
ATOM      6  C   UNL     1       5.164 -15.241  14.814  1.00  0.00    -0.003 A 
ENDROOT
BRANCH   1   7
ATOM      7  O   UNL     1       1.107 -14.130  14.688  1.00  0.00    -0.508 OA
ATOM      8  H   UNL     1       0.820 -13.171  14.530  1.00  0.00     0.293 HD
ENDBRANCH   1   7
BRANCH   6   9
ATOM      9  C   UNL     1       6.587 -15.642  14.859  1.00  0.00     0.071 C 
ATOM     10  O   UNL     1       7.114 -16.009  15.943  1.00  0.00    -0.545 OA
ATOM     11  O   UNL     1       7.363 -15.620  13.705  1.00  0.00    -0.545 OA
ENDBRANCH   6   9
TORSDOF 2
ENDMDL
MODEL 2
REMARK VINA RESULT:    -3.695      2.457      3.437
REMARK INTER + INTRA:          -4.047
REMARK INTER:                  -4.019
REMARK INTRA:                  -0.028
REMARK UNBOUND:                -0.027
REMARK SMILES O=C([O-])c1ccc(O)cc1
REMARK SMILES IDX 7 1 6 2 9 3 5 4 10 5 4 6 8 7 2 9 1 10 3 11
REMARK H PARENT 8 8
REMARK Flexibility Score: inf
ROOT
ATOM      1  C   UNL     1       4.099 -16.305  14.770  1.00  0.00     0.115 A 
ATOM      2  C   UNL     1       2.957 -15.510  14.639  1.00  0.00     0.047 A 
ATOM      3  C   UNL     1       5.362 -15.701  14.823  1.00  0.00     0.047 A 
ATOM      4  C   UNL     1       3.071 -14.118  14.560  1.00  0.00     0.014 A 
ATOM      5  C   UNL     1       5.481 -14.310  14.745  1.00  0.00     0.014 A 
ATOM      6  C   UNL     1       4.335 -13.503  14.612  1.00  0.00    -0.003 A 
ENDROOT
BRANCH   1   7
ATOM      7  O   UNL     1       3.969 -17.689  14.847  1.00  0.00    -0.508 OA
ATOM      8  H   UNL     1       4.291 -18.207  15.657  1.00  0.00     0.293 HD
ENDBRANCH   1   7
BRANCH   6   9
ATOM      9  C   UNL     1       4.453 -12.032  14.529  1.00  0.00     0.071 C 
ATOM     10  O   UNL     1       4.117 -11.307  15.503  1.00  0.00    -0.545 OA
ATOM     11  O   UNL     1       4.936 -11.427  13.373  1.00  0.00    -0.545 OA
ENDBRANCH   6   9
TORSDOF 2
ENDMDL
MODEL 3
REMARK VINA RESULT:    -3.680      2.435      3.480
REMARK INTER + INTRA:          -4.030
REMARK INTER:                  -4.003
REMARK INTRA:                  -0.027
REMARK UNBOUND:                -0.027
REMARK SMILES O=C([O-])c1ccc(O)cc1
REMARK SMILES IDX 7 1 6 2 9 3 5 4 10 5 4 6 8 7 2 9 1 10 3 11
REMARK H PARENT 8 8
REMARK Flexibility Score: inf
ROOT
ATOM      1  C   UNL     1       4.115 -16.408  14.767  1.00  0.00     0.115 A 
ATOM      2  C   UNL     1       5.372 -15.798  14.833  1.00  0.00     0.047 A 
ATOM      3  C   UNL     1       2.966 -15.616  14.642  1.00  0.00     0.047 A 
ATOM      4  C   UNL     1       5.485 -14.406  14.774  1.00  0.00     0.014 A 
ATOM      5  C   UNL     1       3.074 -14.224  14.583  1.00  0.00     0.014 A 
ATOM      6  C   UNL     1       4.336 -13.603  14.649  1.00  0.00    -0.003 A 
ENDROOT
BRANCH   1   7
ATOM      7  O   UNL     1       4.020 -17.796  14.828  1.00  0.00    -0.508 OA
ATOM      8  H   UNL     1       3.630 -18.264  15.637  1.00  0.00     0.293 HD
ENDBRANCH   1   7
BRANCH   6   9
ATOM      9  C   UNL     1       4.458 -12.131  14.587  1.00  0.00     0.071 C 
ATOM     10  O   UNL     1       4.215 -11.425  15.602  1.00  0.00    -0.545 OA
ATOM     11  O   UNL     1       4.843 -11.504  13.407  1.00  0.00    -0.545 OA
ENDBRANCH   6   9
TORSDOF 2
ENDMDL
MODEL 4
REMARK VINA RESULT:    -3.678      2.247      4.256
REMARK INTER + INTRA:          -4.028
REMARK INTER:                  -4.001
REMARK INTRA:                  -0.027
REMARK UNBOUND:                -0.027
REMARK SMILES O=C([O-])c1ccc(O)cc1
REMARK SMILES IDX 7 1 6 2 9 3 5 4 10 5 4 6 8 7 2 9 1 10 3 11
REMARK H PARENT 8 8
REMARK Flexibility Score: inf
ROOT
ATOM      1  C   UNL     1       4.822 -18.204  16.362  1.00  0.00     0.115 A 
ATOM      2  C   UNL     1       4.187 -17.203  17.103  1.00  0.00     0.047 A 
ATOM      3  C   UNL     1       4.909 -18.086  14.969  1.00  0.00     0.047 A 
ATOM      4  C   UNL     1       3.640 -16.089  16.460  1.00  0.00     0.014 A 
ATOM      5  C   UNL     1       4.364 -16.973  14.321  1.00  0.00     0.014 A 
ATOM      6  C   UNL     1       3.722 -15.962  15.061  1.00  0.00    -0.003 A 
ENDROOT
BRANCH   1   7
ATOM      7  O   UNL     1       5.362 -19.308  17.017  1.00  0.00    -0.508 OA
ATOM      8  H   UNL     1       6.331 -19.576  16.892  1.00  0.00     0.293 HD
ENDBRANCH   1   7
BRANCH   6   9
ATOM      9  C   UNL     1       3.143 -14.783  14.383  1.00  0.00     0.071 C 
ATOM     10  O   UNL     1       1.976 -14.825  13.910  1.00  0.00    -0.545 OA
ATOM     11  O   UNL     1       3.878 -13.609  14.258  1.00  0.00    -0.545 OA
ENDBRANCH   6   9
TORSDOF 2
ENDMDL
MODEL 5
REMARK VINA RESULT:    -3.667      2.555      3.372
REMARK INTER + INTRA:          -4.016
REMARK INTER:                  -3.989
REMARK INTRA:                  -0.027
REMARK UNBOUND:                -0.027
REMARK SMILES O=C([O-])c1ccc(O)cc1
REMARK SMILES IDX 7 1 6 2 9 3 5 4 10 5 4 6 8 7 2 9 1 10 3 11
REMARK H PARENT 8 8
REMARK Flexibility Score: inf
ROOT
ATOM      1  C   UNL     1       5.122 -17.659  14.068  1.00  0.00     0.115 A 
ATOM      2  C   UNL     1       6.452 -17.274  13.874  1.00  0.00     0.047 A 
ATOM      3  C   UNL     1       4.204 -16.742  14.596  1.00  0.00     0.047 A 
ATOM      4  C   UNL     1       6.867 -15.980  14.203  1.00  0.00     0.014 A 
ATOM      5  C   UNL     1       4.614 -15.447  14.926  1.00  0.00     0.014 A 
ATOM      6  C   UNL     1       5.952 -15.052  14.734  1.00  0.00    -0.003 A 
ENDROOT
BRANCH   1   7
ATOM      7  O   UNL     1       4.724 -18.952  13.736  1.00  0.00    -0.508 OA
ATOM      8  H   UNL     1       3.752 -19.179  13.565  1.00  0.00     0.293 HD
ENDBRANCH   1   7
BRANCH   6   9
ATOM      9  C   UNL     1       6.393 -13.684  15.081  1.00  0.00     0.071 C 
ATOM     10  O   UNL     1       6.698 -13.392  16.269  1.00  0.00    -0.545 OA
ATOM     11  O   UNL     1       6.478 -12.700  14.102  1.00  0.00    -0.545 OA
ENDBRANCH   6   9
TORSDOF 2
ENDMDL
MODEL 6
REMARK VINA RESULT:    -3.636      1.662      2.195
REMARK INTER + INTRA:          -3.982
REMARK INTER:                  -3.953
REMARK INTRA:                  -0.029
REMARK UNBOUND:                -0.027
REMARK SMILES O=C([O-])c1ccc(O)cc1
REMARK SMILES IDX 7 1 6 2 9 3 5 4 10 5 4 6 8 7 2 9 1 10 3 11
REMARK H PARENT 8 8
REMARK Flexibility Score: inf
ROOT
ATOM      1  C   UNL     1       2.031 -14.571  15.234  1.00  0.00     0.115 A 
ATOM      2  C   UNL     1       2.775 -15.456  14.448  1.00  0.00     0.047 A 
ATOM      3  C   UNL     1       2.433 -14.308  16.550  1.00  0.00     0.047 A 
ATOM      4  C   UNL     1       3.915 -16.076  14.969  1.00  0.00     0.014 A 
ATOM      5  C   UNL     1       3.572 -14.925  17.076  1.00  0.00     0.014 A 
ATOM      6  C   UNL     1       4.325 -15.818  16.290  1.00  0.00    -0.003 A 
ENDROOT
BRANCH   1   7
ATOM      7  O   UNL     1       0.898 -13.962  14.701  1.00  0.00    -0.508 OA
ATOM      8  H   UNL     1       0.640 -14.084  13.729  1.00  0.00     0.293 HD
ENDBRANCH   1   7
BRANCH   6   9
ATOM      9  C   UNL     1       5.531 -16.475  16.838  1.00  0.00     0.071 C 
ATOM     10  O   UNL     1       6.655 -16.308  16.294  1.00  0.00    -0.545 OA
ATOM     11  O   UNL     1       5.442 -17.287  17.964  1.00  0.00    -0.545 OA
ENDBRANCH   6   9
TORSDOF 2
ENDMDL
MODEL 7
REMARK VINA RESULT:    -3.581      1.941      2.536
REMARK INTER + INTRA:          -3.922
REMARK INTER:                  -3.895
REMARK INTRA:                  -0.028
REMARK UNBOUND:                -0.027
REMARK SMILES O=C([O-])c1ccc(O)cc1
REMARK SMILES IDX 7 1 6 2 9 3 5 4 10 5 4 6 8 7 2 9 1 10 3 11
REMARK H PARENT 8 8
REMARK Flexibility Score: inf
ROOT
ATOM      1  C   UNL     1       2.802 -13.246  15.362  1.00  0.00     0.115 A 
ATOM      2  C   UNL     1       4.177 -13.471  15.245  1.00  0.00     0.047 A 
ATOM      3  C   UNL     1       1.913 -14.324  15.271  1.00  0.00     0.047 A 
ATOM      4  C   UNL     1       4.665 -14.765  15.038  1.00  0.00     0.014 A 
ATOM      5  C   UNL     1       2.396 -15.620  15.065  1.00  0.00     0.014 A 
ATOM      6  C   UNL     1       3.779 -15.854  14.945  1.00  0.00    -0.003 A 
ENDROOT
BRANCH   1   7
ATOM      7  O   UNL     1       2.332 -11.951  15.567  1.00  0.00    -0.508 OA
ATOM      8  H   UNL     1       2.896 -11.251  16.035  1.00  0.00     0.293 HD
ENDBRANCH   1   7
BRANCH   6   9
ATOM      9  C   UNL     1       4.297 -17.221  14.726  1.00  0.00     0.071 C 
ATOM     10  O   UNL     1       4.277 -18.070  15.658  1.00  0.00    -0.545 OA
ATOM     11  O   UNL     1       4.815 -17.590  13.489  1.00  0.00    -0.545 OA
ENDBRANCH   6   9
TORSDOF 2
ENDMDL
MODEL 8
REMARK VINA RESULT:    -3.514      1.628      1.830
REMARK INTER + INTRA:          -3.849
REMARK INTER:                  -3.822
REMARK INTRA:                  -0.027
REMARK UNBOUND:                -0.027
REMARK SMILES O=C([O-])c1ccc(O)cc1
REMARK SMILES IDX 7 1 6 2 9 3 5 4 10 5 4 6 8 7 2 9 1 10 3 11
REMARK H PARENT 8 8
REMARK Flexibility Score: inf
ROOT
ATOM      1  C   UNL     1       2.848 -13.553  15.318  1.00  0.00     0.115 A 
ATOM      2  C   UNL     1       2.165 -14.771  15.273  1.00  0.00     0.047 A 
ATOM      3  C   UNL     1       4.242 -13.534  15.182  1.00  0.00     0.047 A 
ATOM      4  C   UNL     1       2.866 -15.967  15.092  1.00  0.00     0.014 A 
ATOM      5  C   UNL     1       4.948 -14.727  15.001  1.00  0.00     0.014 A 
ATOM      6  C   UNL     1       4.266 -15.958  14.955  1.00  0.00    -0.003 A 
ENDROOT
BRANCH   1   7
ATOM      7  O   UNL     1       2.135 -12.370  15.499  1.00  0.00    -0.508 OA
ATOM      8  H   UNL     1       2.111 -11.652  14.784  1.00  0.00     0.293 HD
ENDBRANCH   1   7
BRANCH   6   9
ATOM      9  C   UNL     1       5.005 -17.224  14.765  1.00  0.00     0.071 C 
ATOM     10  O   UNL     1       5.617 -17.759  15.728  1.00  0.00    -0.545 OA
ATOM     11  O   UNL     1       5.036 -17.843  13.520  1.00  0.00    -0.545 OA
ENDBRANCH   6   9
TORSDOF 2
ENDMDL
MODEL 9
REMARK VINA RESULT:    -3.452      1.221      4.359
REMARK INTER + INTRA:          -3.782
REMARK INTER:                  -3.749
REMARK INTRA:                  -0.034
REMARK UNBOUND:                -0.027
REMARK SMILES O=C([O-])c1ccc(O)cc1
REMARK SMILES IDX 7 1 6 2 9 3 5 4 10 5 4 6 8 7 2 9 1 10 3 11
REMARK H PARENT 8 8
REMARK Flexibility Score: inf
ROOT
ATOM      1  C   UNL     1       6.041 -16.645  14.671  1.00  0.00     0.115 A 
ATOM      2  C   UNL     1       6.226 -15.261  14.740  1.00  0.00     0.047 A 
ATOM      3  C   UNL     1       4.745 -17.174  14.699  1.00  0.00     0.047 A 
ATOM      4  C   UNL     1       5.123 -14.406  14.836  1.00  0.00     0.014 A 
ATOM      5  C   UNL     1       3.639 -16.323  14.795  1.00  0.00     0.014 A 
ATOM      6  C   UNL     1       3.817 -14.929  14.865  1.00  0.00    -0.003 A 
ENDROOT
BRANCH   1   7
ATOM      7  O   UNL     1       7.150 -17.483  14.576  1.00  0.00    -0.508 OA
ATOM      8  H   UNL     1       7.384 -18.136  15.315  1.00  0.00     0.293 HD
ENDBRANCH   1   7
BRANCH   6   9
ATOM      9  C   UNL     1       2.653 -14.023  14.967  1.00  0.00     0.071 C 
ATOM     10  O   UNL     1       2.758 -12.907  15.544  1.00  0.00    -0.545 OA
ATOM     11  O   UNL     1       1.425 -14.389  14.427  1.00  0.00    -0.545 OA
ENDBRANCH   6   9
TORSDOF 2
ENDMDL
