MODEL 1
REMARK VINA RESULT:    -4.482      0.000      0.000
REMARK INTER + INTRA:          -5.006
REMARK INTER:                  -5.006
REMARK INTRA:                   0.000
REMARK UNBOUND:                 0.000
REMARK SMILES Oc1cc(O)c2c(ccc3ccc(O)c(O)c32)c1
REMARK SMILES IDX 9 1 8 2 7 3 18 4 2 5 3 6 4 7 6 8 17 9 10 10 11 11 12 12
REMARK SMILES IDX 13 13 15 14 16 15 1 17 5 19 14 21
REMARK H PARENT 16 16 1 18 5 20 14 22
REMARK Flexibility Score: inf
ROOT
ATOM      1  C   UNL     1     120.315 121.884 105.869  1.00  0.00     0.009 A 
ATOM      2  C   UNL     1     119.501 122.951 106.224  1.00  0.00     0.009 A 
ATOM      3  C   UNL     1     119.999 123.989 107.019  1.00  0.00    -0.010 A 
ATOM      4  C   UNL     1     119.133 125.017 107.424  1.00  0.00     0.055 A 
ATOM      5  C   UNL     1     119.566 125.991 108.321  1.00  0.00     0.119 A 
ATOM      6  C   UNL     1     120.849 125.911 108.863  1.00  0.00     0.093 A 
ATOM      7  C   UNL     1     121.722 124.879 108.487  1.00  0.00     0.127 A 
ATOM      8  C   UNL     1     121.356 123.978 107.449  1.00  0.00     0.035 A 
ATOM      9  C   UNL     1     122.242 122.998 106.891  1.00  0.00     0.039 A 
ATOM     10  C   UNL     1     121.678 121.898 106.186  1.00  0.00    -0.014 A 
ATOM     11  C   UNL     1     122.490 120.839 105.759  1.00  0.00     0.013 A 
ATOM     12  C   UNL     1     123.863 120.878 105.972  1.00  0.00     0.051 A 
ATOM     13  C   UNL     1     124.460 122.009 106.526  1.00  0.00     0.158 A 
ATOM     14  C   UNL     1     123.663 123.114 106.903  1.00  0.00     0.166 A 
ENDROOT
BRANCH  14  15
ATOM     15  O   UNL     1     124.257 124.351 107.166  1.00  0.00    -0.504 OA
ATOM     16  H   UNL     1     124.496 125.023 106.451  1.00  0.00     0.293 HD
ENDBRANCH  14  15
BRANCH   5  17
ATOM     17  O   UNL     1     118.699 127.016 108.695  1.00  0.00    -0.508 OA
ATOM     18  H   UNL     1     118.559 127.263 109.667  1.00  0.00     0.293 HD
ENDBRANCH   5  17
BRANCH   7  19
ATOM     19  O   UNL     1     122.898 124.708 109.218  1.00  0.00    -0.507 OA
ATOM     20  H   UNL     1     123.737 125.238 109.015  1.00  0.00     0.293 HD
ENDBRANCH   7  19
BRANCH  13  21
ATOM     21  O   UNL     1     125.848 122.005 106.680  1.00  0.00    -0.504 OA
ATOM     22  H   UNL     1     126.330 122.508 107.412  1.00  0.00     0.293 HD
ENDBRANCH  13  21
TORSDOF 4
ENDMDL
MODEL 2
REMARK VINA RESULT:    -4.475      4.004      6.775
REMARK INTER + INTRA:          -4.999
REMARK INTER:                  -4.999
REMARK INTRA:                   0.000
REMARK UNBOUND:                 0.000
REMARK SMILES Oc1cc(O)c2c(ccc3ccc(O)c(O)c32)c1
REMARK SMILES IDX 9 1 8 2 7 3 18 4 2 5 3 6 4 7 6 8 17 9 10 10 11 11 12 12
REMARK SMILES IDX 13 13 15 14 16 15 1 17 5 19 14 21
REMARK H PARENT 16 16 1 18 5 20 14 22
REMARK Flexibility Score: inf
ROOT
ATOM      1  C   UNL     1     122.785 121.179 105.875  1.00  0.00     0.009 A 
ATOM      2  C   UNL     1     123.600 120.108 106.218  1.00  0.00     0.009 A 
ATOM      3  C   UNL     1     123.096 119.051 106.984  1.00  0.00    -0.010 A 
ATOM      4  C   UNL     1     123.961 118.018 107.379  1.00  0.00     0.055 A 
ATOM      5  C   UNL     1     123.521 117.023 108.248  1.00  0.00     0.119 A 
ATOM      6  C   UNL     1     122.230 117.087 108.776  1.00  0.00     0.093 A 
ATOM      7  C   UNL     1     121.358 118.122 108.410  1.00  0.00     0.127 A 
ATOM      8  C   UNL     1     121.733 119.048 107.396  1.00  0.00     0.035 A 
ATOM      9  C   UNL     1     120.850 120.035 106.848  1.00  0.00     0.039 A 
ATOM     10  C   UNL     1     121.419 121.153 106.174  1.00  0.00    -0.014 A 
ATOM     11  C   UNL     1     120.608 122.217 105.760  1.00  0.00     0.013 A 
ATOM     12  C   UNL     1     119.233 122.168 105.954  1.00  0.00     0.051 A 
ATOM     13  C   UNL     1     118.633 121.023 106.476  1.00  0.00     0.158 A 
ATOM     14  C   UNL     1     119.430 119.913 106.840  1.00  0.00     0.166 A 
ENDROOT
BRANCH  14  15
ATOM     15  O   UNL     1     118.838 118.668 107.068  1.00  0.00    -0.504 OA
ATOM     16  H   UNL     1     119.247 117.790 106.780  1.00  0.00     0.293 HD
ENDBRANCH  14  15
BRANCH   5  17
ATOM     17  O   UNL     1     124.387 115.994 108.611  1.00  0.00    -0.508 OA
ATOM     18  H   UNL     1     124.174 115.367 109.377  1.00  0.00     0.293 HD
ENDBRANCH   5  17
BRANCH   7  19
ATOM     19  O   UNL     1     120.172 118.273 109.130  1.00  0.00    -0.507 OA
ATOM     20  H   UNL     1     119.628 117.477 109.439  1.00  0.00     0.293 HD
ENDBRANCH   7  19
BRANCH  13  21
ATOM     21  O   UNL     1     117.243 121.019 106.611  1.00  0.00    -0.504 OA
ATOM     22  H   UNL     1     116.608 120.877 105.838  1.00  0.00     0.293 HD
ENDBRANCH  13  21
TORSDOF 4
ENDMDL
MODEL 3
REMARK VINA RESULT:    -4.461      3.392      4.837
REMARK INTER + INTRA:          -4.983
REMARK INTER:                  -4.983
REMARK INTRA:                   0.000
REMARK UNBOUND:                 0.000
REMARK SMILES Oc1cc(O)c2c(ccc3ccc(O)c(O)c32)c1
REMARK SMILES IDX 9 1 8 2 7 3 18 4 2 5 3 6 4 7 6 8 17 9 10 10 11 11 12 12
REMARK SMILES IDX 13 13 15 14 16 15 1 17 5 19 14 21
REMARK H PARENT 16 16 1 18 5 20 14 22
REMARK Flexibility Score: inf
ROOT
ATOM      1  C   UNL     1     121.145 120.242 105.842  1.00  0.00     0.009 A 
ATOM      2  C   UNL     1     120.086 119.418 106.200  1.00  0.00     0.009 A 
ATOM      3  C   UNL     1     119.046 119.906 106.999  1.00  0.00    -0.010 A 
ATOM      4  C   UNL     1     118.027 119.032 107.407  1.00  0.00     0.055 A 
ATOM      5  C   UNL     1     117.053 119.456 108.307  1.00  0.00     0.119 A 
ATOM      6  C   UNL     1     117.125 120.739 108.852  1.00  0.00     0.093 A 
ATOM      7  C   UNL     1     118.148 121.620 108.472  1.00  0.00     0.127 A 
ATOM      8  C   UNL     1     119.049 121.263 107.431  1.00  0.00     0.035 A 
ATOM      9  C   UNL     1     120.019 122.158 106.870  1.00  0.00     0.039 A 
ATOM     10  C   UNL     1     121.121 121.604 106.161  1.00  0.00    -0.014 A 
ATOM     11  C   UNL     1     122.172 122.425 105.731  1.00  0.00     0.013 A 
ATOM     12  C   UNL     1     122.123 123.797 105.946  1.00  0.00     0.051 A 
ATOM     13  C   UNL     1     120.989 124.385 106.505  1.00  0.00     0.158 A 
ATOM     14  C   UNL     1     119.892 123.577 106.885  1.00  0.00     0.166 A 
ENDROOT
BRANCH  14  15
ATOM     15  O   UNL     1     118.650 124.161 107.153  1.00  0.00    -0.504 OA
ATOM     16  H   UNL     1     118.336 124.413 108.080  1.00  0.00     0.293 HD
ENDBRANCH  14  15
BRANCH   5  17
ATOM     17  O   UNL     1     116.037 118.580 108.684  1.00  0.00    -0.508 OA
ATOM     18  H   UNL     1     115.067 118.763 108.454  1.00  0.00     0.293 HD
ENDBRANCH   5  17
BRANCH   7  19
ATOM     19  O   UNL     1     118.313 122.797 109.205  1.00  0.00    -0.507 OA
ATOM     20  H   UNL     1     119.110 123.407 109.066  1.00  0.00     0.293 HD
ENDBRANCH   7  19
BRANCH  13  21
ATOM     21  O   UNL     1     120.983 125.772 106.660  1.00  0.00    -0.504 OA
ATOM     22  H   UNL     1     121.492 126.254 107.388  1.00  0.00     0.293 HD
ENDBRANCH  13  21
TORSDOF 4
ENDMDL
MODEL 4
REMARK VINA RESULT:    -4.424      3.391      4.840
REMARK INTER + INTRA:          -4.941
REMARK INTER:                  -4.941
REMARK INTRA:                   0.000
REMARK UNBOUND:                 0.000
REMARK SMILES Oc1cc(O)c2c(ccc3ccc(O)c(O)c32)c1
REMARK SMILES IDX 9 1 8 2 7 3 18 4 2 5 3 6 4 7 6 8 17 9 10 10 11 11 12 12
REMARK SMILES IDX 13 13 15 14 16 15 1 17 5 19 14 21
REMARK H PARENT 16 16 1 18 5 20 14 22
REMARK Flexibility Score: inf
ROOT
ATOM      1  C   UNL     1     121.963 122.691 105.864  1.00  0.00     0.009 A 
ATOM      2  C   UNL     1     123.034 123.493 106.236  1.00  0.00     0.009 A 
ATOM      3  C   UNL     1     124.058 122.980 107.040  1.00  0.00    -0.010 A 
ATOM      4  C   UNL     1     125.090 123.832 107.461  1.00  0.00     0.055 A 
ATOM      5  C   UNL     1     126.049 123.385 108.367  1.00  0.00     0.119 A 
ATOM      6  C   UNL     1     125.949 122.100 108.902  1.00  0.00     0.093 A 
ATOM      7  C   UNL     1     124.912 121.241 108.510  1.00  0.00     0.127 A 
ATOM      8  C   UNL     1     124.027 121.621 107.463  1.00  0.00     0.035 A 
ATOM      9  C   UNL     1     123.044 120.748 106.890  1.00  0.00     0.039 A 
ATOM     10  C   UNL     1     121.958 121.327 106.175  1.00  0.00    -0.014 A 
ATOM     11  C   UNL     1     120.895 120.529 105.733  1.00  0.00     0.013 A 
ATOM     12  C   UNL     1     120.917 119.155 105.940  1.00  0.00     0.051 A 
ATOM     13  C   UNL     1     122.035 118.542 106.504  1.00  0.00     0.158 A 
ATOM     14  C   UNL     1     123.144 119.326 106.897  1.00  0.00     0.166 A 
ENDROOT
BRANCH  14  15
ATOM     15  O   UNL     1     124.372 118.717 107.172  1.00  0.00    -0.504 OA
ATOM     16  H   UNL     1     124.480 117.731 107.362  1.00  0.00     0.293 HD
ENDBRANCH  14  15
BRANCH   5  17
ATOM     17  O   UNL     1     127.079 124.239 108.756  1.00  0.00    -0.508 OA
ATOM     18  H   UNL     1     128.029 123.907 108.868  1.00  0.00     0.293 HD
ENDBRANCH   5  17
BRANCH   7  19
ATOM     19  O   UNL     1     124.719 120.063 109.234  1.00  0.00    -0.507 OA
ATOM     20  H   UNL     1     124.220 119.272 108.846  1.00  0.00     0.293 HD
ENDBRANCH   7  19
BRANCH  13  21
ATOM     21  O   UNL     1     122.014 117.154 106.651  1.00  0.00    -0.504 OA
ATOM     22  H   UNL     1     122.784 116.621 107.031  1.00  0.00     0.293 HD
ENDBRANCH  13  21
TORSDOF 4
ENDMDL
MODEL 5
REMARK VINA RESULT:    -4.366      3.467      5.614
REMARK INTER + INTRA:          -4.876
REMARK INTER:                  -4.876
REMARK INTRA:                   0.000
REMARK UNBOUND:                 0.000
REMARK SMILES Oc1cc(O)c2c(ccc3ccc(O)c(O)c32)c1
REMARK SMILES IDX 9 1 8 2 7 3 18 4 2 5 3 6 4 7 6 8 17 9 10 10 11 11 12 12
REMARK SMILES IDX 13 13 15 14 16 15 1 17 5 19 14 21
REMARK H PARENT 16 16 1 18 5 20 14 22
REMARK Flexibility Score: inf
ROOT
ATOM      1  C   UNL     1     119.474 122.336 106.198  1.00  0.00     0.009 A 
ATOM      2  C   UNL     1     120.781 122.674 105.874  1.00  0.00     0.009 A 
ATOM      3  C   UNL     1     121.848 121.890 106.326  1.00  0.00    -0.010 A 
ATOM      4  C   UNL     1     123.163 122.296 106.047  1.00  0.00     0.055 A 
ATOM      5  C   UNL     1     124.244 121.610 106.593  1.00  0.00     0.119 A 
ATOM      6  C   UNL     1     124.018 120.548 107.470  1.00  0.00     0.093 A 
ATOM      7  C   UNL     1     122.712 120.141 107.779  1.00  0.00     0.127 A 
ATOM      8  C   UNL     1     121.604 120.720 107.099  1.00  0.00     0.035 A 
ATOM      9  C   UNL     1     120.253 120.257 107.233  1.00  0.00     0.039 A 
ATOM     10  C   UNL     1     119.197 121.137 106.864  1.00  0.00    -0.014 A 
ATOM     11  C   UNL     1     117.864 120.790 107.122  1.00  0.00     0.013 A 
ATOM     12  C   UNL     1     117.557 119.559 107.690  1.00  0.00     0.051 A 
ATOM     13  C   UNL     1     118.559 118.619 107.923  1.00  0.00     0.158 A 
ATOM     14  C   UNL     1     119.903 118.928 107.609  1.00  0.00     0.166 A 
ENDROOT
BRANCH  14  15
ATOM     15  O   UNL     1     120.861 117.912 107.545  1.00  0.00    -0.504 OA
ATOM     16  H   UNL     1     120.637 116.937 107.406  1.00  0.00     0.293 HD
ENDBRANCH  14  15
BRANCH   5  17
ATOM     17  O   UNL     1     125.542 122.015 106.286  1.00  0.00    -0.508 OA
ATOM     18  H   UNL     1     126.200 122.277 107.010  1.00  0.00     0.293 HD
ENDBRANCH   5  17
BRANCH   7  19
ATOM     19  O   UNL     1     122.531 119.237 108.826  1.00  0.00    -0.507 OA
ATOM     20  H   UNL     1     122.879 119.422 109.760  1.00  0.00     0.293 HD
ENDBRANCH   7  19
BRANCH  13  21
ATOM     21  O   UNL     1     118.184 117.385 108.459  1.00  0.00    -0.504 OA
ATOM     22  H   UNL     1     117.679 116.681 107.939  1.00  0.00     0.293 HD
ENDBRANCH  13  21
TORSDOF 4
ENDMDL
MODEL 6
REMARK VINA RESULT:    -4.365      2.779      5.852
REMARK INTER + INTRA:          -4.875
REMARK INTER:                  -4.875
REMARK INTRA:                   0.000
REMARK UNBOUND:                 0.000
REMARK SMILES Oc1cc(O)c2c(ccc3ccc(O)c(O)c32)c1
REMARK SMILES IDX 9 1 8 2 7 3 18 4 2 5 3 6 4 7 6 8 17 9 10 10 11 11 12 12
REMARK SMILES IDX 13 13 15 14 16 15 1 17 5 19 14 21
REMARK H PARENT 16 16 1 18 5 20 14 22
REMARK Flexibility Score: inf
ROOT
ATOM      1  C   UNL     1     122.382 123.511 106.254  1.00  0.00     0.009 A 
ATOM      2  C   UNL     1     122.708 122.207 105.903  1.00  0.00     0.009 A 
ATOM      3  C   UNL     1     121.909 121.139 106.325  1.00  0.00    -0.010 A 
ATOM      4  C   UNL     1     122.302 119.827 106.019  1.00  0.00     0.055 A 
ATOM      5  C   UNL     1     121.600 118.741 106.536  1.00  0.00     0.119 A 
ATOM      6  C   UNL     1     120.535 118.959 107.410  1.00  0.00     0.093 A 
ATOM      7  C   UNL     1     120.139 120.263 107.745  1.00  0.00     0.127 A 
ATOM      8  C   UNL     1     120.736 121.379 107.095  1.00  0.00     0.035 A 
ATOM      9  C   UNL     1     120.287 122.732 107.255  1.00  0.00     0.039 A 
ATOM     10  C   UNL     1     121.182 123.786 106.917  1.00  0.00    -0.014 A 
ATOM     11  C   UNL     1     120.847 125.117 107.202  1.00  0.00     0.013 A 
ATOM     12  C   UNL     1     119.616 125.425 107.768  1.00  0.00     0.051 A 
ATOM     13  C   UNL     1     118.662 124.428 107.972  1.00  0.00     0.158 A 
ATOM     14  C   UNL     1     118.959 123.088 107.630  1.00  0.00     0.166 A 
ENDROOT
BRANCH  14  15
ATOM     15  O   UNL     1     117.933 122.144 107.537  1.00  0.00    -0.504 OA
ATOM     16  H   UNL     1     117.074 122.296 107.029  1.00  0.00     0.293 HD
ENDBRANCH  14  15
BRANCH   5  17
ATOM     17  O   UNL     1     121.993 117.446 106.203  1.00  0.00    -0.508 OA
ATOM     18  H   UNL     1     121.839 116.668 106.832  1.00  0.00     0.293 HD
ENDBRANCH   5  17
BRANCH   7  19
ATOM     19  O   UNL     1     119.229 120.430 108.790  1.00  0.00    -0.507 OA
ATOM     20  H   UNL     1     119.418 121.048 109.571  1.00  0.00     0.293 HD
ENDBRANCH   7  19
BRANCH  13  21
ATOM     21  O   UNL     1     117.429 124.805 108.508  1.00  0.00    -0.504 OA
ATOM     22  H   UNL     1     117.321 125.529 109.205  1.00  0.00     0.293 HD
ENDBRANCH  13  21
TORSDOF 4
ENDMDL
MODEL 7
REMARK VINA RESULT:    -4.362      2.128      3.404
REMARK INTER + INTRA:          -4.872
REMARK INTER:                  -4.872
REMARK INTRA:                   0.000
REMARK UNBOUND:                 0.000
REMARK SMILES Oc1cc(O)c2c(ccc3ccc(O)c(O)c32)c1
REMARK SMILES IDX 9 1 8 2 7 3 18 4 2 5 3 6 4 7 6 8 17 9 10 10 11 11 12 12
REMARK SMILES IDX 13 13 15 14 16 15 1 17 5 19 14 21
REMARK H PARENT 16 16 1 18 5 20 14 22
REMARK Flexibility Score: inf
ROOT
ATOM      1  C   UNL     1     123.339 120.522 106.078  1.00  0.00     0.009 A 
ATOM      2  C   UNL     1     122.003 120.221 105.848  1.00  0.00     0.009 A 
ATOM      3  C   UNL     1     120.992 121.028 106.381  1.00  0.00    -0.010 A 
ATOM      4  C   UNL     1     119.651 120.659 106.196  1.00  0.00     0.055 A 
ATOM      5  C   UNL     1     118.631 121.369 106.824  1.00  0.00     0.119 A 
ATOM      6  C   UNL     1     118.948 122.417 107.690  1.00  0.00     0.093 A 
ATOM      7  C   UNL     1     120.284 122.787 107.905  1.00  0.00     0.127 A 
ATOM      8  C   UNL     1     121.324 122.185 107.143  1.00  0.00     0.035 A 
ATOM      9  C   UNL     1     122.692 122.611 107.180  1.00  0.00     0.039 A 
ATOM     10  C   UNL     1     123.695 121.707 106.730  1.00  0.00    -0.014 A 
ATOM     11  C   UNL     1     125.052 122.018 106.892  1.00  0.00     0.013 A 
ATOM     12  C   UNL     1     125.432 123.235 107.444  1.00  0.00     0.051 A 
ATOM     13  C   UNL     1     124.475 124.199 107.756  1.00  0.00     0.158 A 
ATOM     14  C   UNL     1     123.104 123.928 107.539  1.00  0.00     0.166 A 
ENDROOT
BRANCH  14  15
ATOM     15  O   UNL     1     122.172 124.969 107.551  1.00  0.00    -0.504 OA
ATOM     16  H   UNL     1     121.721 125.329 106.722  1.00  0.00     0.293 HD
ENDBRANCH  14  15
BRANCH   5  17
ATOM     17  O   UNL     1     117.304 121.001 106.611  1.00  0.00    -0.508 OA
ATOM     18  H   UNL     1     116.840 120.323 107.204  1.00  0.00     0.293 HD
ENDBRANCH   5  17
BRANCH   7  19
ATOM     19  O   UNL     1     120.564 123.678 108.942  1.00  0.00    -0.507 OA
ATOM     20  H   UNL     1     119.944 124.445 109.172  1.00  0.00     0.293 HD
ENDBRANCH   7  19
BRANCH  13  21
ATOM     21  O   UNL     1     124.921 125.418 108.271  1.00  0.00    -0.504 OA
ATOM     22  H   UNL     1     125.473 126.079 107.743  1.00  0.00     0.293 HD
ENDBRANCH  13  21
TORSDOF 4
ENDMDL
MODEL 8
REMARK VINA RESULT:    -4.342      2.303      3.065
REMARK INTER + INTRA:          -4.849
REMARK INTER:                  -4.849
REMARK INTRA:                   0.000
REMARK UNBOUND:                 0.000
REMARK SMILES Oc1cc(O)c2c(ccc3ccc(O)c(O)c32)c1
REMARK SMILES IDX 9 1 8 2 7 3 18 4 2 5 3 6 4 7 6 8 17 9 10 10 11 11 12 12
REMARK SMILES IDX 13 13 15 14 16 15 1 17 5 19 14 21
REMARK H PARENT 16 16 1 18 5 20 14 22
REMARK Flexibility Score: inf
ROOT
ATOM      1  C   UNL     1     120.702 119.520 106.114  1.00  0.00     0.009 A 
ATOM      2  C   UNL     1     120.374 120.833 105.803  1.00  0.00     0.009 A 
ATOM      3  C   UNL     1     121.145 121.892 106.293  1.00  0.00    -0.010 A 
ATOM      4  C   UNL     1     120.748 123.211 106.025  1.00  0.00     0.055 A 
ATOM      5  C   UNL     1     121.419 124.283 106.607  1.00  0.00     0.119 A 
ATOM      6  C   UNL     1     122.457 124.041 107.509  1.00  0.00     0.093 A 
ATOM      7  C   UNL     1     122.855 122.730 107.806  1.00  0.00     0.127 A 
ATOM      8  C   UNL     1     122.294 121.633 107.093  1.00  0.00     0.035 A 
ATOM      9  C   UNL     1     122.752 120.280 107.216  1.00  0.00     0.039 A 
ATOM     10  C   UNL     1     121.882 119.231 106.807  1.00  0.00    -0.014 A 
ATOM     11  C   UNL     1     122.222 117.894 107.052  1.00  0.00     0.013 A 
ATOM     12  C   UNL     1     123.437 117.576 107.648  1.00  0.00     0.051 A 
ATOM     13  C   UNL     1     124.371 118.573 107.922  1.00  0.00     0.158 A 
ATOM     14  C   UNL     1     124.071 119.923 107.623  1.00  0.00     0.166 A 
ENDROOT
BRANCH  14  15
ATOM     15  O   UNL     1     125.089 120.880 107.602  1.00  0.00    -0.504 OA
ATOM     16  H   UNL     1     125.591 121.149 106.767  1.00  0.00     0.293 HD
ENDBRANCH  14  15
BRANCH   5  17
ATOM     17  O   UNL     1     121.023 125.585 106.311  1.00  0.00    -0.508 OA
ATOM     18  H   UNL     1     120.058 125.879 106.403  1.00  0.00     0.293 HD
ENDBRANCH   5  17
BRANCH   7  19
ATOM     19  O   UNL     1     123.731 122.531 108.875  1.00  0.00    -0.507 OA
ATOM     20  H   UNL     1     123.486 122.790 109.823  1.00  0.00     0.293 HD
ENDBRANCH   7  19
BRANCH  13  21
ATOM     21  O   UNL     1     125.590 118.189 108.485  1.00  0.00    -0.504 OA
ATOM     22  H   UNL     1     125.699 117.376 109.077  1.00  0.00     0.293 HD
ENDBRANCH  13  21
TORSDOF 4
ENDMDL
MODEL 9
REMARK VINA RESULT:    -4.169      3.229      4.224
REMARK INTER + INTRA:          -4.656
REMARK INTER:                  -4.656
REMARK INTRA:                   0.000
REMARK UNBOUND:                 0.000
REMARK SMILES Oc1cc(O)c2c(ccc3ccc(O)c(O)c32)c1
REMARK SMILES IDX 9 1 8 2 7 3 18 4 2 5 3 6 4 7 6 8 17 9 10 10 11 11 12 12
REMARK SMILES IDX 13 13 15 14 16 15 1 17 5 19 14 21
REMARK H PARENT 16 16 1 18 5 20 14 22
REMARK Flexibility Score: inf
ROOT
ATOM      1  C   UNL     1     124.000 120.692 106.264  1.00  0.00     0.009 A 
ATOM      2  C   UNL     1     123.738 122.053 106.182  1.00  0.00     0.009 A 
ATOM      3  C   UNL     1     122.458 122.547 106.456  1.00  0.00    -0.010 A 
ATOM      4  C   UNL     1     122.202 123.917 106.293  1.00  0.00     0.055 A 
ATOM      5  C   UNL     1     120.909 124.415 106.432  1.00  0.00     0.119 A 
ATOM      6  C   UNL     1     119.852 123.536 106.676  1.00  0.00     0.093 A 
ATOM      7  C   UNL     1     120.084 122.161 106.821  1.00  0.00     0.127 A 
ATOM      8  C   UNL     1     121.416 121.660 106.851  1.00  0.00     0.035 A 
ATOM      9  C   UNL     1     121.753 120.300 107.153  1.00  0.00     0.039 A 
ATOM     10  C   UNL     1     123.028 119.812 106.751  1.00  0.00    -0.014 A 
ATOM     11  C   UNL     1     123.341 118.453 106.884  1.00  0.00     0.013 A 
ATOM     12  C   UNL     1     122.429 117.576 107.460  1.00  0.00     0.051 A 
ATOM     13  C   UNL     1     121.234 118.052 107.997  1.00  0.00     0.158 A 
ATOM     14  C   UNL     1     120.931 119.432 107.929  1.00  0.00     0.166 A 
ENDROOT
BRANCH  14  15
ATOM     15  O   UNL     1     119.907 119.965 108.718  1.00  0.00    -0.504 OA
ATOM     16  H   UNL     1     119.879 120.926 109.027  1.00  0.00     0.293 HD
ENDBRANCH  14  15
BRANCH   5  17
ATOM     17  O   UNL     1     120.679 125.781 106.288  1.00  0.00    -0.508 OA
ATOM     18  H   UNL     1     120.554 126.385 107.092  1.00  0.00     0.293 HD
ENDBRANCH   5  17
BRANCH   7  19
ATOM     19  O   UNL     1     118.984 121.302 106.835  1.00  0.00    -0.507 OA
ATOM     20  H   UNL     1     118.826 120.624 106.099  1.00  0.00     0.293 HD
ENDBRANCH   7  19
BRANCH  13  21
ATOM     21  O   UNL     1     120.375 117.129 108.597  1.00  0.00    -0.504 OA
ATOM     22  H   UNL     1     119.516 117.387 109.063  1.00  0.00     0.293 HD
ENDBRANCH  13  21
TORSDOF 4
ENDMDL
