MODEL 1
REMARK VINA RESULT:    -3.447      0.000      0.000
REMARK INTER + INTRA:          -7.293
REMARK INTER:                  -5.865
REMARK INTRA:                  -1.428
REMARK UNBOUND:                -1.428
REMARK SMILES CCCCCCCCCCCCCC(=O)[O-]
REMARK SMILES IDX 8 1 9 2 10 3 11 4 12 5 13 6 14 7 15 8 16 9 7 10 6 11 5 12
REMARK SMILES IDX 4 13 3 14 2 15 1 16
REMARK H PARENT
REMARK Flexibility Score: inf
ROOT
ATOM      1  C   UNL     1     -17.089  24.367  35.518  1.00  0.00     0.000 C 
ENDROOT
BRANCH   1   2
ATOM      2  C   UNL     1     -17.660  22.947  35.396  1.00  0.00     0.000 C 
BRANCH   2   3
ATOM      3  C   UNL     1     -18.086  22.606  33.951  1.00  0.00     0.000 C 
BRANCH   3   4
ATOM      4  C   UNL     1     -16.920  22.154  33.052  1.00  0.00     0.000 C 
BRANCH   4   5
ATOM      5  C   UNL     1     -15.718  21.548  33.802  1.00  0.00     0.006 C 
BRANCH   5   6
ATOM      6  C   UNL     1     -14.467  22.441  33.819  1.00  0.00     0.053 C 
BRANCH   6   7
ATOM      7  C   UNL     1     -13.665  22.256  35.071  1.00  0.00     0.041 C 
ATOM      8  O   UNL     1     -14.239  22.211  36.191  1.00  0.00    -0.550 OA
ATOM      9  O   UNL     1     -12.287  22.098  34.996  1.00  0.00    -0.550 OA
ENDBRANCH   6   7
ENDBRANCH   5   6
ENDBRANCH   4   5
ENDBRANCH   3   4
ENDBRANCH   2   3
ENDBRANCH   1   2
BRANCH   1  10
ATOM     10  C   UNL     1     -17.730  25.122  36.689  1.00  0.00     0.000 C 
BRANCH  10  11
ATOM     11  C   UNL     1     -17.948  26.601  36.336  1.00  0.00    -0.000 C 
BRANCH  11  12
ATOM     12  C   UNL     1     -18.125  26.832  34.825  1.00  0.00    -0.000 C 
BRANCH  12  13
ATOM     13  C   UNL     1     -17.078  27.802  34.250  1.00  0.00    -0.000 C 
BRANCH  13  14
ATOM     14  C   UNL     1     -17.006  27.747  32.715  1.00  0.00    -0.000 C 
BRANCH  14  15
ATOM     15  C   UNL     1     -17.341  26.356  32.155  1.00  0.00    -0.003 C 
ATOM     16  C   UNL     1     -16.089  25.488  32.059  1.00  0.00     0.004 C 
ENDBRANCH  14  15
ENDBRANCH  13  14
ENDBRANCH  12  13
ENDBRANCH  11  12
ENDBRANCH  10  11
ENDBRANCH   1  10
TORSDOF 12
ENDMDL
MODEL 2
REMARK VINA RESULT:    -3.423      2.058      5.264
REMARK INTER + INTRA:          -7.252
REMARK INTER:                  -5.927
REMARK INTRA:                  -1.325
REMARK UNBOUND:                -1.428
REMARK SMILES CCCCCCCCCCCCCC(=O)[O-]
REMARK SMILES IDX 8 1 9 2 10 3 11 4 12 5 13 6 14 7 15 8 16 9 7 10 6 11 5 12
REMARK SMILES IDX 4 13 3 14 2 15 1 16
REMARK H PARENT
REMARK Flexibility Score: inf
ROOT
ATOM      1  C   UNL     1     -17.433  23.917  35.391  1.00  0.00     0.000 C 
ENDROOT
BRANCH   1   2
ATOM      2  C   UNL     1     -17.842  24.788  36.587  1.00  0.00     0.000 C 
BRANCH   2   3
ATOM      3  C   UNL     1     -17.495  26.278  36.374  1.00  0.00     0.000 C 
BRANCH   3   4
ATOM      4  C   UNL     1     -18.052  26.864  35.063  1.00  0.00     0.000 C 
BRANCH   4   5
ATOM      5  C   UNL     1     -17.040  27.679  34.235  1.00  0.00     0.006 C 
BRANCH   5   6
ATOM      6  C   UNL     1     -17.045  27.355  32.733  1.00  0.00     0.053 C 
BRANCH   6   7
ATOM      7  C   UNL     1     -16.792  25.902  32.473  1.00  0.00     0.041 C 
ATOM      8  O   UNL     1     -17.714  25.166  32.033  1.00  0.00    -0.550 OA
ATOM      9  O   UNL     1     -15.528  25.368  32.687  1.00  0.00    -0.550 OA
ENDBRANCH   6   7
ENDBRANCH   5   6
ENDBRANCH   4   5
ENDBRANCH   3   4
ENDBRANCH   2   3
ENDBRANCH   1   2
BRANCH   1  10
ATOM     10  C   UNL     1     -17.907  22.470  35.576  1.00  0.00     0.000 C 
BRANCH  10  11
ATOM     11  C   UNL     1     -17.992  21.743  34.225  1.00  0.00    -0.000 C 
BRANCH  11  12
ATOM     12  C   UNL     1     -16.853  22.133  33.267  1.00  0.00    -0.000 C 
BRANCH  12  13
ATOM     13  C   UNL     1     -15.573  21.313  33.507  1.00  0.00    -0.000 C 
BRANCH  13  14
ATOM     14  C   UNL     1     -14.375  22.191  33.903  1.00  0.00    -0.000 C 
BRANCH  14  15
ATOM     15  C   UNL     1     -13.633  21.660  35.139  1.00  0.00    -0.003 C 
ATOM     16  C   UNL     1     -14.338  22.084  36.425  1.00  0.00     0.004 C 
ENDBRANCH  14  15
ENDBRANCH  13  14
ENDBRANCH  12  13
ENDBRANCH  11  12
ENDBRANCH  10  11
ENDBRANCH   1  10
TORSDOF 12
ENDMDL
MODEL 3
REMARK VINA RESULT:    -3.375      1.368      2.990
REMARK INTER + INTRA:          -7.171
REMARK INTER:                  -5.752
REMARK INTRA:                  -1.418
REMARK UNBOUND:                -1.428
REMARK SMILES CCCCCCCCCCCCCC(=O)[O-]
REMARK SMILES IDX 8 1 9 2 10 3 11 4 12 5 13 6 14 7 15 8 16 9 7 10 6 11 5 12
REMARK SMILES IDX 4 13 3 14 2 15 1 16
REMARK H PARENT
REMARK Flexibility Score: inf
ROOT
ATOM      1  C   UNL     1     -17.146  22.456  32.921  1.00  0.00     0.000 C 
ENDROOT
BRANCH   1   2
ATOM      2  C   UNL     1     -17.710  21.827  34.203  1.00  0.00     0.000 C 
BRANCH   2   3
ATOM      3  C   UNL     1     -17.679  22.802  35.400  1.00  0.00     0.000 C 
BRANCH   3   4
ATOM      4  C   UNL     1     -16.270  23.323  35.740  1.00  0.00     0.000 C 
BRANCH   4   5
ATOM      5  C   UNL     1     -15.307  22.265  36.311  1.00  0.00     0.006 C 
BRANCH   5   6
ATOM      6  C   UNL     1     -13.867  22.369  35.783  1.00  0.00     0.053 C 
BRANCH   6   7
ATOM      7  C   UNL     1     -13.823  22.423  34.287  1.00  0.00     0.041 C 
ATOM      8  O   UNL     1     -13.953  21.368  33.611  1.00  0.00    -0.550 OA
ATOM      9  O   UNL     1     -13.671  23.642  33.639  1.00  0.00    -0.550 OA
ENDBRANCH   6   7
ENDBRANCH   5   6
ENDBRANCH   4   5
ENDBRANCH   3   4
ENDBRANCH   2   3
ENDBRANCH   1   2
BRANCH   1  10
ATOM     10  C   UNL     1     -17.783  23.825  32.651  1.00  0.00     0.000 C 
BRANCH  10  11
ATOM     11  C   UNL     1     -16.753  24.806  32.071  1.00  0.00    -0.000 C 
BRANCH  11  12
ATOM     12  C   UNL     1     -16.304  25.867  33.090  1.00  0.00    -0.000 C 
BRANCH  12  13
ATOM     13  C   UNL     1     -17.490  26.540  33.804  1.00  0.00    -0.000 C 
BRANCH  13  14
ATOM     14  C   UNL     1     -17.108  27.886  34.439  1.00  0.00    -0.000 C 
BRANCH  14  15
ATOM     15  C   UNL     1     -17.254  27.883  35.969  1.00  0.00    -0.003 C 
ATOM     16  C   UNL     1     -17.740  26.525  36.469  1.00  0.00     0.004 C 
ENDBRANCH  14  15
ENDBRANCH  13  14
ENDBRANCH  12  13
ENDBRANCH  11  12
ENDBRANCH  10  11
ENDBRANCH   1  10
TORSDOF 12
ENDMDL
MODEL 4
REMARK VINA RESULT:    -3.285     13.782     15.781
REMARK INTER + INTRA:          -7.018
REMARK INTER:                  -6.379
REMARK INTRA:                  -0.639
REMARK UNBOUND:                -1.428
REMARK SMILES CCCCCCCCCCCCCC(=O)[O-]
REMARK SMILES IDX 8 1 9 2 10 3 11 4 12 5 13 6 14 7 15 8 16 9 7 10 6 11 5 12
REMARK SMILES IDX 4 13 3 14 2 15 1 16
REMARK H PARENT
REMARK Flexibility Score: inf
ROOT
ATOM      1  C   UNL     1      -4.820  24.289  25.396  1.00  0.00     0.000 C 
ENDROOT
BRANCH   1   2
ATOM      2  C   UNL     1      -3.433  24.924  25.567  1.00  0.00     0.000 C 
BRANCH   2   3
ATOM      3  C   UNL     1      -3.507  26.352  26.150  1.00  0.00     0.000 C 
BRANCH   3   4
ATOM      4  C   UNL     1      -2.551  27.350  25.470  1.00  0.00     0.000 C 
BRANCH   4   5
ATOM      5  C   UNL     1      -1.850  26.819  24.205  1.00  0.00     0.006 C 
BRANCH   5   6
ATOM      6  C   UNL     1      -0.345  26.559  24.377  1.00  0.00     0.053 C 
BRANCH   6   7
ATOM      7  C   UNL     1       0.061  25.232  23.813  1.00  0.00     0.041 C 
ATOM      8  O   UNL     1       0.902  25.171  22.878  1.00  0.00    -0.550 OA
ATOM      9  O   UNL     1      -0.465  24.061  24.344  1.00  0.00    -0.550 OA
ENDBRANCH   6   7
ENDBRANCH   5   6
ENDBRANCH   4   5
ENDBRANCH   3   4
ENDBRANCH   2   3
ENDBRANCH   1   2
BRANCH   1  10
ATOM     10  C   UNL     1      -5.214  23.482  26.638  1.00  0.00     0.000 C 
BRANCH  10  11
ATOM     11  C   UNL     1      -6.400  22.553  26.336  1.00  0.00    -0.000 C 
BRANCH  11  12
ATOM     12  C   UNL     1      -7.740  23.115  26.841  1.00  0.00    -0.000 C 
BRANCH  12  13
ATOM     13  C   UNL     1      -8.831  23.103  25.756  1.00  0.00    -0.000 C 
BRANCH  13  14
ATOM     14  C   UNL     1      -8.748  24.323  24.824  1.00  0.00    -0.000 C 
BRANCH  14  15
ATOM     15  C   UNL     1      -9.880  24.353  23.785  1.00  0.00    -0.003 C 
ATOM     16  C   UNL     1     -10.572  22.996  23.690  1.00  0.00     0.004 C 
ENDBRANCH  14  15
ENDBRANCH  13  14
ENDBRANCH  12  13
ENDBRANCH  11  12
ENDBRANCH  10  11
ENDBRANCH   1  10
TORSDOF 12
ENDMDL
MODEL 5
REMARK VINA RESULT:    -3.200      1.128      2.915
REMARK INTER + INTRA:          -6.873
REMARK INTER:                  -5.547
REMARK INTRA:                  -1.325
REMARK UNBOUND:                -1.428
REMARK SMILES CCCCCCCCCCCCCC(=O)[O-]
REMARK SMILES IDX 8 1 9 2 10 3 11 4 12 5 13 6 14 7 15 8 16 9 7 10 6 11 5 12
REMARK SMILES IDX 4 13 3 14 2 15 1 16
REMARK H PARENT
REMARK Flexibility Score: inf
ROOT
ATOM      1  C   UNL     1     -16.327  25.039  31.732  1.00  0.00     0.000 C 
ENDROOT
BRANCH   1   2
ATOM      2  C   UNL     1     -17.259  23.847  31.990  1.00  0.00     0.000 C 
BRANCH   2   3
ATOM      3  C   UNL     1     -17.688  23.745  33.470  1.00  0.00     0.000 C 
BRANCH   3   4
ATOM      4  C   UNL     1     -17.022  22.582  34.230  1.00  0.00     0.000 C 
BRANCH   4   5
ATOM      5  C   UNL     1     -15.618  22.889  34.785  1.00  0.00     0.006 C 
BRANCH   5   6
ATOM      6  C   UNL     1     -14.471  22.226  34.005  1.00  0.00     0.053 C 
BRANCH   6   7
ATOM      7  C   UNL     1     -13.319  21.876  34.895  1.00  0.00     0.041 C 
ATOM      8  O   UNL     1     -13.157  20.689  35.286  1.00  0.00    -0.550 OA
ATOM      9  O   UNL     1     -12.404  22.853  35.266  1.00  0.00    -0.550 OA
ENDBRANCH   6   7
ENDBRANCH   5   6
ENDBRANCH   4   5
ENDBRANCH   3   4
ENDBRANCH   2   3
ENDBRANCH   1   2
BRANCH   1  10
ATOM     10  C   UNL     1     -16.471  26.099  32.830  1.00  0.00     0.000 C 
BRANCH  10  11
ATOM     11  C   UNL     1     -17.472  27.188  32.416  1.00  0.00    -0.000 C 
BRANCH  11  12
ATOM     12  C   UNL     1     -17.858  28.115  33.580  1.00  0.00    -0.000 C 
BRANCH  12  13
ATOM     13  C   UNL     1     -17.099  27.782  34.877  1.00  0.00    -0.000 C 
BRANCH  13  14
ATOM     14  C   UNL     1     -17.909  28.123  36.138  1.00  0.00    -0.000 C 
BRANCH  14  15
ATOM     15  C   UNL     1     -18.002  26.945  37.120  1.00  0.00    -0.003 C 
ATOM     16  C   UNL     1     -17.579  25.640  36.450  1.00  0.00     0.004 C 
ENDBRANCH  14  15
ENDBRANCH  13  14
ENDBRANCH  12  13
ENDBRANCH  11  12
ENDBRANCH  10  11
ENDBRANCH   1  10
TORSDOF 12
ENDMDL
MODEL 6
REMARK VINA RESULT:    -3.194     13.231     15.216
REMARK INTER + INTRA:          -6.863
REMARK INTER:                  -6.426
REMARK INTRA:                  -0.436
REMARK UNBOUND:                -1.428
REMARK SMILES CCCCCCCCCCCCCC(=O)[O-]
REMARK SMILES IDX 8 1 9 2 10 3 11 4 12 5 13 6 14 7 15 8 16 9 7 10 6 11 5 12
REMARK SMILES IDX 4 13 3 14 2 15 1 16
REMARK H PARENT
REMARK Flexibility Score: inf
ROOT
ATOM      1  C   UNL     1      -5.423  23.229  25.763  1.00  0.00     0.000 C 
ENDROOT
BRANCH   1   2
ATOM      2  C   UNL     1      -4.359  24.048  26.506  1.00  0.00     0.000 C 
BRANCH   2   3
ATOM      3  C   UNL     1      -3.669  25.084  25.591  1.00  0.00     0.000 C 
BRANCH   3   4
ATOM      4  C   UNL     1      -3.526  26.478  26.229  1.00  0.00     0.000 C 
BRANCH   4   5
ATOM      5  C   UNL     1      -2.392  27.345  25.649  1.00  0.00     0.006 C 
BRANCH   5   6
ATOM      6  C   UNL     1      -1.889  26.889  24.270  1.00  0.00     0.053 C 
BRANCH   6   7
ATOM      7  C   UNL     1      -0.505  26.321  24.339  1.00  0.00     0.041 C 
ATOM      8  O   UNL     1      -0.294  25.122  24.017  1.00  0.00    -0.550 OA
ATOM      9  O   UNL     1       0.558  27.127  24.728  1.00  0.00    -0.550 OA
ENDBRANCH   6   7
ENDBRANCH   5   6
ENDBRANCH   4   5
ENDBRANCH   3   4
ENDBRANCH   2   3
ENDBRANCH   1   2
BRANCH   1  10
ATOM     10  C   UNL     1      -6.667  23.019  26.636  1.00  0.00     0.000 C 
BRANCH  10  11
ATOM     11  C   UNL     1      -7.943  23.414  25.878  1.00  0.00    -0.000 C 
BRANCH  11  12
ATOM     12  C   UNL     1      -9.126  22.476  26.176  1.00  0.00    -0.000 C 
BRANCH  12  13
ATOM     13  C   UNL     1      -9.987  22.199  24.931  1.00  0.00    -0.000 C 
BRANCH  13  14
ATOM     14  C   UNL     1     -10.090  23.419  24.002  1.00  0.00    -0.000 C 
BRANCH  14  15
ATOM     15  C   UNL     1     -11.448  23.506  23.288  1.00  0.00    -0.003 C 
ATOM     16  C   UNL     1     -11.271  23.484  21.772  1.00  0.00     0.004 C 
ENDBRANCH  14  15
ENDBRANCH  13  14
ENDBRANCH  12  13
ENDBRANCH  11  12
ENDBRANCH  10  11
ENDBRANCH   1  10
TORSDOF 12
ENDMDL
MODEL 7
REMARK VINA RESULT:    -3.159     13.793     15.711
REMARK INTER + INTRA:          -6.803
REMARK INTER:                  -5.978
REMARK INTRA:                  -0.825
REMARK UNBOUND:                -1.428
REMARK SMILES CCCCCCCCCCCCCC(=O)[O-]
REMARK SMILES IDX 8 1 9 2 10 3 11 4 12 5 13 6 14 7 15 8 16 9 7 10 6 11 5 12
REMARK SMILES IDX 4 13 3 14 2 15 1 16
REMARK H PARENT
REMARK Flexibility Score: inf
ROOT
ATOM      1  C   UNL     1      -3.825  25.045  25.273  1.00  0.00     0.000 C 
ENDROOT
BRANCH   1   2
ATOM      2  C   UNL     1      -4.511  23.920  26.061  1.00  0.00     0.000 C 
BRANCH   2   3
ATOM      3  C   UNL     1      -5.984  23.722  25.642  1.00  0.00     0.000 C 
BRANCH   3   4
ATOM      4  C   UNL     1      -6.810  22.898  26.648  1.00  0.00     0.000 C 
BRANCH   4   5
ATOM      5  C   UNL     1      -8.332  22.916  26.407  1.00  0.00     0.006 C 
BRANCH   5   6
ATOM      6  C   UNL     1      -8.768  23.715  25.168  1.00  0.00     0.053 C 
BRANCH   6   7
ATOM      7  C   UNL     1      -9.877  23.035  24.427  1.00  0.00     0.041 C 
ATOM      8  O   UNL     1     -10.460  23.624  23.478  1.00  0.00    -0.550 OA
ATOM      9  O   UNL     1     -10.246  21.738  24.763  1.00  0.00    -0.550 OA
ENDBRANCH   6   7
ENDBRANCH   5   6
ENDBRANCH   4   5
ENDBRANCH   3   4
ENDBRANCH   2   3
ENDBRANCH   1   2
BRANCH   1  10
ATOM     10  C   UNL     1      -3.471  26.224  26.188  1.00  0.00     0.000 C 
BRANCH  10  11
ATOM     11  C   UNL     1      -2.853  27.377  25.383  1.00  0.00    -0.000 C 
BRANCH  11  12
ATOM     12  C   UNL     1      -1.570  27.930  26.027  1.00  0.00    -0.000 C 
BRANCH  12  13
ATOM     13  C   UNL     1      -0.294  27.385  25.362  1.00  0.00    -0.000 C 
BRANCH  13  14
ATOM     14  C   UNL     1      -0.581  26.679  24.026  1.00  0.00    -0.000 C 
BRANCH  14  15
ATOM     15  C   UNL     1       0.286  25.427  23.820  1.00  0.00    -0.003 C 
ATOM     16  C   UNL     1      -0.489  24.161  24.174  1.00  0.00     0.004 C 
ENDBRANCH  14  15
ENDBRANCH  13  14
ENDBRANCH  12  13
ENDBRANCH  11  12
ENDBRANCH  10  11
ENDBRANCH   1  10
TORSDOF 12
ENDMDL
MODEL 8
REMARK VINA RESULT:    -2.851     18.064     19.951
REMARK INTER + INTRA:          -6.278
REMARK INTER:                  -5.368
REMARK INTRA:                  -0.911
REMARK UNBOUND:                -1.428
REMARK SMILES CCCCCCCCCCCCCC(=O)[O-]
REMARK SMILES IDX 8 1 9 2 10 3 11 4 12 5 13 6 14 7 15 8 16 9 7 10 6 11 5 12
REMARK SMILES IDX 4 13 3 14 2 15 1 16
REMARK H PARENT
REMARK Flexibility Score: inf
ROOT
ATOM      1  C   UNL     1      -0.494  24.243  24.266  1.00  0.00     0.000 C 
ENDROOT
BRANCH   1   2
ATOM      2  C   UNL     1      -0.116  23.158  23.248  1.00  0.00     0.000 C 
BRANCH   2   3
ATOM      3  C   UNL     1       1.042  23.595  22.325  1.00  0.00     0.000 C 
BRANCH   3   4
ATOM      4  C   UNL     1       1.279  22.648  21.134  1.00  0.00     0.000 C 
BRANCH   4   5
ATOM      5  C   UNL     1       0.012  22.275  20.339  1.00  0.00     0.006 C 
BRANCH   5   6
ATOM      6  C   UNL     1       0.289  21.685  18.947  1.00  0.00     0.053 C 
BRANCH   6   7
ATOM      7  C   UNL     1      -0.384  22.470  17.863  1.00  0.00     0.041 C 
ATOM      8  O   UNL     1      -1.452  22.049  17.345  1.00  0.00    -0.550 OA
ATOM      9  O   UNL     1       0.150  23.683  17.449  1.00  0.00    -0.550 OA
ENDBRANCH   6   7
ENDBRANCH   5   6
ENDBRANCH   4   5
ENDBRANCH   3   4
ENDBRANCH   2   3
ENDBRANCH   1   2
BRANCH   1  10
ATOM     10  C   UNL     1       0.269  25.545  23.993  1.00  0.00     0.000 C 
BRANCH  10  11
ATOM     11  C   UNL     1      -0.431  26.741  24.656  1.00  0.00    -0.000 C 
BRANCH  11  12
ATOM     12  C   UNL     1      -1.935  26.800  24.338  1.00  0.00    -0.000 C 
BRANCH  12  13
ATOM     13  C   UNL     1      -2.758  27.404  25.490  1.00  0.00    -0.000 C 
BRANCH  13  14
ATOM     14  C   UNL     1      -3.496  26.333  26.311  1.00  0.00    -0.000 C 
BRANCH  14  15
ATOM     15  C   UNL     1      -3.870  25.099  25.476  1.00  0.00    -0.003 C 
ATOM     16  C   UNL     1      -4.250  23.925  26.374  1.00  0.00     0.004 C 
ENDBRANCH  14  15
ENDBRANCH  13  14
ENDBRANCH  12  13
ENDBRANCH  11  12
ENDBRANCH  10  11
ENDBRANCH   1  10
TORSDOF 12
ENDMDL
MODEL 9
REMARK VINA RESULT:    -2.770     17.972     19.867
REMARK INTER + INTRA:          -6.141
REMARK INTER:                  -5.127
REMARK INTRA:                  -1.014
REMARK UNBOUND:                -1.428
REMARK SMILES CCCCCCCCCCCCCC(=O)[O-]
REMARK SMILES IDX 8 1 9 2 10 3 11 4 12 5 13 6 14 7 15 8 16 9 7 10 6 11 5 12
REMARK SMILES IDX 4 13 3 14 2 15 1 16
REMARK H PARENT
REMARK Flexibility Score: inf
ROOT
ATOM      1  C   UNL     1       0.053  25.260  23.716  1.00  0.00     0.000 C 
ENDROOT
BRANCH   1   2
ATOM      2  C   UNL     1       1.395  25.035  23.006  1.00  0.00     0.000 C 
BRANCH   2   3
ATOM      3  C   UNL     1       1.629  26.040  21.857  1.00  0.00     0.000 C 
BRANCH   3   4
ATOM      4  C   UNL     1       1.623  25.395  20.459  1.00  0.00     0.000 C 
BRANCH   4   5
ATOM      5  C   UNL     1       1.795  23.863  20.449  1.00  0.00     0.006 C 
BRANCH   5   6
ATOM      6  C   UNL     1       0.575  23.094  19.917  1.00  0.00     0.053 C 
BRANCH   6   7
ATOM      7  C   UNL     1       0.248  21.907  20.771  1.00  0.00     0.041 C 
ATOM      8  O   UNL     1       0.458  20.741  20.344  1.00  0.00    -0.550 OA
ATOM      9  O   UNL     1      -0.260  22.091  22.051  1.00  0.00    -0.550 OA
ENDBRANCH   6   7
ENDBRANCH   5   6
ENDBRANCH   4   5
ENDBRANCH   3   4
ENDBRANCH   2   3
ENDBRANCH   1   2
BRANCH   1  10
ATOM     10  C   UNL     1      -0.078  26.708  24.203  1.00  0.00     0.000 C 
BRANCH  10  11
ATOM     11  C   UNL     1      -1.295  27.395  23.564  1.00  0.00    -0.000 C 
BRANCH  11  12
ATOM     12  C   UNL     1      -2.174  28.124  24.594  1.00  0.00    -0.000 C 
BRANCH  12  13
ATOM     13  C   UNL     1      -2.220  27.399  25.950  1.00  0.00    -0.000 C 
BRANCH  13  14
ATOM     14  C   UNL     1      -3.484  26.540  26.117  1.00  0.00    -0.000 C 
BRANCH  14  15
ATOM     15  C   UNL     1      -3.390  25.198  25.375  1.00  0.00    -0.003 C 
ATOM     16  C   UNL     1      -4.187  24.115  26.099  1.00  0.00     0.004 C 
ENDBRANCH  14  15
ENDBRANCH  13  14
ENDBRANCH  12  13
ENDBRANCH  11  12
ENDBRANCH  10  11
ENDBRANCH   1  10
TORSDOF 12
ENDMDL
