MODEL 1
REMARK VINA RESULT:    -6.670      0.000      0.000
REMARK INTER + INTRA:          -7.255
REMARK INTER:                  -7.255
REMARK INTRA:                   0.000
REMARK UNBOUND:                 0.000
REMARK SMILES Cc1cc(O)c2c(c1)C(=O)c1cc(O)cc(O)c1C2=O
REMARK SMILES IDX 1 1 2 2 8 3 7 4 6 5 4 6 3 7 19 8 20 9 18 10 11 11 9 12 10 13
REMARK SMILES IDX 12 14 13 15 15 16 16 17 5 18 17 20 14 22
REMARK H PARENT 5 19 17 21 14 23
REMARK Flexibility Score: inf
ROOT
ATOM      1  C   UNL     1      -2.446  65.245  28.958  1.00  0.00     0.044 C 
ATOM      2  C   UNL     1      -3.732  66.003  28.809  1.00  0.00    -0.047 A 
ATOM      3  C   UNL     1      -4.854  65.642  29.561  1.00  0.00     0.016 A 
ATOM      4  C   UNL     1      -6.075  66.318  29.397  1.00  0.00     0.038 A 
ATOM      5  C   UNL     1      -6.182  67.355  28.444  1.00  0.00     0.076 A 
ATOM      6  C   UNL     1      -5.029  67.747  27.716  1.00  0.00     0.127 A 
ATOM      7  C   UNL     1      -3.830  67.047  27.882  1.00  0.00     0.050 A 
ATOM      8  C   UNL     1      -7.524  67.944  28.195  1.00  0.00     0.201 C 
ATOM      9  O   UNL     1      -7.806  68.402  27.056  1.00  0.00    -0.288 OA
ATOM     10  C   UNL     1      -8.587  67.820  29.226  1.00  0.00     0.076 A 
ATOM     11  C   UNL     1      -8.476  66.781  30.178  1.00  0.00     0.041 A 
ATOM     12  C   UNL     1      -7.250  65.948  30.221  1.00  0.00     0.194 C 
ATOM     13  O   UNL     1      -7.199  64.941  30.980  1.00  0.00    -0.289 OA
ATOM     14  C   UNL     1      -9.526  66.545  31.081  1.00  0.00     0.059 A 
ATOM     15  C   UNL     1     -10.675  67.341  31.056  1.00  0.00     0.120 A 
ATOM     16  C   UNL     1     -10.770  68.392  30.145  1.00  0.00     0.093 A 
ATOM     17  C   UNL     1      -9.730  68.661  29.249  1.00  0.00     0.131 A 
ENDROOT
BRANCH   6  18
ATOM     18  O   UNL     1      -5.020  68.842  26.847  1.00  0.00    -0.507 OA
ATOM     19  H   UNL     1      -4.758  69.776  27.127  1.00  0.00     0.293 HD
ENDBRANCH   6  18
BRANCH  17  20
ATOM     20  O   UNL     1      -9.859  69.785  28.431  1.00  0.00    -0.507 OA
ATOM     21  H   UNL     1      -9.080  70.225  27.959  1.00  0.00     0.293 HD
ENDBRANCH  17  20
BRANCH  15  22
ATOM     22  O   UNL     1     -11.723  67.102  31.941  1.00  0.00    -0.508 OA
ATOM     23  H   UNL     1     -12.063  66.165  32.121  1.00  0.00     0.293 HD
ENDBRANCH  15  22
TORSDOF 3
ENDMDL
MODEL 2
REMARK VINA RESULT:    -6.591      1.705      3.646
REMARK INTER + INTRA:          -7.169
REMARK INTER:                  -7.169
REMARK INTRA:                   0.000
REMARK UNBOUND:                 0.000
REMARK SMILES Cc1cc(O)c2c(c1)C(=O)c1cc(O)cc(O)c1C2=O
REMARK SMILES IDX 1 1 2 2 8 3 7 4 6 5 4 6 3 7 19 8 20 9 18 10 11 11 9 12 10 13
REMARK SMILES IDX 12 14 13 15 15 16 16 17 5 18 17 20 14 22
REMARK H PARENT 5 19 17 21 14 23
REMARK Flexibility Score: inf
ROOT
ATOM      1  C   UNL     1      -3.655  67.144  27.860  1.00  0.00     0.044 C 
ATOM      2  C   UNL     1      -5.041  66.907  28.382  1.00  0.00    -0.047 A 
ATOM      3  C   UNL     1      -6.123  67.624  27.859  1.00  0.00     0.016 A 
ATOM      4  C   UNL     1      -7.419  67.442  28.371  1.00  0.00     0.038 A 
ATOM      5  C   UNL     1      -7.631  66.548  29.445  1.00  0.00     0.076 A 
ATOM      6  C   UNL     1      -6.538  65.791  29.942  1.00  0.00     0.127 A 
ATOM      7  C   UNL     1      -5.255  66.004  29.429  1.00  0.00     0.050 A 
ATOM      8  C   UNL     1      -8.985  66.494  30.056  1.00  0.00     0.201 C 
ATOM      9  O   UNL     1      -9.111  66.210  31.277  1.00  0.00    -0.288 OA
ATOM     10  C   UNL     1     -10.164  66.958  29.279  1.00  0.00     0.076 A 
ATOM     11  C   UNL     1      -9.947  67.851  28.206  1.00  0.00     0.041 A 
ATOM     12  C   UNL     1      -8.563  68.182  27.789  1.00  0.00     0.194 C 
ATOM     13  O   UNL     1      -8.362  69.075  26.920  1.00  0.00    -0.289 OA
ATOM     14  C   UNL     1     -11.044  68.419  27.536  1.00  0.00     0.059 A 
ATOM     15  C   UNL     1     -12.350  68.094  27.912  1.00  0.00     0.120 A 
ATOM     16  C   UNL     1     -12.567  67.182  28.944  1.00  0.00     0.093 A 
ATOM     17  C   UNL     1     -11.493  66.588  29.613  1.00  0.00     0.131 A 
ENDROOT
BRANCH   6  18
ATOM     18  O   UNL     1      -6.687  64.800  30.915  1.00  0.00    -0.507 OA
ATOM     19  H   UNL     1      -7.526  64.676  31.464  1.00  0.00     0.293 HD
ENDBRANCH   6  18
BRANCH  17  20
ATOM     20  O   UNL     1     -11.788  65.616  30.572  1.00  0.00    -0.507 OA
ATOM     21  H   UNL     1     -11.674  65.759  31.566  1.00  0.00     0.293 HD
ENDBRANCH  17  20
BRANCH  15  22
ATOM     22  O   UNL     1     -13.440  68.665  27.259  1.00  0.00    -0.508 OA
ATOM     23  H   UNL     1     -14.089  69.274  27.743  1.00  0.00     0.293 HD
ENDBRANCH  15  22
TORSDOF 3
ENDMDL
MODEL 3
REMARK VINA RESULT:    -6.516      2.421      3.158
REMARK INTER + INTRA:          -7.087
REMARK INTER:                  -7.087
REMARK INTRA:                   0.000
REMARK UNBOUND:                 0.000
REMARK SMILES Cc1cc(O)c2c(c1)C(=O)c1cc(O)cc(O)c1C2=O
REMARK SMILES IDX 1 1 2 2 8 3 7 4 6 5 4 6 3 7 19 8 20 9 18 10 11 11 9 12 10 13
REMARK SMILES IDX 12 14 13 15 15 16 16 17 5 18 17 20 14 22
REMARK H PARENT 5 19 17 21 14 23
REMARK Flexibility Score: inf
ROOT
ATOM      1  C   UNL     1      -1.105  68.071  31.756  1.00  0.00     0.044 C 
ATOM      2  C   UNL     1      -2.402  67.506  31.257  1.00  0.00    -0.047 A 
ATOM      3  C   UNL     1      -3.608  67.862  31.870  1.00  0.00     0.016 A 
ATOM      4  C   UNL     1      -4.824  67.305  31.438  1.00  0.00     0.038 A 
ATOM      5  C   UNL     1      -4.829  66.353  30.394  1.00  0.00     0.076 A 
ATOM      6  C   UNL     1      -3.609  66.030  29.746  1.00  0.00     0.127 A 
ATOM      7  C   UNL     1      -2.410  66.583  30.205  1.00  0.00     0.050 A 
ATOM      8  C   UNL     1      -6.112  65.678  30.066  1.00  0.00     0.201 C 
ATOM      9  O   UNL     1      -6.104  64.502  29.614  1.00  0.00    -0.288 OA
ATOM     10  C   UNL     1      -7.399  66.314  30.450  1.00  0.00     0.076 A 
ATOM     11  C   UNL     1      -7.389  67.265  31.495  1.00  0.00     0.041 A 
ATOM     12  C   UNL     1      -6.099  67.712  32.073  1.00  0.00     0.194 C 
ATOM     13  O   UNL     1      -6.089  68.460  33.089  1.00  0.00    -0.289 OA
ATOM     14  C   UNL     1      -8.601  67.785  31.979  1.00  0.00     0.059 A 
ATOM     15  C   UNL     1      -9.818  67.381  31.423  1.00  0.00     0.120 A 
ATOM     16  C   UNL     1      -9.830  66.474  30.365  1.00  0.00     0.093 A 
ATOM     17  C   UNL     1      -8.636  65.956  29.852  1.00  0.00     0.131 A 
ENDROOT
BRANCH   6  18
ATOM     18  O   UNL     1      -3.546  65.195  28.627  1.00  0.00    -0.507 OA
ATOM     19  H   UNL     1      -3.265  64.225  28.669  1.00  0.00     0.293 HD
ENDBRANCH   6  18
BRANCH  17  20
ATOM     20  O   UNL     1      -8.722  65.124  28.733  1.00  0.00    -0.507 OA
ATOM     21  H   UNL     1      -9.409  65.242  28.001  1.00  0.00     0.293 HD
ENDBRANCH  17  20
BRANCH  15  22
ATOM     22  O   UNL     1     -11.022  67.885  31.908  1.00  0.00    -0.508 OA
ATOM     23  H   UNL     1     -11.900  67.404  31.753  1.00  0.00     0.293 HD
ENDBRANCH  15  22
TORSDOF 3
ENDMDL
MODEL 4
REMARK VINA RESULT:    -6.453      3.073      6.202
REMARK INTER + INTRA:          -7.019
REMARK INTER:                  -7.019
REMARK INTRA:                   0.000
REMARK UNBOUND:                 0.000
REMARK SMILES Cc1cc(O)c2c(c1)C(=O)c1cc(O)cc(O)c1C2=O
REMARK SMILES IDX 1 1 2 2 8 3 7 4 6 5 4 6 3 7 19 8 20 9 18 10 11 11 9 12 10 13
REMARK SMILES IDX 12 14 13 15 15 16 16 17 5 18 17 20 14 22
REMARK H PARENT 5 19 17 21 14 23
REMARK Flexibility Score: inf
ROOT
ATOM      1  C   UNL     1      -9.822  71.017  27.985  1.00  0.00     0.044 C 
ATOM      2  C   UNL     1      -9.368  70.136  29.110  1.00  0.00    -0.047 A 
ATOM      3  C   UNL     1      -8.003  69.937  29.342  1.00  0.00     0.016 A 
ATOM      4  C   UNL     1      -7.567  69.079  30.367  1.00  0.00     0.038 A 
ATOM      5  C   UNL     1      -8.514  68.386  31.153  1.00  0.00     0.076 A 
ATOM      6  C   UNL     1      -9.896  68.626  30.943  1.00  0.00     0.127 A 
ATOM      7  C   UNL     1     -10.306  69.469  29.906  1.00  0.00     0.050 A 
ATOM      8  C   UNL     1      -8.016  67.378  32.125  1.00  0.00     0.201 C 
ATOM      9  O   UNL     1      -8.726  66.378  32.411  1.00  0.00    -0.288 OA
ATOM     10  C   UNL     1      -6.612  67.449  32.609  1.00  0.00     0.076 A 
ATOM     11  C   UNL     1      -5.668  68.144  31.818  1.00  0.00     0.041 A 
ATOM     12  C   UNL     1      -6.118  68.900  30.625  1.00  0.00     0.194 C 
ATOM     13  O   UNL     1      -5.269  69.412  29.846  1.00  0.00    -0.289 OA
ATOM     14  C   UNL     1      -4.308  68.117  32.169  1.00  0.00     0.059 A 
ATOM     15  C   UNL     1      -3.882  67.422  33.304  1.00  0.00     0.120 A 
ATOM     16  C   UNL     1      -4.815  66.770  34.109  1.00  0.00     0.093 A 
ATOM     17  C   UNL     1      -6.178  66.798  33.792  1.00  0.00     0.131 A 
ENDROOT
BRANCH   6  18
ATOM     18  O   UNL     1     -10.891  68.077  31.758  1.00  0.00    -0.507 OA
ATOM     19  H   UNL     1     -11.590  67.428  31.425  1.00  0.00     0.293 HD
ENDBRANCH   6  18
BRANCH  17  20
ATOM     20  O   UNL     1      -7.061  66.200  34.694  1.00  0.00    -0.507 OA
ATOM     21  H   UNL     1      -8.013  65.953  34.463  1.00  0.00     0.293 HD
ENDBRANCH  17  20
BRANCH  15  22
ATOM     22  O   UNL     1      -2.533  67.383  33.648  1.00  0.00    -0.508 OA
ATOM     23  H   UNL     1      -1.915  66.665  33.290  1.00  0.00     0.293 HD
ENDBRANCH  15  22
TORSDOF 3
ENDMDL
MODEL 5
REMARK VINA RESULT:    -6.432      1.860      3.902
REMARK INTER + INTRA:          -6.996
REMARK INTER:                  -6.996
REMARK INTRA:                   0.000
REMARK UNBOUND:                 0.000
REMARK SMILES Cc1cc(O)c2c(c1)C(=O)c1cc(O)cc(O)c1C2=O
REMARK SMILES IDX 1 1 2 2 8 3 7 4 6 5 4 6 3 7 19 8 20 9 18 10 11 11 9 12 10 13
REMARK SMILES IDX 12 14 13 15 15 16 16 17 5 18 17 20 14 22
REMARK H PARENT 5 19 17 21 14 23
REMARK Flexibility Score: inf
ROOT
ATOM      1  C   UNL     1      -3.120  65.455  29.007  1.00  0.00     0.044 C 
ATOM      2  C   UNL     1      -4.539  65.941  29.019  1.00  0.00    -0.047 A 
ATOM      3  C   UNL     1      -4.938  66.971  28.161  1.00  0.00     0.016 A 
ATOM      4  C   UNL     1      -6.255  67.464  28.196  1.00  0.00     0.038 A 
ATOM      5  C   UNL     1      -7.178  66.934  29.125  1.00  0.00     0.076 A 
ATOM      6  C   UNL     1      -6.781  65.859  29.960  1.00  0.00     0.127 A 
ATOM      7  C   UNL     1      -5.461  65.400  29.922  1.00  0.00     0.050 A 
ATOM      8  C   UNL     1      -8.513  67.580  29.232  1.00  0.00     0.201 C 
ATOM      9  O   UNL     1      -9.125  67.574  30.333  1.00  0.00    -0.288 OA
ATOM     10  C   UNL     1      -9.034  68.391  28.101  1.00  0.00     0.076 A 
ATOM     11  C   UNL     1      -8.106  68.918  27.175  1.00  0.00     0.041 A 
ATOM     12  C   UNL     1      -6.676  68.534  27.262  1.00  0.00     0.194 C 
ATOM     13  O   UNL     1      -5.826  69.099  26.522  1.00  0.00    -0.289 OA
ATOM     14  C   UNL     1      -8.543  69.802  26.173  1.00  0.00     0.059 A 
ATOM     15  C   UNL     1      -9.892  70.151  26.076  1.00  0.00     0.120 A 
ATOM     16  C   UNL     1     -10.817  69.601  26.963  1.00  0.00     0.093 A 
ATOM     17  C   UNL     1     -10.410  68.704  27.956  1.00  0.00     0.131 A 
ENDROOT
BRANCH   6  18
ATOM     18  O   UNL     1      -7.667  65.199  30.816  1.00  0.00    -0.507 OA
ATOM     19  H   UNL     1      -7.384  64.751  31.676  1.00  0.00     0.293 HD
ENDBRANCH   6  18
BRANCH  17  20
ATOM     20  O   UNL     1     -11.405  68.125  28.747  1.00  0.00    -0.507 OA
ATOM     21  H   UNL     1     -12.381  68.382  28.695  1.00  0.00     0.293 HD
ENDBRANCH  17  20
BRANCH  15  22
ATOM     22  O   UNL     1     -10.327  71.036  25.092  1.00  0.00    -0.508 OA
ATOM     23  H   UNL     1     -11.176  71.578  25.204  1.00  0.00     0.293 HD
ENDBRANCH  15  22
TORSDOF 3
ENDMDL
MODEL 6
REMARK VINA RESULT:    -6.413      3.566      7.092
REMARK INTER + INTRA:          -6.975
REMARK INTER:                  -6.975
REMARK INTRA:                   0.000
REMARK UNBOUND:                 0.000
REMARK SMILES Cc1cc(O)c2c(c1)C(=O)c1cc(O)cc(O)c1C2=O
REMARK SMILES IDX 1 1 2 2 8 3 7 4 6 5 4 6 3 7 19 8 20 9 18 10 11 11 9 12 10 13
REMARK SMILES IDX 12 14 13 15 15 16 16 17 5 18 17 20 14 22
REMARK H PARENT 5 19 17 21 14 23
REMARK Flexibility Score: inf
ROOT
ATOM      1  C   UNL     1      -7.186  67.823  35.168  1.00  0.00     0.044 C 
ATOM      2  C   UNL     1      -6.463  67.343  33.944  1.00  0.00    -0.047 A 
ATOM      3  C   UNL     1      -5.215  67.876  33.608  1.00  0.00     0.016 A 
ATOM      4  C   UNL     1      -4.550  67.465  32.440  1.00  0.00     0.038 A 
ATOM      5  C   UNL     1      -5.159  66.525  31.579  1.00  0.00     0.076 A 
ATOM      6  C   UNL     1      -6.404  65.954  31.947  1.00  0.00     0.127 A 
ATOM      7  C   UNL     1      -7.056  66.393  33.104  1.00  0.00     0.050 A 
ATOM      8  C   UNL     1      -4.494  66.227  30.283  1.00  0.00     0.201 C 
ATOM      9  O   UNL     1      -5.187  65.899  29.284  1.00  0.00    -0.288 OA
ATOM     10  C   UNL     1      -3.043  66.500  30.118  1.00  0.00     0.076 A 
ATOM     11  C   UNL     1      -2.438  67.442  30.982  1.00  0.00     0.041 A 
ATOM     12  C   UNL     1      -3.213  68.013  32.110  1.00  0.00     0.194 C 
ATOM     13  O   UNL     1      -2.722  68.945  32.803  1.00  0.00    -0.289 OA
ATOM     14  C   UNL     1      -1.104  67.829  30.770  1.00  0.00     0.059 A 
ATOM     15  C   UNL     1      -0.364  67.278  29.720  1.00  0.00     0.120 A 
ATOM     16  C   UNL     1      -0.945  66.320  28.891  1.00  0.00     0.093 A 
ATOM     17  C   UNL     1      -2.264  65.902  29.093  1.00  0.00     0.131 A 
ENDROOT
BRANCH   6  18
ATOM     18  O   UNL     1      -7.012  64.930  31.215  1.00  0.00    -0.507 OA
ATOM     19  H   UNL     1      -7.476  65.076  30.330  1.00  0.00     0.293 HD
ENDBRANCH   6  18
BRANCH  17  20
ATOM     20  O   UNL     1      -2.747  64.873  28.281  1.00  0.00    -0.507 OA
ATOM     21  H   UNL     1      -3.498  64.992  27.615  1.00  0.00     0.293 HD
ENDBRANCH  17  20
BRANCH  15  22
ATOM     22  O   UNL     1       0.954  67.669  29.499  1.00  0.00    -0.508 OA
ATOM     23  H   UNL     1       1.266  68.614  29.687  1.00  0.00     0.293 HD
ENDBRANCH  15  22
TORSDOF 3
ENDMDL
MODEL 7
REMARK VINA RESULT:    -6.277      3.334      4.444
REMARK INTER + INTRA:          -6.828
REMARK INTER:                  -6.828
REMARK INTRA:                   0.000
REMARK UNBOUND:                 0.000
REMARK SMILES Cc1cc(O)c2c(c1)C(=O)c1cc(O)cc(O)c1C2=O
REMARK SMILES IDX 1 1 2 2 8 3 7 4 6 5 4 6 3 7 19 8 20 9 18 10 11 11 9 12 10 13
REMARK SMILES IDX 12 14 13 15 15 16 16 17 5 18 17 20 14 22
REMARK H PARENT 5 19 17 21 14 23
REMARK Flexibility Score: inf
ROOT
ATOM      1  C   UNL     1       0.623  68.237  29.348  1.00  0.00     0.044 C 
ATOM      2  C   UNL     1      -0.789  67.797  29.603  1.00  0.00    -0.047 A 
ATOM      3  C   UNL     1      -1.322  67.855  30.895  1.00  0.00     0.016 A 
ATOM      4  C   UNL     1      -2.628  67.404  31.153  1.00  0.00     0.038 A 
ATOM      5  C   UNL     1      -3.403  66.859  30.104  1.00  0.00     0.076 A 
ATOM      6  C   UNL     1      -2.874  66.844  28.788  1.00  0.00     0.127 A 
ATOM      7  C   UNL     1      -1.565  67.280  28.560  1.00  0.00     0.050 A 
ATOM      8  C   UNL     1      -4.720  66.258  30.444  1.00  0.00     0.201 C 
ATOM      9  O   UNL     1      -5.170  65.305  29.755  1.00  0.00    -0.288 OA
ATOM     10  C   UNL     1      -5.408  66.652  31.701  1.00  0.00     0.076 A 
ATOM     11  C   UNL     1      -4.629  67.197  32.746  1.00  0.00     0.041 A 
ATOM     12  C   UNL     1      -3.196  67.500  32.518  1.00  0.00     0.194 C 
ATOM     13  O   UNL     1      -2.467  67.864  33.482  1.00  0.00    -0.289 OA
ATOM     14  C   UNL     1      -5.217  67.453  33.996  1.00  0.00     0.059 A 
ATOM     15  C   UNL     1      -6.573  67.188  34.209  1.00  0.00     0.120 A 
ATOM     16  C   UNL     1      -7.354  66.689  33.168  1.00  0.00     0.093 A 
ATOM     17  C   UNL     1      -6.797  66.444  31.909  1.00  0.00     0.131 A 
ENDROOT
BRANCH   6  18
ATOM     18  O   UNL     1      -3.619  66.436  27.678  1.00  0.00    -0.507 OA
ATOM     19  H   UNL     1      -3.303  66.539  26.725  1.00  0.00     0.293 HD
ENDBRANCH   6  18
BRANCH  17  20
ATOM     20  O   UNL     1      -7.660  66.031  30.891  1.00  0.00    -0.507 OA
ATOM     21  H   UNL     1      -8.132  65.138  30.887  1.00  0.00     0.293 HD
ENDBRANCH  17  20
BRANCH  15  22
ATOM     22  O   UNL     1      -7.157  67.429  35.451  1.00  0.00    -0.508 OA
ATOM     23  H   UNL     1      -6.768  67.045  36.303  1.00  0.00     0.293 HD
ENDBRANCH  15  22
TORSDOF 3
ENDMDL
MODEL 8
REMARK VINA RESULT:    -6.216      2.132      5.684
REMARK INTER + INTRA:          -6.762
REMARK INTER:                  -6.762
REMARK INTRA:                   0.000
REMARK UNBOUND:                 0.000
REMARK SMILES Cc1cc(O)c2c(c1)C(=O)c1cc(O)cc(O)c1C2=O
REMARK SMILES IDX 1 1 2 2 8 3 7 4 6 5 4 6 3 7 19 8 20 9 18 10 11 11 9 12 10 13
REMARK SMILES IDX 12 14 13 15 15 16 16 17 5 18 17 20 14 22
REMARK H PARENT 5 19 17 21 14 23
REMARK Flexibility Score: inf
ROOT
ATOM      1  C   UNL     1     -12.863  64.681  29.853  1.00  0.00     0.044 C 
ATOM      2  C   UNL     1     -11.942  65.711  29.269  1.00  0.00    -0.047 A 
ATOM      3  C   UNL     1     -10.556  65.566  29.390  1.00  0.00     0.016 A 
ATOM      4  C   UNL     1      -9.686  66.547  28.884  1.00  0.00     0.038 A 
ATOM      5  C   UNL     1     -10.213  67.707  28.272  1.00  0.00     0.076 A 
ATOM      6  C   UNL     1     -11.618  67.827  28.112  1.00  0.00     0.127 A 
ATOM      7  C   UNL     1     -12.464  66.847  28.641  1.00  0.00     0.050 A 
ATOM      8  C   UNL     1      -9.269  68.787  27.885  1.00  0.00     0.201 C 
ATOM      9  O   UNL     1      -9.653  69.987  27.888  1.00  0.00    -0.288 OA
ATOM     10  C   UNL     1      -7.831  68.472  27.680  1.00  0.00     0.076 A 
ATOM     11  C   UNL     1      -7.308  67.311  28.294  1.00  0.00     0.041 A 
ATOM     12  C   UNL     1      -8.218  66.370  28.989  1.00  0.00     0.194 C 
ATOM     13  O   UNL     1      -7.744  65.403  29.647  1.00  0.00    -0.289 OA
ATOM     14  C   UNL     1      -5.928  67.053  28.239  1.00  0.00     0.059 A 
ATOM     15  C   UNL     1      -5.069  67.927  27.568  1.00  0.00     0.120 A 
ATOM     16  C   UNL     1      -5.587  69.051  26.927  1.00  0.00     0.093 A 
ATOM     17  C   UNL     1      -6.959  69.320  26.949  1.00  0.00     0.131 A 
ENDROOT
BRANCH   6  18
ATOM     18  O   UNL     1     -12.211  68.880  27.411  1.00  0.00    -0.507 OA
ATOM     19  H   UNL     1     -13.195  69.102  27.463  1.00  0.00     0.293 HD
ENDBRANCH   6  18
BRANCH  17  20
ATOM     20  O   UNL     1      -7.414  70.414  26.208  1.00  0.00    -0.507 OA
ATOM     21  H   UNL     1      -7.340  71.371  26.523  1.00  0.00     0.293 HD
ENDBRANCH  17  20
BRANCH  15  22
ATOM     22  O   UNL     1      -3.699  67.681  27.522  1.00  0.00    -0.508 OA
ATOM     23  H   UNL     1      -3.237  67.117  28.226  1.00  0.00     0.293 HD
ENDBRANCH  15  22
TORSDOF 3
ENDMDL
MODEL 9
REMARK VINA RESULT:    -6.172      2.756      4.299
REMARK INTER + INTRA:          -6.713
REMARK INTER:                  -6.713
REMARK INTRA:                   0.000
REMARK UNBOUND:                 0.000
REMARK SMILES Cc1cc(O)c2c(c1)C(=O)c1cc(O)cc(O)c1C2=O
REMARK SMILES IDX 1 1 2 2 8 3 7 4 6 5 4 6 3 7 19 8 20 9 18 10 11 11 9 12 10 13
REMARK SMILES IDX 12 14 13 15 15 16 16 17 5 18 17 20 14 22
REMARK H PARENT 5 19 17 21 14 23
REMARK Flexibility Score: inf
ROOT
ATOM      1  C   UNL     1      -4.186  68.999  25.505  1.00  0.00     0.044 C 
ATOM      2  C   UNL     1      -4.975  68.661  26.735  1.00  0.00    -0.047 A 
ATOM      3  C   UNL     1      -4.320  68.272  27.908  1.00  0.00     0.016 A 
ATOM      4  C   UNL     1      -5.051  67.911  29.053  1.00  0.00     0.038 A 
ATOM      5  C   UNL     1      -6.464  67.911  29.013  1.00  0.00     0.076 A 
ATOM      6  C   UNL     1      -7.123  68.349  27.836  1.00  0.00     0.127 A 
ATOM      7  C   UNL     1      -6.374  68.685  26.704  1.00  0.00     0.050 A 
ATOM      8  C   UNL     1      -7.199  67.382  30.192  1.00  0.00     0.201 C 
ATOM      9  O   UNL     1      -8.321  66.832  30.036  1.00  0.00    -0.288 OA
ATOM     10  C   UNL     1      -6.529  67.332  31.517  1.00  0.00     0.076 A 
ATOM     11  C   UNL     1      -5.116  67.331  31.552  1.00  0.00     0.041 A 
ATOM     12  C   UNL     1      -4.347  67.531  30.300  1.00  0.00     0.194 C 
ATOM     13  O   UNL     1      -3.092  67.403  30.304  1.00  0.00    -0.289 OA
ATOM     14  C   UNL     1      -4.446  67.146  32.773  1.00  0.00     0.059 A 
ATOM     15  C   UNL     1      -5.167  66.977  33.958  1.00  0.00     0.120 A 
ATOM     16  C   UNL     1      -6.561  67.017  33.934  1.00  0.00     0.093 A 
ATOM     17  C   UNL     1      -7.251  67.221  32.734  1.00  0.00     0.131 A 
ENDROOT
BRANCH   6  18
ATOM     18  O   UNL     1      -8.510  68.497  27.757  1.00  0.00    -0.507 OA
ATOM     19  H   UNL     1      -9.159  68.006  28.356  1.00  0.00     0.293 HD
ENDBRANCH   6  18
BRANCH  17  20
ATOM     20  O   UNL     1      -8.641  67.341  32.802  1.00  0.00    -0.507 OA
ATOM     21  H   UNL     1      -9.114  68.083  33.300  1.00  0.00     0.293 HD
ENDBRANCH  17  20
BRANCH  15  22
ATOM     22  O   UNL     1      -4.508  66.780  35.169  1.00  0.00    -0.508 OA
ATOM     23  H   UNL     1      -3.560  67.108  35.316  1.00  0.00     0.293 HD
ENDBRANCH  15  22
TORSDOF 3
ENDMDL
