MODEL 1
REMARK VINA RESULT:    -5.300      0.000      0.000
REMARK INTER + INTRA:          -8.681
REMARK INTER:                  -8.088
REMARK INTRA:                  -0.593
REMARK UNBOUND:                -0.593
REMARK SMILES O=C([O-])CCCCCCCCC(=O)[O-]
REMARK SMILES IDX 7 1 6 2 5 3 4 4 2 5 1 6 3 7 8 8 9 9 10 10 11 11 12 12 13 13
REMARK SMILES IDX 14 14
REMARK H PARENT
REMARK Flexibility Score: inf
ROOT
ATOM      1  C   UNL     1      -4.125   6.739   4.674  1.00  0.00     0.000 C 
ENDROOT
BRANCH   1   2
ATOM      2  C   UNL     1      -2.745   6.488   4.043  1.00  0.00     0.000 C 
BRANCH   2   3
ATOM      3  C   UNL     1      -2.060   5.224   4.593  1.00  0.00     0.006 C 
BRANCH   3   4
ATOM      4  C   UNL     1      -2.845   4.509   5.706  1.00  0.00     0.053 C 
BRANCH   4   5
ATOM      5  C   UNL     1      -2.382   3.098   5.900  1.00  0.00     0.041 C 
ATOM      6  O   UNL     1      -1.719   2.783   6.923  1.00  0.00    -0.550 OA
ATOM      7  O   UNL     1      -2.710   2.124   4.966  1.00  0.00    -0.550 OA
ENDBRANCH   4   5
ENDBRANCH   3   4
ENDBRANCH   2   3
ENDBRANCH   1   2
BRANCH   1   8
ATOM      8  C   UNL     1      -4.193   8.076   5.430  1.00  0.00     0.000 C 
BRANCH   8   9
ATOM      9  C   UNL     1      -4.471   7.897   6.931  1.00  0.00     0.000 C 
BRANCH   9  10
ATOM     10  C   UNL     1      -5.443   6.737   7.174  1.00  0.00     0.006 C 
BRANCH  10  11
ATOM     11  C   UNL     1      -6.352   7.023   8.373  1.00  0.00     0.053 C 
BRANCH  11  12
ATOM     12  C   UNL     1      -7.625   6.246   8.262  1.00  0.00     0.041 C 
ATOM     13  O   UNL     1      -7.637   5.009   8.500  1.00  0.00    -0.550 OA
ATOM     14  O   UNL     1      -8.810   6.896   7.941  1.00  0.00    -0.550 OA
ENDBRANCH  11  12
ENDBRANCH  10  11
ENDBRANCH   9  10
ENDBRANCH   8   9
ENDBRANCH   1   8
TORSDOF 9
ENDMDL
MODEL 2
REMARK VINA RESULT:    -5.129      0.836      5.784
REMARK INTER + INTRA:          -8.420
REMARK INTER:                  -7.954
REMARK INTRA:                  -0.466
REMARK UNBOUND:                -0.593
REMARK SMILES O=C([O-])CCCCCCCCC(=O)[O-]
REMARK SMILES IDX 7 1 6 2 5 3 4 4 2 5 1 6 3 7 8 8 9 9 10 10 11 11 12 12 13 13
REMARK SMILES IDX 14 14
REMARK H PARENT
REMARK Flexibility Score: inf
ROOT
ATOM      1  C   UNL     1      -4.959   6.911   6.587  1.00  0.00     0.000 C 
ENDROOT
BRANCH   1   2
ATOM      2  C   UNL     1      -5.166   7.684   7.901  1.00  0.00     0.000 C 
BRANCH   2   3
ATOM      3  C   UNL     1      -6.412   7.218   8.675  1.00  0.00     0.006 C 
BRANCH   3   4
ATOM      4  C   UNL     1      -6.928   5.827   8.272  1.00  0.00     0.053 C 
BRANCH   4   5
ATOM      5  C   UNL     1      -8.402   5.832   8.003  1.00  0.00     0.041 C 
ATOM      6  O   UNL     1      -9.023   4.747   7.857  1.00  0.00    -0.550 OA
ATOM      7  O   UNL     1      -9.093   7.035   7.944  1.00  0.00    -0.550 OA
ENDBRANCH   4   5
ENDBRANCH   3   4
ENDBRANCH   2   3
ENDBRANCH   1   2
BRANCH   1   8
ATOM      8  C   UNL     1      -4.154   7.713   5.552  1.00  0.00     0.000 C 
BRANCH   8   9
ATOM      9  C   UNL     1      -3.331   6.817   4.614  1.00  0.00     0.000 C 
BRANCH   9  10
ATOM     10  C   UNL     1      -3.501   5.338   4.980  1.00  0.00     0.006 C 
BRANCH  10  11
ATOM     11  C   UNL     1      -2.145   4.677   5.245  1.00  0.00     0.053 C 
BRANCH  11  12
ATOM     12  C   UNL     1      -2.332   3.321   5.848  1.00  0.00     0.041 C 
ATOM     13  O   UNL     1      -2.738   2.363   5.139  1.00  0.00    -0.550 OA
ATOM     14  O   UNL     1      -2.014   3.103   7.183  1.00  0.00    -0.550 OA
ENDBRANCH  11  12
ENDBRANCH  10  11
ENDBRANCH   9  10
ENDBRANCH   8   9
ENDBRANCH   1   8
TORSDOF 9
ENDMDL
MODEL 3
REMARK VINA RESULT:    -4.214      1.300      2.297
REMARK INTER + INTRA:          -7.023
REMARK INTER:                  -6.616
REMARK INTRA:                  -0.407
REMARK UNBOUND:                -0.593
REMARK SMILES O=C([O-])CCCCCCCCC(=O)[O-]
REMARK SMILES IDX 7 1 6 2 5 3 4 4 2 5 1 6 3 7 8 8 9 9 10 10 11 11 12 12 13 13
REMARK SMILES IDX 14 14
REMARK H PARENT
REMARK Flexibility Score: inf
ROOT
ATOM      1  C   UNL     1      -4.694   6.194   6.738  1.00  0.00     0.000 C 
ENDROOT
BRANCH   1   2
ATOM      2  C   UNL     1      -3.935   6.568   5.453  1.00  0.00     0.000 C 
BRANCH   2   3
ATOM      3  C   UNL     1      -3.446   5.335   4.671  1.00  0.00     0.006 C 
BRANCH   3   4
ATOM      4  C   UNL     1      -2.182   4.676   5.249  1.00  0.00     0.053 C 
BRANCH   4   5
ATOM      5  C   UNL     1      -2.479   3.351   5.879  1.00  0.00     0.041 C 
ATOM      6  O   UNL     1      -2.549   2.313   5.170  1.00  0.00    -0.550 OA
ATOM      7  O   UNL     1      -2.648   3.258   7.255  1.00  0.00    -0.550 OA
ENDBRANCH   4   5
ENDBRANCH   3   4
ENDBRANCH   2   3
ENDBRANCH   1   2
BRANCH   1   8
ATOM      8  C   UNL     1      -5.418   7.396   7.367  1.00  0.00     0.000 C 
BRANCH   8   9
ATOM      9  C   UNL     1      -6.164   7.031   8.659  1.00  0.00     0.000 C 
BRANCH   9  10
ATOM     10  C   UNL     1      -7.541   6.433   8.348  1.00  0.00     0.006 C 
BRANCH  10  11
ATOM     11  C   UNL     1      -7.999   5.494   9.467  1.00  0.00     0.053 C 
BRANCH  11  12
ATOM     12  C   UNL     1      -7.969   4.072   9.002  1.00  0.00     0.041 C 
ATOM     13  O   UNL     1      -8.783   3.675   8.126  1.00  0.00    -0.550 OA
ATOM     14  O   UNL     1      -7.013   3.197   9.499  1.00  0.00    -0.550 OA
ENDBRANCH  11  12
ENDBRANCH  10  11
ENDBRANCH   9  10
ENDBRANCH   8   9
ENDBRANCH   1   8
TORSDOF 9
ENDMDL
MODEL 4
REMARK VINA RESULT:    -4.104     16.697     18.878
REMARK INTER + INTRA:          -6.856
REMARK INTER:                  -6.046
REMARK INTRA:                  -0.810
REMARK UNBOUND:                -0.593
REMARK SMILES O=C([O-])CCCCCCCCC(=O)[O-]
REMARK SMILES IDX 7 1 6 2 5 3 4 4 2 5 1 6 3 7 8 8 9 9 10 10 11 11 12 12 13 13
REMARK SMILES IDX 14 14
REMARK H PARENT
REMARK Flexibility Score: inf
ROOT
ATOM      1  C   UNL     1      -1.794  -5.590  -8.168  1.00  0.00     0.000 C 
ENDROOT
BRANCH   1   2
ATOM      2  C   UNL     1      -1.511  -4.721  -9.405  1.00  0.00     0.000 C 
BRANCH   2   3
ATOM      3  C   UNL     1      -1.984  -3.267  -9.232  1.00  0.00     0.006 C 
BRANCH   3   4
ATOM      4  C   UNL     1      -1.260  -2.490  -8.120  1.00  0.00     0.053 C 
BRANCH   4   5
ATOM      5  C   UNL     1      -1.028  -1.059  -8.495  1.00  0.00     0.041 C 
ATOM      6  O   UNL     1      -1.024  -0.165  -7.609  1.00  0.00    -0.550 OA
ATOM      7  O   UNL     1      -0.784  -0.719  -9.819  1.00  0.00    -0.550 OA
ENDBRANCH   4   5
ENDBRANCH   3   4
ENDBRANCH   2   3
ENDBRANCH   1   2
BRANCH   1   8
ATOM      8  C   UNL     1      -0.866  -6.812  -8.080  1.00  0.00     0.000 C 
BRANCH   8   9
ATOM      9  C   UNL     1       0.010  -6.804  -6.818  1.00  0.00     0.000 C 
BRANCH   9  10
ATOM     10  C   UNL     1       0.366  -5.370  -6.407  1.00  0.00     0.006 C 
BRANCH  10  11
ATOM     11  C   UNL     1       1.858  -5.094  -6.613  1.00  0.00     0.053 C 
BRANCH  11  12
ATOM     12  C   UNL     1       2.168  -4.951  -8.070  1.00  0.00     0.041 C 
ATOM     13  O   UNL     1       1.830  -3.908  -8.690  1.00  0.00    -0.550 OA
ATOM     14  O   UNL     1       2.871  -5.948  -8.732  1.00  0.00    -0.550 OA
ENDBRANCH  11  12
ENDBRANCH  10  11
ENDBRANCH   9  10
ENDBRANCH   8   9
ENDBRANCH   1   8
TORSDOF 9
ENDMDL
MODEL 5
REMARK VINA RESULT:    -4.088     16.664     18.296
REMARK INTER + INTRA:          -6.831
REMARK INTER:                  -6.012
REMARK INTRA:                  -0.820
REMARK UNBOUND:                -0.593
REMARK SMILES O=C([O-])CCCCCCCCC(=O)[O-]
REMARK SMILES IDX 7 1 6 2 5 3 4 4 2 5 1 6 3 7 8 8 9 9 10 10 11 11 12 12 13 13
REMARK SMILES IDX 14 14
REMARK H PARENT
REMARK Flexibility Score: inf
ROOT
ATOM      1  C   UNL     1      -1.238  -6.764  -8.096  1.00  0.00     0.000 C 
ENDROOT
BRANCH   1   2
ATOM      2  C   UNL     1      -0.022  -6.904  -7.164  1.00  0.00     0.000 C 
BRANCH   2   3
ATOM      3  C   UNL     1       0.341  -5.586  -6.456  1.00  0.00     0.006 C 
BRANCH   3   4
ATOM      4  C   UNL     1       1.822  -5.191  -6.569  1.00  0.00     0.053 C 
BRANCH   4   5
ATOM      5  C   UNL     1       2.241  -4.986  -7.993  1.00  0.00     0.041 C 
ATOM      6  O   UNL     1       2.959  -5.843  -8.571  1.00  0.00    -0.550 OA
ATOM      7  O   UNL     1       1.811  -3.864  -8.689  1.00  0.00    -0.550 OA
ENDBRANCH   4   5
ENDBRANCH   3   4
ENDBRANCH   2   3
ENDBRANCH   1   2
BRANCH   1   8
ATOM      8  C   UNL     1      -1.372  -5.349  -8.682  1.00  0.00     0.000 C 
BRANCH   8   9
ATOM      9  C   UNL     1      -2.688  -4.664  -8.285  1.00  0.00     0.000 C 
BRANCH   9  10
ATOM     10  C   UNL     1      -2.580  -3.141  -8.431  1.00  0.00     0.006 C 
BRANCH  10  11
ATOM     11  C   UNL     1      -1.338  -2.606  -7.713  1.00  0.00     0.053 C 
BRANCH  11  12
ATOM     12  C   UNL     1      -0.896  -1.314  -8.324  1.00  0.00     0.041 C 
ATOM     13  O   UNL     1      -0.371  -1.301  -9.468  1.00  0.00    -0.550 OA
ATOM     14  O   UNL     1      -1.108  -0.118  -7.650  1.00  0.00    -0.550 OA
ENDBRANCH  11  12
ENDBRANCH  10  11
ENDBRANCH   9  10
ENDBRANCH   8   9
ENDBRANCH   1   8
TORSDOF 9
ENDMDL
MODEL 6
REMARK VINA RESULT:    -4.039     14.828     17.510
REMARK INTER + INTRA:          -6.756
REMARK INTER:                  -6.270
REMARK INTRA:                  -0.487
REMARK UNBOUND:                -0.593
REMARK SMILES O=C([O-])CCCCCCCCC(=O)[O-]
REMARK SMILES IDX 7 1 6 2 5 3 4 4 2 5 1 6 3 7 8 8 9 9 10 10 11 11 12 12 13 13
REMARK SMILES IDX 14 14
REMARK H PARENT
REMARK Flexibility Score: inf
ROOT
ATOM      1  C   UNL     1       8.465   7.047  -6.437  1.00  0.00     0.000 C 
ENDROOT
BRANCH   1   2
ATOM      2  C   UNL     1       7.414   6.255  -7.233  1.00  0.00     0.000 C 
BRANCH   2   3
ATOM      3  C   UNL     1       8.036   5.155  -8.112  1.00  0.00     0.006 C 
BRANCH   3   4
ATOM      4  C   UNL     1       9.246   4.445  -7.480  1.00  0.00     0.053 C 
BRANCH   4   5
ATOM      5  C   UNL     1       9.656   3.235  -8.261  1.00  0.00     0.041 C 
ATOM      6  O   UNL     1       9.737   3.288  -9.516  1.00  0.00    -0.550 OA
ATOM      7  O   UNL     1       9.981   2.058  -7.599  1.00  0.00    -0.550 OA
ENDBRANCH   4   5
ENDBRANCH   3   4
ENDBRANCH   2   3
ENDBRANCH   1   2
BRANCH   1   8
ATOM      8  C   UNL     1       8.167   7.073  -4.929  1.00  0.00     0.000 C 
BRANCH   8   9
ATOM      9  C   UNL     1       8.055   5.666  -4.321  1.00  0.00     0.000 C 
BRANCH   9  10
ATOM     10  C   UNL     1       6.968   5.620  -3.241  1.00  0.00     0.006 C 
BRANCH  10  11
ATOM     11  C   UNL     1       7.567   5.837  -1.848  1.00  0.00     0.053 C 
BRANCH  11  12
ATOM     12  C   UNL     1       7.681   4.535  -1.120  1.00  0.00     0.041 C 
ATOM     13  O   UNL     1       6.652   3.976  -0.655  1.00  0.00    -0.550 OA
ATOM     14  O   UNL     1       8.917   3.914  -0.995  1.00  0.00    -0.550 OA
ENDBRANCH  11  12
ENDBRANCH  10  11
ENDBRANCH   9  10
ENDBRANCH   8   9
ENDBRANCH   1   8
TORSDOF 9
ENDMDL
MODEL 7
REMARK VINA RESULT:    -3.946     15.405     18.118
REMARK INTER + INTRA:          -6.615
REMARK INTER:                  -6.278
REMARK INTRA:                  -0.336
REMARK UNBOUND:                -0.593
REMARK SMILES O=C([O-])CCCCCCCCC(=O)[O-]
REMARK SMILES IDX 7 1 6 2 5 3 4 4 2 5 1 6 3 7 8 8 9 9 10 10 11 11 12 12 13 13
REMARK SMILES IDX 14 14
REMARK H PARENT
REMARK Flexibility Score: inf
ROOT
ATOM      1  C   UNL     1      -2.841  -3.892  -7.149  1.00  0.00     0.000 C 
ENDROOT
BRANCH   1   2
ATOM      2  C   UNL     1      -3.918  -4.113  -8.224  1.00  0.00     0.000 C 
BRANCH   2   3
ATOM      3  C   UNL     1      -5.345  -4.113  -7.646  1.00  0.00     0.006 C 
BRANCH   3   4
ATOM      4  C   UNL     1      -5.411  -4.273  -6.118  1.00  0.00     0.053 C 
BRANCH   4   5
ATOM      5  C   UNL     1      -6.665  -3.686  -5.547  1.00  0.00     0.041 C 
ATOM      6  O   UNL     1      -6.718  -2.462  -5.257  1.00  0.00    -0.550 OA
ATOM      7  O   UNL     1      -7.786  -4.486  -5.365  1.00  0.00    -0.550 OA
ENDBRANCH   4   5
ENDBRANCH   3   4
ENDBRANCH   2   3
ENDBRANCH   1   2
BRANCH   1   8
ATOM      8  C   UNL     1      -1.503  -4.559  -7.508  1.00  0.00     0.000 C 
BRANCH   8   9
ATOM      9  C   UNL     1      -0.400  -4.272  -6.479  1.00  0.00     0.000 C 
BRANCH   9  10
ATOM     10  C   UNL     1       0.567  -5.457  -6.365  1.00  0.00     0.006 C 
BRANCH  10  11
ATOM     11  C   UNL     1       1.985  -5.051  -6.774  1.00  0.00     0.053 C 
BRANCH  11  12
ATOM     12  C   UNL     1       2.127  -5.072  -8.263  1.00  0.00     0.041 C 
ATOM     13  O   UNL     1       2.377  -6.153  -8.860  1.00  0.00    -0.550 OA
ATOM     14  O   UNL     1       1.936  -3.909  -8.997  1.00  0.00    -0.550 OA
ENDBRANCH  11  12
ENDBRANCH  10  11
ENDBRANCH   9  10
ENDBRANCH   8   9
ENDBRANCH   1   8
TORSDOF 9
ENDMDL
MODEL 8
REMARK VINA RESULT:    -3.946     14.812     17.814
REMARK INTER + INTRA:          -6.614
REMARK INTER:                  -6.170
REMARK INTRA:                  -0.445
REMARK UNBOUND:                -0.593
REMARK SMILES O=C([O-])CCCCCCCCC(=O)[O-]
REMARK SMILES IDX 7 1 6 2 5 3 4 4 2 5 1 6 3 7 8 8 9 9 10 10 11 11 12 12 13 13
REMARK SMILES IDX 14 14
REMARK H PARENT
REMARK Flexibility Score: inf
ROOT
ATOM      1  C   UNL     1       7.767   5.795  -5.417  1.00  0.00     0.000 C 
ENDROOT
BRANCH   1   2
ATOM      2  C   UNL     1       8.188   5.606  -3.950  1.00  0.00     0.000 C 
BRANCH   2   3
ATOM      3  C   UNL     1       7.095   6.037  -2.956  1.00  0.00     0.006 C 
BRANCH   3   4
ATOM      4  C   UNL     1       7.564   6.128  -1.494  1.00  0.00     0.053 C 
BRANCH   4   5
ATOM      5  C   UNL     1       7.747   4.776  -0.878  1.00  0.00     0.041 C 
ATOM      6  O   UNL     1       8.888   4.398  -0.506  1.00  0.00    -0.550 OA
ATOM      7  O   UNL     1       6.650   3.946  -0.686  1.00  0.00    -0.550 OA
ENDBRANCH   4   5
ENDBRANCH   3   4
ENDBRANCH   2   3
ENDBRANCH   1   2
BRANCH   1   8
ATOM      8  C   UNL     1       8.576   4.914  -6.382  1.00  0.00     0.000 C 
BRANCH   8   9
ATOM      9  C   UNL     1       8.005   4.914  -7.808  1.00  0.00     0.000 C 
BRANCH   9  10
ATOM     10  C   UNL     1       7.122   6.145  -8.045  1.00  0.00     0.006 C 
BRANCH  10  11
ATOM     11  C   UNL     1       7.597   6.935  -9.268  1.00  0.00     0.053 C 
BRANCH  11  12
ATOM     12  C   UNL     1       8.032   8.309  -8.867  1.00  0.00     0.041 C 
ATOM     13  O   UNL     1       8.242   9.188  -9.744  1.00  0.00    -0.550 OA
ATOM     14  O   UNL     1       8.161   8.633  -7.523  1.00  0.00    -0.550 OA
ENDBRANCH  11  12
ENDBRANCH  10  11
ENDBRANCH   9  10
ENDBRANCH   8   9
ENDBRANCH   1   8
TORSDOF 9
ENDMDL
MODEL 9
REMARK VINA RESULT:    -3.893     15.770     17.671
REMARK INTER + INTRA:          -6.535
REMARK INTER:                  -6.010
REMARK INTRA:                  -0.524
REMARK UNBOUND:                -0.593
REMARK SMILES O=C([O-])CCCCCCCCC(=O)[O-]
REMARK SMILES IDX 7 1 6 2 5 3 4 4 2 5 1 6 3 7 8 8 9 9 10 10 11 11 12 12 13 13
REMARK SMILES IDX 14 14
REMARK H PARENT
REMARK Flexibility Score: inf
ROOT
ATOM      1  C   UNL     1      -1.264  -6.433  -8.418  1.00  0.00     0.000 C 
ENDROOT
BRANCH   1   2
ATOM      2  C   UNL     1      -0.226  -6.811  -7.348  1.00  0.00     0.000 C 
BRANCH   2   3
ATOM      3  C   UNL     1       0.160  -5.624  -6.447  1.00  0.00     0.006 C 
BRANCH   3   4
ATOM      4  C   UNL     1       1.632  -5.193  -6.559  1.00  0.00     0.053 C 
BRANCH   4   5
ATOM      5  C   UNL     1       2.060  -5.027  -7.985  1.00  0.00     0.041 C 
ATOM      6  O   UNL     1       2.913  -5.806  -8.485  1.00  0.00    -0.550 OA
ATOM      7  O   UNL     1       1.494  -4.030  -8.769  1.00  0.00    -0.550 OA
ENDBRANCH   4   5
ENDBRANCH   3   4
ENDBRANCH   2   3
ENDBRANCH   1   2
BRANCH   1   8
ATOM      8  C   UNL     1      -1.865  -5.037  -8.190  1.00  0.00     0.000 C 
BRANCH   8   9
ATOM      9  C   UNL     1      -3.401  -5.045  -8.182  1.00  0.00     0.000 C 
BRANCH   9  10
ATOM     10  C   UNL     1      -3.950  -4.107  -7.101  1.00  0.00     0.006 C 
BRANCH  10  11
ATOM     11  C   UNL     1      -5.462  -3.914  -7.255  1.00  0.00     0.053 C 
BRANCH  11  12
ATOM     12  C   UNL     1      -6.137  -3.985  -5.922  1.00  0.00     0.041 C 
ATOM     13  O   UNL     1      -6.527  -2.931  -5.353  1.00  0.00    -0.550 OA
ATOM     14  O   UNL     1      -6.378  -5.217  -5.329  1.00  0.00    -0.550 OA
ENDBRANCH  11  12
ENDBRANCH  10  11
ENDBRANCH   9  10
ENDBRANCH   8   9
ENDBRANCH   1   8
TORSDOF 9
ENDMDL
