MODEL 1
REMARK VINA RESULT:    -6.182      0.000      0.000
REMARK INTER + INTRA:         -11.539
REMARK INTER:                  -9.435
REMARK INTRA:                  -2.104
REMARK UNBOUND:                -2.104
REMARK SMILES OC[C@@H]1O[C@](CO)(O[C@H]2O[C@H](CO)[C@@H](O)[C@@H](O)[C@H]2O)[C@@H](O)[C@@H]1O
REMARK SMILES IDX 8 1 9 2 11 3 14 4 10 5 16 6 18 7 12 8 13 9 15 11 17 13 19 15
REMARK SMILES IDX 5 17 20 18 4 19 22 20 3 21 6 22 7 23 21 25 23 27 2 29 1 30
REMARK H PARENT 13 10 15 12 17 14 19 16 7 24 21 26 23 28 1 31
REMARK Flexibility Score: inf
ROOT
ATOM      1  O   UNL     1     113.318 108.427 122.722  1.00  0.00    -0.313 OA
ENDROOT
BRANCH   1   2
ATOM      2  C   UNL     1     114.681 108.242 122.352  1.00  0.00     0.285 C 
ATOM      3  C   UNL     1     115.430 108.951 124.470  1.00  0.00     0.178 C 
ATOM      4  C   UNL     1     115.917 107.539 124.869  1.00  0.00     0.177 C 
ATOM      5  O   UNL     1     115.527 109.135 123.064  1.00  0.00    -0.341 OA
ATOM      6  C   UNL     1     115.106 106.468 124.117  1.00  0.00     0.179 C 
ATOM      7  C   UNL     1     115.109 106.783 122.611  1.00  0.00     0.202 C 
BRANCH   3   8
ATOM      8  C   UNL     1     116.279 110.032 125.157  1.00  0.00     0.191 C 
BRANCH   8   9
ATOM      9  O   UNL     1     115.744 110.346 126.415  1.00  0.00    -0.394 OA
ATOM     10  H   UNL     1     116.205 111.169 126.725  1.00  0.00     0.210 HD
ENDBRANCH   8   9
ENDBRANCH   3   8
BRANCH   4  11
ATOM     11  O   UNL     1     115.780 107.357 126.256  1.00  0.00    -0.387 OA
ATOM     12  H   UNL     1     116.317 108.070 126.691  1.00  0.00     0.211 HD
ENDBRANCH   4  11
BRANCH   6  13
ATOM     13  O   UNL     1     113.791 106.431 124.617  1.00  0.00    -0.387 OA
ATOM     14  H   UNL     1     113.855 106.473 125.607  1.00  0.00     0.211 HD
ENDBRANCH   6  13
BRANCH   7  15
ATOM     15  O   UNL     1     114.260 105.892 121.933  1.00  0.00    -0.385 OA
ATOM     16  H   UNL     1     113.580 105.592 122.591  1.00  0.00     0.211 HD
ENDBRANCH   7  15
ENDBRANCH   1   2
BRANCH   1  17
ATOM     17  C   UNL     1     112.399 108.493 121.630  1.00  0.00     0.224 C 
ATOM     18  C   UNL     1     111.194 109.311 122.143  1.00  0.00     0.208 C 
ATOM     19  O   UNL     1     111.926 107.193 121.309  1.00  0.00    -0.337 OA
ATOM     20  C   UNL     1     110.307 108.246 122.741  1.00  0.00     0.180 C 
ATOM     21  C   UNL     1     110.629 107.041 121.851  1.00  0.00     0.179 C 
BRANCH  17  22
ATOM     22  C   UNL     1     113.055 109.151 120.383  1.00  0.00     0.225 C 
BRANCH  22  23
ATOM     23  O   UNL     1     112.384 108.780 119.209  1.00  0.00    -0.391 OA
ATOM     24  H   UNL     1     112.935 108.072 118.786  1.00  0.00     0.210 HD
ENDBRANCH  22  23
ENDBRANCH  17  22
BRANCH  18  25
ATOM     25  O   UNL     1     110.514 110.026 121.133  1.00  0.00    -0.385 OA
ATOM     26  H   UNL     1     109.873 109.412 120.686  1.00  0.00     0.211 HD
ENDBRANCH  18  25
BRANCH  20  27
ATOM     27  O   UNL     1     110.684 108.025 124.079  1.00  0.00    -0.387 OA
ATOM     28  H   UNL     1     111.034 107.097 124.129  1.00  0.00     0.211 HD
ENDBRANCH  20  27
BRANCH  21  29
ATOM     29  C   UNL     1     110.503 105.690 122.564  1.00  0.00     0.191 C 
BRANCH  29  30
ATOM     30  O   UNL     1     111.772 105.248 122.960  1.00  0.00    -0.394 OA
ATOM     31  H   UNL     1     111.829 105.418 123.937  1.00  0.00     0.210 HD
ENDBRANCH  29  30
ENDBRANCH  21  29
ENDBRANCH   1  17
TORSDOF 13
ENDMDL
MODEL 2
REMARK VINA RESULT:    -6.118      1.705      5.785
REMARK INTER + INTRA:         -11.442
REMARK INTER:                  -9.718
REMARK INTRA:                  -1.724
REMARK UNBOUND:                -2.104
REMARK SMILES OC[C@@H]1O[C@](CO)(O[C@H]2O[C@H](CO)[C@@H](O)[C@@H](O)[C@H]2O)[C@@H](O)[C@@H]1O
REMARK SMILES IDX 8 1 9 2 11 3 14 4 10 5 16 6 18 7 12 8 13 9 15 11 17 13 19 15
REMARK SMILES IDX 5 17 20 18 4 19 22 20 3 21 6 22 7 23 21 25 23 27 2 29 1 30
REMARK H PARENT 13 10 15 12 17 14 19 16 7 24 21 26 23 28 1 31
REMARK Flexibility Score: inf
ROOT
ATOM      1  O   UNL     1     114.148 108.320 123.635  1.00  0.00    -0.313 OA
ENDROOT
BRANCH   1   2
ATOM      2  C   UNL     1     113.465 109.090 122.652  1.00  0.00     0.285 C 
ATOM      3  C   UNL     1     112.105 107.262 122.055  1.00  0.00     0.178 C 
ATOM      4  C   UNL     1     110.829 107.902 122.651  1.00  0.00     0.177 C 
ATOM      5  O   UNL     1     112.999 108.266 121.593  1.00  0.00    -0.341 OA
ATOM      6  C   UNL     1     111.206 108.869 123.787  1.00  0.00     0.179 C 
ATOM      7  C   UNL     1     112.284 109.849 123.294  1.00  0.00     0.202 C 
BRANCH   3   8
ATOM      8  C   UNL     1     111.752 106.349 120.870  1.00  0.00     0.191 C 
BRANCH   8   9
ATOM      9  O   UNL     1     111.247 105.124 121.331  1.00  0.00    -0.394 OA
ATOM     10  H   UNL     1     110.300 105.281 121.582  1.00  0.00     0.210 HD
ENDBRANCH   8   9
ENDBRANCH   3   8
BRANCH   4  11
ATOM     11  O   UNL     1     109.973 106.900 123.137  1.00  0.00    -0.387 OA
ATOM     12  H   UNL     1     109.116 106.993 122.645  1.00  0.00     0.211 HD
ENDBRANCH   4  11
BRANCH   6  13
ATOM     13  O   UNL     1     111.664 108.138 124.899  1.00  0.00    -0.387 OA
ATOM     14  H   UNL     1     111.602 108.738 125.687  1.00  0.00     0.211 HD
ENDBRANCH   6  13
BRANCH   7  15
ATOM     15  O   UNL     1     112.733 110.645 124.361  1.00  0.00    -0.385 OA
ATOM     16  H   UNL     1     113.337 110.076 124.906  1.00  0.00     0.211 HD
ENDBRANCH   7  15
ENDBRANCH   1   2
BRANCH   1  17
ATOM     17  C   UNL     1     115.555 108.187 123.429  1.00  0.00     0.224 C 
ATOM     18  C   UNL     1     116.196 108.278 124.832  1.00  0.00     0.208 C 
ATOM     19  O   UNL     1     116.044 109.280 122.667  1.00  0.00    -0.337 OA
ATOM     20  C   UNL     1     116.425 109.761 124.992  1.00  0.00     0.180 C 
ATOM     21  C   UNL     1     116.678 110.191 123.543  1.00  0.00     0.179 C 
BRANCH  17  22
ATOM     22  C   UNL     1     115.895 106.843 122.725  1.00  0.00     0.225 C 
BRANCH  22  23
ATOM     23  O   UNL     1     117.080 106.952 121.983  1.00  0.00    -0.391 OA
ATOM     24  H   UNL     1     117.684 106.240 122.318  1.00  0.00     0.210 HD
ENDBRANCH  22  23
ENDBRANCH  17  22
BRANCH  18  25
ATOM     25  O   UNL     1     117.407 107.563 124.956  1.00  0.00    -0.385 OA
ATOM     26  H   UNL     1     117.498 107.252 125.895  1.00  0.00     0.211 HD
ENDBRANCH  18  25
BRANCH  20  27
ATOM     27  O   UNL     1     115.264 110.356 125.520  1.00  0.00    -0.387 OA
ATOM     28  H   UNL     1     114.520 110.136 124.900  1.00  0.00     0.211 HD
ENDBRANCH  20  27
BRANCH  21  29
ATOM     29  C   UNL     1     116.234 111.626 123.234  1.00  0.00     0.191 C 
BRANCH  29  30
ATOM     30  O   UNL     1     116.681 112.485 124.246  1.00  0.00    -0.394 OA
ATOM     31  H   UNL     1     117.354 111.971 124.764  1.00  0.00     0.210 HD
ENDBRANCH  29  30
ENDBRANCH  21  29
ENDBRANCH   1  17
TORSDOF 13
ENDMDL
MODEL 3
REMARK VINA RESULT:    -6.090      2.372      5.602
REMARK INTER + INTRA:         -11.399
REMARK INTER:                  -9.209
REMARK INTRA:                  -2.189
REMARK UNBOUND:                -2.104
REMARK SMILES OC[C@@H]1O[C@](CO)(O[C@H]2O[C@H](CO)[C@@H](O)[C@@H](O)[C@H]2O)[C@@H](O)[C@@H]1O
REMARK SMILES IDX 8 1 9 2 11 3 14 4 10 5 16 6 18 7 12 8 13 9 15 11 17 13 19 15
REMARK SMILES IDX 5 17 20 18 4 19 22 20 3 21 6 22 7 23 21 25 23 27 2 29 1 30
REMARK H PARENT 13 10 15 12 17 14 19 16 7 24 21 26 23 28 1 31
REMARK Flexibility Score: inf
ROOT
ATOM      1  O   UNL     1     115.051 109.396 123.133  1.00  0.00    -0.313 OA
ENDROOT
BRANCH   1   2
ATOM      2  C   UNL     1     113.950 108.529 123.382  1.00  0.00     0.285 C 
ATOM      3  C   UNL     1     114.222 107.462 121.300  1.00  0.00     0.178 C 
ATOM      4  C   UNL     1     114.703 106.139 121.940  1.00  0.00     0.177 C 
ATOM      5  O   UNL     1     113.324 108.140 122.168  1.00  0.00    -0.341 OA
ATOM      6  C   UNL     1     115.361 106.420 123.303  1.00  0.00     0.179 C 
ATOM      7  C   UNL     1     114.420 107.282 124.162  1.00  0.00     0.202 C 
BRANCH   3   8
ATOM      8  C   UNL     1     113.497 107.191 119.972  1.00  0.00     0.191 C 
BRANCH   8   9
ATOM      9  O   UNL     1     112.980 105.886 119.956  1.00  0.00    -0.394 OA
ATOM     10  H   UNL     1     113.655 105.305 120.394  1.00  0.00     0.210 HD
ENDBRANCH   8   9
ENDBRANCH   3   8
BRANCH   4  11
ATOM     11  O   UNL     1     115.619 105.498 121.089  1.00  0.00    -0.387 OA
ATOM     12  H   UNL     1     116.508 105.899 121.272  1.00  0.00     0.211 HD
ENDBRANCH   4  11
BRANCH   6  13
ATOM     13  O   UNL     1     116.595 107.069 123.108  1.00  0.00    -0.387 OA
ATOM     14  H   UNL     1     116.427 108.044 123.190  1.00  0.00     0.211 HD
ENDBRANCH   6  13
BRANCH   7  15
ATOM     15  O   UNL     1     115.065 107.659 125.351  1.00  0.00    -0.385 OA
ATOM     16  H   UNL     1     115.008 108.649 125.404  1.00  0.00     0.211 HD
ENDBRANCH   7  15
ENDBRANCH   1   2
BRANCH   1  17
ATOM     17  C   UNL     1     115.069 110.591 123.916  1.00  0.00     0.224 C 
ATOM     18  C   UNL     1     115.886 111.617 123.100  1.00  0.00     0.208 C 
ATOM     19  O   UNL     1     115.763 110.368 125.135  1.00  0.00    -0.337 OA
ATOM     20  C   UNL     1     117.296 111.363 123.573  1.00  0.00     0.180 C 
ATOM     21  C   UNL     1     117.060 110.918 125.020  1.00  0.00     0.179 C 
BRANCH  17  22
ATOM     22  C   UNL     1     113.626 111.097 124.201  1.00  0.00     0.225 C 
BRANCH  22  23
ATOM     23  O   UNL     1     113.569 111.789 125.420  1.00  0.00    -0.391 OA
ATOM     24  H   UNL     1     112.831 112.445 125.333  1.00  0.00     0.210 HD
ENDBRANCH  22  23
ENDBRANCH  17  22
BRANCH  18  25
ATOM     25  O   UNL     1     115.511 112.959 123.327  1.00  0.00    -0.385 OA
ATOM     26  H   UNL     1     114.769 112.974 123.987  1.00  0.00     0.211 HD
ENDBRANCH  18  25
BRANCH  20  27
ATOM     27  O   UNL     1     117.869 110.338 122.797  1.00  0.00    -0.387 OA
ATOM     28  H   UNL     1     117.925 109.535 123.377  1.00  0.00     0.211 HD
ENDBRANCH  20  27
BRANCH  21  29
ATOM     29  C   UNL     1     118.107 109.929 125.546  1.00  0.00     0.191 C 
BRANCH  29  30
ATOM     30  O   UNL     1     117.750 108.626 125.175  1.00  0.00    -0.394 OA
ATOM     31  H   UNL     1     116.770 108.643 125.020  1.00  0.00     0.210 HD
ENDBRANCH  29  30
ENDBRANCH  21  29
ENDBRANCH   1  17
TORSDOF 13
ENDMDL
MODEL 4
REMARK VINA RESULT:    -5.958      2.056      3.868
REMARK INTER + INTRA:         -11.196
REMARK INTER:                  -9.003
REMARK INTRA:                  -2.193
REMARK UNBOUND:                -2.104
REMARK SMILES OC[C@@H]1O[C@](CO)(O[C@H]2O[C@H](CO)[C@@H](O)[C@@H](O)[C@H]2O)[C@@H](O)[C@@H]1O
REMARK SMILES IDX 8 1 9 2 11 3 14 4 10 5 16 6 18 7 12 8 13 9 15 11 17 13 19 15
REMARK SMILES IDX 5 17 20 18 4 19 22 20 3 21 6 22 7 23 21 25 23 27 2 29 1 30
REMARK H PARENT 13 10 15 12 17 14 19 16 7 24 21 26 23 28 1 31
REMARK Flexibility Score: inf
ROOT
ATOM      1  O   UNL     1     113.233 108.146 121.628  1.00  0.00    -0.313 OA
ENDROOT
BRANCH   1   2
ATOM      2  C   UNL     1     114.158 107.730 120.628  1.00  0.00     0.285 C 
ATOM      3  C   UNL     1     114.592 109.958 119.996  1.00  0.00     0.178 C 
ATOM      4  C   UNL     1     116.032 109.932 120.561  1.00  0.00     0.177 C 
ATOM      5  O   UNL     1     114.204 108.663 119.557  1.00  0.00    -0.341 OA
ATOM      6  C   UNL     1     116.130 108.910 121.708  1.00  0.00     0.179 C 
ATOM      7  C   UNL     1     115.564 107.557 121.243  1.00  0.00     0.202 C 
BRANCH   3   8
ATOM      8  C   UNL     1     114.495 110.920 118.802  1.00  0.00     0.191 C 
BRANCH   8   9
ATOM      9  O   UNL     1     115.678 110.886 118.050  1.00  0.00    -0.394 OA
ATOM     10  H   UNL     1     115.410 110.841 117.095  1.00  0.00     0.210 HD
ENDBRANCH   8   9
ENDBRANCH   3   8
BRANCH   4  11
ATOM     11  O   UNL     1     116.388 111.209 121.025  1.00  0.00    -0.387 OA
ATOM     12  H   UNL     1     116.491 111.137 122.010  1.00  0.00     0.211 HD
ENDBRANCH   4  11
BRANCH   6  13
ATOM     13  O   UNL     1     115.428 109.387 122.830  1.00  0.00    -0.387 OA
ATOM     14  H   UNL     1     115.320 108.622 123.453  1.00  0.00     0.211 HD
ENDBRANCH   6  13
BRANCH   7  15
ATOM     15  O   UNL     1     115.522 106.658 122.321  1.00  0.00    -0.385 OA
ATOM     16  H   UNL     1     115.332 105.762 121.937  1.00  0.00     0.211 HD
ENDBRANCH   7  15
ENDBRANCH   1   2
BRANCH   1  17
ATOM     17  C   UNL     1     112.225 107.188 121.954  1.00  0.00     0.224 C 
ATOM     18  C   UNL     1     111.062 107.995 122.572  1.00  0.00     0.208 C 
ATOM     19  O   UNL     1     112.701 106.297 122.952  1.00  0.00    -0.337 OA
ATOM     20  C   UNL     1     111.422 108.020 124.037  1.00  0.00     0.180 C 
ATOM     21  C   UNL     1     112.153 106.682 124.197  1.00  0.00     0.179 C 
BRANCH  17  22
ATOM     22  C   UNL     1     111.773 106.396 120.694  1.00  0.00     0.225 C 
BRANCH  22  23
ATOM     23  O   UNL     1     111.287 105.129 121.046  1.00  0.00    -0.391 OA
ATOM     24  H   UNL     1     111.533 104.992 121.997  1.00  0.00     0.210 HD
ENDBRANCH  22  23
ENDBRANCH  17  22
BRANCH  18  25
ATOM     25  O   UNL     1     109.791 107.413 122.373  1.00  0.00    -0.385 OA
ATOM     26  H   UNL     1     109.112 108.137 122.338  1.00  0.00     0.211 HD
ENDBRANCH  18  25
BRANCH  20  27
ATOM     27  O   UNL     1     112.271 109.113 124.289  1.00  0.00    -0.387 OA
ATOM     28  H   UNL     1     111.865 109.901 123.842  1.00  0.00     0.211 HD
ENDBRANCH  20  27
BRANCH  21  29
ATOM     29  C   UNL     1     113.240 106.692 125.278  1.00  0.00     0.191 C 
BRANCH  29  30
ATOM     30  O   UNL     1     114.350 107.415 124.822  1.00  0.00    -0.394 OA
ATOM     31  H   UNL     1     114.119 107.724 123.908  1.00  0.00     0.210 HD
ENDBRANCH  29  30
ENDBRANCH  21  29
ENDBRANCH   1  17
TORSDOF 13
ENDMDL
MODEL 5
REMARK VINA RESULT:    -5.906      1.614      2.427
REMARK INTER + INTRA:         -11.118
REMARK INTER:                  -9.674
REMARK INTRA:                  -1.445
REMARK UNBOUND:                -2.104
REMARK SMILES OC[C@@H]1O[C@](CO)(O[C@H]2O[C@H](CO)[C@@H](O)[C@@H](O)[C@H]2O)[C@@H](O)[C@@H]1O
REMARK SMILES IDX 8 1 9 2 11 3 14 4 10 5 16 6 18 7 12 8 13 9 15 11 17 13 19 15
REMARK SMILES IDX 5 17 20 18 4 19 22 20 3 21 6 22 7 23 21 25 23 27 2 29 1 30
REMARK H PARENT 13 10 15 12 17 14 19 16 7 24 21 26 23 28 1 31
REMARK Flexibility Score: inf
ROOT
ATOM      1  O   UNL     1     113.810 108.721 123.952  1.00  0.00    -0.313 OA
ENDROOT
BRANCH   1   2
ATOM      2  C   UNL     1     114.972 108.583 123.141  1.00  0.00     0.285 C 
ATOM      3  C   UNL     1     116.111 110.247 124.358  1.00  0.00     0.178 C 
ATOM      4  C   UNL     1     117.099 109.237 124.987  1.00  0.00     0.177 C 
ATOM      5  O   UNL     1     115.694 109.805 123.074  1.00  0.00    -0.341 OA
ATOM      6  C   UNL     1     116.449 107.844 125.069  1.00  0.00     0.179 C 
ATOM      7  C   UNL     1     115.876 107.461 123.694  1.00  0.00     0.202 C 
BRANCH   3   8
ATOM      8  C   UNL     1     116.771 111.626 124.202  1.00  0.00     0.191 C 
BRANCH   8   9
ATOM      9  O   UNL     1     116.918 112.242 125.453  1.00  0.00    -0.394 OA
ATOM     10  H   UNL     1     116.075 112.081 125.953  1.00  0.00     0.210 HD
ENDBRANCH   8   9
ENDBRANCH   3   8
BRANCH   4  11
ATOM     11  O   UNL     1     117.474 109.667 126.271  1.00  0.00    -0.387 OA
ATOM     12  H   UNL     1     117.216 108.945 126.901  1.00  0.00     0.211 HD
ENDBRANCH   4  11
BRANCH   6  13
ATOM     13  O   UNL     1     115.438 107.850 126.048  1.00  0.00    -0.387 OA
ATOM     14  H   UNL     1     114.610 108.177 125.609  1.00  0.00     0.211 HD
ENDBRANCH   6  13
BRANCH   7  15
ATOM     15  O   UNL     1     115.162 106.255 123.790  1.00  0.00    -0.385 OA
ATOM     16  H   UNL     1     115.826 105.547 124.002  1.00  0.00     0.211 HD
ENDBRANCH   7  15
ENDBRANCH   1   2
BRANCH   1  17
ATOM     17  C   UNL     1     112.646 109.185 123.266  1.00  0.00     0.224 C 
ATOM     18  C   UNL     1     111.456 108.429 123.898  1.00  0.00     0.208 C 
ATOM     19  O   UNL     1     112.705 108.817 121.896  1.00  0.00    -0.337 OA
ATOM     20  C   UNL     1     111.377 107.181 123.053  1.00  0.00     0.180 C 
ATOM     21  C   UNL     1     111.869 107.695 121.696  1.00  0.00     0.179 C 
BRANCH  17  22
ATOM     22  C   UNL     1     112.490 110.727 123.404  1.00  0.00     0.225 C 
BRANCH  22  23
ATOM     23  O   UNL     1     113.060 111.183 124.601  1.00  0.00    -0.391 OA
ATOM     24  H   UNL     1     112.316 111.562 125.137  1.00  0.00     0.210 HD
ENDBRANCH  22  23
ENDBRANCH  17  22
BRANCH  18  25
ATOM     25  O   UNL     1     110.238 109.143 123.860  1.00  0.00    -0.385 OA
ATOM     26  H   UNL     1     109.495 108.512 124.047  1.00  0.00     0.211 HD
ENDBRANCH  18  25
BRANCH  20  27
ATOM     27  O   UNL     1     112.238 106.204 123.586  1.00  0.00    -0.387 OA
ATOM     28  H   UNL     1     112.551 105.650 122.824  1.00  0.00     0.211 HD
ENDBRANCH  20  27
BRANCH  21  29
ATOM     29  C   UNL     1     112.588 106.636 120.853  1.00  0.00     0.191 C 
BRANCH  29  30
ATOM     30  O   UNL     1     111.748 105.531 120.670  1.00  0.00    -0.394 OA
ATOM     31  H   UNL     1     111.122 105.531 121.440  1.00  0.00     0.210 HD
ENDBRANCH  29  30
ENDBRANCH  21  29
ENDBRANCH   1  17
TORSDOF 13
ENDMDL
MODEL 6
REMARK VINA RESULT:    -5.904      2.180      4.495
REMARK INTER + INTRA:         -11.115
REMARK INTER:                  -9.712
REMARK INTRA:                  -1.402
REMARK UNBOUND:                -2.104
REMARK SMILES OC[C@@H]1O[C@](CO)(O[C@H]2O[C@H](CO)[C@@H](O)[C@@H](O)[C@H]2O)[C@@H](O)[C@@H]1O
REMARK SMILES IDX 8 1 9 2 11 3 14 4 10 5 16 6 18 7 12 8 13 9 15 11 17 13 19 15
REMARK SMILES IDX 5 17 20 18 4 19 22 20 3 21 6 22 7 23 21 25 23 27 2 29 1 30
REMARK H PARENT 13 10 15 12 17 14 19 16 7 24 21 26 23 28 1 31
REMARK Flexibility Score: inf
ROOT
ATOM      1  O   UNL     1     114.165 108.971 124.127  1.00  0.00    -0.313 OA
ENDROOT
BRANCH   1   2
ATOM      2  C   UNL     1     115.407 109.600 123.828  1.00  0.00     0.285 C 
ATOM      3  C   UNL     1     114.363 111.149 122.392  1.00  0.00     0.178 C 
ATOM      4  C   UNL     1     114.617 112.339 123.346  1.00  0.00     0.177 C 
ATOM      5  O   UNL     1     115.387 110.172 122.528  1.00  0.00    -0.341 OA
ATOM      6  C   UNL     1     114.713 111.840 124.799  1.00  0.00     0.179 C 
ATOM      7  C   UNL     1     115.723 110.683 124.881  1.00  0.00     0.202 C 
BRANCH   3   8
ATOM      8  C   UNL     1     114.338 111.620 120.930  1.00  0.00     0.191 C 
BRANCH   8   9
ATOM      9  O   UNL     1     115.145 112.757 120.770  1.00  0.00    -0.394 OA
ATOM     10  H   UNL     1     114.605 113.536 121.065  1.00  0.00     0.210 HD
ENDBRANCH   8   9
ENDBRANCH   3   8
BRANCH   4  11
ATOM     11  O   UNL     1     113.579 113.278 123.229  1.00  0.00    -0.387 OA
ATOM     12  H   UNL     1     113.946 114.049 122.723  1.00  0.00     0.211 HD
ENDBRANCH   4  11
BRANCH   6  13
ATOM     13  O   UNL     1     113.443 111.428 125.243  1.00  0.00    -0.387 OA
ATOM     14  H   UNL     1     112.842 112.216 125.179  1.00  0.00     0.211 HD
ENDBRANCH   6  13
BRANCH   7  15
ATOM     15  O   UNL     1     115.717 110.130 126.173  1.00  0.00    -0.385 OA
ATOM     16  H   UNL     1     115.298 110.806 126.768  1.00  0.00     0.211 HD
ENDBRANCH   7  15
ENDBRANCH   1   2
BRANCH   1  17
ATOM     17  C   UNL     1     114.193 107.543 124.124  1.00  0.00     0.224 C 
ATOM     18  C   UNL     1     114.082 107.123 122.642  1.00  0.00     0.208 C 
ATOM     19  O   UNL     1     113.055 107.029 124.798  1.00  0.00    -0.337 OA
ATOM     20  C   UNL     1     112.590 107.029 122.440  1.00  0.00     0.180 C 
ATOM     21  C   UNL     1     112.117 106.599 123.833  1.00  0.00     0.179 C 
BRANCH  17  22
ATOM     22  C   UNL     1     115.498 107.006 124.780  1.00  0.00     0.225 C 
BRANCH  22  23
ATOM     23  O   UNL     1     115.451 107.145 126.175  1.00  0.00    -0.391 OA
ATOM     24  H   UNL     1     116.287 107.612 126.435  1.00  0.00     0.210 HD
ENDBRANCH  22  23
ENDBRANCH  17  22
BRANCH  18  25
ATOM     25  O   UNL     1     114.711 105.895 122.345  1.00  0.00    -0.385 OA
ATOM     26  H   UNL     1     114.151 105.157 122.705  1.00  0.00     0.211 HD
ENDBRANCH  18  25
BRANCH  20  27
ATOM     27  O   UNL     1     112.088 108.295 122.085  1.00  0.00    -0.387 OA
ATOM     28  H   UNL     1     112.155 108.868 122.893  1.00  0.00     0.211 HD
ENDBRANCH  20  27
BRANCH  21  29
ATOM     29  C   UNL     1     110.712 107.095 124.194  1.00  0.00     0.191 C 
BRANCH  29  30
ATOM     30  O   UNL     1     109.780 106.562 123.295  1.00  0.00    -0.394 OA
ATOM     31  H   UNL     1     109.993 106.960 122.411  1.00  0.00     0.210 HD
ENDBRANCH  29  30
ENDBRANCH  21  29
ENDBRANCH   1  17
TORSDOF 13
ENDMDL
MODEL 7
REMARK VINA RESULT:    -5.887      1.968      5.536
REMARK INTER + INTRA:         -11.089
REMARK INTER:                  -8.926
REMARK INTRA:                  -2.162
REMARK UNBOUND:                -2.104
REMARK SMILES OC[C@@H]1O[C@](CO)(O[C@H]2O[C@H](CO)[C@@H](O)[C@@H](O)[C@H]2O)[C@@H](O)[C@@H]1O
REMARK SMILES IDX 8 1 9 2 11 3 14 4 10 5 16 6 18 7 12 8 13 9 15 11 17 13 19 15
REMARK SMILES IDX 5 17 20 18 4 19 22 20 3 21 6 22 7 23 21 25 23 27 2 29 1 30
REMARK H PARENT 13 10 15 12 17 14 19 16 7 24 21 26 23 28 1 31
REMARK Flexibility Score: inf
ROOT
ATOM      1  O   UNL     1     113.825 109.242 122.342  1.00  0.00    -0.313 OA
ENDROOT
BRANCH   1   2
ATOM      2  C   UNL     1     112.710 109.524 121.502  1.00  0.00     0.285 C 
ATOM      3  C   UNL     1     111.719 107.444 121.993  1.00  0.00     0.178 C 
ATOM      4  C   UNL     1     110.569 108.083 122.806  1.00  0.00     0.177 C 
ATOM      5  O   UNL     1     112.159 108.327 120.970  1.00  0.00    -0.341 OA
ATOM      6  C   UNL     1     111.027 109.428 123.399  1.00  0.00     0.179 C 
ATOM      7  C   UNL     1     111.634 110.302 122.288  1.00  0.00     0.202 C 
BRANCH   3   8
ATOM      8  C   UNL     1     111.255 106.136 121.333  1.00  0.00     0.191 C 
BRANCH   8   9
ATOM      9  O   UNL     1     109.864 106.148 121.149  1.00  0.00    -0.394 OA
ATOM     10  H   UNL     1     109.702 106.383 120.199  1.00  0.00     0.210 HD
ENDBRANCH   8   9
ENDBRANCH   3   8
BRANCH   4  11
ATOM     11  O   UNL     1     110.170 107.216 123.836  1.00  0.00    -0.387 OA
ATOM     12  H   UNL     1     109.832 106.390 123.400  1.00  0.00     0.211 HD
ENDBRANCH   4  11
BRANCH   6  13
ATOM     13  O   UNL     1     111.964 109.200 124.424  1.00  0.00    -0.387 OA
ATOM     14  H   UNL     1     111.565 109.544 125.265  1.00  0.00     0.211 HD
ENDBRANCH   6  13
BRANCH   7  15
ATOM     15  O   UNL     1     112.178 111.473 122.841  1.00  0.00    -0.385 OA
ATOM     16  H   UNL     1     111.526 111.798 123.516  1.00  0.00     0.211 HD
ENDBRANCH   7  15
ENDBRANCH   1   2
BRANCH   1  17
ATOM     17  C   UNL     1     114.991 110.025 122.082  1.00  0.00     0.224 C 
ATOM     18  C   UNL     1     116.176 109.218 122.657  1.00  0.00     0.208 C 
ATOM     19  O   UNL     1     114.926 111.252 122.794  1.00  0.00    -0.337 OA
ATOM     20  C   UNL     1     116.244 109.709 124.083  1.00  0.00     0.180 C 
ATOM     21  C   UNL     1     115.753 111.153 123.936  1.00  0.00     0.179 C 
BRANCH  17  22
ATOM     22  C   UNL     1     115.160 110.293 120.559  1.00  0.00     0.225 C 
BRANCH  22  23
ATOM     23  O   UNL     1     116.084 111.322 120.331  1.00  0.00    -0.391 OA
ATOM     24  H   UNL     1     116.983 110.909 120.404  1.00  0.00     0.210 HD
ENDBRANCH  22  23
ENDBRANCH  17  22
BRANCH  18  25
ATOM     25  O   UNL     1     117.399 109.441 121.988  1.00  0.00    -0.385 OA
ATOM     26  H   UNL     1     117.307 109.132 121.048  1.00  0.00     0.211 HD
ENDBRANCH  18  25
BRANCH  20  27
ATOM     27  O   UNL     1     115.376 108.940 124.880  1.00  0.00    -0.387 OA
ATOM     28  H   UNL     1     114.729 109.570 125.291  1.00  0.00     0.211 HD
ENDBRANCH  20  27
BRANCH  21  29
ATOM     29  C   UNL     1     115.023 111.691 125.172  1.00  0.00     0.191 C 
BRANCH  29  30
ATOM     30  O   UNL     1     113.690 111.260 125.155  1.00  0.00    -0.394 OA
ATOM     31  H   UNL     1     113.310 111.510 126.037  1.00  0.00     0.210 HD
ENDBRANCH  29  30
ENDBRANCH  21  29
ENDBRANCH   1  17
TORSDOF 13
ENDMDL
MODEL 8
REMARK VINA RESULT:    -5.857      2.513      4.567
REMARK INTER + INTRA:         -11.042
REMARK INTER:                  -8.919
REMARK INTRA:                  -2.124
REMARK UNBOUND:                -2.104
REMARK SMILES OC[C@@H]1O[C@](CO)(O[C@H]2O[C@H](CO)[C@@H](O)[C@@H](O)[C@H]2O)[C@@H](O)[C@@H]1O
REMARK SMILES IDX 8 1 9 2 11 3 14 4 10 5 16 6 18 7 12 8 13 9 15 11 17 13 19 15
REMARK SMILES IDX 5 17 20 18 4 19 22 20 3 21 6 22 7 23 21 25 23 27 2 29 1 30
REMARK H PARENT 13 10 15 12 17 14 19 16 7 24 21 26 23 28 1 31
REMARK Flexibility Score: inf
ROOT
ATOM      1  O   UNL     1     115.185 109.064 122.993  1.00  0.00    -0.313 OA
ENDROOT
BRANCH   1   2
ATOM      2  C   UNL     1     116.172 110.013 122.600  1.00  0.00     0.285 C 
ATOM      3  C   UNL     1     114.634 111.791 122.761  1.00  0.00     0.178 C 
ATOM      4  C   UNL     1     115.330 112.399 124.000  1.00  0.00     0.177 C 
ATOM      5  O   UNL     1     115.577 111.120 121.936  1.00  0.00    -0.341 OA
ATOM      6  C   UNL     1     116.064 111.298 124.787  1.00  0.00     0.179 C 
ATOM      7  C   UNL     1     116.966 110.496 123.832  1.00  0.00     0.202 C 
BRANCH   3   8
ATOM      8  C   UNL     1     113.958 112.888 121.924  1.00  0.00     0.191 C 
BRANCH   8   9
ATOM      9  O   UNL     1     112.749 113.280 122.519  1.00  0.00    -0.394 OA
ATOM     10  H   UNL     1     112.379 114.012 121.960  1.00  0.00     0.210 HD
ENDBRANCH   8   9
ENDBRANCH   3   8
BRANCH   4  11
ATOM     11  O   UNL     1     114.381 113.026 124.825  1.00  0.00    -0.387 OA
ATOM     12  H   UNL     1     113.608 113.257 124.246  1.00  0.00     0.211 HD
ENDBRANCH   4  11
BRANCH   6  13
ATOM     13  O   UNL     1     115.126 110.457 125.413  1.00  0.00    -0.387 OA
ATOM     14  H   UNL     1     115.378 110.402 126.371  1.00  0.00     0.211 HD
ENDBRANCH   6  13
BRANCH   7  15
ATOM     15  O   UNL     1     117.533 109.405 124.511  1.00  0.00    -0.385 OA
ATOM     16  H   UNL     1     116.900 109.161 125.235  1.00  0.00     0.211 HD
ENDBRANCH   7  15
ENDBRANCH   1   2
BRANCH   1  17
ATOM     17  C   UNL     1     115.483 107.709 122.656  1.00  0.00     0.224 C 
ATOM     18  C   UNL     1     114.117 107.017 122.446  1.00  0.00     0.208 C 
ATOM     19  O   UNL     1     116.124 107.062 123.745  1.00  0.00    -0.337 OA
ATOM     20  C   UNL     1     113.782 106.531 123.835  1.00  0.00     0.180 C 
ATOM     21  C   UNL     1     115.175 106.253 124.410  1.00  0.00     0.179 C 
BRANCH  17  22
ATOM     22  C   UNL     1     116.372 107.628 121.382  1.00  0.00     0.225 C 
BRANCH  22  23
ATOM     23  O   UNL     1     117.198 106.496 121.417  1.00  0.00    -0.391 OA
ATOM     24  H   UNL     1     118.058 106.766 121.003  1.00  0.00     0.210 HD
ENDBRANCH  22  23
ENDBRANCH  17  22
BRANCH  18  25
ATOM     25  O   UNL     1     114.153 105.944 121.530  1.00  0.00    -0.385 OA
ATOM     26  H   UNL     1     114.990 105.431 121.674  1.00  0.00     0.211 HD
ENDBRANCH  18  25
BRANCH  20  27
ATOM     27  O   UNL     1     113.119 107.554 124.538  1.00  0.00    -0.387 OA
ATOM     28  H   UNL     1     113.689 108.363 124.473  1.00  0.00     0.211 HD
ENDBRANCH  20  27
BRANCH  21  29
ATOM     29  C   UNL     1     115.272 106.452 125.927  1.00  0.00     0.191 C 
BRANCH  29  30
ATOM     30  O   UNL     1     115.789 107.725 126.202  1.00  0.00    -0.394 OA
ATOM     31  H   UNL     1     115.293 108.057 126.994  1.00  0.00     0.210 HD
ENDBRANCH  29  30
ENDBRANCH  21  29
ENDBRANCH   1  17
TORSDOF 13
ENDMDL
MODEL 9
REMARK VINA RESULT:    -5.824      2.801      5.128
REMARK INTER + INTRA:         -10.992
REMARK INTER:                  -9.358
REMARK INTRA:                  -1.634
REMARK UNBOUND:                -2.104
REMARK SMILES OC[C@@H]1O[C@](CO)(O[C@H]2O[C@H](CO)[C@@H](O)[C@@H](O)[C@H]2O)[C@@H](O)[C@@H]1O
REMARK SMILES IDX 8 1 9 2 11 3 14 4 10 5 16 6 18 7 12 8 13 9 15 11 17 13 19 15
REMARK SMILES IDX 5 17 20 18 4 19 22 20 3 21 6 22 7 23 21 25 23 27 2 29 1 30
REMARK H PARENT 13 10 15 12 17 14 19 16 7 24 21 26 23 28 1 31
REMARK Flexibility Score: inf
ROOT
ATOM      1  O   UNL     1     112.117 108.690 121.169  1.00  0.00    -0.313 OA
ENDROOT
BRANCH   1   2
ATOM      2  C   UNL     1     113.163 109.642 121.326  1.00  0.00     0.285 C 
ATOM      3  C   UNL     1     113.122 110.179 119.033  1.00  0.00     0.178 C 
ATOM      4  C   UNL     1     112.542 111.591 119.282  1.00  0.00     0.177 C 
ATOM      5  O   UNL     1     113.923 109.766 120.132  1.00  0.00    -0.341 OA
ATOM      6  C   UNL     1     111.731 111.605 120.590  1.00  0.00     0.179 C 
ATOM      7  C   UNL     1     112.580 111.013 121.729  1.00  0.00     0.202 C 
BRANCH   3   8
ATOM      8  C   UNL     1     113.995 110.166 117.768  1.00  0.00     0.191 C 
BRANCH   8   9
ATOM      9  O   UNL     1     114.242 108.847 117.359  1.00  0.00    -0.394 OA
ATOM     10  H   UNL     1     113.475 108.575 116.791  1.00  0.00     0.210 HD
ENDBRANCH   8   9
ENDBRANCH   3   8
BRANCH   4  11
ATOM     11  O   UNL     1     111.723 111.970 118.206  1.00  0.00    -0.387 OA
ATOM     12  H   UNL     1     111.677 112.962 118.218  1.00  0.00     0.211 HD
ENDBRANCH   4  11
BRANCH   6  13
ATOM     13  O   UNL     1     110.543 110.872 120.419  1.00  0.00    -0.387 OA
ATOM     14  H   UNL     1     109.866 111.496 120.050  1.00  0.00     0.211 HD
ENDBRANCH   6  13
BRANCH   7  15
ATOM     15  O   UNL     1     111.804 110.895 122.894  1.00  0.00    -0.385 OA
ATOM     16  H   UNL     1     111.694 111.813 123.257  1.00  0.00     0.211 HD
ENDBRANCH   7  15
ENDBRANCH   1   2
BRANCH   1  17
ATOM     17  C   UNL     1     112.454 107.354 121.548  1.00  0.00     0.224 C 
ATOM     18  C   UNL     1     111.245 106.483 121.137  1.00  0.00     0.208 C 
ATOM     19  O   UNL     1     112.583 107.263 122.958  1.00  0.00    -0.337 OA
ATOM     20  C   UNL     1     110.369 106.541 122.363  1.00  0.00     0.180 C 
ATOM     21  C   UNL     1     111.409 106.673 123.480  1.00  0.00     0.179 C 
BRANCH  17  22
ATOM     22  C   UNL     1     113.765 106.887 120.854  1.00  0.00     0.225 C 
BRANCH  22  23
ATOM     23  O   UNL     1     113.579 106.752 119.470  1.00  0.00    -0.391 OA
ATOM     24  H   UNL     1     112.608 106.873 119.307  1.00  0.00     0.210 HD
ENDBRANCH  22  23
ENDBRANCH  17  22
BRANCH  18  25
ATOM     25  O   UNL     1     111.582 105.150 120.818  1.00  0.00    -0.385 OA
ATOM     26  H   UNL     1     112.362 105.158 120.203  1.00  0.00     0.211 HD
ENDBRANCH  18  25
BRANCH  20  27
ATOM     27  O   UNL     1     109.536 107.674 122.287  1.00  0.00    -0.387 OA
ATOM     28  H   UNL     1     110.130 108.469 122.316  1.00  0.00     0.211 HD
ENDBRANCH  20  27
BRANCH  21  29
ATOM     29  C   UNL     1     110.916 107.457 124.702  1.00  0.00     0.191 C 
BRANCH  29  30
ATOM     30  O   UNL     1     111.166 108.823 124.516  1.00  0.00    -0.394 OA
ATOM     31  H   UNL     1     110.489 109.303 125.061  1.00  0.00     0.210 HD
ENDBRANCH  29  30
ENDBRANCH  21  29
ENDBRANCH   1  17
TORSDOF 13
ENDMDL
