MODEL 1
REMARK VINA RESULT:    -0.792      0.000      0.000
REMARK INTER + INTRA:          -1.549
REMARK INTER:                  -1.208
REMARK INTRA:                  -0.341
REMARK UNBOUND:                -0.341
REMARK SMILES O=C([O-])CCCCCCCCC(=O)[O-]
REMARK SMILES IDX 7 1 6 2 5 3 4 4 2 5 1 6 3 7 8 8 9 9 10 10 11 11 12 12 13 13
REMARK SMILES IDX 14 14
REMARK H PARENT
REMARK Flexibility Score: inf
ROOT
ATOM      1  C   UNL     1     -18.693   5.889 -17.327  1.00  0.00     0.000 C 
ENDROOT
BRANCH   1   2
ATOM      2  C   UNL     1     -17.660   6.446 -16.335  1.00  0.00     0.000 C 
BRANCH   2   3
ATOM      3  C   UNL     1     -18.315   7.125 -15.119  1.00  0.00     0.006 C 
BRANCH   3   4
ATOM      4  C   UNL     1     -17.412   7.088 -13.878  1.00  0.00     0.053 C 
BRANCH   4   5
ATOM      5  C   UNL     1     -16.247   6.165 -14.068  1.00  0.00     0.041 C 
ATOM      6  O   UNL     1     -16.390   4.923 -13.919  1.00  0.00    -0.550 OA
ATOM      7  O   UNL     1     -15.010   6.676 -14.443  1.00  0.00    -0.550 OA
ENDBRANCH   4   5
ENDBRANCH   3   4
ENDBRANCH   2   3
ENDBRANCH   1   2
BRANCH   1   8
ATOM      8  C   UNL     1     -19.924   5.292 -16.623  1.00  0.00     0.000 C 
BRANCH   8   9
ATOM      9  C   UNL     1     -19.691   3.851 -16.142  1.00  0.00     0.000 C 
BRANCH   9  10
ATOM     10  C   UNL     1     -19.461   3.765 -14.624  1.00  0.00     0.006 C 
BRANCH  10  11
ATOM     11  C   UNL     1     -20.086   2.503 -14.014  1.00  0.00     0.053 C 
BRANCH  11  12
ATOM     12  C   UNL     1     -19.333   1.266 -14.397  1.00  0.00     0.041 C 
ATOM     13  O   UNL     1     -18.118   1.143 -14.089  1.00  0.00    -0.550 OA
ATOM     14  O   UNL     1     -19.979   0.237 -15.069  1.00  0.00    -0.550 OA
ENDBRANCH  11  12
ENDBRANCH  10  11
ENDBRANCH   9  10
ENDBRANCH   8   9
ENDBRANCH   1   8
TORSDOF 9
ENDMDL
MODEL 2
REMARK VINA RESULT:    -0.339      3.211      4.614
REMARK INTER + INTRA:          -0.858
REMARK INTER:                  -0.530
REMARK INTRA:                  -0.328
REMARK UNBOUND:                -0.341
REMARK SMILES O=C([O-])CCCCCCCCC(=O)[O-]
REMARK SMILES IDX 7 1 6 2 5 3 4 4 2 5 1 6 3 7 8 8 9 9 10 10 11 11 12 12 13 13
REMARK SMILES IDX 14 14
REMARK H PARENT
REMARK Flexibility Score: inf
ROOT
ATOM      1  C   UNL     1     -15.940   6.547 -14.827  1.00  0.00     0.000 C 
ENDROOT
BRANCH   1   2
ATOM      2  C   UNL     1     -14.691   6.053 -14.080  1.00  0.00     0.000 C 
BRANCH   2   3
ATOM      3  C   UNL     1     -13.589   7.123 -13.996  1.00  0.00     0.006 C 
BRANCH   3   4
ATOM      4  C   UNL     1     -12.687   7.125 -15.238  1.00  0.00     0.053 C 
BRANCH   4   5
ATOM      5  C   UNL     1     -11.434   6.337 -15.012  1.00  0.00     0.041 C 
ATOM      6  O   UNL     1     -11.226   5.777 -13.904  1.00  0.00    -0.550 OA
ATOM      7  O   UNL     1     -10.509   6.194 -16.040  1.00  0.00    -0.550 OA
ENDBRANCH   4   5
ENDBRANCH   3   4
ENDBRANCH   2   3
ENDBRANCH   1   2
BRANCH   1   8
ATOM      8  C   UNL     1     -17.118   6.834 -13.880  1.00  0.00     0.000 C 
BRANCH   8   9
ATOM      9  C   UNL     1     -18.482   6.545 -14.527  1.00  0.00     0.000 C 
BRANCH   9  10
ATOM     10  C   UNL     1     -18.583   7.091 -15.961  1.00  0.00     0.006 C 
BRANCH  10  11
ATOM     11  C   UNL     1     -19.746   6.461 -16.740  1.00  0.00     0.053 C 
BRANCH  11  12
ATOM     12  C   UNL     1     -19.306   5.270 -17.534  1.00  0.00     0.041 C 
ATOM     13  O   UNL     1     -18.323   5.358 -18.316  1.00  0.00    -0.550 OA
ATOM     14  O   UNL     1     -19.963   4.055 -17.389  1.00  0.00    -0.550 OA
ENDBRANCH  11  12
ENDBRANCH  10  11
ENDBRANCH   9  10
ENDBRANCH   8   9
ENDBRANCH   1   8
TORSDOF 9
ENDMDL
MODEL 3
REMARK VINA RESULT:     0.063      3.876      5.276
REMARK INTER + INTRA:          -0.245
REMARK INTER:                   0.038
REMARK INTRA:                  -0.283
REMARK UNBOUND:                -0.341
REMARK SMILES O=C([O-])CCCCCCCCC(=O)[O-]
REMARK SMILES IDX 7 1 6 2 5 3 4 4 2 5 1 6 3 7 8 8 9 9 10 10 11 11 12 12 13 13
REMARK SMILES IDX 14 14
REMARK H PARENT
REMARK Flexibility Score: inf
ROOT
ATOM      1  C   UNL     1     -14.105   6.239 -14.596  1.00  0.00     0.000 C 
ENDROOT
BRANCH   1   2
ATOM      2  C   UNL     1     -13.076   7.124 -13.876  1.00  0.00     0.000 C 
BRANCH   2   3
ATOM      3  C   UNL     1     -11.644   6.910 -14.396  1.00  0.00     0.006 C 
BRANCH   3   4
ATOM      4  C   UNL     1     -11.602   6.726 -15.919  1.00  0.00     0.053 C 
BRANCH   4   5
ATOM      5  C   UNL     1     -10.197   6.709 -16.436  1.00  0.00     0.041 C 
ATOM      6  O   UNL     1      -9.250   6.340 -15.691  1.00  0.00    -0.550 OA
ATOM      7  O   UNL     1      -9.937   7.069 -17.753  1.00  0.00    -0.550 OA
ENDBRANCH   4   5
ENDBRANCH   3   4
ENDBRANCH   2   3
ENDBRANCH   1   2
BRANCH   1   8
ATOM      8  C   UNL     1     -15.467   6.216 -13.880  1.00  0.00     0.000 C 
BRANCH   8   9
ATOM      9  C   UNL     1     -16.531   7.056 -14.604  1.00  0.00     0.000 C 
BRANCH   9  10
ATOM     10  C   UNL     1     -17.963   6.580 -14.307  1.00  0.00     0.006 C 
BRANCH  10  11
ATOM     11  C   UNL     1     -18.044   5.055 -14.148  1.00  0.00     0.053 C 
BRANCH  11  12
ATOM     12  C   UNL     1     -19.292   4.496 -14.758  1.00  0.00     0.041 C 
ATOM     13  O   UNL     1     -20.088   3.813 -14.061  1.00  0.00    -0.550 OA
ATOM     14  O   UNL     1     -19.593   4.754 -16.090  1.00  0.00    -0.550 OA
ENDBRANCH  11  12
ENDBRANCH  10  11
ENDBRANCH   9  10
ENDBRANCH   8   9
ENDBRANCH   1   8
TORSDOF 9
ENDMDL
