MODEL 1
REMARK VINA RESULT:    -3.762      0.000      0.000
REMARK INTER + INTRA:          -5.283
REMARK INTER:                  -5.081
REMARK INTRA:                  -0.202
REMARK UNBOUND:                -0.202
REMARK SMILES CCCCCCC=CC(=O)[O-]
REMARK SMILES IDX 5 1 6 2 7 3 8 4 9 5 10 6 11 7 4 8 3 9 2 10 1 11
REMARK H PARENT
REMARK Flexibility Score: inf
ROOT
ATOM      1  C   UNL     1      -1.601 -50.850   2.374  1.00  0.00     0.004 C 
ENDROOT
BRANCH   1   2
ATOM      2  C   UNL     1      -1.668 -52.091   3.276  1.00  0.00     0.027 C 
BRANCH   2   3
ATOM      3  C   UNL     1      -2.340 -51.776   4.581  1.00  0.00    -0.025 C 
ATOM      4  C   UNL     1      -1.637 -51.638   5.712  1.00  0.00     0.020 C 
BRANCH   4   5
ATOM      5  C   UNL     1      -2.274 -51.343   7.005  1.00  0.00     0.064 C 
ATOM      6  O   UNL     1      -2.001 -52.016   8.035  1.00  0.00    -0.545 OA
ATOM      7  O   UNL     1      -3.194 -50.307   7.092  1.00  0.00    -0.545 OA
ENDBRANCH   4   5
ENDBRANCH   2   3
ENDBRANCH   1   2
BRANCH   1   8
ATOM      8  C   UNL     1      -2.701 -50.834   1.297  1.00  0.00     0.000 C 
BRANCH   8   9
ATOM      9  C   UNL     1      -2.234 -51.231  -0.118  1.00  0.00    -0.000 C 
BRANCH   9  10
ATOM     10  C   UNL     1      -0.875 -51.949  -0.177  1.00  0.00    -0.003 C 
ATOM     11  C   UNL     1      -0.176 -51.791  -1.527  1.00  0.00     0.004 C 
ENDBRANCH   9  10
ENDBRANCH   8   9
ENDBRANCH   1   8
TORSDOF 6
ENDMDL
MODEL 2
REMARK VINA RESULT:    -3.720      1.517      2.124
REMARK INTER + INTRA:          -5.227
REMARK INTER:                  -4.992
REMARK INTRA:                  -0.235
REMARK UNBOUND:                -0.202
REMARK SMILES CCCCCCC=CC(=O)[O-]
REMARK SMILES IDX 5 1 6 2 7 3 8 4 9 5 10 6 11 7 4 8 3 9 2 10 1 11
REMARK H PARENT
REMARK Flexibility Score: inf
ROOT
ATOM      1  C   UNL     1      -2.099 -51.975   2.710  1.00  0.00     0.004 C 
ENDROOT
BRANCH   1   2
ATOM      2  C   UNL     1      -1.211 -51.867   3.958  1.00  0.00     0.027 C 
BRANCH   2   3
ATOM      3  C   UNL     1      -2.040 -51.724   5.202  1.00  0.00    -0.025 C 
ATOM      4  C   UNL     1      -1.499 -51.326   6.359  1.00  0.00     0.020 C 
BRANCH   4   5
ATOM      5  C   UNL     1      -2.288 -51.190   7.594  1.00  0.00     0.064 C 
ATOM      6  O   UNL     1      -1.935 -51.765   8.659  1.00  0.00    -0.545 OA
ATOM      7  O   UNL     1      -3.442 -50.419   7.585  1.00  0.00    -0.545 OA
ENDBRANCH   4   5
ENDBRANCH   2   3
ENDBRANCH   1   2
BRANCH   1   8
ATOM      8  C   UNL     1      -1.858 -50.834   1.706  1.00  0.00     0.000 C 
BRANCH   8   9
ATOM      9  C   UNL     1      -3.023 -50.567   0.731  1.00  0.00    -0.000 C 
BRANCH   9  10
ATOM     10  C   UNL     1      -4.269 -51.442   0.950  1.00  0.00    -0.003 C 
ATOM     11  C   UNL     1      -5.368 -51.182  -0.079  1.00  0.00     0.004 C 
ENDBRANCH   9  10
ENDBRANCH   8   9
ENDBRANCH   1   8
TORSDOF 6
ENDMDL
MODEL 3
REMARK VINA RESULT:    -3.576      4.783      6.537
REMARK INTER + INTRA:          -5.032
REMARK INTER:                  -4.829
REMARK INTRA:                  -0.203
REMARK UNBOUND:                -0.202
REMARK SMILES CCCCCCC=CC(=O)[O-]
REMARK SMILES IDX 5 1 6 2 7 3 8 4 9 5 10 6 11 7 4 8 3 9 2 10 1 11
REMARK H PARENT
REMARK Flexibility Score: inf
ROOT
ATOM      1  C   UNL     1      -5.998 -51.735   1.290  1.00  0.00     0.004 C 
ENDROOT
BRANCH   1   2
ATOM      2  C   UNL     1      -5.124 -51.377   0.079  1.00  0.00     0.027 C 
BRANCH   2   3
ATOM      3  C   UNL     1      -3.704 -51.816   0.288  1.00  0.00    -0.025 C 
ATOM      4  C   UNL     1      -2.759 -50.957   0.686  1.00  0.00     0.020 C 
BRANCH   4   5
ATOM      5  C   UNL     1      -1.358 -51.361   0.884  1.00  0.00     0.064 C 
ATOM      6  O   UNL     1      -0.536 -51.353  -0.072  1.00  0.00    -0.545 OA
ATOM      7  O   UNL     1      -0.934 -51.759   2.144  1.00  0.00    -0.545 OA
ENDBRANCH   4   5
ENDBRANCH   2   3
ENDBRANCH   1   2
BRANCH   1   8
ATOM      8  C   UNL     1      -7.482 -51.918   0.922  1.00  0.00     0.000 C 
BRANCH   8   9
ATOM      9  C   UNL     1      -8.451 -50.937   1.614  1.00  0.00    -0.000 C 
BRANCH   9  10
ATOM     10  C   UNL     1      -8.910 -51.360   3.020  1.00  0.00    -0.003 C 
ATOM     11  C   UNL     1      -8.295 -50.507   4.128  1.00  0.00     0.004 C 
ENDBRANCH   9  10
ENDBRANCH   8   9
ENDBRANCH   1   8
TORSDOF 6
ENDMDL
MODEL 4
REMARK VINA RESULT:    -3.569      4.297      5.264
REMARK INTER + INTRA:          -5.022
REMARK INTER:                  -4.681
REMARK INTRA:                  -0.341
REMARK UNBOUND:                -0.202
REMARK SMILES CCCCCCC=CC(=O)[O-]
REMARK SMILES IDX 5 1 6 2 7 3 8 4 9 5 10 6 11 7 4 8 3 9 2 10 1 11
REMARK H PARENT
REMARK Flexibility Score: inf
ROOT
ATOM      1  C   UNL     1      -5.768 -52.061   0.956  1.00  0.00     0.004 C 
ENDROOT
BRANCH   1   2
ATOM      2  C   UNL     1      -7.287 -52.071   0.731  1.00  0.00     0.027 C 
BRANCH   2   3
ATOM      3  C   UNL     1      -8.005 -51.381   1.855  1.00  0.00    -0.025 C 
ATOM      4  C   UNL     1      -7.434 -51.221   3.054  1.00  0.00     0.020 C 
BRANCH   4   5
ATOM      5  C   UNL     1      -8.124 -50.560   4.174  1.00  0.00     0.064 C 
ATOM      6  O   UNL     1      -7.952 -50.944   5.362  1.00  0.00    -0.545 OA
ATOM      7  O   UNL     1      -8.979 -49.497   3.917  1.00  0.00    -0.545 OA
ENDBRANCH   4   5
ENDBRANCH   2   3
ENDBRANCH   1   2
BRANCH   1   8
ATOM      8  C   UNL     1      -5.032 -51.086   0.020  1.00  0.00     0.000 C 
BRANCH   8   9
ATOM      9  C   UNL     1      -3.531 -50.901   0.320  1.00  0.00    -0.000 C 
BRANCH   9  10
ATOM     10  C   UNL     1      -3.097 -51.306   1.739  1.00  0.00    -0.003 C 
ATOM     11  C   UNL     1      -1.702 -50.800   2.103  1.00  0.00     0.004 C 
ENDBRANCH   9  10
ENDBRANCH   8   9
ENDBRANCH   1   8
TORSDOF 6
ENDMDL
MODEL 5
REMARK VINA RESULT:    -3.551      0.924      1.899
REMARK INTER + INTRA:          -4.998
REMARK INTER:                  -4.781
REMARK INTRA:                  -0.217
REMARK UNBOUND:                -0.202
REMARK SMILES CCCCCCC=CC(=O)[O-]
REMARK SMILES IDX 5 1 6 2 7 3 8 4 9 5 10 6 11 7 4 8 3 9 2 10 1 11
REMARK H PARENT
REMARK Flexibility Score: inf
ROOT
ATOM      1  C   UNL     1      -2.101 -52.007   3.820  1.00  0.00     0.004 C 
ENDROOT
BRANCH   1   2
ATOM      2  C   UNL     1      -0.928 -51.720   4.769  1.00  0.00     0.027 C 
BRANCH   2   3
ATOM      3  C   UNL     1      -1.384 -51.692   6.200  1.00  0.00    -0.025 C 
ATOM      4  C   UNL     1      -2.530 -51.100   6.556  1.00  0.00     0.020 C 
BRANCH   4   5
ATOM      5  C   UNL     1      -2.990 -51.048   7.953  1.00  0.00     0.064 C 
ATOM      6  O   UNL     1      -4.047 -50.438   8.268  1.00  0.00    -0.545 OA
ATOM      7  O   UNL     1      -2.247 -51.679   8.940  1.00  0.00    -0.545 OA
ENDBRANCH   4   5
ENDBRANCH   2   3
ENDBRANCH   1   2
BRANCH   1   8
ATOM      8  C   UNL     1      -1.755 -51.737   2.345  1.00  0.00     0.000 C 
BRANCH   8   9
ATOM      9  C   UNL     1      -2.748 -50.823   1.599  1.00  0.00    -0.000 C 
BRANCH   9  10
ATOM     10  C   UNL     1      -2.680 -50.903   0.064  1.00  0.00    -0.003 C 
ATOM     11  C   UNL     1      -1.399 -51.566  -0.440  1.00  0.00     0.004 C 
ENDBRANCH   9  10
ENDBRANCH   8   9
ENDBRANCH   1   8
TORSDOF 6
ENDMDL
MODEL 6
REMARK VINA RESULT:    -3.536      1.742      2.823
REMARK INTER + INTRA:          -4.978
REMARK INTER:                  -4.585
REMARK INTRA:                  -0.393
REMARK UNBOUND:                -0.202
REMARK SMILES CCCCCCC=CC(=O)[O-]
REMARK SMILES IDX 5 1 6 2 7 3 8 4 9 5 10 6 11 7 4 8 3 9 2 10 1 11
REMARK H PARENT
REMARK Flexibility Score: inf
ROOT
ATOM      1  C   UNL     1      -2.158 -50.689   1.789  1.00  0.00     0.004 C 
ENDROOT
BRANCH   1   2
ATOM      2  C   UNL     1      -1.556 -51.908   2.502  1.00  0.00     0.027 C 
BRANCH   2   3
ATOM      3  C   UNL     1      -1.590 -51.734   3.993  1.00  0.00    -0.025 C 
ATOM      4  C   UNL     1      -2.747 -51.647   4.660  1.00  0.00     0.020 C 
BRANCH   4   5
ATOM      5  C   UNL     1      -2.805 -51.464   6.119  1.00  0.00     0.064 C 
ATOM      6  O   UNL     1      -3.900 -51.518   6.739  1.00  0.00    -0.545 OA
ATOM      7  O   UNL     1      -1.633 -51.224   6.824  1.00  0.00    -0.545 OA
ENDBRANCH   4   5
ENDBRANCH   2   3
ENDBRANCH   1   2
BRANCH   1   8
ATOM      8  C   UNL     1      -2.748 -51.034   0.410  1.00  0.00     0.000 C 
BRANCH   8   9
ATOM      9  C   UNL     1      -4.288 -51.009   0.334  1.00  0.00    -0.000 C 
BRANCH   9  10
ATOM     10  C   UNL     1      -5.006 -51.822   1.425  1.00  0.00    -0.003 C 
ATOM     11  C   UNL     1      -6.527 -51.804   1.276  1.00  0.00     0.004 C 
ENDBRANCH   9  10
ENDBRANCH   8   9
ENDBRANCH   1   8
TORSDOF 6
ENDMDL
MODEL 7
REMARK VINA RESULT:    -3.473      3.279      4.894
REMARK INTER + INTRA:          -4.894
REMARK INTER:                  -4.335
REMARK INTRA:                  -0.559
REMARK UNBOUND:                -0.202
REMARK SMILES CCCCCCC=CC(=O)[O-]
REMARK SMILES IDX 5 1 6 2 7 3 8 4 9 5 10 6 11 7 4 8 3 9 2 10 1 11
REMARK H PARENT
REMARK Flexibility Score: inf
ROOT
ATOM      1  C   UNL     1      -5.272 -51.021   0.110  1.00  0.00     0.004 C 
ENDROOT
BRANCH   1   2
ATOM      2  C   UNL     1      -3.737 -50.987   0.131  1.00  0.00     0.027 C 
BRANCH   2   3
ATOM      3  C   UNL     1      -3.198 -51.634   1.375  1.00  0.00    -0.025 C 
ATOM      4  C   UNL     1      -2.448 -50.951   2.247  1.00  0.00     0.020 C 
BRANCH   4   5
ATOM      5  C   UNL     1      -1.898 -51.567   3.465  1.00  0.00     0.064 C 
ATOM      6  O   UNL     1      -2.625 -51.784   4.471  1.00  0.00    -0.545 OA
ATOM      7  O   UNL     1      -0.554 -51.913   3.508  1.00  0.00    -0.545 OA
ENDBRANCH   4   5
ENDBRANCH   2   3
ENDBRANCH   1   2
BRANCH   1   8
ATOM      8  C   UNL     1      -5.859 -52.086   1.054  1.00  0.00     0.000 C 
BRANCH   8   9
ATOM      9  C   UNL     1      -7.287 -51.794   1.558  1.00  0.00    -0.000 C 
BRANCH   9  10
ATOM     10  C   UNL     1      -7.409 -51.572   3.075  1.00  0.00    -0.003 C 
ATOM     11  C   UNL     1      -6.081 -51.745   3.811  1.00  0.00     0.004 C 
ENDBRANCH   9  10
ENDBRANCH   8   9
ENDBRANCH   1   8
TORSDOF 6
ENDMDL
MODEL 8
REMARK VINA RESULT:    -3.380      1.821      2.952
REMARK INTER + INTRA:          -4.768
REMARK INTER:                  -4.585
REMARK INTRA:                  -0.183
REMARK UNBOUND:                -0.202
REMARK SMILES CCCCCCC=CC(=O)[O-]
REMARK SMILES IDX 5 1 6 2 7 3 8 4 9 5 10 6 11 7 4 8 3 9 2 10 1 11
REMARK H PARENT
REMARK Flexibility Score: inf
ROOT
ATOM      1  C   UNL     1      -2.264 -51.690   5.222  1.00  0.00     0.004 C 
ENDROOT
BRANCH   1   2
ATOM      2  C   UNL     1      -1.357 -51.276   6.389  1.00  0.00     0.027 C 
BRANCH   2   3
ATOM      3  C   UNL     1      -2.123 -51.222   7.679  1.00  0.00    -0.025 C 
ATOM      4  C   UNL     1      -3.461 -51.245   7.697  1.00  0.00     0.020 C 
BRANCH   4   5
ATOM      5  C   UNL     1      -4.235 -51.180   8.948  1.00  0.00     0.064 C 
ATOM      6  O   UNL     1      -3.757 -51.610  10.032  1.00  0.00    -0.545 OA
ATOM      7  O   UNL     1      -5.512 -50.638   8.932  1.00  0.00    -0.545 OA
ENDBRANCH   4   5
ENDBRANCH   2   3
ENDBRANCH   1   2
BRANCH   1   8
ATOM      8  C   UNL     1      -1.529 -51.708   3.870  1.00  0.00     0.000 C 
BRANCH   8   9
ATOM      9  C   UNL     1      -2.445 -51.757   2.630  1.00  0.00    -0.000 C 
BRANCH   9  10
ATOM     10  C   UNL     1      -2.299 -50.566   1.667  1.00  0.00    -0.003 C 
ATOM     11  C   UNL     1      -2.825 -50.869   0.264  1.00  0.00     0.004 C 
ENDBRANCH   9  10
ENDBRANCH   8   9
ENDBRANCH   1   8
TORSDOF 6
ENDMDL
MODEL 9
REMARK VINA RESULT:    -3.357      3.429      6.592
REMARK INTER + INTRA:          -4.737
REMARK INTER:                  -4.469
REMARK INTRA:                  -0.269
REMARK UNBOUND:                -0.202
REMARK SMILES CCCCCCC=CC(=O)[O-]
REMARK SMILES IDX 5 1 6 2 7 3 8 4 9 5 10 6 11 7 4 8 3 9 2 10 1 11
REMARK H PARENT
REMARK Flexibility Score: inf
ROOT
ATOM      1  C   UNL     1      -1.565 -51.692   4.998  1.00  0.00     0.004 C 
ENDROOT
BRANCH   1   2
ATOM      2  C   UNL     1      -2.940 -51.804   4.324  1.00  0.00     0.027 C 
BRANCH   2   3
ATOM      3  C   UNL     1      -2.863 -51.434   2.871  1.00  0.00    -0.025 C 
ATOM      4  C   UNL     1      -1.749 -51.638   2.158  1.00  0.00     0.020 C 
BRANCH   4   5
ATOM      5  C   UNL     1      -1.645 -51.272   0.736  1.00  0.00     0.064 C 
ATOM      6  O   UNL     1      -2.624 -50.774   0.118  1.00  0.00    -0.545 OA
ATOM      7  O   UNL     1      -0.449 -51.480   0.064  1.00  0.00    -0.545 OA
ENDBRANCH   4   5
ENDBRANCH   2   3
ENDBRANCH   1   2
BRANCH   1   8
ATOM      8  C   UNL     1      -1.633 -51.860   6.527  1.00  0.00     0.000 C 
BRANCH   8   9
ATOM      9  C   UNL     1      -2.650 -50.944   7.238  1.00  0.00    -0.000 C 
BRANCH   9  10
ATOM     10  C   UNL     1      -3.784 -51.679   7.973  1.00  0.00    -0.003 C 
ATOM     11  C   UNL     1      -4.517 -50.791   8.977  1.00  0.00     0.004 C 
ENDBRANCH   9  10
ENDBRANCH   8   9
ENDBRANCH   1   8
TORSDOF 6
ENDMDL
