MODEL 1
REMARK VINA RESULT:    -3.400      0.000      0.000
REMARK INTER + INTRA:          -3.698
REMARK INTER:                  -3.698
REMARK INTRA:                   0.000
REMARK UNBOUND:                 0.000
REMARK SMILES [NH3+]CC(=O)[O-]
REMARK SMILES IDX 2 1 1 2 3 6 4 7 5 8
REMARK H PARENT 1 3 1 4 1 5
REMARK Flexibility Score: inf
ROOT
ATOM      1  C   UNL     1     -20.759  -6.509   0.837  1.00  0.00     0.312 C 
ENDROOT
BRANCH   1   2
ATOM      2  N   UNL     1     -19.614  -7.011   1.594  1.00  0.00    -0.353 N 
ATOM      3  H   UNL     1     -18.733  -6.867   1.049  1.00  0.00     0.344 HD
ATOM      4  H   UNL     1     -19.544  -6.486   2.496  1.00  0.00     0.344 HD
ATOM      5  H   UNL     1     -19.740  -8.029   1.802  1.00  0.00     0.344 HD
ENDBRANCH   1   2
BRANCH   1   6
ATOM      6  C   UNL     1     -20.448  -5.175   0.231  1.00  0.00     0.096 C 
ATOM      7  O   UNL     1     -20.413  -5.041  -1.021  1.00  0.00    -0.544 OA
ATOM      8  O   UNL     1     -20.146  -4.093   1.048  1.00  0.00    -0.544 OA
ENDBRANCH   1   6
TORSDOF 2
ENDMDL
MODEL 2
REMARK VINA RESULT:    -3.375     17.085     17.472
REMARK INTER + INTRA:          -3.671
REMARK INTER:                  -3.671
REMARK INTRA:                   0.000
REMARK UNBOUND:                 0.000
REMARK SMILES [NH3+]CC(=O)[O-]
REMARK SMILES IDX 2 1 1 2 3 6 4 7 5 8
REMARK H PARENT 1 3 1 4 1 5
REMARK Flexibility Score: inf
ROOT
ATOM      1  C   UNL     1     -23.445   7.339  11.137  1.00  0.00     0.312 C 
ENDROOT
BRANCH   1   2
ATOM      2  N   UNL     1     -22.730   8.382  10.403  1.00  0.00    -0.353 N 
ATOM      3  H   UNL     1     -23.239   9.292  10.487  1.00  0.00     0.344 HD
ATOM      4  H   UNL     1     -21.773   8.490  10.809  1.00  0.00     0.344 HD
ATOM      5  H   UNL     1     -22.644   8.116   9.395  1.00  0.00     0.344 HD
ENDBRANCH   1   2
BRANCH   1   6
ATOM      6  C   UNL     1     -24.925   7.530  11.019  1.00  0.00     0.096 C 
ATOM      7  O   UNL     1     -25.645   7.548  12.053  1.00  0.00    -0.544 OA
ATOM      8  O   UNL     1     -25.515   7.637   9.767  1.00  0.00    -0.544 OA
ENDBRANCH   1   6
TORSDOF 2
ENDMDL
MODEL 3
REMARK VINA RESULT:    -3.368      1.272      1.659
REMARK INTER + INTRA:          -3.663
REMARK INTER:                  -3.663
REMARK INTRA:                   0.000
REMARK UNBOUND:                 0.000
REMARK SMILES [NH3+]CC(=O)[O-]
REMARK SMILES IDX 2 1 1 2 3 6 4 7 5 8
REMARK H PARENT 1 3 1 4 1 5
REMARK Flexibility Score: inf
ROOT
ATOM      1  C   UNL     1     -19.675  -5.505   0.957  1.00  0.00     0.312 C 
ENDROOT
BRANCH   1   2
ATOM      2  N   UNL     1     -19.381  -6.829   1.501  1.00  0.00    -0.353 N 
ATOM      3  H   UNL     1     -19.877  -7.563   0.945  1.00  0.00     0.344 HD
ATOM      4  H   UNL     1     -18.351  -7.000   1.445  1.00  0.00     0.344 HD
ATOM      5  H   UNL     1     -19.680  -6.881   2.502  1.00  0.00     0.344 HD
ENDBRANCH   1   2
BRANCH   1   6
ATOM      6  C   UNL     1     -20.472  -5.617  -0.305  1.00  0.00     0.096 C 
ATOM      7  O   UNL     1     -20.497  -4.661  -1.125  1.00  0.00    -0.544 OA
ATOM      8  O   UNL     1     -21.227  -6.756  -0.552  1.00  0.00    -0.544 OA
ENDBRANCH   1   6
TORSDOF 2
ENDMDL
MODEL 4
REMARK VINA RESULT:    -3.346      2.059      2.451
REMARK INTER + INTRA:          -3.640
REMARK INTER:                  -3.640
REMARK INTRA:                   0.000
REMARK UNBOUND:                 0.000
REMARK SMILES [NH3+]CC(=O)[O-]
REMARK SMILES IDX 2 1 1 2 3 6 4 7 5 8
REMARK H PARENT 1 3 1 4 1 5
REMARK Flexibility Score: inf
ROOT
ATOM      1  C   UNL     1     -19.643  -4.604   1.241  1.00  0.00     0.312 C 
ENDROOT
BRANCH   1   2
ATOM      2  N   UNL     1     -20.248  -3.365   1.727  1.00  0.00    -0.353 N 
ATOM      3  H   UNL     1     -19.504  -2.664   1.945  1.00  0.00     0.344 HD
ATOM      4  H   UNL     1     -20.873  -2.976   0.985  1.00  0.00     0.344 HD
ATOM      5  H   UNL     1     -20.817  -3.556   2.584  1.00  0.00     0.344 HD
ENDBRANCH   1   2
BRANCH   1   6
ATOM      6  C   UNL     1     -20.576  -5.320   0.314  1.00  0.00     0.096 C 
ATOM      7  O   UNL     1     -21.508  -6.029   0.778  1.00  0.00    -0.544 OA
ATOM      8  O   UNL     1     -20.386  -5.244  -1.060  1.00  0.00    -0.544 OA
ENDBRANCH   1   6
TORSDOF 2
ENDMDL
MODEL 5
REMARK VINA RESULT:    -3.335      2.030      2.223
REMARK INTER + INTRA:          -3.628
REMARK INTER:                  -3.628
REMARK INTRA:                   0.000
REMARK UNBOUND:                 0.000
REMARK SMILES [NH3+]CC(=O)[O-]
REMARK SMILES IDX 2 1 1 2 3 6 4 7 5 8
REMARK H PARENT 1 3 1 4 1 5
REMARK Flexibility Score: inf
ROOT
ATOM      1  C   UNL     1     -19.702  -4.698   1.280  1.00  0.00     0.312 C 
ENDROOT
BRANCH   1   2
ATOM      2  N   UNL     1     -20.231  -3.394   1.675  1.00  0.00    -0.353 N 
ATOM      3  H   UNL     1     -19.472  -2.675   1.648  1.00  0.00     0.344 HD
ATOM      4  H   UNL     1     -20.986  -3.115   1.008  1.00  0.00     0.344 HD
ATOM      5  H   UNL     1     -20.633  -3.447   2.640  1.00  0.00     0.344 HD
ENDBRANCH   1   2
BRANCH   1   6
ATOM      6  C   UNL     1     -20.559  -5.317   0.221  1.00  0.00     0.096 C 
ATOM      7  O   UNL     1     -20.364  -5.041  -0.993  1.00  0.00    -0.544 OA
ATOM      8  O   UNL     1     -21.606  -6.158   0.576  1.00  0.00    -0.544 OA
ENDBRANCH   1   6
TORSDOF 2
ENDMDL
MODEL 6
REMARK VINA RESULT:    -3.298     17.519     18.057
REMARK INTER + INTRA:          -3.588
REMARK INTER:                  -3.588
REMARK INTRA:                   0.000
REMARK UNBOUND:                 0.000
REMARK SMILES [NH3+]CC(=O)[O-]
REMARK SMILES IDX 2 1 1 2 3 6 4 7 5 8
REMARK H PARENT 1 3 1 4 1 5
REMARK Flexibility Score: inf
ROOT
ATOM      1  C   UNL     1     -18.878   9.330  11.277  1.00  0.00     0.312 C 
ENDROOT
BRANCH   1   2
ATOM      2  N   UNL     1     -18.183   9.473  12.555  1.00  0.00    -0.353 N 
ATOM      3  H   UNL     1     -17.960  10.479  12.731  1.00  0.00     0.344 HD
ATOM      4  H   UNL     1     -18.803   9.124  13.322  1.00  0.00     0.344 HD
ATOM      5  H   UNL     1     -17.301   8.911  12.549  1.00  0.00     0.344 HD
ENDBRANCH   1   2
BRANCH   1   6
ATOM      6  C   UNL     1     -17.911   8.985  10.186  1.00  0.00     0.096 C 
ATOM      7  O   UNL     1     -17.073   9.838   9.791  1.00  0.00    -0.544 OA
ATOM      8  O   UNL     1     -17.970   7.741   9.572  1.00  0.00    -0.544 OA
ENDBRANCH   1   6
TORSDOF 2
ENDMDL
MODEL 7
REMARK VINA RESULT:    -3.229      2.376      2.647
REMARK INTER + INTRA:          -3.513
REMARK INTER:                  -3.513
REMARK INTRA:                   0.000
REMARK UNBOUND:                 0.000
REMARK SMILES [NH3+]CC(=O)[O-]
REMARK SMILES IDX 2 1 1 2 3 6 4 7 5 8
REMARK H PARENT 1 3 1 4 1 5
REMARK Flexibility Score: inf
ROOT
ATOM      1  C   UNL     1     -20.481  -5.671  -0.724  1.00  0.00     0.312 C 
ENDROOT
BRANCH   1   2
ATOM      2  N   UNL     1     -20.519  -4.251  -1.068  1.00  0.00    -0.353 N 
ATOM      3  H   UNL     1     -21.220  -4.084  -1.826  1.00  0.00     0.344 HD
ATOM      4  H   UNL     1     -20.798  -3.702  -0.223  1.00  0.00     0.344 HD
ATOM      5  H   UNL     1     -19.574  -3.933  -1.384  1.00  0.00     0.344 HD
ENDBRANCH   1   2
BRANCH   1   6
ATOM      6  C   UNL     1     -19.901  -5.868   0.642  1.00  0.00     0.096 C 
ATOM      7  O   UNL     1     -19.255  -4.939   1.196  1.00  0.00    -0.544 OA
ATOM      8  O   UNL     1     -20.030  -7.094   1.283  1.00  0.00    -0.544 OA
ENDBRANCH   1   6
TORSDOF 2
ENDMDL
MODEL 8
REMARK VINA RESULT:    -3.227      7.607      7.837
REMARK INTER + INTRA:          -3.510
REMARK INTER:                  -3.510
REMARK INTRA:                   0.000
REMARK UNBOUND:                 0.000
REMARK SMILES [NH3+]CC(=O)[O-]
REMARK SMILES IDX 2 1 1 2 3 6 4 7 5 8
REMARK H PARENT 1 3 1 4 1 5
REMARK Flexibility Score: inf
ROOT
ATOM      1  C   UNL     1     -14.232  -4.856   3.186  1.00  0.00     0.312 C 
ENDROOT
BRANCH   1   2
ATOM      2  N   UNL     1     -14.649  -4.785   1.787  1.00  0.00    -0.353 N 
ATOM      3  H   UNL     1     -14.074  -4.076   1.277  1.00  0.00     0.344 HD
ATOM      4  H   UNL     1     -14.510  -5.720   1.341  1.00  0.00     0.344 HD
ATOM      5  H   UNL     1     -15.662  -4.528   1.727  1.00  0.00     0.344 HD
ENDBRANCH   1   2
BRANCH   1   6
ATOM      6  C   UNL     1     -12.796  -5.267   3.289  1.00  0.00     0.096 C 
ATOM      7  O   UNL     1     -11.941  -4.783   2.500  1.00  0.00    -0.544 OA
ATOM      8  O   UNL     1     -12.410  -6.221   4.221  1.00  0.00    -0.544 OA
ENDBRANCH   1   6
TORSDOF 2
ENDMDL
MODEL 9
REMARK VINA RESULT:    -3.009     17.420     17.734
REMARK INTER + INTRA:          -3.273
REMARK INTER:                  -3.273
REMARK INTRA:                   0.000
REMARK UNBOUND:                 0.000
REMARK SMILES [NH3+]CC(=O)[O-]
REMARK SMILES IDX 2 1 1 2 3 6 4 7 5 8
REMARK H PARENT 1 3 1 4 1 5
REMARK Flexibility Score: inf
ROOT
ATOM      1  C   UNL     1     -18.278   8.215   9.597  1.00  0.00     0.312 C 
ENDROOT
BRANCH   1   2
ATOM      2  N   UNL     1     -17.288   8.167   8.523  1.00  0.00    -0.353 N 
ATOM      3  H   UNL     1     -16.701   7.306   8.614  1.00  0.00     0.344 HD
ATOM      4  H   UNL     1     -17.783   8.144   7.602  1.00  0.00     0.344 HD
ATOM      5  H   UNL     1     -16.678   9.017   8.559  1.00  0.00     0.344 HD
ENDBRANCH   1   2
BRANCH   1   6
ATOM      6  C   UNL     1     -17.874   9.205  10.644  1.00  0.00     0.096 C 
ATOM      7  O   UNL     1     -16.755   9.779  10.574  1.00  0.00    -0.544 OA
ATOM      8  O   UNL     1     -18.710   9.456  11.724  1.00  0.00    -0.544 OA
ENDBRANCH   1   6
TORSDOF 2
ENDMDL
