MODEL 1
REMARK VINA RESULT:    -5.323      0.000      0.000
REMARK INTER + INTRA:          -6.925
REMARK INTER:                  -6.568
REMARK INTRA:                  -0.357
REMARK UNBOUND:                -0.357
REMARK SMILES O=c1c(O)c(-c2cc(O)c(O)c(O)c2)oc2cc(O)cc(O)c12
REMARK SMILES IDX 5 1 3 2 2 3 1 4 23 5 21 6 20 7 18 8 17 9 16 10 15 11 6 12
REMARK SMILES IDX 7 13 8 14 14 15 10 16 12 17 9 18 11 20 13 22 4 24 22 26
REMARK SMILES IDX 19 28
REMARK H PARENT 9 19 11 21 13 23 4 25 22 27 19 29
REMARK Flexibility Score: inf
ROOT
ATOM      1  C   UNL     1      39.863  17.549 211.684  1.00  0.00     0.180 A 
ATOM      2  C   UNL     1      38.981  18.522 211.183  1.00  0.00     0.208 A 
ATOM      3  C   UNL     1      37.743  18.710 211.816  1.00  0.00     0.238 A 
ATOM      4  O   UNL     1      36.981  19.620 211.396  1.00  0.00    -0.285 OA
ATOM      5  C   UNL     1      37.394  17.913 212.932  1.00  0.00     0.111 A 
ATOM      6  C   UNL     1      36.148  17.989 213.625  1.00  0.00     0.134 A 
ATOM      7  C   UNL     1      35.963  17.243 214.796  1.00  0.00     0.093 A 
ATOM      8  C   UNL     1      36.949  16.375 215.261  1.00  0.00     0.123 A 
ATOM      9  C   UNL     1      38.147  16.247 214.557  1.00  0.00     0.094 A 
ATOM     10  C   UNL     1      38.376  17.005 213.406  1.00  0.00     0.146 A 
ATOM     11  O   UNL     1      39.533  16.862 212.772  1.00  0.00    -0.452 OA
ENDROOT
BRANCH   1  12
ATOM     12  C   UNL     1      41.175  17.275 211.055  1.00  0.00     0.029 A 
ATOM     13  C   UNL     1      41.264  16.321 210.032  1.00  0.00     0.062 A 
ATOM     14  C   UNL     1      42.489  16.058 209.408  1.00  0.00     0.162 A 
ATOM     15  C   UNL     1      42.325  17.992 211.421  1.00  0.00     0.062 A 
ATOM     16  C   UNL     1      43.643  16.760 209.789  1.00  0.00     0.200 A 
ATOM     17  C   UNL     1      43.556  17.744 210.804  1.00  0.00     0.162 A 
BRANCH  14  18
ATOM     18  O   UNL     1      42.572  15.097 208.402  1.00  0.00    -0.504 OA
ATOM     19  H   UNL     1      41.854  15.009 207.692  1.00  0.00     0.293 HD
ENDBRANCH  14  18
BRANCH  16  20
ATOM     20  O   UNL     1      44.841  16.454 209.141  1.00  0.00    -0.502 OA
ATOM     21  H   UNL     1      45.555  17.133 208.921  1.00  0.00     0.293 HD
ENDBRANCH  16  20
BRANCH  17  22
ATOM     22  O   UNL     1      44.657  18.495 211.221  1.00  0.00    -0.504 OA
ATOM     23  H   UNL     1      45.076  19.234 210.677  1.00  0.00     0.293 HD
ENDBRANCH  17  22
ENDBRANCH   1  12
BRANCH   2  24
ATOM     24  O   UNL     1      39.355  19.314 210.093  1.00  0.00    -0.502 OA
ATOM     25  H   UNL     1      39.521  20.309 210.175  1.00  0.00     0.293 HD
ENDBRANCH   2  24
BRANCH   6  26
ATOM     26  O   UNL     1      35.061  18.757 213.196  1.00  0.00    -0.507 OA
ATOM     27  H   UNL     1      34.524  19.372 213.787  1.00  0.00     0.293 HD
ENDBRANCH   6  26
BRANCH   8  28
ATOM     28  O   UNL     1      36.724  15.637 216.421  1.00  0.00    -0.508 OA
ATOM     29  H   UNL     1      36.536  14.641 216.387  1.00  0.00     0.293 HD
ENDBRANCH   8  28
TORSDOF 7
ENDMDL
MODEL 2
REMARK VINA RESULT:    -5.260     11.222     12.555
REMARK INTER + INTRA:          -6.846
REMARK INTER:                  -6.489
REMARK INTRA:                  -0.357
REMARK UNBOUND:                -0.357
REMARK SMILES O=c1c(O)c(-c2cc(O)c(O)c(O)c2)oc2cc(O)cc(O)c12
REMARK SMILES IDX 5 1 3 2 2 3 1 4 23 5 21 6 20 7 18 8 17 9 16 10 15 11 6 12
REMARK SMILES IDX 7 13 8 14 14 15 10 16 12 17 9 18 11 20 13 22 4 24 22 26
REMARK SMILES IDX 19 28
REMARK H PARENT 9 19 11 21 13 23 4 25 22 27 19 29
REMARK Flexibility Score: inf
ROOT
ATOM      1  C   UNL     1      44.583  19.350 222.750  1.00  0.00     0.180 A 
ATOM      2  C   UNL     1      44.207  20.668 223.058  1.00  0.00     0.208 A 
ATOM      3  C   UNL     1      43.735  20.958 224.348  1.00  0.00     0.238 A 
ATOM      4  O   UNL     1      43.451  22.151 224.635  1.00  0.00    -0.285 OA
ATOM      5  C   UNL     1      43.629  19.923 225.308  1.00  0.00     0.111 A 
ATOM      6  C   UNL     1      43.124  20.095 226.632  1.00  0.00     0.134 A 
ATOM      7  C   UNL     1      43.187  19.029 227.538  1.00  0.00     0.093 A 
ATOM      8  C   UNL     1      43.672  17.782 227.151  1.00  0.00     0.123 A 
ATOM      9  C   UNL     1      44.112  17.586 225.841  1.00  0.00     0.094 A 
ATOM     10  C   UNL     1      44.096  18.640 224.924  1.00  0.00     0.146 A 
ATOM     11  O   UNL     1      44.533  18.415 223.691  1.00  0.00    -0.452 OA
ENDROOT
BRANCH   1  12
ATOM     12  C   UNL     1      45.067  18.963 221.405  1.00  0.00     0.029 A 
ATOM     13  C   UNL     1      46.434  19.058 221.109  1.00  0.00     0.062 A 
ATOM     14  C   UNL     1      46.918  18.679 219.852  1.00  0.00     0.162 A 
ATOM     15  C   UNL     1      44.193  18.448 220.434  1.00  0.00     0.062 A 
ATOM     16  C   UNL     1      46.042  18.185 218.875  1.00  0.00     0.200 A 
ATOM     17  C   UNL     1      44.664  18.062 219.173  1.00  0.00     0.162 A 
BRANCH  14  18
ATOM     18  O   UNL     1      48.277  18.791 219.561  1.00  0.00    -0.504 OA
ATOM     19  H   UNL     1      48.749  19.689 219.568  1.00  0.00     0.293 HD
ENDBRANCH  14  18
BRANCH  16  20
ATOM     20  O   UNL     1      46.576  17.829 217.634  1.00  0.00    -0.502 OA
ATOM     21  H   UNL     1      46.175  18.099 216.747  1.00  0.00     0.293 HD
ENDBRANCH  16  20
BRANCH  17  22
ATOM     22  O   UNL     1      43.735  17.559 218.259  1.00  0.00    -0.504 OA
ATOM     23  H   UNL     1      42.783  17.321 218.493  1.00  0.00     0.293 HD
ENDBRANCH  17  22
ENDBRANCH   1  12
BRANCH   2  24
ATOM     24  O   UNL     1      44.341  21.680 222.102  1.00  0.00    -0.502 OA
ATOM     25  H   UNL     1      43.543  22.150 221.692  1.00  0.00     0.293 HD
ENDBRANCH   2  24
BRANCH   6  26
ATOM     26  O   UNL     1      42.533  21.275 227.096  1.00  0.00    -0.507 OA
ATOM     27  H   UNL     1      41.782  21.314 227.768  1.00  0.00     0.293 HD
ENDBRANCH   6  26
BRANCH   8  28
ATOM     28  O   UNL     1      43.705  16.739 228.075  1.00  0.00    -0.508 OA
ATOM     29  H   UNL     1      44.037  16.881 229.022  1.00  0.00     0.293 HD
ENDBRANCH   8  28
TORSDOF 7
ENDMDL
MODEL 3
REMARK VINA RESULT:    -5.088      1.804      7.569
REMARK INTER + INTRA:          -6.634
REMARK INTER:                  -6.274
REMARK INTRA:                  -0.360
REMARK UNBOUND:                -0.357
REMARK SMILES O=c1c(O)c(-c2cc(O)c(O)c(O)c2)oc2cc(O)cc(O)c12
REMARK SMILES IDX 5 1 3 2 2 3 1 4 23 5 21 6 20 7 18 8 17 9 16 10 15 11 6 12
REMARK SMILES IDX 7 13 8 14 14 15 10 16 12 17 9 18 11 20 13 22 4 24 22 26
REMARK SMILES IDX 19 28
REMARK H PARENT 9 19 11 21 13 23 4 25 22 27 19 29
REMARK Flexibility Score: inf
ROOT
ATOM      1  C   UNL     1      41.989  17.438 210.896  1.00  0.00     0.180 A 
ATOM      2  C   UNL     1      42.247  16.637 209.771  1.00  0.00     0.208 A 
ATOM      3  C   UNL     1      43.507  16.711 209.155  1.00  0.00     0.238 A 
ATOM      4  O   UNL     1      43.750  15.951 208.181  1.00  0.00    -0.285 OA
ATOM      5  C   UNL     1      44.487  17.598 209.661  1.00  0.00     0.111 A 
ATOM      6  C   UNL     1      45.782  17.785 209.091  1.00  0.00     0.134 A 
ATOM      7  C   UNL     1      46.717  18.592 209.752  1.00  0.00     0.093 A 
ATOM      8  C   UNL     1      46.383  19.269 210.923  1.00  0.00     0.123 A 
ATOM      9  C   UNL     1      45.100  19.141 211.457  1.00  0.00     0.094 A 
ATOM     10  C   UNL     1      44.157  18.315 210.841  1.00  0.00     0.146 A 
ATOM     11  O   UNL     1      42.951  18.212 211.386  1.00  0.00    -0.452 OA
ENDROOT
BRANCH   1  12
ATOM     12  C   UNL     1      40.678  17.433 211.583  1.00  0.00     0.029 A 
ATOM     13  C   UNL     1      40.513  16.672 212.749  1.00  0.00     0.062 A 
ATOM     14  C   UNL     1      39.289  16.666 213.429  1.00  0.00     0.162 A 
ATOM     15  C   UNL     1      39.609  18.219 211.126  1.00  0.00     0.062 A 
ATOM     16  C   UNL     1      38.215  17.435 212.959  1.00  0.00     0.200 A 
ATOM     17  C   UNL     1      38.381  18.227 211.797  1.00  0.00     0.162 A 
BRANCH  14  18
ATOM     18  O   UNL     1      39.130  15.894 214.579  1.00  0.00    -0.504 OA
ATOM     19  H   UNL     1      39.654  15.038 214.720  1.00  0.00     0.293 HD
ENDBRANCH  14  18
BRANCH  16  20
ATOM     20  O   UNL     1      37.013  17.387 213.669  1.00  0.00    -0.502 OA
ATOM     21  H   UNL     1      36.819  16.728 214.408  1.00  0.00     0.293 HD
ENDBRANCH  16  20
BRANCH  17  22
ATOM     22  O   UNL     1      37.363  19.033 211.281  1.00  0.00    -0.504 OA
ATOM     23  H   UNL     1      37.400  20.041 211.255  1.00  0.00     0.293 HD
ENDBRANCH  17  22
ENDBRANCH   1  12
BRANCH   2  24
ATOM     24  O   UNL     1      41.273  15.752 209.300  1.00  0.00    -0.502 OA
ATOM     25  H   UNL     1      41.417  14.750 209.268  1.00  0.00     0.293 HD
ENDBRANCH   2  24
BRANCH   6  26
ATOM     26  O   UNL     1      46.188  17.228 207.875  1.00  0.00    -0.507 OA
ATOM     27  H   UNL     1      46.077  16.258 207.623  1.00  0.00     0.293 HD
ENDBRANCH   6  26
BRANCH   8  28
ATOM     28  O   UNL     1      47.334  20.076 211.546  1.00  0.00    -0.508 OA
ATOM     29  H   UNL     1      47.900  19.732 212.314  1.00  0.00     0.293 HD
ENDBRANCH   8  28
TORSDOF 7
ENDMDL
MODEL 4
REMARK VINA RESULT:    -4.973     14.575     17.435
REMARK INTER + INTRA:          -6.493
REMARK INTER:                  -6.128
REMARK INTRA:                  -0.365
REMARK UNBOUND:                -0.357
REMARK SMILES O=c1c(O)c(-c2cc(O)c(O)c(O)c2)oc2cc(O)cc(O)c12
REMARK SMILES IDX 5 1 3 2 2 3 1 4 23 5 21 6 20 7 18 8 17 9 16 10 15 11 6 12
REMARK SMILES IDX 7 13 8 14 14 15 10 16 12 17 9 18 11 20 13 22 4 24 22 26
REMARK SMILES IDX 19 28
REMARK H PARENT 9 19 11 21 13 23 4 25 22 27 19 29
REMARK Flexibility Score: inf
ROOT
ATOM      1  C   UNL     1      48.697  17.638 225.295  1.00  0.00     0.180 A 
ATOM      2  C   UNL     1      49.606  18.501 225.929  1.00  0.00     0.208 A 
ATOM      3  C   UNL     1      50.854  18.736 225.330  1.00  0.00     0.238 A 
ATOM      4  O   UNL     1      51.643  19.553 225.874  1.00  0.00    -0.285 OA
ATOM      5  C   UNL     1      51.183  18.091 224.113  1.00  0.00     0.111 A 
ATOM      6  C   UNL     1      52.435  18.224 223.439  1.00  0.00     0.134 A 
ATOM      7  C   UNL     1      52.603  17.643 222.176  1.00  0.00     0.093 A 
ATOM      8  C   UNL     1      51.592  16.882 221.593  1.00  0.00     0.123 A 
ATOM      9  C   UNL     1      50.386  16.696 222.270  1.00  0.00     0.094 A 
ATOM     10  C   UNL     1      50.175  17.292 223.516  1.00  0.00     0.146 A 
ATOM     11  O   UNL     1      49.010  17.099 224.122  1.00  0.00    -0.452 OA
ENDROOT
BRANCH   1  12
ATOM     12  C   UNL     1      47.373  17.322 225.878  1.00  0.00     0.029 A 
ATOM     13  C   UNL     1      46.259  18.092 225.516  1.00  0.00     0.062 A 
ATOM     14  C   UNL     1      44.992  17.801 226.038  1.00  0.00     0.162 A 
ATOM     15  C   UNL     1      47.196  16.231 226.743  1.00  0.00     0.062 A 
ATOM     16  C   UNL     1      44.820  16.724 226.920  1.00  0.00     0.200 A 
ATOM     17  C   UNL     1      45.936  15.925 227.270  1.00  0.00     0.162 A 
BRANCH  14  18
ATOM     18  O   UNL     1      43.893  18.582 225.685  1.00  0.00    -0.504 OA
ATOM     19  H   UNL     1      43.263  18.305 224.941  1.00  0.00     0.293 HD
ENDBRANCH  14  18
BRANCH  16  20
ATOM     20  O   UNL     1      43.538  16.482 227.418  1.00  0.00    -0.502 OA
ATOM     21  H   UNL     1      43.298  16.504 228.398  1.00  0.00     0.293 HD
ENDBRANCH  16  20
BRANCH  17  22
ATOM     22  O   UNL     1      45.837  14.826 228.125  1.00  0.00    -0.504 OA
ATOM     23  H   UNL     1      46.112  13.888 227.873  1.00  0.00     0.293 HD
ENDBRANCH  17  22
ENDBRANCH   1  12
BRANCH   2  24
ATOM     24  O   UNL     1      49.252  19.145 227.118  1.00  0.00    -0.502 OA
ATOM     25  H   UNL     1      49.269  20.153 227.218  1.00  0.00     0.293 HD
ENDBRANCH   2  24
BRANCH   6  26
ATOM     26  O   UNL     1      53.544  18.887 223.974  1.00  0.00    -0.507 OA
ATOM     27  H   UNL     1      54.502  18.697 223.723  1.00  0.00     0.293 HD
ENDBRANCH   6  26
BRANCH   8  28
ATOM     28  O   UNL     1      51.800  16.306 220.341  1.00  0.00    -0.508 OA
ATOM     29  H   UNL     1      52.238  15.397 220.242  1.00  0.00     0.293 HD
ENDBRANCH   8  28
TORSDOF 7
ENDMDL
MODEL 5
REMARK VINA RESULT:    -4.949      1.355      3.406
REMARK INTER + INTRA:          -6.462
REMARK INTER:                  -6.160
REMARK INTRA:                  -0.302
REMARK UNBOUND:                -0.357
REMARK SMILES O=c1c(O)c(-c2cc(O)c(O)c(O)c2)oc2cc(O)cc(O)c12
REMARK SMILES IDX 5 1 3 2 2 3 1 4 23 5 21 6 20 7 18 8 17 9 16 10 15 11 6 12
REMARK SMILES IDX 7 13 8 14 14 15 10 16 12 17 9 18 11 20 13 22 4 24 22 26
REMARK SMILES IDX 19 28
REMARK H PARENT 9 19 11 21 13 23 4 25 22 27 19 29
REMARK Flexibility Score: inf
ROOT
ATOM      1  C   UNL     1      40.576  17.135 211.524  1.00  0.00     0.180 A 
ATOM      2  C   UNL     1      40.210  16.274 212.573  1.00  0.00     0.208 A 
ATOM      3  C   UNL     1      38.963  16.449 213.194  1.00  0.00     0.238 A 
ATOM      4  O   UNL     1      38.618  15.641 214.095  1.00  0.00    -0.285 OA
ATOM      5  C   UNL     1      38.106  17.493 212.771  1.00  0.00     0.111 A 
ATOM      6  C   UNL     1      36.838  17.788 213.357  1.00  0.00     0.134 A 
ATOM      7  C   UNL     1      36.018  18.761 212.772  1.00  0.00     0.093 A 
ATOM      8  C   UNL     1      36.444  19.494 211.667  1.00  0.00     0.123 A 
ATOM      9  C   UNL     1      37.707  19.255 211.123  1.00  0.00     0.094 A 
ATOM     10  C   UNL     1      38.534  18.266 211.661  1.00  0.00     0.146 A 
ATOM     11  O   UNL     1      39.723  18.063 211.107  1.00  0.00    -0.452 OA
ENDROOT
BRANCH   1  12
ATOM     12  C   UNL     1      41.884  17.028 210.838  1.00  0.00     0.029 A 
ATOM     13  C   UNL     1      42.912  17.922 211.169  1.00  0.00     0.062 A 
ATOM     14  C   UNL     1      44.163  17.830 210.548  1.00  0.00     0.162 A 
ATOM     15  C   UNL     1      42.137  16.014 209.901  1.00  0.00     0.062 A 
ATOM     16  C   UNL     1      44.409  16.829 209.596  1.00  0.00     0.200 A 
ATOM     17  C   UNL     1      43.385  15.907 209.275  1.00  0.00     0.162 A 
BRANCH  14  18
ATOM     18  O   UNL     1      45.175  18.732 210.873  1.00  0.00    -0.504 OA
ATOM     19  H   UNL     1      44.976  19.601 211.355  1.00  0.00     0.293 HD
ENDBRANCH  14  18
BRANCH  16  20
ATOM     20  O   UNL     1      45.672  16.786 209.001  1.00  0.00    -0.502 OA
ATOM     21  H   UNL     1      46.059  15.968 208.553  1.00  0.00     0.293 HD
ENDBRANCH  16  20
BRANCH  17  22
ATOM     22  O   UNL     1      43.563  14.873 208.353  1.00  0.00    -0.504 OA
ATOM     23  H   UNL     1      43.206  13.937 208.477  1.00  0.00     0.293 HD
ENDBRANCH  17  22
ENDBRANCH   1  12
BRANCH   2  24
ATOM     24  O   UNL     1      41.062  15.236 212.960  1.00  0.00    -0.502 OA
ATOM     25  H   UNL     1      40.735  14.424 213.470  1.00  0.00     0.293 HD
ENDBRANCH   2  24
BRANCH   6  26
ATOM     26  O   UNL     1      36.353  17.178 214.518  1.00  0.00    -0.507 OA
ATOM     27  H   UNL     1      35.571  16.542 214.548  1.00  0.00     0.293 HD
ENDBRANCH   6  26
BRANCH   8  28
ATOM     28  O   UNL     1      35.608  20.465 211.121  1.00  0.00    -0.508 OA
ATOM     29  H   UNL     1      35.811  21.454 211.215  1.00  0.00     0.293 HD
ENDBRANCH   8  28
TORSDOF 7
ENDMDL
MODEL 6
REMARK VINA RESULT:    -4.881      3.969      7.804
REMARK INTER + INTRA:          -6.379
REMARK INTER:                  -6.110
REMARK INTRA:                  -0.270
REMARK UNBOUND:                -0.357
REMARK SMILES O=c1c(O)c(-c2cc(O)c(O)c(O)c2)oc2cc(O)cc(O)c12
REMARK SMILES IDX 5 1 3 2 2 3 1 4 23 5 21 6 20 7 18 8 17 9 16 10 15 11 6 12
REMARK SMILES IDX 7 13 8 14 14 15 10 16 12 17 9 18 11 20 13 22 4 24 22 26
REMARK SMILES IDX 19 28
REMARK H PARENT 9 19 11 21 13 23 4 25 22 27 19 29
REMARK Flexibility Score: inf
ROOT
ATOM      1  C   UNL     1      43.215  18.108 213.551  1.00  0.00     0.180 A 
ATOM      2  C   UNL     1      42.265  17.496 212.716  1.00  0.00     0.208 A 
ATOM      3  C   UNL     1      42.483  17.485 211.329  1.00  0.00     0.238 A 
ATOM      4  O   UNL     1      41.656  16.888 210.591  1.00  0.00    -0.285 OA
ATOM      5  C   UNL     1      43.639  18.102 210.793  1.00  0.00     0.111 A 
ATOM      6  C   UNL     1      43.940  18.187 209.400  1.00  0.00     0.134 A 
ATOM      7  C   UNL     1      45.176  18.704 208.992  1.00  0.00     0.093 A 
ATOM      8  C   UNL     1      46.091  19.198 209.918  1.00  0.00     0.123 A 
ATOM      9  C   UNL     1      45.782  19.175 211.278  1.00  0.00     0.094 A 
ATOM     10  C   UNL     1      44.573  18.633 211.720  1.00  0.00     0.146 A 
ATOM     11  O   UNL     1      44.321  18.620 213.023  1.00  0.00    -0.452 OA
ENDROOT
BRANCH   1  12
ATOM     12  C   UNL     1      43.042  18.181 215.019  1.00  0.00     0.029 A 
ATOM     13  C   UNL     1      43.918  17.472 215.853  1.00  0.00     0.062 A 
ATOM     14  C   UNL     1      43.789  17.540 217.245  1.00  0.00     0.162 A 
ATOM     15  C   UNL     1      42.054  18.992 215.600  1.00  0.00     0.062 A 
ATOM     16  C   UNL     1      42.787  18.333 217.825  1.00  0.00     0.200 A 
ATOM     17  C   UNL     1      41.915  19.073 216.991  1.00  0.00     0.162 A 
BRANCH  14  18
ATOM     18  O   UNL     1      44.655  16.820 218.066  1.00  0.00    -0.504 OA
ATOM     19  H   UNL     1      45.457  17.257 218.506  1.00  0.00     0.293 HD
ENDBRANCH  14  18
BRANCH  16  20
ATOM     20  O   UNL     1      42.696  18.360 219.218  1.00  0.00    -0.502 OA
ATOM     21  H   UNL     1      42.020  18.908 219.731  1.00  0.00     0.293 HD
ENDBRANCH  16  20
BRANCH  17  22
ATOM     22  O   UNL     1      40.908  19.899 217.496  1.00  0.00    -0.504 OA
ATOM     23  H   UNL     1      40.040  19.560 217.883  1.00  0.00     0.293 HD
ENDBRANCH  17  22
ENDBRANCH   1  12
BRANCH   2  24
ATOM     24  O   UNL     1      41.141  16.875 213.267  1.00  0.00    -0.502 OA
ATOM     25  H   UNL     1      40.830  17.053 214.215  1.00  0.00     0.293 HD
ENDBRANCH   2  24
BRANCH   6  26
ATOM     26  O   UNL     1      43.057  17.804 208.385  1.00  0.00    -0.507 OA
ATOM     27  H   UNL     1      42.368  17.073 208.469  1.00  0.00     0.293 HD
ENDBRANCH   6  26
BRANCH   8  28
ATOM     28  O   UNL     1      47.305  19.720 209.474  1.00  0.00    -0.508 OA
ATOM     29  H   UNL     1      47.972  19.151 208.964  1.00  0.00     0.293 HD
ENDBRANCH   8  28
TORSDOF 7
ENDMDL
MODEL 7
REMARK VINA RESULT:    -4.878      3.827      7.359
REMARK INTER + INTRA:          -6.375
REMARK INTER:                  -6.101
REMARK INTRA:                  -0.274
REMARK UNBOUND:                -0.357
REMARK SMILES O=c1c(O)c(-c2cc(O)c(O)c(O)c2)oc2cc(O)cc(O)c12
REMARK SMILES IDX 5 1 3 2 2 3 1 4 23 5 21 6 20 7 18 8 17 9 16 10 15 11 6 12
REMARK SMILES IDX 7 13 8 14 14 15 10 16 12 17 9 18 11 20 13 22 4 24 22 26
REMARK SMILES IDX 19 28
REMARK H PARENT 9 19 11 21 13 23 4 25 22 27 19 29
REMARK Flexibility Score: inf
ROOT
ATOM      1  C   UNL     1      42.651  17.682 213.660  1.00  0.00     0.180 A 
ATOM      2  C   UNL     1      41.754  16.766 213.084  1.00  0.00     0.208 A 
ATOM      3  C   UNL     1      41.721  16.631 211.688  1.00  0.00     0.238 A 
ATOM      4  O   UNL     1      40.954  15.769 211.181  1.00  0.00    -0.285 OA
ATOM      5  C   UNL     1      42.571  17.426 210.883  1.00  0.00     0.111 A 
ATOM      6  C   UNL     1      42.592  17.401 209.456  1.00  0.00     0.134 A 
ATOM      7  C   UNL     1      43.565  18.135 208.766  1.00  0.00     0.093 A 
ATOM      8  C   UNL     1      44.475  18.942 209.447  1.00  0.00     0.123 A 
ATOM      9  C   UNL     1      44.425  19.020 210.840  1.00  0.00     0.094 A 
ATOM     10  C   UNL     1      43.489  18.272 211.557  1.00  0.00     0.146 A 
ATOM     11  O   UNL     1      43.481  18.366 212.881  1.00  0.00    -0.452 OA
ENDROOT
BRANCH   1  12
ATOM     12  C   UNL     1      42.726  17.898 215.123  1.00  0.00     0.029 A 
ATOM     13  C   UNL     1      41.681  18.565 215.777  1.00  0.00     0.062 A 
ATOM     14  C   UNL     1      41.720  18.764 217.162  1.00  0.00     0.162 A 
ATOM     15  C   UNL     1      43.797  17.399 215.881  1.00  0.00     0.062 A 
ATOM     16  C   UNL     1      42.801  18.285 217.916  1.00  0.00     0.200 A 
ATOM     17  C   UNL     1      43.848  17.588 217.267  1.00  0.00     0.162 A 
BRANCH  14  18
ATOM     18  O   UNL     1      40.683  19.442 217.802  1.00  0.00    -0.504 OA
ATOM     19  H   UNL     1      40.660  20.454 217.849  1.00  0.00     0.293 HD
ENDBRANCH  14  18
BRANCH  16  20
ATOM     20  O   UNL     1      42.794  18.517 219.293  1.00  0.00    -0.502 OA
ATOM     21  H   UNL     1      42.940  17.800 219.989  1.00  0.00     0.293 HD
ENDBRANCH  16  20
BRANCH  17  22
ATOM     22  O   UNL     1      44.945  17.064 217.955  1.00  0.00    -0.504 OA
ATOM     23  H   UNL     1      45.479  17.577 218.641  1.00  0.00     0.293 HD
ENDBRANCH  17  22
ENDBRANCH   1  12
BRANCH   2  24
ATOM     24  O   UNL     1      40.938  15.975 213.899  1.00  0.00    -0.502 OA
ATOM     25  H   UNL     1      40.838  16.140 214.893  1.00  0.00     0.293 HD
ENDBRANCH   2  24
BRANCH   6  26
ATOM     26  O   UNL     1      41.669  16.699 208.673  1.00  0.00    -0.507 OA
ATOM     27  H   UNL     1      41.385  15.746 208.837  1.00  0.00     0.293 HD
ENDBRANCH   6  26
BRANCH   8  28
ATOM     28  O   UNL     1      45.420  19.670 208.728  1.00  0.00    -0.508 OA
ATOM     29  H   UNL     1      45.229  20.009 207.792  1.00  0.00     0.293 HD
ENDBRANCH   8  28
TORSDOF 7
ENDMDL
MODEL 8
REMARK VINA RESULT:    -4.816     13.358     16.351
REMARK INTER + INTRA:          -6.299
REMARK INTER:                  -5.953
REMARK INTRA:                  -0.346
REMARK UNBOUND:                -0.357
REMARK SMILES O=c1c(O)c(-c2cc(O)c(O)c(O)c2)oc2cc(O)cc(O)c12
REMARK SMILES IDX 5 1 3 2 2 3 1 4 23 5 21 6 20 7 18 8 17 9 16 10 15 11 6 12
REMARK SMILES IDX 7 13 8 14 14 15 10 16 12 17 9 18 11 20 13 22 4 24 22 26
REMARK SMILES IDX 19 28
REMARK H PARENT 9 19 11 21 13 23 4 25 22 27 19 29
REMARK Flexibility Score: inf
ROOT
ATOM      1  C   UNL     1      47.208  17.955 224.640  1.00  0.00     0.180 A 
ATOM      2  C   UNL     1      48.056  16.936 225.104  1.00  0.00     0.208 A 
ATOM      3  C   UNL     1      49.150  16.546 224.314  1.00  0.00     0.238 A 
ATOM      4  O   UNL     1      49.937  15.671 224.761  1.00  0.00    -0.285 OA
ATOM      5  C   UNL     1      49.371  17.169 223.063  1.00  0.00     0.111 A 
ATOM      6  C   UNL     1      50.424  16.825 222.162  1.00  0.00     0.134 A 
ATOM      7  C   UNL     1      50.626  17.596 221.010  1.00  0.00     0.093 A 
ATOM      8  C   UNL     1      49.777  18.654 220.693  1.00  0.00     0.123 A 
ATOM      9  C   UNL     1      48.708  18.961 221.536  1.00  0.00     0.094 A 
ATOM     10  C   UNL     1      48.502  18.234 222.711  1.00  0.00     0.146 A 
ATOM     11  O   UNL     1      47.480  18.564 223.491  1.00  0.00    -0.452 OA
ENDROOT
BRANCH   1  12
ATOM     12  C   UNL     1      46.021  18.402 225.404  1.00  0.00     0.029 A 
ATOM     13  C   UNL     1      46.170  19.376 226.401  1.00  0.00     0.062 A 
ATOM     14  C   UNL     1      45.060  19.830 227.124  1.00  0.00     0.162 A 
ATOM     15  C   UNL     1      44.738  17.914 225.113  1.00  0.00     0.062 A 
ATOM     16  C   UNL     1      43.781  19.325 226.849  1.00  0.00     0.200 A 
ATOM     17  C   UNL     1      43.618  18.361 225.825  1.00  0.00     0.162 A 
BRANCH  14  18
ATOM     18  O   UNL     1      45.220  20.787 228.125  1.00  0.00    -0.504 OA
ATOM     19  H   UNL     1      45.214  20.535 229.107  1.00  0.00     0.293 HD
ENDBRANCH  14  18
BRANCH  16  20
ATOM     20  O   UNL     1      42.709  19.806 227.605  1.00  0.00    -0.502 OA
ATOM     21  H   UNL     1      42.171  20.627 227.367  1.00  0.00     0.293 HD
ENDBRANCH  16  20
BRANCH  17  22
ATOM     22  O   UNL     1      42.374  17.828 225.481  1.00  0.00    -0.504 OA
ATOM     23  H   UNL     1      41.575  18.385 225.214  1.00  0.00     0.293 HD
ENDBRANCH  17  22
ENDBRANCH   1  12
BRANCH   2  24
ATOM     24  O   UNL     1      47.831  16.349 226.353  1.00  0.00    -0.502 OA
ATOM     25  H   UNL     1      48.419  15.611 226.722  1.00  0.00     0.293 HD
ENDBRANCH   2  24
BRANCH   6  26
ATOM     26  O   UNL     1      51.275  15.729 222.337  1.00  0.00    -0.507 OA
ATOM     27  H   UNL     1      51.063  14.786 222.048  1.00  0.00     0.293 HD
ENDBRANCH   6  26
BRANCH   8  28
ATOM     28  O   UNL     1      49.999  19.390 219.531  1.00  0.00    -0.508 OA
ATOM     29  H   UNL     1      50.177  20.387 219.561  1.00  0.00     0.293 HD
ENDBRANCH   8  28
TORSDOF 7
ENDMDL
MODEL 9
REMARK VINA RESULT:    -4.814      4.448      5.911
REMARK INTER + INTRA:          -6.296
REMARK INTER:                  -6.063
REMARK INTRA:                  -0.234
REMARK UNBOUND:                -0.357
REMARK SMILES O=c1c(O)c(-c2cc(O)c(O)c(O)c2)oc2cc(O)cc(O)c12
REMARK SMILES IDX 5 1 3 2 2 3 1 4 23 5 21 6 20 7 18 8 17 9 16 10 15 11 6 12
REMARK SMILES IDX 7 13 8 14 14 15 10 16 12 17 9 18 11 20 13 22 4 24 22 26
REMARK SMILES IDX 19 28
REMARK H PARENT 9 19 11 21 13 23 4 25 22 27 19 29
REMARK Flexibility Score: inf
ROOT
ATOM      1  C   UNL     1      42.110  18.203 215.409  1.00  0.00     0.180 A 
ATOM      2  C   UNL     1      42.263  17.672 214.117  1.00  0.00     0.208 A 
ATOM      3  C   UNL     1      41.156  17.081 213.488  1.00  0.00     0.238 A 
ATOM      4  O   UNL     1      41.286  16.656 212.310  1.00  0.00    -0.285 OA
ATOM      5  C   UNL     1      39.915  17.014 214.164  1.00  0.00     0.111 A 
ATOM      6  C   UNL     1      38.738  16.400 213.638  1.00  0.00     0.134 A 
ATOM      7  C   UNL     1      37.531  16.507 214.341  1.00  0.00     0.093 A 
ATOM      8  C   UNL     1      37.472  17.146 215.577  1.00  0.00     0.123 A 
ATOM      9  C   UNL     1      38.629  17.697 216.129  1.00  0.00     0.094 A 
ATOM     10  C   UNL     1      39.841  17.638 215.436  1.00  0.00     0.146 A 
ATOM     11  O   UNL     1      40.916  18.183 215.991  1.00  0.00    -0.452 OA
ENDROOT
BRANCH   1  12
ATOM     12  C   UNL     1      43.236  18.820 216.146  1.00  0.00     0.029 A 
ATOM     13  C   UNL     1      43.174  20.176 216.494  1.00  0.00     0.062 A 
ATOM     14  C   UNL     1      44.217  20.777 217.208  1.00  0.00     0.162 A 
ATOM     15  C   UNL     1      44.344  18.061 216.556  1.00  0.00     0.062 A 
ATOM     16  C   UNL     1      45.333  20.024 217.599  1.00  0.00     0.200 A 
ATOM     17  C   UNL     1      45.393  18.647 217.275  1.00  0.00     0.162 A 
BRANCH  14  18
ATOM     18  O   UNL     1      44.153  22.131 217.536  1.00  0.00    -0.504 OA
ATOM     19  H   UNL     1      43.917  22.439 218.473  1.00  0.00     0.293 HD
ENDBRANCH  14  18
BRANCH  16  20
ATOM     20  O   UNL     1      46.350  20.674 218.303  1.00  0.00    -0.502 OA
ATOM     21  H   UNL     1      46.289  20.929 219.278  1.00  0.00     0.293 HD
ENDBRANCH  16  20
BRANCH  17  22
ATOM     22  O   UNL     1      46.462  17.830 217.647  1.00  0.00    -0.504 OA
ATOM     23  H   UNL     1      46.779  17.713 218.598  1.00  0.00     0.293 HD
ENDBRANCH  17  22
ENDBRANCH   1  12
BRANCH   2  24
ATOM     24  O   UNL     1      43.492  17.769 213.459  1.00  0.00    -0.502 OA
ATOM     25  H   UNL     1      44.162  17.009 213.441  1.00  0.00     0.293 HD
ENDBRANCH   2  24
BRANCH   6  26
ATOM     26  O   UNL     1      38.706  15.658 212.453  1.00  0.00    -0.507 OA
ATOM     27  H   UNL     1      39.242  15.874 211.627  1.00  0.00     0.293 HD
ENDBRANCH   6  26
BRANCH   8  28
ATOM     28  O   UNL     1      36.257  17.220 216.256  1.00  0.00    -0.508 OA
ATOM     29  H   UNL     1      35.840  16.403 216.688  1.00  0.00     0.293 HD
ENDBRANCH   8  28
TORSDOF 7
ENDMDL
