MODEL 1
REMARK VINA RESULT:    -7.867      0.000      0.000
REMARK INTER + INTRA:         -11.689
REMARK INTER:                 -10.856
REMARK INTRA:                  -0.833
REMARK UNBOUND:                -0.833
REMARK SMILES C[C@@H]1C(=O)O[C@H](C)[C@@H]1C[C@@H](O)[C@](C)(O)[C@H]1CC[C@]2(O)C3=CC(=O)[C@H]4C[C@H](O)[C@H](O)C[C@@]4(C)[C@H]3CC[C@@]12C
REMARK SMILES IDX 12 1 13 2 10 3 9 4 8 5 1 6 2 7 3 8 6 9 5 10 4 11 7 12 11 13
REMARK SMILES IDX 15 15 16 16 36 17 17 18 18 19 35 20 37 21 20 22 34 23 33 24
REMARK SMILES IDX 21 25 31 26 22 27 24 28 30 29 32 30 23 31 25 32 28 33 26 34
REMARK SMILES IDX 19 35 29 37 27 39 14 41
REMARK H PARENT 11 14 19 36 29 38 27 40 14 42
REMARK Flexibility Score: inf
ROOT
ATOM      1  C   UNL     1      16.735  26.230  -5.380  1.00  0.00     0.091 C 
ATOM      2  C   UNL     1      15.305  26.610  -4.907  1.00  0.00     0.045 C 
ENDROOT
BRANCH   1   3
ATOM      3  C   UNL     1      17.675  26.330  -4.104  1.00  0.00     0.146 C 
BRANCH   3   4
ATOM      4  C   UNL     1      16.965  26.831  -2.798  1.00  0.00     0.043 C 
BRANCH   4   5
ATOM      5  C   UNL     1      17.306  25.961  -1.544  1.00  0.00     0.046 C 
ATOM      6  C   UNL     1      14.866  26.356  -0.660  1.00  0.00     0.020 C 
ATOM      7  C   UNL     1      16.100  25.438  -0.710  1.00  0.00     0.103 C 
ATOM      8  C   UNL     1      16.724  25.314   0.633  1.00  0.00     0.309 C 
ATOM      9  C   UNL     1      18.300  26.570  -0.501  1.00  0.00     0.177 C 
ATOM     10  O   UNL     1      17.970  25.904   0.709  1.00  0.00    -0.462 OA
ATOM     11  O   UNL     1      16.194  24.722   1.610  1.00  0.00    -0.252 OA
ATOM     12  C   UNL     1      18.172  28.084  -0.246  1.00  0.00     0.053 C 
ENDBRANCH   4   5
ENDBRANCH   3   4
BRANCH   3  13
ATOM     13  O   UNL     1      18.360  25.127  -3.854  1.00  0.00    -0.390 OA
ATOM     14  H   UNL     1      18.075  24.456  -4.523  1.00  0.00     0.211 HD
ENDBRANCH   3  13
ENDBRANCH   1   3
BRANCH   1  15
ATOM     15  C   UNL     1      17.104  27.216  -6.584  1.00  0.00     0.032 C 
ATOM     16  C   UNL     1      17.230  28.724  -6.234  1.00  0.00     0.010 C 
ATOM     17  C   UNL     1      18.286  26.908  -7.603  1.00  0.00     0.006 C 
ATOM     18  C   UNL     1      18.229  29.303  -7.240  1.00  0.00     0.041 C 
ATOM     19  C   UNL     1      19.208  28.149  -7.471  1.00  0.00     0.092 C 
ATOM     20  C   UNL     1      19.177  25.640  -7.416  1.00  0.00     0.011 C 
ATOM     21  C   UNL     1      17.618  26.794  -9.022  1.00  0.00     0.015 C 
ATOM     22  C   UNL     1      20.151  28.201  -8.665  1.00  0.00    -0.031 C 
ATOM     23  C   UNL     1      20.602  25.741  -8.056  1.00  0.00     0.009 C 
ATOM     24  C   UNL     1      20.847  26.904  -9.079  1.00  0.00     0.025 C 
ATOM     25  C   UNL     1      20.435  29.344  -9.301  1.00  0.00     0.050 C 
ATOM     26  C   UNL     1      22.360  27.151  -9.451  1.00  0.00    -0.013 C 
ATOM     27  C   UNL     1      21.445  29.383 -10.369  1.00  0.00     0.159 C 
ATOM     28  C   UNL     1      22.398  28.221 -10.608  1.00  0.00     0.070 C 
ATOM     29  C   UNL     1      23.178  27.646  -8.207  1.00  0.00     0.042 C 
ATOM     30  C   UNL     1      22.955  25.812  -9.975  1.00  0.00     0.013 C 
ATOM     31  O   UNL     1      21.479  30.391 -11.124  1.00  0.00    -0.295 OA
ATOM     32  C   UNL     1      23.825  28.739 -10.893  1.00  0.00     0.047 C 
ATOM     33  C   UNL     1      24.573  28.218  -8.536  1.00  0.00     0.143 C 
ATOM     34  C   UNL     1      24.482  29.305  -9.629  1.00  0.00     0.143 C 
BRANCH  19  35
ATOM     35  O   UNL     1      19.997  28.033  -6.303  1.00  0.00    -0.385 OA
ATOM     36  H   UNL     1      20.347  28.941  -6.078  1.00  0.00     0.211 HD
ENDBRANCH  19  35
BRANCH  33  37
ATOM     37  O   UNL     1      25.453  27.187  -8.912  1.00  0.00    -0.390 OA
ATOM     38  H   UNL     1      26.227  27.616  -9.360  1.00  0.00     0.211 HD
ENDBRANCH  33  37
BRANCH  34  39
ATOM     39  O   UNL     1      25.759  29.802  -9.948  1.00  0.00    -0.390 OA
ATOM     40  H   UNL     1      26.385  29.439  -9.273  1.00  0.00     0.211 HD
ENDBRANCH  34  39
ENDBRANCH   1  15
BRANCH   1  41
ATOM     41  O   UNL     1      16.626  24.913  -5.880  1.00  0.00    -0.387 OA
ATOM     42  H   UNL     1      17.092  24.832  -6.751  1.00  0.00     0.211 HD
ENDBRANCH   1  41
TORSDOF 9
ENDMDL
MODEL 2
REMARK VINA RESULT:    -7.605      3.500      8.778
REMARK INTER + INTRA:         -11.329
REMARK INTER:                 -10.477
REMARK INTRA:                  -0.852
REMARK UNBOUND:                -0.833
REMARK SMILES C[C@@H]1C(=O)O[C@H](C)[C@@H]1C[C@@H](O)[C@](C)(O)[C@H]1CC[C@]2(O)C3=CC(=O)[C@H]4C[C@H](O)[C@H](O)C[C@@]4(C)[C@H]3CC[C@@]12C
REMARK SMILES IDX 12 1 13 2 10 3 9 4 8 5 1 6 2 7 3 8 6 9 5 10 4 11 7 12 11 13
REMARK SMILES IDX 15 15 16 16 36 17 17 18 18 19 35 20 37 21 20 22 34 23 33 24
REMARK SMILES IDX 21 25 31 26 22 27 24 28 30 29 32 30 23 31 25 32 28 33 26 34
REMARK SMILES IDX 19 35 29 37 27 39 14 41
REMARK H PARENT 11 14 19 36 29 38 27 40 14 42
REMARK Flexibility Score: inf
ROOT
ATOM      1  C   UNL     1      16.931  27.207  -9.082  1.00  0.00     0.091 C 
ATOM      2  C   UNL     1      16.618  28.700  -8.791  1.00  0.00     0.045 C 
ENDROOT
BRANCH   1   3
ATOM      3  C   UNL     1      15.532  26.480  -9.268  1.00  0.00     0.146 C 
BRANCH   3   4
ATOM      4  C   UNL     1      14.374  27.398  -9.794  1.00  0.00     0.043 C 
BRANCH   4   5
ATOM      5  C   UNL     1      13.084  27.323  -8.914  1.00  0.00     0.046 C 
ATOM      6  C   UNL     1      11.640  27.283 -11.106  1.00  0.00     0.020 C 
ATOM      7  C   UNL     1      11.777  26.872  -9.629  1.00  0.00     0.103 C 
ATOM      8  C   UNL     1      10.755  27.552  -8.792  1.00  0.00     0.309 C 
ATOM      9  C   UNL     1      12.696  28.603  -8.105  1.00  0.00     0.177 C 
ATOM     10  O   UNL     1      11.295  28.471  -7.915  1.00  0.00    -0.462 OA
ATOM     11  O   UNL     1       9.519  27.318  -8.852  1.00  0.00    -0.252 OA
ATOM     12  C   UNL     1      12.943  29.951  -8.809  1.00  0.00     0.053 C 
ENDBRANCH   4   5
ENDBRANCH   3   4
BRANCH   3  13
ATOM     13  O   UNL     1      15.635  25.325 -10.064  1.00  0.00    -0.390 OA
ATOM     14  H   UNL     1      16.341  25.470 -10.742  1.00  0.00     0.211 HD
ENDBRANCH   3  13
ENDBRANCH   1   3
BRANCH   1  15
ATOM     15  C   UNL     1      17.825  26.675  -7.868  1.00  0.00     0.032 C 
ATOM     16  C   UNL     1      19.114  27.480  -7.545  1.00  0.00     0.010 C 
ATOM     17  C   UNL     1      17.199  26.280  -6.459  1.00  0.00     0.006 C 
ATOM     18  C   UNL     1      19.367  27.280  -6.049  1.00  0.00     0.041 C 
ATOM     19  C   UNL     1      17.957  27.193  -5.459  1.00  0.00     0.092 C 
ATOM     20  C   UNL     1      15.671  26.465  -6.198  1.00  0.00     0.011 C 
ATOM     21  C   UNL     1      17.518  24.754  -6.253  1.00  0.00     0.015 C 
ATOM     22  C   UNL     1      17.773  26.651  -4.049  1.00  0.00    -0.031 C 
ATOM     23  C   UNL     1      15.280  26.623  -4.690  1.00  0.00     0.009 C 
ATOM     24  C   UNL     1      16.363  26.236  -3.625  1.00  0.00     0.025 C 
ATOM     25  C   UNL     1      18.778  26.599  -3.167  1.00  0.00     0.050 C 
ATOM     26  C   UNL     1      16.040  26.702  -2.153  1.00  0.00    -0.013 C 
ATOM     27  C   UNL     1      18.542  26.189  -1.775  1.00  0.00     0.159 C 
ATOM     28  C   UNL     1      17.135  26.079  -1.204  1.00  0.00     0.070 C 
ATOM     29  C   UNL     1      16.030  28.266  -2.041  1.00  0.00     0.042 C 
ATOM     30  C   UNL     1      14.645  26.136  -1.760  1.00  0.00     0.013 C 
ATOM     31  O   UNL     1      19.535  25.881  -1.064  1.00  0.00    -0.295 OA
ATOM     32  C   UNL     1      17.083  26.660   0.226  1.00  0.00     0.047 C 
ATOM     33  C   UNL     1      16.045  28.813  -0.597  1.00  0.00     0.143 C 
ATOM     34  C   UNL     1      17.198  28.189   0.219  1.00  0.00     0.143 C 
BRANCH  19  35
ATOM     35  O   UNL     1      17.409  28.496  -5.496  1.00  0.00    -0.385 OA
ATOM     36  H   UNL     1      16.415  28.412  -5.443  1.00  0.00     0.211 HD
ENDBRANCH  19  35
BRANCH  33  37
ATOM     37  O   UNL     1      14.802  28.595   0.026  1.00  0.00    -0.390 OA
ATOM     38  H   UNL     1      14.255  28.058  -0.603  1.00  0.00     0.211 HD
ENDBRANCH  33  37
BRANCH  34  39
ATOM     39  O   UNL     1      17.190  28.665   1.543  1.00  0.00    -0.390 OA
ATOM     40  H   UNL     1      17.153  27.870   2.133  1.00  0.00     0.211 HD
ENDBRANCH  34  39
ENDBRANCH   1  15
BRANCH   1  41
ATOM     41  O   UNL     1      17.710  27.210 -10.260  1.00  0.00    -0.387 OA
ATOM     42  H   UNL     1      17.205  26.808 -11.012  1.00  0.00     0.211 HD
ENDBRANCH   1  41
TORSDOF 9
ENDMDL
MODEL 3
REMARK VINA RESULT:    -7.398      2.510      3.832
REMARK INTER + INTRA:         -11.042
REMARK INTER:                 -10.892
REMARK INTRA:                  -0.149
REMARK UNBOUND:                -0.833
REMARK SMILES C[C@@H]1C(=O)O[C@H](C)[C@@H]1C[C@@H](O)[C@](C)(O)[C@H]1CC[C@]2(O)C3=CC(=O)[C@H]4C[C@H](O)[C@H](O)C[C@@]4(C)[C@H]3CC[C@@]12C
REMARK SMILES IDX 12 1 13 2 10 3 9 4 8 5 1 6 2 7 3 8 6 9 5 10 4 11 7 12 11 13
REMARK SMILES IDX 15 15 16 16 36 17 17 18 18 19 35 20 37 21 20 22 34 23 33 24
REMARK SMILES IDX 21 25 31 26 22 27 24 28 30 29 32 30 23 31 25 32 28 33 26 34
REMARK SMILES IDX 19 35 29 37 27 39 14 41
REMARK H PARENT 11 14 19 36 29 38 27 40 14 42
REMARK Flexibility Score: inf
ROOT
ATOM      1  C   UNL     1      16.112  26.857  -5.404  1.00  0.00     0.091 C 
ATOM      2  C   UNL     1      15.099  27.525  -6.374  1.00  0.00     0.045 C 
ENDROOT
BRANCH   1   3
ATOM      3  C   UNL     1      15.746  27.369  -3.946  1.00  0.00     0.146 C 
BRANCH   3   4
ATOM      4  C   UNL     1      16.484  26.624  -2.779  1.00  0.00     0.043 C 
BRANCH   4   5
ATOM      5  C   UNL     1      16.229  27.273  -1.380  1.00  0.00     0.046 C 
ATOM      6  C   UNL     1      18.608  26.465  -0.619  1.00  0.00     0.020 C 
ATOM      7  C   UNL     1      17.478  27.501  -0.480  1.00  0.00     0.103 C 
ATOM      8  C   UNL     1      16.862  27.436   0.871  1.00  0.00     0.309 C 
ATOM      9  C   UNL     1      15.170  26.588  -0.456  1.00  0.00     0.177 C 
ATOM     10  O   UNL     1      15.560  26.976   0.852  1.00  0.00    -0.462 OA
ATOM     11  O   UNL     1      17.446  27.774   1.934  1.00  0.00    -0.252 OA
ATOM     12  C   UNL     1      15.135  25.048  -0.492  1.00  0.00     0.053 C 
ENDBRANCH   4   5
ENDBRANCH   3   4
BRANCH   3  13
ATOM     13  O   UNL     1      15.911  28.759  -3.814  1.00  0.00    -0.390 OA
ATOM     14  H   UNL     1      16.759  28.934  -3.336  1.00  0.00     0.211 HD
ENDBRANCH   3  13
ENDBRANCH   1   3
BRANCH   1  15
ATOM     15  C   UNL     1      17.575  27.244  -5.921  1.00  0.00     0.032 C 
ATOM     16  C   UNL     1      18.715  27.220  -4.866  1.00  0.00     0.010 C 
ATOM     17  C   UNL     1      18.200  26.624  -7.246  1.00  0.00     0.006 C 
ATOM     18  C   UNL     1      19.995  26.900  -5.642  1.00  0.00     0.041 C 
ATOM     19  C   UNL     1      19.512  25.960  -6.750  1.00  0.00     0.092 C 
ATOM     20  C   UNL     1      17.412  25.553  -8.062  1.00  0.00     0.011 C 
ATOM     21  C   UNL     1      18.460  27.838  -8.213  1.00  0.00     0.015 C 
ATOM     22  C   UNL     1      20.418  25.688  -7.943  1.00  0.00    -0.031 C 
ATOM     23  C   UNL     1      18.303  24.614  -8.944  1.00  0.00     0.009 C 
ATOM     24  C   UNL     1      19.787  25.056  -9.185  1.00  0.00     0.025 C 
ATOM     25  C   UNL     1      21.736  25.916  -7.905  1.00  0.00     0.050 C 
ATOM     26  C   UNL     1      20.717  23.943  -9.804  1.00  0.00    -0.013 C 
ATOM     27  C   UNL     1      22.602  25.527  -9.026  1.00  0.00     0.159 C 
ATOM     28  C   UNL     1      22.106  24.612 -10.138  1.00  0.00     0.070 C 
ATOM     29  C   UNL     1      20.902  22.741  -8.814  1.00  0.00     0.042 C 
ATOM     30  C   UNL     1      20.063  23.443 -11.124  1.00  0.00     0.013 C 
ATOM     31  O   UNL     1      23.767  26.005  -9.079  1.00  0.00    -0.295 OA
ATOM     32  C   UNL     1      23.190  23.578 -10.514  1.00  0.00     0.047 C 
ATOM     33  C   UNL     1      22.038  21.763  -9.185  1.00  0.00     0.143 C 
ATOM     34  C   UNL     1      23.364  22.519  -9.421  1.00  0.00     0.143 C 
BRANCH  19  35
ATOM     35  O   UNL     1      19.215  24.718  -6.142  1.00  0.00    -0.385 OA
ATOM     36  H   UNL     1      19.628  23.998  -6.698  1.00  0.00     0.211 HD
ENDBRANCH  19  35
BRANCH  33  37
ATOM     37  O   UNL     1      21.680  20.996 -10.310  1.00  0.00    -0.390 OA
ATOM     38  H   UNL     1      21.313  21.626 -10.983  1.00  0.00     0.211 HD
ENDBRANCH  33  37
BRANCH  34  39
ATOM     39  O   UNL     1      24.388  21.629  -9.790  1.00  0.00    -0.390 OA
ATOM     40  H   UNL     1      24.410  20.916  -9.103  1.00  0.00     0.211 HD
ENDBRANCH  34  39
ENDBRANCH   1  15
BRANCH   1  41
ATOM     41  O   UNL     1      15.920  25.466  -5.562  1.00  0.00    -0.387 OA
ATOM     42  H   UNL     1      15.515  25.269  -6.444  1.00  0.00     0.211 HD
ENDBRANCH   1  41
TORSDOF 9
ENDMDL
MODEL 4
REMARK VINA RESULT:    -7.300      3.538      9.228
REMARK INTER + INTRA:         -10.907
REMARK INTER:                 -10.398
REMARK INTRA:                  -0.508
REMARK UNBOUND:                -0.833
REMARK SMILES C[C@@H]1C(=O)O[C@H](C)[C@@H]1C[C@@H](O)[C@](C)(O)[C@H]1CC[C@]2(O)C3=CC(=O)[C@H]4C[C@H](O)[C@H](O)C[C@@]4(C)[C@H]3CC[C@@]12C
REMARK SMILES IDX 12 1 13 2 10 3 9 4 8 5 1 6 2 7 3 8 6 9 5 10 4 11 7 12 11 13
REMARK SMILES IDX 15 15 16 16 36 17 17 18 18 19 35 20 37 21 20 22 34 23 33 24
REMARK SMILES IDX 21 25 31 26 22 27 24 28 30 29 32 30 23 31 25 32 28 33 26 34
REMARK SMILES IDX 19 35 29 37 27 39 14 41
REMARK H PARENT 11 14 19 36 29 38 27 40 14 42
REMARK Flexibility Score: inf
ROOT
ATOM      1  C   UNL     1      19.896  26.862  -6.461  1.00  0.00     0.091 C 
ATOM      2  C   UNL     1      19.143  28.118  -5.944  1.00  0.00     0.045 C 
ENDROOT
BRANCH   1   3
ATOM      3  C   UNL     1      21.079  27.391  -7.380  1.00  0.00     0.146 C 
BRANCH   3   4
ATOM      4  C   UNL     1      21.314  26.567  -8.694  1.00  0.00     0.043 C 
BRANCH   4   5
ATOM      5  C   UNL     1      22.731  25.910  -8.760  1.00  0.00     0.046 C 
ATOM      6  C   UNL     1      23.642  28.087  -9.910  1.00  0.00     0.020 C 
ATOM      7  C   UNL     1      23.932  26.866  -9.019  1.00  0.00     0.103 C 
ATOM      8  C   UNL     1      24.886  25.940  -9.681  1.00  0.00     0.309 C 
ATOM      9  C   UNL     1      22.922  24.722  -9.758  1.00  0.00     0.177 C 
ATOM     10  O   UNL     1      24.314  24.734 -10.035  1.00  0.00    -0.462 OA
ATOM     11  O   UNL     1      26.099  26.204  -9.895  1.00  0.00    -0.252 OA
ATOM     12  C   UNL     1      22.181  24.842 -11.104  1.00  0.00     0.053 C 
ENDBRANCH   4   5
ENDBRANCH   3   4
BRANCH   3  13
ATOM     13  O   UNL     1      20.946  28.758  -7.681  1.00  0.00    -0.390 OA
ATOM     14  H   UNL     1      20.978  28.871  -8.664  1.00  0.00     0.211 HD
ENDBRANCH   3  13
ENDBRANCH   1   3
BRANCH   1  15
ATOM     15  C   UNL     1      18.815  25.941  -7.196  1.00  0.00     0.032 C 
ATOM     16  C   UNL     1      18.073  24.899  -6.314  1.00  0.00     0.010 C 
ATOM     17  C   UNL     1      17.714  26.538  -8.177  1.00  0.00     0.006 C 
ATOM     18  C   UNL     1      16.706  24.694  -6.972  1.00  0.00     0.041 C 
ATOM     19  C   UNL     1      16.376  26.076  -7.542  1.00  0.00     0.092 C 
ATOM     20  C   UNL     1      17.617  28.079  -8.406  1.00  0.00     0.011 C 
ATOM     21  C   UNL     1      17.981  25.882  -9.581  1.00  0.00     0.015 C 
ATOM     22  C   UNL     1      15.262  26.211  -8.570  1.00  0.00    -0.031 C 
ATOM     23  C   UNL     1      16.210  28.585  -8.870  1.00  0.00     0.009 C 
ATOM     24  C   UNL     1      15.194  27.506  -9.381  1.00  0.00     0.025 C 
ATOM     25  C   UNL     1      14.318  25.275  -8.727  1.00  0.00     0.050 C 
ATOM     26  C   UNL     1      13.710  28.015  -9.537  1.00  0.00    -0.013 C 
ATOM     27  C   UNL     1      13.185  25.489  -9.638  1.00  0.00     0.159 C 
ATOM     28  C   UNL     1      12.879  26.862 -10.221  1.00  0.00     0.070 C 
ATOM     29  C   UNL     1      13.091  28.399  -8.148  1.00  0.00     0.042 C 
ATOM     30  C   UNL     1      13.719  29.259 -10.473  1.00  0.00     0.013 C 
ATOM     31  O   UNL     1      12.486  24.495  -9.971  1.00  0.00    -0.295 OA
ATOM     32  C   UNL     1      11.359  27.132 -10.203  1.00  0.00     0.047 C 
ATOM     33  C   UNL     1      11.560  28.597  -8.153  1.00  0.00     0.143 C 
ATOM     34  C   UNL     1      10.846  27.380  -8.779  1.00  0.00     0.143 C 
BRANCH  19  35
ATOM     35  O   UNL     1      16.056  26.912  -6.447  1.00  0.00    -0.385 OA
ATOM     36  H   UNL     1      16.911  27.185  -6.010  1.00  0.00     0.211 HD
ENDBRANCH  19  35
BRANCH  33  37
ATOM     37  O   UNL     1      11.220  29.789  -8.820  1.00  0.00    -0.390 OA
ATOM     38  H   UNL     1      11.824  29.865  -9.603  1.00  0.00     0.211 HD
ENDBRANCH  33  37
BRANCH  34  39
ATOM     39  O   UNL     1       9.454  27.578  -8.811  1.00  0.00    -0.390 OA
ATOM     40  H   UNL     1       9.267  28.183  -9.573  1.00  0.00     0.211 HD
ENDBRANCH  34  39
ENDBRANCH   1  15
BRANCH   1  41
ATOM     41  O   UNL     1      20.356  26.198  -5.303  1.00  0.00    -0.387 OA
ATOM     42  H   UNL     1      19.934  26.579  -4.492  1.00  0.00     0.211 HD
ENDBRANCH   1  41
TORSDOF 9
ENDMDL
MODEL 5
REMARK VINA RESULT:    -7.147      4.176      7.928
REMARK INTER + INTRA:         -10.696
REMARK INTER:                 -10.512
REMARK INTRA:                  -0.184
REMARK UNBOUND:                -0.833
REMARK SMILES C[C@@H]1C(=O)O[C@H](C)[C@@H]1C[C@@H](O)[C@](C)(O)[C@H]1CC[C@]2(O)C3=CC(=O)[C@H]4C[C@H](O)[C@H](O)C[C@@]4(C)[C@H]3CC[C@@]12C
REMARK SMILES IDX 12 1 13 2 10 3 9 4 8 5 1 6 2 7 3 8 6 9 5 10 4 11 7 12 11 13
REMARK SMILES IDX 15 15 16 16 36 17 17 18 18 19 35 20 37 21 20 22 34 23 33 24
REMARK SMILES IDX 21 25 31 26 22 27 24 28 30 29 32 30 23 31 25 32 28 33 26 34
REMARK SMILES IDX 19 35 29 37 27 39 14 41
REMARK H PARENT 11 14 19 36 29 38 27 40 14 42
REMARK Flexibility Score: inf
ROOT
ATOM      1  C   UNL     1      18.185  27.575  -5.996  1.00  0.00     0.091 C 
ATOM      2  C   UNL     1      19.130  28.506  -6.803  1.00  0.00     0.045 C 
ENDROOT
BRANCH   1   3
ATOM      3  C   UNL     1      19.066  26.923  -4.846  1.00  0.00     0.146 C 
BRANCH   3   4
ATOM      4  C   UNL     1      18.273  26.029  -3.831  1.00  0.00     0.043 C 
BRANCH   4   5
ATOM      5  C   UNL     1      18.046  26.724  -2.449  1.00  0.00     0.046 C 
ATOM      6  C   UNL     1      18.388  24.402  -1.273  1.00  0.00     0.020 C 
ATOM      7  C   UNL     1      18.504  25.934  -1.189  1.00  0.00     0.103 C 
ATOM      8  C   UNL     1      17.576  26.481  -0.166  1.00  0.00     0.309 C 
ATOM      9  C   UNL     1      16.598  27.218  -2.127  1.00  0.00     0.177 C 
ATOM     10  O   UNL     1      16.555  27.237  -0.709  1.00  0.00    -0.462 OA
ATOM     11  O   UNL     1      17.698  26.299   1.074  1.00  0.00    -0.252 OA
ATOM     12  C   UNL     1      15.449  26.314  -2.614  1.00  0.00     0.053 C 
ENDBRANCH   4   5
ENDBRANCH   3   4
BRANCH   3  13
ATOM     13  O   UNL     1      20.168  26.216  -5.359  1.00  0.00    -0.390 OA
ATOM     14  H   UNL     1      20.937  26.341  -4.748  1.00  0.00     0.211 HD
ENDBRANCH   3  13
ENDBRANCH   1   3
BRANCH   1  15
ATOM     15  C   UNL     1      17.545  26.545  -7.038  1.00  0.00     0.032 C 
ATOM     16  C   UNL     1      17.065  25.183  -6.465  1.00  0.00     0.010 C 
ATOM     17  C   UNL     1      16.441  26.981  -8.097  1.00  0.00     0.006 C 
ATOM     18  C   UNL     1      15.922  24.727  -7.376  1.00  0.00     0.041 C 
ATOM     19  C   UNL     1      15.248  26.040  -7.782  1.00  0.00     0.092 C 
ATOM     20  C   UNL     1      15.895  28.443  -8.107  1.00  0.00     0.011 C 
ATOM     21  C   UNL     1      17.069  26.716  -9.514  1.00  0.00     0.015 C 
ATOM     22  C   UNL     1      14.281  26.048  -8.959  1.00  0.00    -0.031 C 
ATOM     23  C   UNL     1      14.468  28.605  -8.731  1.00  0.00     0.009 C 
ATOM     24  C   UNL     1      13.911  27.401  -9.567  1.00  0.00     0.025 C 
ATOM     25  C   UNL     1      13.704  24.930  -9.416  1.00  0.00     0.050 C 
ATOM     26  C   UNL     1      12.372  27.484  -9.903  1.00  0.00    -0.013 C 
ATOM     27  C   UNL     1      12.681  24.984 -10.470  1.00  0.00     0.159 C 
ATOM     28  C   UNL     1      12.034  26.298 -10.886  1.00  0.00     0.070 C 
ATOM     29  C   UNL     1      11.500  27.396  -8.603  1.00  0.00     0.042 C 
ATOM     30  C   UNL     1      12.105  28.836 -10.627  1.00  0.00     0.013 C 
ATOM     31  O   UNL     1      12.376  23.916 -11.064  1.00  0.00    -0.295 OA
ATOM     32  C   UNL     1      10.515  26.112 -11.095  1.00  0.00     0.047 C 
ATOM     33  C   UNL     1       9.997  27.144  -8.846  1.00  0.00     0.143 C 
ATOM     34  C   UNL     1       9.782  25.919  -9.763  1.00  0.00     0.143 C 
BRANCH  19  35
ATOM     35  O   UNL     1      14.551  26.519  -6.649  1.00  0.00    -0.385 OA
ATOM     36  H   UNL     1      15.082  26.278  -5.838  1.00  0.00     0.211 HD
ENDBRANCH  19  35
BRANCH  33  37
ATOM     37  O   UNL     1       9.384  28.294  -9.377  1.00  0.00    -0.390 OA
ATOM     38  H   UNL     1       8.505  28.388  -8.926  1.00  0.00     0.211 HD
ENDBRANCH  33  37
BRANCH  34  39
ATOM     39  O   UNL     1       8.413  25.712 -10.008  1.00  0.00    -0.390 OA
ATOM     40  H   UNL     1       8.145  26.362 -10.707  1.00  0.00     0.211 HD
ENDBRANCH  34  39
ENDBRANCH   1  15
BRANCH   1  41
ATOM     41  O   UNL     1      17.167  28.417  -5.496  1.00  0.00    -0.387 OA
ATOM     42  H   UNL     1      17.295  29.346  -5.816  1.00  0.00     0.211 HD
ENDBRANCH   1  41
TORSDOF 9
ENDMDL
MODEL 6
REMARK VINA RESULT:    -7.112      1.644      9.104
REMARK INTER + INTRA:         -10.648
REMARK INTER:                  -9.993
REMARK INTRA:                  -0.655
REMARK UNBOUND:                -0.833
REMARK SMILES C[C@@H]1C(=O)O[C@H](C)[C@@H]1C[C@@H](O)[C@](C)(O)[C@H]1CC[C@]2(O)C3=CC(=O)[C@H]4C[C@H](O)[C@H](O)C[C@@]4(C)[C@H]3CC[C@@]12C
REMARK SMILES IDX 12 1 13 2 10 3 9 4 8 5 1 6 2 7 3 8 6 9 5 10 4 11 7 12 11 13
REMARK SMILES IDX 15 15 16 16 36 17 17 18 18 19 35 20 37 21 20 22 34 23 33 24
REMARK SMILES IDX 21 25 31 26 22 27 24 28 30 29 32 30 23 31 25 32 28 33 26 34
REMARK SMILES IDX 19 35 29 37 27 39 14 41
REMARK H PARENT 11 14 19 36 29 38 27 40 14 42
REMARK Flexibility Score: inf
ROOT
ATOM      1  C   UNL     1      18.950  26.636  -8.785  1.00  0.00     0.091 C 
ATOM      2  C   UNL     1      19.340  25.158  -8.511  1.00  0.00     0.045 C 
ENDROOT
BRANCH   1   3
ATOM      3  C   UNL     1      20.289  27.484  -8.681  1.00  0.00     0.146 C 
BRANCH   3   4
ATOM      4  C   UNL     1      21.529  26.854  -9.406  1.00  0.00     0.043 C 
BRANCH   4   5
ATOM      5  C   UNL     1      22.865  27.053  -8.619  1.00  0.00     0.046 C 
ATOM      6  C   UNL     1      23.518  28.966 -10.296  1.00  0.00     0.020 C 
ATOM      7  C   UNL     1      23.633  28.383  -8.876  1.00  0.00     0.103 C 
ATOM      8  C   UNL     1      25.028  27.957  -8.589  1.00  0.00     0.309 C 
ATOM      9  C   UNL     1      23.940  25.923  -8.737  1.00  0.00     0.177 C 
ATOM     10  O   UNL     1      25.163  26.589  -8.463  1.00  0.00    -0.462 OA
ATOM     11  O   UNL     1      25.998  28.749  -8.456  1.00  0.00    -0.252 OA
ATOM     12  C   UNL     1      24.074  25.258 -10.120  1.00  0.00     0.053 C 
ENDBRANCH   4   5
ENDBRANCH   3   4
BRANCH   3  13
ATOM     13  O   UNL     1      20.109  28.815  -9.097  1.00  0.00    -0.390 OA
ATOM     14  H   UNL     1      20.071  28.836 -10.086  1.00  0.00     0.211 HD
ENDBRANCH   3  13
ENDBRANCH   1   3
BRANCH   1  15
ATOM     15  C   UNL     1      17.811  27.020  -7.731  1.00  0.00     0.032 C 
ATOM     16  C   UNL     1      16.498  26.193  -7.792  1.00  0.00     0.010 C 
ATOM     17  C   UNL     1      18.119  27.228  -6.184  1.00  0.00     0.006 C 
ATOM     18  C   UNL     1      15.930  26.205  -6.370  1.00  0.00     0.041 C 
ATOM     19  C   UNL     1      17.183  26.204  -5.489  1.00  0.00     0.092 C 
ATOM     20  C   UNL     1      19.560  26.996  -5.630  1.00  0.00     0.011 C 
ATOM     21  C   UNL     1      17.737  28.719  -5.861  1.00  0.00     0.015 C 
ATOM     22  C   UNL     1      17.056  26.562  -4.015  1.00  0.00    -0.031 C 
ATOM     23  C   UNL     1      19.627  26.646  -4.106  1.00  0.00     0.009 C 
ATOM     24  C   UNL     1      18.337  26.906  -3.254  1.00  0.00     0.025 C 
ATOM     25  C   UNL     1      15.886  26.513  -3.366  1.00  0.00     0.050 C 
ATOM     26  C   UNL     1      18.350  26.255  -1.817  1.00  0.00    -0.013 C 
ATOM     27  C   UNL     1      15.816  26.741  -1.916  1.00  0.00     0.159 C 
ATOM     28  C   UNL     1      17.069  26.764  -1.051  1.00  0.00     0.070 C 
ATOM     29  C   UNL     1      18.363  24.689  -1.902  1.00  0.00     0.042 C 
ATOM     30  C   UNL     1      19.621  26.753  -1.070  1.00  0.00     0.013 C 
ATOM     31  O   UNL     1      14.690  26.967  -1.399  1.00  0.00    -0.295 OA
ATOM     32  C   UNL     1      16.827  26.007   0.273  1.00  0.00     0.047 C 
ATOM     33  C   UNL     1      18.053  23.965  -0.575  1.00  0.00     0.143 C 
ATOM     34  C   UNL     1      16.743  24.493   0.051  1.00  0.00     0.143 C 
BRANCH  19  35
ATOM     35  O   UNL     1      17.748  24.910  -5.572  1.00  0.00    -0.385 OA
ATOM     36  H   UNL     1      17.826  24.550  -4.644  1.00  0.00     0.211 HD
ENDBRANCH  19  35
BRANCH  33  37
ATOM     37  O   UNL     1      19.132  24.090   0.319  1.00  0.00    -0.390 OA
ATOM     38  H   UNL     1      19.030  23.375   0.998  1.00  0.00     0.211 HD
ENDBRANCH  33  37
BRANCH  34  39
ATOM     39  O   UNL     1      16.480  23.854   1.276  1.00  0.00    -0.390 OA
ATOM     40  H   UNL     1      15.805  23.152   1.094  1.00  0.00     0.211 HD
ENDBRANCH  34  39
ENDBRANCH   1  15
BRANCH   1  41
ATOM     41  O   UNL     1      18.396  26.643 -10.085  1.00  0.00    -0.387 OA
ATOM     42  H   UNL     1      19.112  26.679 -10.768  1.00  0.00     0.211 HD
ENDBRANCH   1  41
TORSDOF 9
ENDMDL
MODEL 7
REMARK VINA RESULT:    -6.950      3.331      5.338
REMARK INTER + INTRA:         -10.425
REMARK INTER:                  -9.594
REMARK INTRA:                  -0.831
REMARK UNBOUND:                -0.833
REMARK SMILES C[C@@H]1C(=O)O[C@H](C)[C@@H]1C[C@@H](O)[C@](C)(O)[C@H]1CC[C@]2(O)C3=CC(=O)[C@H]4C[C@H](O)[C@H](O)C[C@@]4(C)[C@H]3CC[C@@]12C
REMARK SMILES IDX 12 1 13 2 10 3 9 4 8 5 1 6 2 7 3 8 6 9 5 10 4 11 7 12 11 13
REMARK SMILES IDX 15 15 16 16 36 17 17 18 18 19 35 20 37 21 20 22 34 23 33 24
REMARK SMILES IDX 21 25 31 26 22 27 24 28 30 29 32 30 23 31 25 32 28 33 26 34
REMARK SMILES IDX 19 35 29 37 27 39 14 41
REMARK H PARENT 11 14 19 36 29 38 27 40 14 42
REMARK Flexibility Score: inf
ROOT
ATOM      1  C   UNL     1      16.197  26.431  -6.893  1.00  0.00     0.091 C 
ATOM      2  C   UNL     1      15.963  25.199  -7.809  1.00  0.00     0.045 C 
ENDROOT
BRANCH   1   3
ATOM      3  C   UNL     1      14.764  26.904  -6.396  1.00  0.00     0.146 C 
BRANCH   3   4
ATOM      4  C   UNL     1      13.626  26.805  -7.471  1.00  0.00     0.043 C 
BRANCH   4   5
ATOM      5  C   UNL     1      13.291  28.179  -8.136  1.00  0.00     0.046 C 
ATOM      6  C   UNL     1      10.897  27.269  -8.712  1.00  0.00     0.020 C 
ATOM      7  C   UNL     1      11.785  28.484  -8.387  1.00  0.00     0.103 C 
ATOM      8  C   UNL     1      11.878  29.400  -9.553  1.00  0.00     0.309 C 
ATOM      9  C   UNL     1      14.014  28.517  -9.481  1.00  0.00     0.177 C 
ATOM     10  O   UNL     1      13.141  29.443 -10.111  1.00  0.00    -0.462 OA
ATOM     11  O   UNL     1      10.919  30.087  -9.994  1.00  0.00    -0.252 OA
ATOM     12  C   UNL     1      14.222  27.340 -10.453  1.00  0.00     0.053 C 
ENDBRANCH   4   5
ENDBRANCH   3   4
BRANCH   3  13
ATOM     13  O   UNL     1      14.372  26.255  -5.212  1.00  0.00    -0.390 OA
ATOM     14  H   UNL     1      13.498  26.620  -4.925  1.00  0.00     0.211 HD
ENDBRANCH   3  13
ENDBRANCH   1   3
BRANCH   1  15
ATOM     15  C   UNL     1      17.014  27.503  -7.754  1.00  0.00     0.032 C 
ATOM     16  C   UNL     1      17.437  28.806  -7.023  1.00  0.00     0.010 C 
ATOM     17  C   UNL     1      18.254  27.096  -8.663  1.00  0.00     0.006 C 
ATOM     18  C   UNL     1      18.716  29.279  -7.719  1.00  0.00     0.041 C 
ATOM     19  C   UNL     1      19.410  27.971  -8.110  1.00  0.00     0.092 C 
ATOM     20  C   UNL     1      18.758  25.618  -8.693  1.00  0.00     0.011 C 
ATOM     21  C   UNL     1      17.855  27.474 -10.137  1.00  0.00     0.015 C 
ATOM     22  C   UNL     1      20.543  28.005  -9.127  1.00  0.00    -0.031 C 
ATOM     23  C   UNL     1      20.258  25.446  -9.106  1.00  0.00     0.009 C 
ATOM     24  C   UNL     1      20.966  26.680  -9.764  1.00  0.00     0.025 C 
ATOM     25  C   UNL     1      21.211  29.128  -9.415  1.00  0.00     0.050 C 
ATOM     26  C   UNL     1      22.535  26.564  -9.872  1.00  0.00    -0.013 C 
ATOM     27  C   UNL     1      22.380  29.105 -10.305  1.00  0.00     0.159 C 
ATOM     28  C   UNL     1      23.048  27.799 -10.710  1.00  0.00     0.070 C 
ATOM     29  C   UNL     1      23.202  26.537  -8.453  1.00  0.00     0.042 C 
ATOM     30  C   UNL     1      22.873  25.253 -10.640  1.00  0.00     0.013 C 
ATOM     31  O   UNL     1      22.799  30.198 -10.772  1.00  0.00    -0.295 OA
ATOM     32  C   UNL     1      24.585  27.943 -10.676  1.00  0.00     0.047 C 
ATOM     33  C   UNL     1      24.731  26.750  -8.452  1.00  0.00     0.143 C 
ATOM     34  C   UNL     1      25.114  28.023  -9.239  1.00  0.00     0.143 C 
BRANCH  19  35
ATOM     35  O   UNL     1      19.915  27.396  -6.921  1.00  0.00    -0.385 OA
ATOM     36  H   UNL     1      20.830  27.047  -7.114  1.00  0.00     0.211 HD
ENDBRANCH  19  35
BRANCH  33  37
ATOM     37  O   UNL     1      25.387  25.616  -8.964  1.00  0.00    -0.390 OA
ATOM     38  H   UNL     1      26.158  25.433  -8.366  1.00  0.00     0.211 HD
ENDBRANCH  33  37
BRANCH  34  39
ATOM     39  O   UNL     1      26.509  28.196  -9.263  1.00  0.00    -0.390 OA
ATOM     40  H   UNL     1      26.865  27.771  -8.441  1.00  0.00     0.211 HD
ENDBRANCH  34  39
ENDBRANCH   1  15
BRANCH   1  41
ATOM     41  O   UNL     1      17.016  25.965  -5.840  1.00  0.00    -0.387 OA
ATOM     42  H   UNL     1      16.476  25.795  -5.028  1.00  0.00     0.211 HD
ENDBRANCH   1  41
TORSDOF 9
ENDMDL
MODEL 8
REMARK VINA RESULT:    -6.909      4.262      9.811
REMARK INTER + INTRA:         -10.368
REMARK INTER:                  -9.960
REMARK INTRA:                  -0.408
REMARK UNBOUND:                -0.833
REMARK SMILES C[C@@H]1C(=O)O[C@H](C)[C@@H]1C[C@@H](O)[C@](C)(O)[C@H]1CC[C@]2(O)C3=CC(=O)[C@H]4C[C@H](O)[C@H](O)C[C@@]4(C)[C@H]3CC[C@@]12C
REMARK SMILES IDX 12 1 13 2 10 3 9 4 8 5 1 6 2 7 3 8 6 9 5 10 4 11 7 12 11 13
REMARK SMILES IDX 15 15 16 16 36 17 17 18 18 19 35 20 37 21 20 22 34 23 33 24
REMARK SMILES IDX 21 25 31 26 22 27 24 28 30 29 32 30 23 31 25 32 28 33 26 34
REMARK SMILES IDX 19 35 29 37 27 39 14 41
REMARK H PARENT 11 14 19 36 29 38 27 40 14 42
REMARK Flexibility Score: inf
ROOT
ATOM      1  C   UNL     1      18.478  27.800  -7.361  1.00  0.00     0.091 C 
ATOM      2  C   UNL     1      18.500  29.014  -8.330  1.00  0.00     0.045 C 
ENDROOT
BRANCH   1   3
ATOM      3  C   UNL     1      19.993  27.473  -7.012  1.00  0.00     0.146 C 
BRANCH   3   4
ATOM      4  C   UNL     1      21.047  28.413  -7.695  1.00  0.00     0.043 C 
BRANCH   4   5
ATOM      5  C   UNL     1      22.249  27.633  -8.321  1.00  0.00     0.046 C 
ATOM      6  C   UNL     1      23.414  29.928  -8.838  1.00  0.00     0.020 C 
ATOM      7  C   UNL     1      23.571  28.431  -8.517  1.00  0.00     0.103 C 
ATOM      8  C   UNL     1      24.167  27.702  -9.666  1.00  0.00     0.309 C 
ATOM      9  C   UNL     1      21.998  26.904  -9.680  1.00  0.00     0.177 C 
ATOM     10  O   UNL     1      23.290  26.819 -10.262  1.00  0.00    -0.462 OA
ATOM     11  O   UNL     1      25.354  27.849 -10.061  1.00  0.00    -0.252 OA
ATOM     12  C   UNL     1      21.085  27.635 -10.683  1.00  0.00     0.053 C 
ENDBRANCH   4   5
ENDBRANCH   3   4
BRANCH   3  13
ATOM     13  O   UNL     1      20.218  27.418  -5.626  1.00  0.00    -0.390 OA
ATOM     14  H   UNL     1      20.841  28.146  -5.376  1.00  0.00     0.211 HD
ENDBRANCH   3  13
ENDBRANCH   1   3
BRANCH   1  15
ATOM     15  C   UNL     1      17.676  26.631  -8.100  1.00  0.00     0.032 C 
ATOM     16  C   UNL     1      17.326  25.380  -7.247  1.00  0.00     0.010 C 
ATOM     17  C   UNL     1      16.393  26.914  -8.997  1.00  0.00     0.006 C 
ATOM     18  C   UNL     1      16.045  24.805  -7.856  1.00  0.00     0.041 C 
ATOM     19  C   UNL     1      15.290  26.049  -8.332  1.00  0.00     0.092 C 
ATOM     20  C   UNL     1      15.833  28.365  -9.133  1.00  0.00     0.011 C 
ATOM     21  C   UNL     1      16.759  26.425 -10.446  1.00  0.00     0.015 C 
ATOM     22  C   UNL     1      14.127  25.889  -9.302  1.00  0.00    -0.031 C 
ATOM     23  C   UNL     1      14.315  28.448  -9.507  1.00  0.00     0.009 C 
ATOM     24  C   UNL     1      13.634  27.138 -10.034  1.00  0.00     0.025 C 
ATOM     25  C   UNL     1      13.494  24.722  -9.470  1.00  0.00     0.050 C 
ATOM     26  C   UNL     1      12.059  27.189 -10.096  1.00  0.00    -0.013 C 
ATOM     27  C   UNL     1      12.297  24.628 -10.318  1.00  0.00     0.159 C 
ATOM     28  C   UNL     1      11.567  25.870 -10.808  1.00  0.00     0.070 C 
ATOM     29  C   UNL     1      11.437  27.314  -8.662  1.00  0.00     0.042 C 
ATOM     30  C   UNL     1      11.647  28.417 -10.959  1.00  0.00     0.013 C 
ATOM     31  O   UNL     1      11.904  23.485 -10.676  1.00  0.00    -0.295 OA
ATOM     32  C   UNL     1      10.038  25.676 -10.708  1.00  0.00     0.047 C 
ATOM     33  C   UNL     1       9.918  27.048  -8.589  1.00  0.00     0.143 C 
ATOM     34  C   UNL     1       9.559  25.701  -9.252  1.00  0.00     0.143 C 
BRANCH  19  35
ATOM     35  O   UNL     1      14.802  26.706  -7.178  1.00  0.00    -0.385 OA
ATOM     36  H   UNL     1      14.062  26.152  -6.800  1.00  0.00     0.211 HD
ENDBRANCH  19  35
BRANCH  33  37
ATOM     37  O   UNL     1       9.203  28.111  -9.172  1.00  0.00    -0.390 OA
ATOM     38  H   UNL     1       9.809  28.541  -9.829  1.00  0.00     0.211 HD
ENDBRANCH  33  37
BRANCH  34  39
ATOM     39  O   UNL     1       8.171  25.477  -9.212  1.00  0.00    -0.390 OA
ATOM     40  H   UNL     1       8.039  24.553  -8.880  1.00  0.00     0.211 HD
ENDBRANCH  34  39
ENDBRANCH   1  15
BRANCH   1  41
ATOM     41  O   UNL     1      17.737  28.230  -6.238  1.00  0.00    -0.387 OA
ATOM     42  H   UNL     1      16.783  27.980  -6.335  1.00  0.00     0.211 HD
ENDBRANCH   1  41
TORSDOF 9
ENDMDL
MODEL 9
REMARK VINA RESULT:    -6.829      3.017      8.858
REMARK INTER + INTRA:         -10.257
REMARK INTER:                  -9.973
REMARK INTRA:                  -0.285
REMARK UNBOUND:                -0.833
REMARK SMILES C[C@@H]1C(=O)O[C@H](C)[C@@H]1C[C@@H](O)[C@](C)(O)[C@H]1CC[C@]2(O)C3=CC(=O)[C@H]4C[C@H](O)[C@H](O)C[C@@]4(C)[C@H]3CC[C@@]12C
REMARK SMILES IDX 12 1 13 2 10 3 9 4 8 5 1 6 2 7 3 8 6 9 5 10 4 11 7 12 11 13
REMARK SMILES IDX 15 15 16 16 36 17 17 18 18 19 35 20 37 21 20 22 34 23 33 24
REMARK SMILES IDX 21 25 31 26 22 27 24 28 30 29 32 30 23 31 25 32 28 33 26 34
REMARK SMILES IDX 19 35 29 37 27 39 14 41
REMARK H PARENT 11 14 19 36 29 38 27 40 14 42
REMARK Flexibility Score: inf
ROOT
ATOM      1  C   UNL     1      22.791  23.302 -10.098  1.00  0.00     0.091 C 
ATOM      2  C   UNL     1      23.004  23.717  -8.617  1.00  0.00     0.045 C 
ENDROOT
BRANCH   1   3
ATOM      3  C   UNL     1      24.061  23.822 -10.899  1.00  0.00     0.146 C 
BRANCH   3   4
ATOM      4  C   UNL     1      24.146  25.380 -11.064  1.00  0.00     0.043 C 
BRANCH   4   5
ATOM      5  C   UNL     1      24.757  26.095  -9.815  1.00  0.00     0.046 C 
ATOM      6  C   UNL     1      23.721  28.356 -10.655  1.00  0.00     0.020 C 
ATOM      7  C   UNL     1      24.181  27.497  -9.463  1.00  0.00     0.103 C 
ATOM      8  C   UNL     1      25.349  28.114  -8.783  1.00  0.00     0.309 C 
ATOM      9  C   UNL     1      26.311  26.262  -9.776  1.00  0.00     0.177 C 
ATOM     10  O   UNL     1      26.510  27.381  -8.926  1.00  0.00    -0.462 OA
ATOM     11  O   UNL     1      25.302  29.188  -8.126  1.00  0.00    -0.252 OA
ATOM     12  C   UNL     1      26.993  26.576 -11.122  1.00  0.00     0.053 C 
ENDBRANCH   4   5
ENDBRANCH   3   4
BRANCH   3  13
ATOM     13  O   UNL     1      25.264  23.323 -10.370  1.00  0.00    -0.390 OA
ATOM     14  H   UNL     1      25.911  23.206 -11.109  1.00  0.00     0.211 HD
ENDBRANCH   3  13
ENDBRANCH   1   3
BRANCH   1  15
ATOM     15  C   UNL     1      21.390  23.919 -10.558  1.00  0.00     0.032 C 
ATOM     16  C   UNL     1      20.244  22.909 -10.843  1.00  0.00     0.010 C 
ATOM     17  C   UNL     1      20.709  25.141  -9.800  1.00  0.00     0.006 C 
ATOM     18  C   UNL     1      18.943  23.659 -10.546  1.00  0.00     0.041 C 
ATOM     19  C   UNL     1      19.323  24.581  -9.384  1.00  0.00     0.092 C 
ATOM     20  C   UNL     1      21.374  25.744  -8.523  1.00  0.00     0.011 C 
ATOM     21  C   UNL     1      20.604  26.303 -10.855  1.00  0.00     0.015 C 
ATOM     22  C   UNL     1      18.404  25.739  -9.021  1.00  0.00    -0.031 C 
ATOM     23  C   UNL     1      20.387  26.484  -7.559  1.00  0.00     0.009 C 
ATOM     24  C   UNL     1      18.967  26.839  -8.121  1.00  0.00     0.025 C 
ATOM     25  C   UNL     1      17.121  25.779  -9.402  1.00  0.00     0.050 C 
ATOM     26  C   UNL     1      17.919  27.292  -7.034  1.00  0.00    -0.013 C 
ATOM     27  C   UNL     1      16.226  26.845  -8.932  1.00  0.00     0.159 C 
ATOM     28  C   UNL     1      16.622  27.774  -7.792  1.00  0.00     0.070 C 
ATOM     29  C   UNL     1      17.583  26.122  -6.045  1.00  0.00     0.042 C 
ATOM     30  C   UNL     1      18.522  28.491  -6.247  1.00  0.00     0.013 C 
ATOM     31  O   UNL     1      15.127  27.011  -9.525  1.00  0.00    -0.295 OA
ATOM     32  C   UNL     1      15.428  28.006  -6.841  1.00  0.00     0.047 C 
ATOM     33  C   UNL     1      16.344  26.360  -5.156  1.00  0.00     0.143 C 
ATOM     34  C   UNL     1      15.119  26.757  -6.008  1.00  0.00     0.143 C 
BRANCH  19  35
ATOM     35  O   UNL     1      19.465  23.766  -8.236  1.00  0.00    -0.385 OA
ATOM     36  H   UNL     1      19.809  22.877  -8.532  1.00  0.00     0.211 HD
ENDBRANCH  19  35
BRANCH  33  37
ATOM     37  O   UNL     1      16.620  27.330  -4.175  1.00  0.00    -0.390 OA
ATOM     38  H   UNL     1      16.705  26.851  -3.310  1.00  0.00     0.211 HD
ENDBRANCH  33  37
BRANCH  34  39
ATOM     39  O   UNL     1      14.000  27.004  -5.192  1.00  0.00    -0.390 OA
ATOM     40  H   UNL     1      13.198  26.878  -5.760  1.00  0.00     0.211 HD
ENDBRANCH  34  39
ENDBRANCH   1  15
BRANCH   1  41
ATOM     41  O   UNL     1      22.692  21.893 -10.083  1.00  0.00    -0.387 OA
ATOM     42  H   UNL     1      21.785  21.611  -9.803  1.00  0.00     0.211 HD
ENDBRANCH   1  41
TORSDOF 9
ENDMDL
