MODEL 1
REMARK VINA RESULT:     1.050      0.000      0.000
REMARK INTER + INTRA:           0.556
REMARK INTER:                   1.204
REMARK INTRA:                  -0.648
REMARK UNBOUND:                -0.648
REMARK SMILES C=C(C)[C@H]1CC[C@]2(C(=O)[O-])CC[C@]3(C)[C@@H](CC[C@@H]4[C@@]5(C)CC[C@@H](O)C(C)(C)[C@H]5CC[C@]43C)[C@H]12
REMARK SMILES IDX 7 1 6 2 33 3 11 4 5 5 15 6 4 7 12 8 16 9 13 10 17 11 31 12
REMARK SMILES IDX 14 13 18 14 30 15 32 16 19 17 29 18 21 19 20 20 28 21 22 22
REMARK SMILES IDX 25 23 23 24 26 25 27 26 8 27 9 28 10 29 2 30 3 31 1 32 24 33
REMARK H PARENT 24 34
REMARK Flexibility Score: inf
ROOT
ATOM      1  C   UNL     1     -19.309  13.210 -30.461  1.00  0.00     0.014 C 
ATOM      2  C   UNL     1     -19.852  12.010 -31.268  1.00  0.00     0.014 C 
ATOM      3  C   UNL     1     -18.829  12.621 -29.098  1.00  0.00     0.012 C 
ATOM      4  C   UNL     1     -18.182  13.935 -31.241  1.00  0.00     0.014 C 
ATOM      5  C   UNL     1     -20.250  10.942 -30.258  1.00  0.00     0.009 C 
ATOM      6  C   UNL     1     -17.279  12.726 -28.833  1.00  0.00     0.000 C 
ATOM      7  C   UNL     1     -19.425  11.191 -28.985  1.00  0.00     0.018 C 
ATOM      8  C   UNL     1     -16.799  13.241 -31.294  1.00  0.00     0.008 C 
ATOM      9  C   UNL     1     -16.986  14.161 -28.264  1.00  0.00     0.005 C 
ATOM     10  C   UNL     1     -16.335  12.361 -30.053  1.00  0.00    -0.024 C 
ATOM     11  C   UNL     1     -15.568  14.680 -28.530  1.00  0.00     0.005 C 
ATOM     12  C   UNL     1     -14.736  12.545 -29.651  1.00  0.00    -0.024 C 
ATOM     13  C   UNL     1     -16.549  10.876 -30.477  1.00  0.00     0.012 C 
ATOM     14  C   UNL     1     -14.584  13.507 -28.409  1.00  0.00     0.002 C 
ATOM     15  C   UNL     1     -14.054  11.221 -29.160  1.00  0.00     0.008 C 
ATOM     16  C   UNL     1     -13.943  13.007 -30.918  1.00  0.00     0.012 C 
ATOM     17  C   UNL     1     -13.127  13.850 -27.892  1.00  0.00    -0.026 C 
ATOM     18  C   UNL     1     -12.599  11.374 -28.644  1.00  0.00     0.005 C 
ATOM     19  C   UNL     1     -13.241  14.699 -26.579  1.00  0.00     0.010 C 
ATOM     20  C   UNL     1     -12.358  14.735 -28.920  1.00  0.00     0.012 C 
ATOM     21  C   UNL     1     -12.313  12.512 -27.602  1.00  0.00     0.003 C 
ATOM     22  C   UNL     1     -11.997  14.607 -25.705  1.00  0.00     0.033 C 
ATOM     23  C   UNL     1     -12.275  12.024 -26.083  1.00  0.00    -0.006 C 
ATOM     24  C   UNL     1     -11.799  13.196 -25.131  1.00  0.00     0.120 C 
ATOM     25  C   UNL     1     -13.639  11.450 -25.617  1.00  0.00     0.014 C 
ATOM     26  C   UNL     1     -11.235  10.877 -25.905  1.00  0.00     0.014 C 
ENDROOT
BRANCH   1  27
ATOM     27  C   UNL     1     -20.427  14.228 -30.206  1.00  0.00     0.048 C 
ATOM     28  O   UNL     1     -20.428  14.904 -29.142  1.00  0.00    -0.550 OA
ATOM     29  O   UNL     1     -21.445  14.447 -31.129  1.00  0.00    -0.550 OA
ENDBRANCH   1  27
BRANCH   7  30
ATOM     30  C   UNL     1     -20.252  10.981 -27.717  1.00  0.00    -0.077 C 
ATOM     31  C   UNL     1     -21.754  10.876 -27.800  1.00  0.00     0.039 C 
ATOM     32  C   UNL     1     -19.667  10.875 -26.509  1.00  0.00     0.008 C 
ENDBRANCH   7  30
BRANCH  24  33
ATOM     33  O   UNL     1     -12.422  13.107 -23.870  1.00  0.00    -0.393 OA
ATOM     34  H   UNL     1     -13.347  12.774 -24.017  1.00  0.00     0.210 HD
ENDBRANCH  24  33
TORSDOF 3
ENDMDL
MODEL 2
REMARK VINA RESULT:     3.078      2.834      7.478
REMARK INTER + INTRA:           2.880
REMARK INTER:                   3.484
REMARK INTRA:                  -0.604
REMARK UNBOUND:                -0.648
REMARK SMILES C=C(C)[C@H]1CC[C@]2(C(=O)[O-])CC[C@]3(C)[C@@H](CC[C@@H]4[C@@]5(C)CC[C@@H](O)C(C)(C)[C@H]5CC[C@]43C)[C@H]12
REMARK SMILES IDX 7 1 6 2 33 3 11 4 5 5 15 6 4 7 12 8 16 9 13 10 17 11 31 12
REMARK SMILES IDX 14 13 18 14 30 15 32 16 19 17 29 18 21 19 20 20 28 21 22 22
REMARK SMILES IDX 25 23 23 24 26 25 27 26 8 27 9 28 10 29 2 30 3 31 1 32 24 33
REMARK H PARENT 24 34
REMARK Flexibility Score: inf
ROOT
ATOM      1  C   UNL     1     -11.914  14.637 -30.824  1.00  0.00     0.014 C 
ATOM      2  C   UNL     1     -10.875  13.520 -31.071  1.00  0.00     0.014 C 
ATOM      3  C   UNL     1     -13.156  14.257 -31.688  1.00  0.00     0.012 C 
ATOM      4  C   UNL     1     -12.238  14.764 -29.314  1.00  0.00     0.014 C 
ATOM      5  C   UNL     1     -11.207  12.899 -32.421  1.00  0.00     0.009 C 
ATOM      6  C   UNL     1     -14.461  13.921 -30.871  1.00  0.00     0.000 C 
ATOM      7  C   UNL     1     -12.699  13.159 -32.687  1.00  0.00     0.018 C 
ATOM      8  C   UNL     1     -13.143  13.672 -28.691  1.00  0.00     0.008 C 
ATOM      9  C   UNL     1     -15.173  15.278 -30.525  1.00  0.00     0.005 C 
ATOM     10  C   UNL     1     -14.269  13.002 -29.594  1.00  0.00    -0.024 C 
ATOM     11  C   UNL     1     -16.048  15.241 -29.266  1.00  0.00     0.005 C 
ATOM     12  C   UNL     1     -15.709  12.754 -28.810  1.00  0.00    -0.024 C 
ATOM     13  C   UNL     1     -13.709  11.607 -30.010  1.00  0.00     0.012 C 
ATOM     14  C   UNL     1     -16.749  13.878 -29.194  1.00  0.00     0.002 C 
ATOM     15  C   UNL     1     -16.439  11.434 -29.236  1.00  0.00     0.008 C 
ATOM     16  C   UNL     1     -15.438  12.633 -27.274  1.00  0.00     0.012 C 
ATOM     17  C   UNL     1     -18.180  13.848 -28.515  1.00  0.00    -0.026 C 
ATOM     18  C   UNL     1     -17.853  11.229 -28.631  1.00  0.00     0.005 C 
ATOM     19  C   UNL     1     -19.070  14.968 -29.155  1.00  0.00     0.010 C 
ATOM     20  C   UNL     1     -18.088  14.178 -26.994  1.00  0.00     0.012 C 
ATOM     21  C   UNL     1     -18.864  12.426 -28.727  1.00  0.00     0.003 C 
ATOM     22  C   UNL     1     -20.561  14.689 -29.021  1.00  0.00     0.033 C 
ATOM     23  C   UNL     1     -19.905  12.316 -29.932  1.00  0.00    -0.006 C 
ATOM     24  C   UNL     1     -20.993  13.461 -29.837  1.00  0.00     0.120 C 
ATOM     25  C   UNL     1     -19.204  12.332 -31.316  1.00  0.00     0.014 C 
ATOM     26  C   UNL     1     -20.689  10.972 -29.855  1.00  0.00     0.014 C 
ENDROOT
BRANCH   1  27
ATOM     27  C   UNL     1     -11.363  15.988 -31.296  1.00  0.00     0.048 C 
ATOM     28  O   UNL     1     -10.875  16.793 -30.459  1.00  0.00    -0.550 OA
ATOM     29  O   UNL     1     -11.367  16.353 -32.639  1.00  0.00    -0.550 OA
ENDBRANCH   1  27
BRANCH   7  30
ATOM     30  C   UNL     1     -12.965  13.524 -34.147  1.00  0.00    -0.077 C 
ATOM     31  C   UNL     1     -14.235  14.239 -34.531  1.00  0.00     0.039 C 
ATOM     32  C   UNL     1     -12.076  13.229 -35.115  1.00  0.00     0.008 C 
ENDBRANCH   7  30
BRANCH  24  33
ATOM     33  O   UNL     1     -21.411  13.870 -31.119  1.00  0.00    -0.393 OA
ATOM     34  H   UNL     1     -21.681  13.054 -31.620  1.00  0.00     0.210 HD
ENDBRANCH  24  33
TORSDOF 3
ENDMDL
MODEL 3
REMARK VINA RESULT:     4.009      2.388      7.634
REMARK INTER + INTRA:           3.947
REMARK INTER:                   4.470
REMARK INTRA:                  -0.524
REMARK UNBOUND:                -0.648
REMARK SMILES C=C(C)[C@H]1CC[C@]2(C(=O)[O-])CC[C@]3(C)[C@@H](CC[C@@H]4[C@@]5(C)CC[C@@H](O)C(C)(C)[C@H]5CC[C@]43C)[C@H]12
REMARK SMILES IDX 7 1 6 2 33 3 11 4 5 5 15 6 4 7 12 8 16 9 13 10 17 11 31 12
REMARK SMILES IDX 14 13 18 14 30 15 32 16 19 17 29 18 21 19 20 20 28 21 22 22
REMARK SMILES IDX 25 23 23 24 26 25 27 26 8 27 9 28 10 29 2 30 3 31 1 32 24 33
REMARK H PARENT 24 34
REMARK Flexibility Score: inf
ROOT
ATOM      1  C   UNL     1     -11.885  14.376 -29.562  1.00  0.00     0.014 C 
ATOM      2  C   UNL     1     -10.882  13.223 -29.782  1.00  0.00     0.014 C 
ATOM      3  C   UNL     1     -12.976  14.203 -30.664  1.00  0.00     0.012 C 
ATOM      4  C   UNL     1     -12.462  14.338 -28.123  1.00  0.00     0.014 C 
ATOM      5  C   UNL     1     -11.005  12.802 -31.240  1.00  0.00     0.009 C 
ATOM      6  C   UNL     1     -14.421  13.870 -30.128  1.00  0.00     0.000 C 
ATOM      7  C   UNL     1     -12.411  13.207 -31.713  1.00  0.00     0.018 C 
ATOM      8  C   UNL     1     -13.520  13.251 -27.813  1.00  0.00     0.008 C 
ATOM      9  C   UNL     1     -15.107  15.224 -29.724  1.00  0.00     0.005 C 
ATOM     10  C   UNL     1     -14.504  12.787 -28.974  1.00  0.00    -0.024 C 
ATOM     11  C   UNL     1     -16.189  15.098 -28.645  1.00  0.00     0.005 C 
ATOM     12  C   UNL     1     -16.072  12.555 -28.481  1.00  0.00    -0.024 C 
ATOM     13  C   UNL     1     -13.958  11.416 -29.477  1.00  0.00     0.012 C 
ATOM     14  C   UNL     1     -16.966  13.794 -28.876  1.00  0.00     0.002 C 
ATOM     15  C   UNL     1     -16.786  11.358 -29.198  1.00  0.00     0.008 C 
ATOM     16  C   UNL     1     -16.080  12.223 -26.952  1.00  0.00     0.012 C 
ATOM     17  C   UNL     1     -18.492  13.790 -28.455  1.00  0.00    -0.026 C 
ATOM     18  C   UNL     1     -18.293  11.189 -28.870  1.00  0.00     0.005 C 
ATOM     19  C   UNL     1     -19.194  15.046 -29.077  1.00  0.00     0.010 C 
ATOM     20  C   UNL     1     -18.650  13.920 -26.910  1.00  0.00     0.012 C 
ATOM     21  C   UNL     1     -19.206  12.462 -28.970  1.00  0.00     0.003 C 
ATOM     22  C   UNL     1     -20.699  14.868 -29.231  1.00  0.00     0.033 C 
ATOM     23  C   UNL     1     -20.024  12.584 -30.335  1.00  0.00    -0.006 C 
ATOM     24  C   UNL     1     -21.048  13.788 -30.267  1.00  0.00     0.120 C 
ATOM     25  C   UNL     1     -19.091  12.717 -31.568  1.00  0.00     0.014 C 
ATOM     26  C   UNL     1     -20.881  11.304 -30.572  1.00  0.00     0.014 C 
ENDROOT
BRANCH   1  27
ATOM     27  C   UNL     1     -11.188  15.729 -29.747  1.00  0.00     0.048 C 
ATOM     28  O   UNL     1     -10.885  16.125 -30.905  1.00  0.00    -0.550 OA
ATOM     29  O   UNL     1     -10.890  16.555 -28.668  1.00  0.00    -0.550 OA
ENDBRANCH   1  27
BRANCH   7  30
ATOM     30  C   UNL     1     -12.398  13.770 -33.133  1.00  0.00    -0.077 C 
ATOM     31  C   UNL     1     -11.369  13.295 -34.127  1.00  0.00     0.039 C 
ATOM     32  C   UNL     1     -13.301  14.685 -33.532  1.00  0.00     0.008 C 
ENDBRANCH   7  30
BRANCH  24  33
ATOM     33  O   UNL     1     -21.212  14.385 -31.533  1.00  0.00    -0.393 OA
ATOM     34  H   UNL     1     -22.122  14.150 -31.858  1.00  0.00     0.210 HD
ENDBRANCH  24  33
TORSDOF 3
ENDMDL
