MODEL 1
REMARK VINA RESULT:    -7.048      0.000      0.000
REMARK INTER + INTRA:          -8.681
REMARK INTER:                  -8.490
REMARK INTRA:                  -0.192
REMARK UNBOUND:                -0.192
REMARK SMILES O=c1c(O)c(-c2ccc(O)c(O)c2)oc2cc(O)cc(O)c12
REMARK SMILES IDX 5 1 3 2 2 3 1 4 22 5 20 6 19 7 17 8 16 9 15 10 14 11 6 12
REMARK SMILES IDX 7 13 8 14 9 15 13 16 11 17 10 18 12 20 4 22 21 24 18 26
REMARK H PARENT 10 19 12 21 4 23 21 25 18 27
REMARK Flexibility Score: inf
ROOT
ATOM      1  C   UNL     1      -6.927   6.527  -9.847  1.00  0.00     0.180 A 
ATOM      2  C   UNL     1      -5.812   6.073  -9.123  1.00  0.00     0.208 A 
ATOM      3  C   UNL     1      -4.683   6.902  -9.020  1.00  0.00     0.238 A 
ATOM      4  O   UNL     1      -3.662   6.459  -8.434  1.00  0.00    -0.285 OA
ATOM      5  C   UNL     1      -4.704   8.196  -9.596  1.00  0.00     0.111 A 
ATOM      6  C   UNL     1      -3.633   9.137  -9.516  1.00  0.00     0.134 A 
ATOM      7  C   UNL     1      -3.724  10.347 -10.215  1.00  0.00     0.093 A 
ATOM      8  C   UNL     1      -4.873  10.677 -10.939  1.00  0.00     0.123 A 
ATOM      9  C   UNL     1      -5.945   9.789 -10.977  1.00  0.00     0.094 A 
ATOM     10  C   UNL     1      -5.869   8.558 -10.322  1.00  0.00     0.146 A 
ATOM     11  O   UNL     1      -6.906   7.732 -10.403  1.00  0.00    -0.452 OA
ENDROOT
BRANCH   1  12
ATOM     12  C   UNL     1      -8.149   5.706 -10.011  1.00  0.00     0.025 A 
ATOM     13  C   UNL     1      -8.972   5.464  -8.900  1.00  0.00     0.016 A 
ATOM     14  C   UNL     1     -10.140   4.711  -9.036  1.00  0.00     0.051 A 
ATOM     15  C   UNL     1     -10.512   4.202 -10.283  1.00  0.00     0.157 A 
ATOM     16  C   UNL     1      -8.536   5.211 -11.269  1.00  0.00     0.062 A 
ATOM     17  C   UNL     1      -9.710   4.456 -11.407  1.00  0.00     0.158 A 
BRANCH  15  18
ATOM     18  O   UNL     1     -11.684   3.450 -10.387  1.00  0.00    -0.504 OA
ATOM     19  H   UNL     1     -12.438   3.714 -11.009  1.00  0.00     0.293 HD
ENDBRANCH  15  18
BRANCH  17  20
ATOM     20  O   UNL     1     -10.082   3.963 -12.657  1.00  0.00    -0.504 OA
ATOM     21  H   UNL     1     -10.898   4.313 -13.145  1.00  0.00     0.293 HD
ENDBRANCH  17  20
ENDBRANCH   1  12
BRANCH   2  22
ATOM     22  O   UNL     1      -5.841   4.824  -8.497  1.00  0.00    -0.502 OA
ATOM     23  H   UNL     1      -6.300   4.673  -7.606  1.00  0.00     0.293 HD
ENDBRANCH   2  22
BRANCH   6  24
ATOM     24  O   UNL     1      -2.478   8.947  -8.751  1.00  0.00    -0.507 OA
ATOM     25  H   UNL     1      -1.691   8.380  -9.023  1.00  0.00     0.293 HD
ENDBRANCH   6  24
BRANCH   8  26
ATOM     26  O   UNL     1      -4.962  11.891 -11.617  1.00  0.00    -0.508 OA
ATOM     27  H   UNL     1      -4.729  11.967 -12.601  1.00  0.00     0.293 HD
ENDBRANCH   8  26
TORSDOF 6
ENDMDL
MODEL 2
REMARK VINA RESULT:    -6.694      2.996      4.972
REMARK INTER + INTRA:          -8.255
REMARK INTER:                  -7.959
REMARK INTRA:                  -0.296
REMARK UNBOUND:                -0.192
REMARK SMILES O=c1c(O)c(-c2ccc(O)c(O)c2)oc2cc(O)cc(O)c12
REMARK SMILES IDX 5 1 3 2 2 3 1 4 22 5 20 6 19 7 17 8 16 9 15 10 14 11 6 12
REMARK SMILES IDX 7 13 8 14 9 15 13 16 11 17 10 18 12 20 4 22 21 24 18 26
REMARK H PARENT 10 19 12 21 4 23 21 25 18 27
REMARK Flexibility Score: inf
ROOT
ATOM      1  C   UNL     1      -5.652   4.795  -9.719  1.00  0.00     0.180 A 
ATOM      2  C   UNL     1      -4.703   5.620 -10.346  1.00  0.00     0.208 A 
ATOM      3  C   UNL     1      -3.338   5.385 -10.116  1.00  0.00     0.238 A 
ATOM      4  O   UNL     1      -2.497   6.173 -10.620  1.00  0.00    -0.285 OA
ATOM      5  C   UNL     1      -2.938   4.294  -9.307  1.00  0.00     0.111 A 
ATOM      6  C   UNL     1      -1.581   3.935  -9.041  1.00  0.00     0.134 A 
ATOM      7  C   UNL     1      -1.305   2.900  -8.139  1.00  0.00     0.093 A 
ATOM      8  C   UNL     1      -2.335   2.169  -7.542  1.00  0.00     0.123 A 
ATOM      9  C   UNL     1      -3.661   2.476  -7.838  1.00  0.00     0.094 A 
ATOM     10  C   UNL     1      -3.970   3.527  -8.703  1.00  0.00     0.146 A 
ATOM     11  O   UNL     1      -5.247   3.799  -8.940  1.00  0.00    -0.452 OA
ENDROOT
BRANCH   1  12
ATOM     12  C   UNL     1      -7.109   4.988  -9.902  1.00  0.00     0.025 A 
ATOM     13  C   UNL     1      -7.839   5.698  -8.936  1.00  0.00     0.016 A 
ATOM     14  C   UNL     1      -9.209   5.911  -9.100  1.00  0.00     0.051 A 
ATOM     15  C   UNL     1      -9.868   5.432 -10.236  1.00  0.00     0.157 A 
ATOM     16  C   UNL     1      -7.769   4.526 -11.055  1.00  0.00     0.062 A 
ATOM     17  C   UNL     1      -9.145   4.741 -11.222  1.00  0.00     0.158 A 
BRANCH  15  18
ATOM     18  O   UNL     1     -11.239   5.658 -10.370  1.00  0.00    -0.504 OA
ATOM     19  H   UNL     1     -11.718   6.382  -9.848  1.00  0.00     0.293 HD
ENDBRANCH  15  18
BRANCH  17  20
ATOM     20  O   UNL     1      -9.794   4.273 -12.364  1.00  0.00    -0.504 OA
ATOM     21  H   UNL     1     -10.056   4.896 -13.119  1.00  0.00     0.293 HD
ENDBRANCH  17  20
ENDBRANCH   1  12
BRANCH   2  22
ATOM     22  O   UNL     1      -5.118   6.643 -11.202  1.00  0.00    -0.502 OA
ATOM     23  H   UNL     1      -5.888   7.262 -10.976  1.00  0.00     0.293 HD
ENDBRANCH   2  22
BRANCH   6  24
ATOM     24  O   UNL     1      -0.477   4.540  -9.650  1.00  0.00    -0.507 OA
ATOM     25  H   UNL     1      -0.039   5.393  -9.337  1.00  0.00     0.293 HD
ENDBRANCH   6  24
BRANCH   8  26
ATOM     26  O   UNL     1      -2.051   1.130  -6.659  1.00  0.00    -0.508 OA
ATOM     27  H   UNL     1      -1.362   1.233  -5.924  1.00  0.00     0.293 HD
ENDBRANCH   8  26
TORSDOF 6
ENDMDL
MODEL 3
REMARK VINA RESULT:    -6.592      1.542      3.238
REMARK INTER + INTRA:          -8.132
REMARK INTER:                  -7.840
REMARK INTRA:                  -0.293
REMARK UNBOUND:                -0.192
REMARK SMILES O=c1c(O)c(-c2ccc(O)c(O)c2)oc2cc(O)cc(O)c12
REMARK SMILES IDX 5 1 3 2 2 3 1 4 22 5 20 6 19 7 17 8 16 9 15 10 14 11 6 12
REMARK SMILES IDX 7 13 8 14 9 15 13 16 11 17 10 18 12 20 4 22 21 24 18 26
REMARK H PARENT 10 19 12 21 4 23 21 25 18 27
REMARK Flexibility Score: inf
ROOT
ATOM      1  C   UNL     1      -6.410   7.079  -9.753  1.00  0.00     0.180 A 
ATOM      2  C   UNL     1      -6.020   8.239 -10.444  1.00  0.00     0.208 A 
ATOM      3  C   UNL     1      -4.755   8.792 -10.189  1.00  0.00     0.238 A 
ATOM      4  O   UNL     1      -4.443   9.871 -10.755  1.00  0.00    -0.285 OA
ATOM      5  C   UNL     1      -3.873   8.147  -9.288  1.00  0.00     0.111 A 
ATOM      6  C   UNL     1      -2.551   8.594  -8.986  1.00  0.00     0.134 A 
ATOM      7  C   UNL     1      -1.808   7.935  -7.998  1.00  0.00     0.093 A 
ATOM      8  C   UNL     1      -2.316   6.809  -7.345  1.00  0.00     0.123 A 
ATOM      9  C   UNL     1      -3.583   6.333  -7.672  1.00  0.00     0.094 A 
ATOM     10  C   UNL     1      -4.363   6.990  -8.625  1.00  0.00     0.146 A 
ATOM     11  O   UNL     1      -5.574   6.515  -8.890  1.00  0.00    -0.452 OA
ENDROOT
BRANCH   1  12
ATOM     12  C   UNL     1      -7.733   6.446  -9.959  1.00  0.00     0.025 A 
ATOM     13  C   UNL     1      -8.772   6.707  -9.053  1.00  0.00     0.016 A 
ATOM     14  C   UNL     1     -10.033   6.138  -9.240  1.00  0.00     0.051 A 
ATOM     15  C   UNL     1     -10.280   5.312 -10.340  1.00  0.00     0.157 A 
ATOM     16  C   UNL     1      -7.988   5.632 -11.077  1.00  0.00     0.062 A 
ATOM     17  C   UNL     1      -9.255   5.061 -11.268  1.00  0.00     0.158 A 
BRANCH  15  18
ATOM     18  O   UNL     1     -11.550   4.755 -10.499  1.00  0.00    -0.504 OA
ATOM     19  H   UNL     1     -12.347   5.073  -9.961  1.00  0.00     0.293 HD
ENDBRANCH  15  18
BRANCH  17  20
ATOM     20  O   UNL     1      -9.499   4.250 -12.375  1.00  0.00    -0.504 OA
ATOM     21  H   UNL     1      -9.643   4.641 -13.299  1.00  0.00     0.293 HD
ENDBRANCH  17  20
ENDBRANCH   1  12
BRANCH   2  22
ATOM     22  O   UNL     1      -6.875   8.816 -11.387  1.00  0.00    -0.502 OA
ATOM     23  H   UNL     1      -7.579   8.281 -11.882  1.00  0.00     0.293 HD
ENDBRANCH   2  22
BRANCH   6  24
ATOM     24  O   UNL     1      -1.913   9.653  -9.640  1.00  0.00    -0.507 OA
ATOM     25  H   UNL     1      -0.923   9.841  -9.606  1.00  0.00     0.293 HD
ENDBRANCH   6  24
BRANCH   8  26
ATOM     26  O   UNL     1      -1.563   6.150  -6.375  1.00  0.00    -0.508 OA
ATOM     27  H   UNL     1      -1.321   5.170  -6.468  1.00  0.00     0.293 HD
ENDBRANCH   8  26
TORSDOF 6
ENDMDL
MODEL 4
REMARK VINA RESULT:    -6.562      1.104      1.156
REMARK INTER + INTRA:          -8.096
REMARK INTER:                  -7.806
REMARK INTRA:                  -0.290
REMARK UNBOUND:                -0.192
REMARK SMILES O=c1c(O)c(-c2ccc(O)c(O)c2)oc2cc(O)cc(O)c12
REMARK SMILES IDX 5 1 3 2 2 3 1 4 22 5 20 6 19 7 17 8 16 9 15 10 14 11 6 12
REMARK SMILES IDX 7 13 8 14 9 15 13 16 11 17 10 18 12 20 4 22 21 24 18 26
REMARK H PARENT 10 19 12 21 4 23 21 25 18 27
REMARK Flexibility Score: inf
ROOT
ATOM      1  C   UNL     1      -6.654   6.032 -10.132  1.00  0.00     0.180 A 
ATOM      2  C   UNL     1      -5.466   5.282 -10.161  1.00  0.00     0.208 A 
ATOM      3  C   UNL     1      -4.235   5.952 -10.081  1.00  0.00     0.238 A 
ATOM      4  O   UNL     1      -3.176   5.282 -10.183  1.00  0.00    -0.285 OA
ATOM      5  C   UNL     1      -4.208   7.359  -9.917  1.00  0.00     0.111 A 
ATOM      6  C   UNL     1      -3.019   8.137  -9.782  1.00  0.00     0.134 A 
ATOM      7  C   UNL     1      -3.110   9.534  -9.732  1.00  0.00     0.093 A 
ATOM      8  C   UNL     1      -4.351  10.177  -9.750  1.00  0.00     0.123 A 
ATOM      9  C   UNL     1      -5.519   9.423  -9.826  1.00  0.00     0.094 A 
ATOM     10  C   UNL     1      -5.459   8.030  -9.916  1.00  0.00     0.146 A 
ATOM     11  O   UNL     1      -6.597   7.352 -10.010  1.00  0.00    -0.452 OA
ENDROOT
BRANCH   1  12
ATOM     12  C   UNL     1      -7.990   5.398 -10.224  1.00  0.00     0.025 A 
ATOM     13  C   UNL     1      -8.791   5.306  -9.076  1.00  0.00     0.016 A 
ATOM     14  C   UNL     1     -10.062   4.731  -9.145  1.00  0.00     0.051 A 
ATOM     15  C   UNL     1     -10.558   4.255 -10.362  1.00  0.00     0.157 A 
ATOM     16  C   UNL     1      -8.498   4.938 -11.452  1.00  0.00     0.062 A 
ATOM     17  C   UNL     1      -9.776   4.363 -11.524  1.00  0.00     0.158 A 
BRANCH  15  18
ATOM     18  O   UNL     1     -11.831   3.684 -10.399  1.00  0.00    -0.504 OA
ATOM     19  H   UNL     1     -12.141   3.017  -9.704  1.00  0.00     0.293 HD
ENDBRANCH  15  18
BRANCH  17  20
ATOM     20  O   UNL     1     -10.270   3.903 -12.743  1.00  0.00    -0.504 OA
ATOM     21  H   UNL     1     -11.227   3.587 -12.844  1.00  0.00     0.293 HD
ENDBRANCH  17  20
ENDBRANCH   1  12
BRANCH   2  22
ATOM     22  O   UNL     1      -5.517   3.888 -10.246  1.00  0.00    -0.502 OA
ATOM     23  H   UNL     1      -5.318   3.288  -9.454  1.00  0.00     0.293 HD
ENDBRANCH   2  22
BRANCH   6  24
ATOM     24  O   UNL     1      -1.736   7.594  -9.665  1.00  0.00    -0.507 OA
ATOM     25  H   UNL     1      -1.466   6.885  -9.002  1.00  0.00     0.293 HD
ENDBRANCH   6  24
BRANCH   8  26
ATOM     26  O   UNL     1      -4.433  11.566  -9.682  1.00  0.00    -0.508 OA
ATOM     27  H   UNL     1      -4.452  12.053  -8.794  1.00  0.00     0.293 HD
ENDBRANCH   8  26
TORSDOF 6
ENDMDL
MODEL 5
REMARK VINA RESULT:    -6.293      3.218      6.351
REMARK INTER + INTRA:          -7.772
REMARK INTER:                  -7.489
REMARK INTRA:                  -0.282
REMARK UNBOUND:                -0.192
REMARK SMILES O=c1c(O)c(-c2ccc(O)c(O)c2)oc2cc(O)cc(O)c12
REMARK SMILES IDX 5 1 3 2 2 3 1 4 22 5 20 6 19 7 17 8 16 9 15 10 14 11 6 12
REMARK SMILES IDX 7 13 8 14 9 15 13 16 11 17 10 18 12 20 4 22 21 24 18 26
REMARK H PARENT 10 19 12 21 4 23 21 25 18 27
REMARK Flexibility Score: inf
ROOT
ATOM      1  C   UNL     1      -4.495   4.942  -8.674  1.00  0.00     0.180 A 
ATOM      2  C   UNL     1      -4.324   6.323  -8.473  1.00  0.00     0.208 A 
ATOM      3  C   UNL     1      -5.246   7.214  -9.044  1.00  0.00     0.238 A 
ATOM      4  O   UNL     1      -5.045   8.450  -8.923  1.00  0.00    -0.285 OA
ATOM      5  C   UNL     1      -6.360   6.712  -9.761  1.00  0.00     0.111 A 
ATOM      6  C   UNL     1      -7.381   7.522 -10.345  1.00  0.00     0.134 A 
ATOM      7  C   UNL     1      -8.378   6.921 -11.123  1.00  0.00     0.093 A 
ATOM      8  C   UNL     1      -8.427   5.534 -11.286  1.00  0.00     0.123 A 
ATOM      9  C   UNL     1      -7.467   4.732 -10.675  1.00  0.00     0.094 A 
ATOM     10  C   UNL     1      -6.438   5.304  -9.925  1.00  0.00     0.146 A 
ATOM     11  O   UNL     1      -5.531   4.503  -9.378  1.00  0.00    -0.452 OA
ENDROOT
BRANCH   1  12
ATOM     12  C   UNL     1      -3.557   3.941  -8.115  1.00  0.00     0.025 A 
ATOM     13  C   UNL     1      -2.321   3.728  -8.743  1.00  0.00     0.016 A 
ATOM     14  C   UNL     1      -1.412   2.805  -8.221  1.00  0.00     0.051 A 
ATOM     15  C   UNL     1      -1.717   2.093  -7.057  1.00  0.00     0.157 A 
ATOM     16  C   UNL     1      -3.854   3.241  -6.933  1.00  0.00     0.062 A 
ATOM     17  C   UNL     1      -2.942   2.315  -6.406  1.00  0.00     0.158 A 
BRANCH  15  18
ATOM     18  O   UNL     1      -0.791   1.176  -6.561  1.00  0.00    -0.504 OA
ATOM     19  H   UNL     1      -0.224   0.600  -7.172  1.00  0.00     0.293 HD
ENDBRANCH  15  18
BRANCH  17  20
ATOM     20  O   UNL     1      -3.247   1.619  -5.237  1.00  0.00    -0.504 OA
ATOM     21  H   UNL     1      -4.135   1.738  -4.764  1.00  0.00     0.293 HD
ENDBRANCH  17  20
ENDBRANCH   1  12
BRANCH   2  22
ATOM     22  O   UNL     1      -3.261   6.793  -7.697  1.00  0.00    -0.502 OA
ATOM     23  H   UNL     1      -2.484   7.307  -8.094  1.00  0.00     0.293 HD
ENDBRANCH   2  22
BRANCH   6  24
ATOM     24  O   UNL     1      -7.478   8.906 -10.172  1.00  0.00    -0.507 OA
ATOM     25  H   UNL     1      -6.706   9.518  -9.956  1.00  0.00     0.293 HD
ENDBRANCH   6  24
BRANCH   8  26
ATOM     26  O   UNL     1      -9.433   4.943 -12.048  1.00  0.00    -0.508 OA
ATOM     27  H   UNL     1     -10.408   5.011 -11.782  1.00  0.00     0.293 HD
ENDBRANCH   8  26
TORSDOF 6
ENDMDL
MODEL 6
REMARK VINA RESULT:    -6.288     10.601     12.203
REMARK INTER + INTRA:          -7.767
REMARK INTER:                  -7.437
REMARK INTRA:                  -0.330
REMARK UNBOUND:                -0.192
REMARK SMILES O=c1c(O)c(-c2ccc(O)c(O)c2)oc2cc(O)cc(O)c12
REMARK SMILES IDX 5 1 3 2 2 3 1 4 22 5 20 6 19 7 17 8 16 9 15 10 14 11 6 12
REMARK SMILES IDX 7 13 8 14 9 15 13 16 11 17 10 18 12 20 4 22 21 24 18 26
REMARK H PARENT 10 19 12 21 4 23 21 25 18 27
REMARK Flexibility Score: inf
ROOT
ATOM      1  C   UNL     1       0.477   7.660 -19.174  1.00  0.00     0.180 A 
ATOM      2  C   UNL     1       1.122   7.769 -17.930  1.00  0.00     0.208 A 
ATOM      3  C   UNL     1       0.812   8.854 -17.095  1.00  0.00     0.238 A 
ATOM      4  O   UNL     1       1.447   8.986 -16.017  1.00  0.00    -0.285 OA
ATOM      5  C   UNL     1      -0.179   9.786 -17.489  1.00  0.00     0.111 A 
ATOM      6  C   UNL     1      -0.604  10.900 -16.703  1.00  0.00     0.134 A 
ATOM      7  C   UNL     1      -1.516  11.817 -17.241  1.00  0.00     0.093 A 
ATOM      8  C   UNL     1      -2.065  11.626 -18.512  1.00  0.00     0.123 A 
ATOM      9  C   UNL     1      -1.698  10.513 -19.264  1.00  0.00     0.094 A 
ATOM     10  C   UNL     1      -0.762   9.602 -18.770  1.00  0.00     0.146 A 
ATOM     11  O   UNL     1      -0.424   8.567 -19.530  1.00  0.00    -0.452 OA
ENDROOT
BRANCH   1  12
ATOM     12  C   UNL     1       0.760   6.551 -20.114  1.00  0.00     0.025 A 
ATOM     13  C   UNL     1      -0.014   5.382 -20.056  1.00  0.00     0.016 A 
ATOM     14  C   UNL     1       0.221   4.333 -20.947  1.00  0.00     0.051 A 
ATOM     15  C   UNL     1       1.220   4.441 -21.918  1.00  0.00     0.157 A 
ATOM     16  C   UNL     1       1.750   6.667 -21.105  1.00  0.00     0.062 A 
ATOM     17  C   UNL     1       1.987   5.615 -22.003  1.00  0.00     0.158 A 
BRANCH  15  18
ATOM     18  O   UNL     1       1.434   3.375 -22.794  1.00  0.00    -0.504 OA
ATOM     19  H   UNL     1       2.016   3.464 -23.617  1.00  0.00     0.293 HD
ENDBRANCH  15  18
BRANCH  17  20
ATOM     20  O   UNL     1       2.976   5.735 -22.978  1.00  0.00    -0.504 OA
ATOM     21  H   UNL     1       2.952   5.185 -23.829  1.00  0.00     0.293 HD
ENDBRANCH  17  20
ENDBRANCH   1  12
BRANCH   2  22
ATOM     22  O   UNL     1       2.040   6.796 -17.526  1.00  0.00    -0.502 OA
ATOM     23  H   UNL     1       2.799   6.485 -18.121  1.00  0.00     0.293 HD
ENDBRANCH   2  22
BRANCH   6  24
ATOM     24  O   UNL     1      -0.187  11.137 -15.390  1.00  0.00    -0.507 OA
ATOM     25  H   UNL     1      -0.681  10.839 -14.563  1.00  0.00     0.293 HD
ENDBRANCH   6  24
BRANCH   8  26
ATOM     26  O   UNL     1      -2.985  12.534 -19.032  1.00  0.00    -0.508 OA
ATOM     27  H   UNL     1      -2.845  13.534 -18.953  1.00  0.00     0.293 HD
ENDBRANCH   8  26
TORSDOF 6
ENDMDL
MODEL 7
REMARK VINA RESULT:    -6.234     11.043     13.116
REMARK INTER + INTRA:          -7.701
REMARK INTER:                  -7.373
REMARK INTRA:                  -0.329
REMARK UNBOUND:                -0.192
REMARK SMILES O=c1c(O)c(-c2ccc(O)c(O)c2)oc2cc(O)cc(O)c12
REMARK SMILES IDX 5 1 3 2 2 3 1 4 22 5 20 6 19 7 17 8 16 9 15 10 14 11 6 12
REMARK SMILES IDX 7 13 8 14 9 15 13 16 11 17 10 18 12 20 4 22 21 24 18 26
REMARK H PARENT 10 19 12 21 4 23 21 25 18 27
REMARK Flexibility Score: inf
ROOT
ATOM      1  C   UNL     1      -0.135   7.965 -19.313  1.00  0.00     0.180 A 
ATOM      2  C   UNL     1      -0.831   6.781 -19.012  1.00  0.00     0.208 A 
ATOM      3  C   UNL     1      -0.473   5.594 -19.670  1.00  0.00     0.238 A 
ATOM      4  O   UNL     1      -1.149   4.556 -19.451  1.00  0.00    -0.285 OA
ATOM      5  C   UNL     1       0.612   5.593 -20.580  1.00  0.00     0.111 A 
ATOM      6  C   UNL     1       1.089   4.438 -21.272  1.00  0.00     0.134 A 
ATOM      7  C   UNL     1       2.102   4.577 -22.230  1.00  0.00     0.093 A 
ATOM      8  C   UNL     1       2.697   5.818 -22.475  1.00  0.00     0.123 A 
ATOM      9  C   UNL     1       2.276   6.939 -21.766  1.00  0.00     0.094 A 
ATOM     10  C   UNL     1       1.242   6.840 -20.832  1.00  0.00     0.146 A 
ATOM     11  O   UNL     1       0.857   7.939 -20.195  1.00  0.00    -0.452 OA
ENDROOT
BRANCH   1  12
ATOM     12  C   UNL     1      -0.463   9.258 -18.669  1.00  0.00     0.025 A 
ATOM     13  C   UNL     1       0.286   9.688 -17.563  1.00  0.00     0.016 A 
ATOM     14  C   UNL     1       0.008  10.914 -16.955  1.00  0.00     0.051 A 
ATOM     15  C   UNL     1      -1.009  11.735 -17.450  1.00  0.00     0.157 A 
ATOM     16  C   UNL     1      -1.471  10.094 -19.180  1.00  0.00     0.062 A 
ATOM     17  C   UNL     1      -1.750  11.327 -18.571  1.00  0.00     0.158 A 
BRANCH  15  18
ATOM     18  O   UNL     1      -1.264  12.953 -16.819  1.00  0.00    -0.504 OA
ATOM     19  H   UNL     1      -2.154  13.156 -16.381  1.00  0.00     0.293 HD
ENDBRANCH  15  18
BRANCH  17  20
ATOM     20  O   UNL     1      -2.756  12.148 -19.079  1.00  0.00    -0.504 OA
ATOM     21  H   UNL     1      -2.791  12.401 -20.059  1.00  0.00     0.293 HD
ENDBRANCH  17  20
ENDBRANCH   1  12
BRANCH   2  22
ATOM     22  O   UNL     1      -1.848   6.789 -18.053  1.00  0.00    -0.502 OA
ATOM     23  H   UNL     1      -1.920   6.081 -17.332  1.00  0.00     0.293 HD
ENDBRANCH   2  22
BRANCH   6  24
ATOM     24  O   UNL     1       0.627   3.139 -21.041  1.00  0.00    -0.507 OA
ATOM     25  H   UNL     1      -0.184   2.903 -20.491  1.00  0.00     0.293 HD
ENDBRANCH   6  24
BRANCH   8  26
ATOM     26  O   UNL     1       3.716   5.943 -23.417  1.00  0.00    -0.508 OA
ATOM     27  H   UNL     1       4.469   6.611 -23.298  1.00  0.00     0.293 HD
ENDBRANCH   8  26
TORSDOF 6
ENDMDL
MODEL 8
REMARK VINA RESULT:    -6.144      3.235      6.362
REMARK INTER + INTRA:          -7.593
REMARK INTER:                  -7.458
REMARK INTRA:                  -0.135
REMARK UNBOUND:                -0.192
REMARK SMILES O=c1c(O)c(-c2ccc(O)c(O)c2)oc2cc(O)cc(O)c12
REMARK SMILES IDX 5 1 3 2 2 3 1 4 22 5 20 6 19 7 17 8 16 9 15 10 14 11 6 12
REMARK SMILES IDX 7 13 8 14 9 15 13 16 11 17 10 18 12 20 4 22 21 24 18 26
REMARK H PARENT 10 19 12 21 4 23 21 25 18 27
REMARK Flexibility Score: inf
ROOT
ATOM      1  C   UNL     1      -4.443   4.830  -8.887  1.00  0.00     0.180 A 
ATOM      2  C   UNL     1      -4.295   6.206  -8.640  1.00  0.00     0.208 A 
ATOM      3  C   UNL     1      -5.257   7.096  -9.143  1.00  0.00     0.238 A 
ATOM      4  O   UNL     1      -5.079   8.331  -8.982  1.00  0.00    -0.285 OA
ATOM      5  C   UNL     1      -6.385   6.595  -9.838  1.00  0.00     0.111 A 
ATOM      6  C   UNL     1      -7.444   7.403 -10.354  1.00  0.00     0.134 A 
ATOM      7  C   UNL     1      -8.456   6.808 -11.118  1.00  0.00     0.093 A 
ATOM      8  C   UNL     1      -8.480   5.427 -11.333  1.00  0.00     0.123 A 
ATOM      9  C   UNL     1      -7.481   4.625 -10.787  1.00  0.00     0.094 A 
ATOM     10  C   UNL     1      -6.438   5.193 -10.053  1.00  0.00     0.146 A 
ATOM     11  O   UNL     1      -5.494   4.394  -9.570  1.00  0.00    -0.452 OA
ENDROOT
BRANCH   1  12
ATOM     12  C   UNL     1      -3.464   3.831  -8.401  1.00  0.00     0.025 A 
ATOM     13  C   UNL     1      -3.898   2.784  -7.574  1.00  0.00     0.016 A 
ATOM     14  C   UNL     1      -2.996   1.819  -7.122  1.00  0.00     0.051 A 
ATOM     15  C   UNL     1      -1.652   1.876  -7.500  1.00  0.00     0.157 A 
ATOM     16  C   UNL     1      -2.116   3.875  -8.798  1.00  0.00     0.062 A 
ATOM     17  C   UNL     1      -1.208   2.905  -8.347  1.00  0.00     0.158 A 
BRANCH  15  18
ATOM     18  O   UNL     1      -0.773   0.898  -7.030  1.00  0.00    -0.504 OA
ATOM     19  H   UNL     1      -0.639   0.727  -6.041  1.00  0.00     0.293 HD
ENDBRANCH  15  18
BRANCH  17  20
ATOM     20  O   UNL     1       0.128   2.960  -8.739  1.00  0.00    -0.504 OA
ATOM     21  H   UNL     1       0.605   3.843  -8.881  1.00  0.00     0.293 HD
ENDBRANCH  17  20
ENDBRANCH   1  12
BRANCH   2  22
ATOM     22  O   UNL     1      -3.215   6.672  -7.885  1.00  0.00    -0.502 OA
ATOM     23  H   UNL     1      -2.447   7.188  -8.296  1.00  0.00     0.293 HD
ENDBRANCH   2  22
BRANCH   6  24
ATOM     24  O   UNL     1      -7.566   8.777 -10.125  1.00  0.00    -0.507 OA
ATOM     25  H   UNL     1      -8.410   9.241  -9.830  1.00  0.00     0.293 HD
ENDBRANCH   6  24
BRANCH   8  26
ATOM     26  O   UNL     1      -9.500   4.841 -12.080  1.00  0.00    -0.508 OA
ATOM     27  H   UNL     1      -9.582   3.835 -12.168  1.00  0.00     0.293 HD
ENDBRANCH   8  26
TORSDOF 6
ENDMDL
MODEL 9
REMARK VINA RESULT:    -6.139      3.223      6.177
REMARK INTER + INTRA:          -7.587
REMARK INTER:                  -7.309
REMARK INTRA:                  -0.278
REMARK UNBOUND:                -0.192
REMARK SMILES O=c1c(O)c(-c2ccc(O)c(O)c2)oc2cc(O)cc(O)c12
REMARK SMILES IDX 5 1 3 2 2 3 1 4 22 5 20 6 19 7 17 8 16 9 15 10 14 11 6 12
REMARK SMILES IDX 7 13 8 14 9 15 13 16 11 17 10 18 12 20 4 22 21 24 18 26
REMARK H PARENT 10 19 12 21 4 23 21 25 18 27
REMARK Flexibility Score: inf
ROOT
ATOM      1  C   UNL     1      -4.203   5.162 -10.052  1.00  0.00     0.180 A 
ATOM      2  C   UNL     1      -5.370   4.467 -10.414  1.00  0.00     0.208 A 
ATOM      3  C   UNL     1      -6.531   5.197 -10.715  1.00  0.00     0.238 A 
ATOM      4  O   UNL     1      -7.591   4.567 -10.965  1.00  0.00    -0.285 OA
ATOM      5  C   UNL     1      -6.497   6.612 -10.705  1.00  0.00     0.111 A 
ATOM      6  C   UNL     1      -7.602   7.454 -11.035  1.00  0.00     0.134 A 
ATOM      7  C   UNL     1      -7.483   8.841 -10.887  1.00  0.00     0.093 A 
ATOM      8  C   UNL     1      -6.278   9.422 -10.480  1.00  0.00     0.123 A 
ATOM      9  C   UNL     1      -5.178   8.613 -10.209  1.00  0.00     0.094 A 
ATOM     10  C   UNL     1      -5.277   7.223 -10.310  1.00  0.00     0.146 A 
ATOM     11  O   UNL     1      -4.210   6.489 -10.020  1.00  0.00    -0.452 OA
ENDROOT
BRANCH   1  12
ATOM     12  C   UNL     1      -2.943   4.463  -9.709  1.00  0.00     0.025 A 
ATOM     13  C   UNL     1      -1.865   4.503 -10.606  1.00  0.00     0.016 A 
ATOM     14  C   UNL     1      -0.661   3.869 -10.293  1.00  0.00     0.051 A 
ATOM     15  C   UNL     1      -0.509   3.200  -9.075  1.00  0.00     0.157 A 
ATOM     16  C   UNL     1      -2.783   3.807  -8.476  1.00  0.00     0.062 A 
ATOM     17  C   UNL     1      -1.573   3.172  -8.158  1.00  0.00     0.158 A 
BRANCH  15  18
ATOM     18  O   UNL     1       0.705   2.573  -8.791  1.00  0.00    -0.504 OA
ATOM     19  H   UNL     1       0.770   1.791  -8.152  1.00  0.00     0.293 HD
ENDBRANCH  15  18
BRANCH  17  20
ATOM     20  O   UNL     1      -1.425   2.518  -6.936  1.00  0.00    -0.504 OA
ATOM     21  H   UNL     1      -0.586   1.995  -6.712  1.00  0.00     0.293 HD
ENDBRANCH  17  20
ENDBRANCH   1  12
BRANCH   2  22
ATOM     22  O   UNL     1      -5.361   3.072 -10.494  1.00  0.00    -0.502 OA
ATOM     23  H   UNL     1      -5.978   2.559 -11.112  1.00  0.00     0.293 HD
ENDBRANCH   2  22
BRANCH   6  24
ATOM     24  O   UNL     1      -8.822   6.986 -11.535  1.00  0.00    -0.507 OA
ATOM     25  H   UNL     1      -8.922   6.261 -12.229  1.00  0.00     0.293 HD
ENDBRANCH   6  24
BRANCH   8  26
ATOM     26  O   UNL     1      -6.163  10.804 -10.352  1.00  0.00    -0.508 OA
ATOM     27  H   UNL     1      -6.044  11.244  -9.447  1.00  0.00     0.293 HD
ENDBRANCH   8  26
TORSDOF 6
ENDMDL
