MODEL 1
REMARK VINA RESULT:    -4.542      0.000      0.000
REMARK INTER + INTRA:         -12.911
REMARK INTER:                 -10.384
REMARK INTRA:                  -2.528
REMARK UNBOUND:                -2.528
REMARK SMILES CCCCCCCCCCCCCCCCCCCCCCCC(=O)[O-]
REMARK SMILES IDX 13 1 14 2 15 3 16 4 17 5 18 6 19 7 20 8 21 9 22 10 23 11
REMARK SMILES IDX 24 12 25 13 26 14 12 15 11 16 10 17 9 18 8 19 7 20 6 21 5 22
REMARK SMILES IDX 4 23 3 24 2 25 1 26
REMARK H PARENT
REMARK Flexibility Score: inf
ROOT
ATOM      1  C   UNL     1      -8.619   7.136  -4.606  1.00  0.00     0.000 C 
ENDROOT
BRANCH   1   2
ATOM      2  C   UNL     1      -7.225   7.729  -4.343  1.00  0.00     0.000 C 
BRANCH   2   3
ATOM      3  C   UNL     1      -6.554   8.250  -5.624  1.00  0.00     0.000 C 
BRANCH   3   4
ATOM      4  C   UNL     1      -5.811   7.120  -6.352  1.00  0.00     0.000 C 
BRANCH   4   5
ATOM      5  C   UNL     1      -6.493   6.701  -7.666  1.00  0.00     0.000 C 
BRANCH   5   6
ATOM      6  C   UNL     1      -7.398   5.456  -7.569  1.00  0.00     0.000 C 
BRANCH   6   7
ATOM      7  C   UNL     1      -8.811   5.626  -8.157  1.00  0.00     0.000 C 
BRANCH   7   8
ATOM      8  C   UNL     1      -9.152   4.562  -9.209  1.00  0.00     0.000 C 
BRANCH   8   9
ATOM      9  C   UNL     1      -9.609   5.220 -10.519  1.00  0.00     0.000 C 
BRANCH   9  10
ATOM     10  C   UNL     1      -8.823   4.720 -11.745  1.00  0.00     0.006 C 
BRANCH  10  11
ATOM     11  C   UNL     1      -7.532   5.505 -12.027  1.00  0.00     0.053 C 
BRANCH  11  12
ATOM     12  C   UNL     1      -6.737   4.895 -13.140  1.00  0.00     0.041 C 
ATOM     13  O   UNL     1      -5.741   5.502 -13.614  1.00  0.00    -0.550 OA
ATOM     14  O   UNL     1      -7.119   3.673 -13.680  1.00  0.00    -0.550 OA
ENDBRANCH  11  12
ENDBRANCH  10  11
ENDBRANCH   9  10
ENDBRANCH   8   9
ENDBRANCH   7   8
ENDBRANCH   6   7
ENDBRANCH   5   6
ENDBRANCH   4   5
ENDBRANCH   3   4
ENDBRANCH   2   3
ENDBRANCH   1   2
BRANCH   1  15
ATOM     15  C   UNL     1      -8.735   5.675  -4.138  1.00  0.00     0.000 C 
BRANCH  15  16
ATOM     16  C   UNL     1      -7.374   5.047  -3.798  1.00  0.00     0.000 C 
BRANCH  16  17
ATOM     17  C   UNL     1      -7.305   4.539  -2.349  1.00  0.00     0.000 C 
BRANCH  17  18
ATOM     18  C   UNL     1      -7.741   5.595  -1.315  1.00  0.00    -0.000 C 
BRANCH  18  19
ATOM     19  C   UNL     1      -9.080   5.315  -0.606  1.00  0.00    -0.000 C 
BRANCH  19  20
ATOM     20  C   UNL     1      -9.780   6.590  -0.110  1.00  0.00    -0.000 C 
BRANCH  20  21
ATOM     21  C   UNL     1      -9.705   7.745  -1.124  1.00  0.00    -0.000 C 
BRANCH  21  22
ATOM     22  C   UNL     1     -11.083   8.184  -1.667  1.00  0.00    -0.000 C 
BRANCH  22  23
ATOM     23  C   UNL     1     -11.187   9.710  -1.815  1.00  0.00    -0.000 C 
BRANCH  23  24
ATOM     24  C   UNL     1     -11.647  10.096  -3.225  1.00  0.00    -0.000 C 
BRANCH  24  25
ATOM     25  C   UNL     1     -13.155  10.371  -3.256  1.00  0.00    -0.003 C 
ATOM     26  C   UNL     1     -13.442  11.870  -3.273  1.00  0.00     0.004 C 
ENDBRANCH  24  25
ENDBRANCH  23  24
ENDBRANCH  22  23
ENDBRANCH  21  22
ENDBRANCH  20  21
ENDBRANCH  19  20
ENDBRANCH  18  19
ENDBRANCH  17  18
ENDBRANCH  16  17
ENDBRANCH  15  16
ENDBRANCH   1  15
TORSDOF 22
ENDMDL
MODEL 2
REMARK VINA RESULT:    -4.503      4.277     10.729
REMARK INTER + INTRA:         -12.821
REMARK INTER:                 -10.584
REMARK INTRA:                  -2.237
REMARK UNBOUND:                -2.528
REMARK SMILES CCCCCCCCCCCCCCCCCCCCCCCC(=O)[O-]
REMARK SMILES IDX 13 1 14 2 15 3 16 4 17 5 18 6 19 7 20 8 21 9 22 10 23 11
REMARK SMILES IDX 24 12 25 13 26 14 12 15 11 16 10 17 9 18 8 19 7 20 6 21 5 22
REMARK SMILES IDX 4 23 3 24 2 25 1 26
REMARK H PARENT
REMARK Flexibility Score: inf
ROOT
ATOM      1  C   UNL     1      -9.494   4.572  -9.085  1.00  0.00     0.000 C 
ENDROOT
BRANCH   1   2
ATOM      2  C   UNL     1      -9.077   5.585  -8.006  1.00  0.00     0.000 C 
BRANCH   2   3
ATOM      3  C   UNL     1      -7.557   5.616  -7.783  1.00  0.00     0.000 C 
BRANCH   3   4
ATOM      4  C   UNL     1      -7.135   6.900  -7.055  1.00  0.00     0.000 C 
BRANCH   4   5
ATOM      5  C   UNL     1      -5.613   7.126  -7.068  1.00  0.00     0.000 C 
BRANCH   5   6
ATOM      6  C   UNL     1      -5.064   7.972  -5.900  1.00  0.00     0.000 C 
BRANCH   6   7
ATOM      7  C   UNL     1      -5.470   7.490  -4.496  1.00  0.00     0.000 C 
BRANCH   7   8
ATOM      8  C   UNL     1      -4.922   6.096  -4.161  1.00  0.00     0.000 C 
BRANCH   8   9
ATOM      9  C   UNL     1      -5.924   5.310  -3.303  1.00  0.00     0.000 C 
BRANCH   9  10
ATOM     10  C   UNL     1      -7.022   4.628  -4.141  1.00  0.00     0.006 C 
BRANCH  10  11
ATOM     11  C   UNL     1      -8.371   5.365  -4.130  1.00  0.00     0.053 C 
BRANCH  11  12
ATOM     12  C   UNL     1      -8.722   5.871  -2.765  1.00  0.00     0.041 C 
ATOM     13  O   UNL     1      -9.100   5.069  -1.870  1.00  0.00    -0.550 OA
ATOM     14  O   UNL     1      -8.669   7.232  -2.492  1.00  0.00    -0.550 OA
ENDBRANCH  11  12
ENDBRANCH  10  11
ENDBRANCH   9  10
ENDBRANCH   8   9
ENDBRANCH   7   8
ENDBRANCH   6   7
ENDBRANCH   5   6
ENDBRANCH   4   5
ENDBRANCH   3   4
ENDBRANCH   2   3
ENDBRANCH   1   2
BRANCH   1  15
ATOM     15  C   UNL     1      -9.590   5.208 -10.483  1.00  0.00     0.000 C 
BRANCH  15  16
ATOM     16  C   UNL     1      -8.370   4.900 -11.365  1.00  0.00     0.000 C 
BRANCH  16  17
ATOM     17  C   UNL     1      -8.758   4.564 -12.814  1.00  0.00     0.000 C 
BRANCH  17  18
ATOM     18  C   UNL     1      -7.780   5.145 -13.853  1.00  0.00    -0.000 C 
BRANCH  18  19
ATOM     19  C   UNL     1      -6.316   5.269 -13.388  1.00  0.00    -0.000 C 
BRANCH  19  20
ATOM     20  C   UNL     1      -5.317   5.354 -14.552  1.00  0.00    -0.000 C 
BRANCH  20  21
ATOM     21  C   UNL     1      -5.847   4.704 -15.843  1.00  0.00    -0.000 C 
BRANCH  21  22
ATOM     22  C   UNL     1      -5.770   5.628 -17.078  1.00  0.00    -0.000 C 
BRANCH  22  23
ATOM     23  C   UNL     1      -5.512   7.092 -16.691  1.00  0.00    -0.000 C 
BRANCH  23  24
ATOM     24  C   UNL     1      -6.624   8.005 -17.218  1.00  0.00    -0.000 C 
BRANCH  24  25
ATOM     25  C   UNL     1      -8.007   7.459 -16.845  1.00  0.00    -0.003 C 
ATOM     26  C   UNL     1      -8.916   7.376 -18.067  1.00  0.00     0.004 C 
ENDBRANCH  24  25
ENDBRANCH  23  24
ENDBRANCH  22  23
ENDBRANCH  21  22
ENDBRANCH  20  21
ENDBRANCH  19  20
ENDBRANCH  18  19
ENDBRANCH  17  18
ENDBRANCH  16  17
ENDBRANCH  15  16
ENDBRANCH   1  15
TORSDOF 22
ENDMDL
MODEL 3
REMARK VINA RESULT:    -4.495      2.803      5.820
REMARK INTER + INTRA:         -12.803
REMARK INTER:                 -10.505
REMARK INTRA:                  -2.298
REMARK UNBOUND:                -2.528
REMARK SMILES CCCCCCCCCCCCCCCCCCCCCCCC(=O)[O-]
REMARK SMILES IDX 13 1 14 2 15 3 16 4 17 5 18 6 19 7 20 8 21 9 22 10 23 11
REMARK SMILES IDX 24 12 25 13 26 14 12 15 11 16 10 17 9 18 8 19 7 20 6 21 5 22
REMARK SMILES IDX 4 23 3 24 2 25 1 26
REMARK H PARENT
REMARK Flexibility Score: inf
ROOT
ATOM      1  C   UNL     1      -8.807   5.496  -8.204  1.00  0.00     0.000 C 
ENDROOT
BRANCH   1   2
ATOM      2  C   UNL     1      -9.175   4.501  -9.316  1.00  0.00     0.000 C 
BRANCH   2   3
ATOM      3  C   UNL     1      -9.542   5.200 -10.635  1.00  0.00     0.000 C 
BRANCH   3   4
ATOM      4  C   UNL     1      -8.827   4.541 -11.823  1.00  0.00     0.000 C 
BRANCH   4   5
ATOM      5  C   UNL     1      -7.617   5.352 -12.321  1.00  0.00     0.000 C 
BRANCH   5   6
ATOM      6  C   UNL     1      -6.825   4.709 -13.478  1.00  0.00     0.000 C 
BRANCH   6   7
ATOM      7  C   UNL     1      -5.562   5.474 -13.911  1.00  0.00     0.000 C 
BRANCH   7   8
ATOM      8  C   UNL     1      -5.566   5.841 -15.402  1.00  0.00     0.000 C 
BRANCH   8   9
ATOM      9  C   UNL     1      -6.965   5.649 -16.004  1.00  0.00     0.000 C 
BRANCH   9  10
ATOM     10  C   UNL     1      -7.609   6.972 -16.456  1.00  0.00     0.006 C 
BRANCH  10  11
ATOM     11  C   UNL     1      -7.675   7.152 -17.981  1.00  0.00     0.053 C 
BRANCH  11  12
ATOM     12  C   UNL     1      -9.053   6.913 -18.515  1.00  0.00     0.041 C 
ATOM     13  O   UNL     1      -9.862   7.871 -18.633  1.00  0.00    -0.550 OA
ATOM     14  O   UNL     1      -9.457   5.625 -18.847  1.00  0.00    -0.550 OA
ENDBRANCH  11  12
ENDBRANCH  10  11
ENDBRANCH   9  10
ENDBRANCH   8   9
ENDBRANCH   7   8
ENDBRANCH   6   7
ENDBRANCH   5   6
ENDBRANCH   4   5
ENDBRANCH   3   4
ENDBRANCH   2   3
ENDBRANCH   1   2
BRANCH   1  15
ATOM     15  C   UNL     1      -7.285   5.634  -8.017  1.00  0.00     0.000 C 
BRANCH  15  16
ATOM     16  C   UNL     1      -6.899   6.824  -7.125  1.00  0.00     0.000 C 
BRANCH  16  17
ATOM     17  C   UNL     1      -5.437   7.259  -7.323  1.00  0.00     0.000 C 
BRANCH  17  18
ATOM     18  C   UNL     1      -4.618   7.240  -6.018  1.00  0.00    -0.000 C 
BRANCH  18  19
ATOM     19  C   UNL     1      -5.142   8.154  -4.893  1.00  0.00    -0.000 C 
BRANCH  19  20
ATOM     20  C   UNL     1      -5.844   7.382  -3.765  1.00  0.00    -0.000 C 
BRANCH  20  21
ATOM     21  C   UNL     1      -5.454   5.894  -3.725  1.00  0.00    -0.000 C 
BRANCH  21  22
ATOM     22  C   UNL     1      -6.653   4.934  -3.882  1.00  0.00    -0.000 C 
BRANCH  22  23
ATOM     23  C   UNL     1      -7.971   5.574  -3.422  1.00  0.00    -0.000 C 
BRANCH  23  24
ATOM     24  C   UNL     1      -8.995   5.606  -4.562  1.00  0.00    -0.000 C 
BRANCH  24  25
ATOM     25  C   UNL     1      -9.548   7.021  -4.766  1.00  0.00    -0.003 C 
ATOM     26  C   UNL     1      -9.562   7.802  -3.456  1.00  0.00     0.004 C 
ENDBRANCH  24  25
ENDBRANCH  23  24
ENDBRANCH  22  23
ENDBRANCH  21  22
ENDBRANCH  20  21
ENDBRANCH  19  20
ENDBRANCH  18  19
ENDBRANCH  17  18
ENDBRANCH  16  17
ENDBRANCH  15  16
ENDBRANCH   1  15
TORSDOF 22
ENDMDL
MODEL 4
REMARK VINA RESULT:    -4.432      2.754      4.833
REMARK INTER + INTRA:         -12.660
REMARK INTER:                 -11.419
REMARK INTRA:                  -1.241
REMARK UNBOUND:                -2.528
REMARK SMILES CCCCCCCCCCCCCCCCCCCCCCCC(=O)[O-]
REMARK SMILES IDX 13 1 14 2 15 3 16 4 17 5 18 6 19 7 20 8 21 9 22 10 23 11
REMARK SMILES IDX 24 12 25 13 26 14 12 15 11 16 10 17 9 18 8 19 7 20 6 21 5 22
REMARK SMILES IDX 4 23 3 24 2 25 1 26
REMARK H PARENT
REMARK Flexibility Score: inf
ROOT
ATOM      1  C   UNL     1      -9.118   5.514  -8.220  1.00  0.00     0.000 C 
ENDROOT
BRANCH   1   2
ATOM      2  C   UNL     1      -9.215   4.440  -9.315  1.00  0.00     0.000 C 
BRANCH   2   3
ATOM      3  C   UNL     1      -9.524   5.034 -10.699  1.00  0.00     0.000 C 
BRANCH   3   4
ATOM      4  C   UNL     1      -8.255   5.105 -11.560  1.00  0.00     0.000 C 
BRANCH   4   5
ATOM      5  C   UNL     1      -8.496   4.685 -13.021  1.00  0.00     0.000 C 
BRANCH   5   6
ATOM      6  C   UNL     1      -7.289   4.031 -13.725  1.00  0.00     0.000 C 
BRANCH   6   7
ATOM      7  C   UNL     1      -6.047   4.929 -13.864  1.00  0.00     0.000 C 
BRANCH   7   8
ATOM      8  C   UNL     1      -5.536   5.023 -15.309  1.00  0.00     0.000 C 
BRANCH   8   9
ATOM      9  C   UNL     1      -6.063   6.295 -15.989  1.00  0.00     0.000 C 
BRANCH   9  10
ATOM     10  C   UNL     1      -7.385   6.066 -16.744  1.00  0.00     0.006 C 
BRANCH  10  11
ATOM     11  C   UNL     1      -8.221   7.339 -16.950  1.00  0.00     0.053 C 
BRANCH  11  12
ATOM     12  C   UNL     1      -8.765   7.434 -18.342  1.00  0.00     0.041 C 
ATOM     13  O   UNL     1      -9.943   7.834 -18.536  1.00  0.00    -0.550 OA
ATOM     14  O   UNL     1      -7.983   7.045 -19.423  1.00  0.00    -0.550 OA
ENDBRANCH  11  12
ENDBRANCH  10  11
ENDBRANCH   9  10
ENDBRANCH   8   9
ENDBRANCH   7   8
ENDBRANCH   6   7
ENDBRANCH   5   6
ENDBRANCH   4   5
ENDBRANCH   3   4
ENDBRANCH   2   3
ENDBRANCH   1   2
BRANCH   1  15
ATOM     15  C   UNL     1      -7.679   5.704  -7.707  1.00  0.00     0.000 C 
BRANCH  15  16
ATOM     16  C   UNL     1      -7.609   6.556  -6.431  1.00  0.00     0.000 C 
BRANCH  16  17
ATOM     17  C   UNL     1      -8.456   5.976  -5.286  1.00  0.00     0.000 C 
BRANCH  17  18
ATOM     18  C   UNL     1      -9.380   7.019  -4.629  1.00  0.00    -0.000 C 
BRANCH  18  19
ATOM     19  C   UNL     1      -8.914   7.546  -3.258  1.00  0.00    -0.000 C 
BRANCH  19  20
ATOM     20  C   UNL     1      -9.581   6.827  -2.075  1.00  0.00    -0.000 C 
BRANCH  20  21
ATOM     21  C   UNL     1     -10.628   7.699  -1.358  1.00  0.00    -0.000 C 
BRANCH  21  22
ATOM     22  C   UNL     1     -10.640   9.168  -1.833  1.00  0.00    -0.000 C 
BRANCH  22  23
ATOM     23  C   UNL     1     -12.066   9.731  -1.936  1.00  0.00    -0.000 C 
BRANCH  23  24
ATOM     24  C   UNL     1     -12.393  10.139  -3.377  1.00  0.00    -0.000 C 
BRANCH  24  25
ATOM     25  C   UNL     1     -13.739  10.869  -3.449  1.00  0.00    -0.003 C 
ATOM     26  C   UNL     1     -13.647  12.259  -2.827  1.00  0.00     0.004 C 
ENDBRANCH  24  25
ENDBRANCH  23  24
ENDBRANCH  22  23
ENDBRANCH  21  22
ENDBRANCH  20  21
ENDBRANCH  19  20
ENDBRANCH  18  19
ENDBRANCH  17  18
ENDBRANCH  16  17
ENDBRANCH  15  16
ENDBRANCH   1  15
TORSDOF 22
ENDMDL
MODEL 5
REMARK VINA RESULT:    -4.430      1.756      3.058
REMARK INTER + INTRA:         -12.655
REMARK INTER:                  -9.469
REMARK INTRA:                  -3.186
REMARK UNBOUND:                -2.528
REMARK SMILES CCCCCCCCCCCCCCCCCCCCCCCC(=O)[O-]
REMARK SMILES IDX 13 1 14 2 15 3 16 4 17 5 18 6 19 7 20 8 21 9 22 10 23 11
REMARK SMILES IDX 24 12 25 13 26 14 12 15 11 16 10 17 9 18 8 19 7 20 6 21 5 22
REMARK SMILES IDX 4 23 3 24 2 25 1 26
REMARK H PARENT
REMARK Flexibility Score: inf
ROOT
ATOM      1  C   UNL     1      -5.768   4.721  -3.589  1.00  0.00     0.000 C 
ENDROOT
BRANCH   1   2
ATOM      2  C   UNL     1      -5.859   5.900  -2.608  1.00  0.00     0.000 C 
BRANCH   2   3
ATOM      3  C   UNL     1      -6.003   7.253  -3.324  1.00  0.00     0.000 C 
BRANCH   3   4
ATOM      4  C   UNL     1      -7.231   8.018  -2.811  1.00  0.00     0.000 C 
BRANCH   4   5
ATOM      5  C   UNL     1      -8.224   8.380  -3.929  1.00  0.00     0.000 C 
BRANCH   5   6
ATOM      6  C   UNL     1      -9.382   7.381  -4.129  1.00  0.00     0.000 C 
BRANCH   6   7
ATOM      7  C   UNL     1      -8.972   6.009  -4.695  1.00  0.00     0.000 C 
BRANCH   7   8
ATOM      8  C   UNL     1      -9.103   5.931  -6.223  1.00  0.00     0.000 C 
BRANCH   8   9
ATOM      9  C   UNL     1      -7.758   6.229  -6.900  1.00  0.00     0.000 C 
BRANCH   9  10
ATOM     10  C   UNL     1      -7.608   5.534  -8.266  1.00  0.00     0.006 C 
BRANCH  10  11
ATOM     11  C   UNL     1      -8.854   4.754  -8.714  1.00  0.00     0.053 C 
BRANCH  11  12
ATOM     12  C   UNL     1      -9.270   5.114 -10.107  1.00  0.00     0.041 C 
ATOM     13  O   UNL     1      -8.447   5.029 -11.056  1.00  0.00    -0.550 OA
ATOM     14  O   UNL     1     -10.557   5.579 -10.350  1.00  0.00    -0.550 OA
ENDBRANCH  11  12
ENDBRANCH  10  11
ENDBRANCH   9  10
ENDBRANCH   8   9
ENDBRANCH   7   8
ENDBRANCH   6   7
ENDBRANCH   5   6
ENDBRANCH   4   5
ENDBRANCH   3   4
ENDBRANCH   2   3
ENDBRANCH   1   2
BRANCH   1  15
ATOM     15  C   UNL     1      -6.345   3.421  -3.002  1.00  0.00     0.000 C 
BRANCH  15  16
ATOM     16  C   UNL     1      -6.509   3.476  -1.475  1.00  0.00     0.000 C 
BRANCH  16  17
ATOM     17  C   UNL     1      -7.878   2.953  -1.009  1.00  0.00     0.000 C 
BRANCH  17  18
ATOM     18  C   UNL     1      -8.725   4.026  -0.296  1.00  0.00    -0.000 C 
BRANCH  18  19
ATOM     19  C   UNL     1      -9.105   5.248  -1.155  1.00  0.00    -0.000 C 
BRANCH  19  20
ATOM     20  C   UNL     1      -9.400   6.504  -0.320  1.00  0.00    -0.000 C 
BRANCH  20  21
ATOM     21  C   UNL     1     -10.738   7.167  -0.691  1.00  0.00    -0.000 C 
BRANCH  21  22
ATOM     22  C   UNL     1     -10.623   8.681  -0.975  1.00  0.00    -0.000 C 
BRANCH  22  23
ATOM     23  C   UNL     1     -11.913   9.257  -1.576  1.00  0.00    -0.000 C 
BRANCH  23  24
ATOM     24  C   UNL     1     -11.619  10.052  -2.853  1.00  0.00    -0.000 C 
BRANCH  24  25
ATOM     25  C   UNL     1     -12.911  10.365  -3.616  1.00  0.00    -0.003 C 
ATOM     26  C   UNL     1     -13.736  11.425  -2.893  1.00  0.00     0.004 C 
ENDBRANCH  24  25
ENDBRANCH  23  24
ENDBRANCH  22  23
ENDBRANCH  21  22
ENDBRANCH  20  21
ENDBRANCH  19  20
ENDBRANCH  18  19
ENDBRANCH  17  18
ENDBRANCH  16  17
ENDBRANCH  15  16
ENDBRANCH   1  15
TORSDOF 22
ENDMDL
MODEL 6
REMARK VINA RESULT:    -4.418      2.795      5.983
REMARK INTER + INTRA:         -12.627
REMARK INTER:                 -10.982
REMARK INTRA:                  -1.645
REMARK UNBOUND:                -2.528
REMARK SMILES CCCCCCCCCCCCCCCCCCCCCCCC(=O)[O-]
REMARK SMILES IDX 13 1 14 2 15 3 16 4 17 5 18 6 19 7 20 8 21 9 22 10 23 11
REMARK SMILES IDX 24 12 25 13 26 14 12 15 11 16 10 17 9 18 8 19 7 20 6 21 5 22
REMARK SMILES IDX 4 23 3 24 2 25 1 26
REMARK H PARENT
REMARK Flexibility Score: inf
ROOT
ATOM      1  C   UNL     1      -9.099   5.582  -8.104  1.00  0.00     0.000 C 
ENDROOT
BRANCH   1   2
ATOM      2  C   UNL     1      -9.201   4.571  -9.257  1.00  0.00     0.000 C 
BRANCH   2   3
ATOM      3  C   UNL     1      -9.518   5.242 -10.603  1.00  0.00     0.000 C 
BRANCH   3   4
ATOM      4  C   UNL     1      -8.780   4.542 -11.752  1.00  0.00     0.000 C 
BRANCH   4   5
ATOM      5  C   UNL     1      -7.834   5.482 -12.522  1.00  0.00     0.000 C 
BRANCH   5   6
ATOM      6  C   UNL     1      -6.416   4.928 -12.771  1.00  0.00     0.000 C 
BRANCH   6   7
ATOM      7  C   UNL     1      -6.155   4.417 -14.199  1.00  0.00     0.000 C 
BRANCH   7   8
ATOM      8  C   UNL     1      -5.600   5.505 -15.130  1.00  0.00     0.000 C 
BRANCH   8   9
ATOM      9  C   UNL     1      -6.493   5.665 -16.370  1.00  0.00     0.000 C 
BRANCH   9  10
ATOM     10  C   UNL     1      -7.832   6.358 -16.057  1.00  0.00     0.006 C 
BRANCH  10  11
ATOM     11  C   UNL     1      -8.165   7.533 -16.989  1.00  0.00     0.053 C 
BRANCH  11  12
ATOM     12  C   UNL     1      -8.836   7.077 -18.248  1.00  0.00     0.041 C 
ATOM     13  O   UNL     1      -9.152   7.913 -19.136  1.00  0.00    -0.550 OA
ATOM     14  O   UNL     1      -9.144   5.734 -18.425  1.00  0.00    -0.550 OA
ENDBRANCH  11  12
ENDBRANCH  10  11
ENDBRANCH   9  10
ENDBRANCH   8   9
ENDBRANCH   7   8
ENDBRANCH   6   7
ENDBRANCH   5   6
ENDBRANCH   4   5
ENDBRANCH   3   4
ENDBRANCH   2   3
ENDBRANCH   1   2
BRANCH   1  15
ATOM     15  C   UNL     1      -7.690   5.629  -7.485  1.00  0.00     0.000 C 
BRANCH  15  16
ATOM     16  C   UNL     1      -7.698   5.393  -5.966  1.00  0.00     0.000 C 
BRANCH  16  17
ATOM     17  C   UNL     1      -9.085   5.617  -5.342  1.00  0.00     0.000 C 
BRANCH  17  18
ATOM     18  C   UNL     1      -9.236   7.004  -4.686  1.00  0.00    -0.000 C 
BRANCH  18  19
ATOM     19  C   UNL     1      -8.464   7.201  -3.368  1.00  0.00    -0.000 C 
BRANCH  19  20
ATOM     20  C   UNL     1      -9.337   6.992  -2.120  1.00  0.00    -0.000 C 
BRANCH  20  21
ATOM     21  C   UNL     1      -9.446   5.513  -1.708  1.00  0.00    -0.000 C 
BRANCH  21  22
ATOM     22  C   UNL     1      -8.244   5.009  -0.880  1.00  0.00    -0.000 C 
BRANCH  22  23
ATOM     23  C   UNL     1      -8.075   3.485  -0.972  1.00  0.00    -0.000 C 
BRANCH  23  24
ATOM     24  C   UNL     1      -6.702   3.116  -1.546  1.00  0.00    -0.000 C 
BRANCH  24  25
ATOM     25  C   UNL     1      -6.464   3.812  -2.891  1.00  0.00    -0.003 C 
ATOM     26  C   UNL     1      -4.976   4.042  -3.137  1.00  0.00     0.004 C 
ENDBRANCH  24  25
ENDBRANCH  23  24
ENDBRANCH  22  23
ENDBRANCH  21  22
ENDBRANCH  20  21
ENDBRANCH  19  20
ENDBRANCH  18  19
ENDBRANCH  17  18
ENDBRANCH  16  17
ENDBRANCH  15  16
ENDBRANCH   1  15
TORSDOF 22
ENDMDL
MODEL 7
REMARK VINA RESULT:    -4.375      3.062      5.844
REMARK INTER + INTRA:         -12.529
REMARK INTER:                 -11.047
REMARK INTRA:                  -1.482
REMARK UNBOUND:                -2.528
REMARK SMILES CCCCCCCCCCCCCCCCCCCCCCCC(=O)[O-]
REMARK SMILES IDX 13 1 14 2 15 3 16 4 17 5 18 6 19 7 20 8 21 9 22 10 23 11
REMARK SMILES IDX 24 12 25 13 26 14 12 15 11 16 10 17 9 18 8 19 7 20 6 21 5 22
REMARK SMILES IDX 4 23 3 24 2 25 1 26
REMARK H PARENT
REMARK Flexibility Score: inf
ROOT
ATOM      1  C   UNL     1      -9.502   5.045 -10.719  1.00  0.00     0.000 C 
ENDROOT
BRANCH   1   2
ATOM      2  C   UNL     1      -8.273   4.932 -11.634  1.00  0.00     0.000 C 
BRANCH   2   3
ATOM      3  C   UNL     1      -8.648   4.584 -13.084  1.00  0.00     0.000 C 
BRANCH   3   4
ATOM      4  C   UNL     1      -7.392   4.316 -13.926  1.00  0.00     0.000 C 
BRANCH   4   5
ATOM      5  C   UNL     1      -6.176   5.144 -13.472  1.00  0.00     0.000 C 
BRANCH   5   6
ATOM      6  C   UNL     1      -5.270   5.658 -14.610  1.00  0.00     0.000 C 
BRANCH   6   7
ATOM      7  C   UNL     1      -5.842   5.490 -16.029  1.00  0.00     0.000 C 
BRANCH   7   8
ATOM      8  C   UNL     1      -6.008   6.825 -16.768  1.00  0.00     0.000 C 
BRANCH   8   9
ATOM      9  C   UNL     1      -7.465   7.307 -16.700  1.00  0.00     0.000 C 
BRANCH   9  10
ATOM     10  C   UNL     1      -8.452   6.316 -17.344  1.00  0.00     0.006 C 
BRANCH  10  11
ATOM     11  C   UNL     1      -8.342   6.223 -18.874  1.00  0.00     0.053 C 
BRANCH  11  12
ATOM     12  C   UNL     1      -8.102   4.818 -19.335  1.00  0.00     0.041 C 
ATOM     13  O   UNL     1      -6.944   4.325 -19.286  1.00  0.00    -0.550 OA
ATOM     14  O   UNL     1      -9.149   4.067 -19.853  1.00  0.00    -0.550 OA
ENDBRANCH  11  12
ENDBRANCH  10  11
ENDBRANCH   9  10
ENDBRANCH   8   9
ENDBRANCH   7   8
ENDBRANCH   6   7
ENDBRANCH   5   6
ENDBRANCH   4   5
ENDBRANCH   3   4
ENDBRANCH   2   3
ENDBRANCH   1   2
BRANCH   1  15
ATOM     15  C   UNL     1      -9.243   4.477  -9.312  1.00  0.00     0.000 C 
BRANCH  15  16
ATOM     16  C   UNL     1      -9.084   5.572  -8.246  1.00  0.00     0.000 C 
BRANCH  16  17
ATOM     17  C   UNL     1      -7.686   5.572  -7.605  1.00  0.00     0.000 C 
BRANCH  17  18
ATOM     18  C   UNL     1      -7.655   6.251  -6.222  1.00  0.00    -0.000 C 
BRANCH  18  19
ATOM     19  C   UNL     1      -8.763   5.815  -5.244  1.00  0.00    -0.000 C 
BRANCH  19  20
ATOM     20  C   UNL     1      -9.558   6.996  -4.665  1.00  0.00    -0.000 C 
BRANCH  20  21
ATOM     21  C   UNL     1      -8.860   7.653  -3.461  1.00  0.00    -0.000 C 
BRANCH  21  22
ATOM     22  C   UNL     1      -9.484   9.003  -3.044  1.00  0.00    -0.000 C 
BRANCH  22  23
ATOM     23  C   UNL     1     -10.942   8.850  -2.587  1.00  0.00    -0.000 C 
BRANCH  23  24
ATOM     24  C   UNL     1     -11.885   9.678  -3.469  1.00  0.00    -0.000 C 
BRANCH  24  25
ATOM     25  C   UNL     1     -12.928  10.414  -2.620  1.00  0.00    -0.003 C 
ATOM     26  C   UNL     1     -13.990  11.069  -3.497  1.00  0.00     0.004 C 
ENDBRANCH  24  25
ENDBRANCH  23  24
ENDBRANCH  22  23
ENDBRANCH  21  22
ENDBRANCH  20  21
ENDBRANCH  19  20
ENDBRANCH  18  19
ENDBRANCH  17  18
ENDBRANCH  16  17
ENDBRANCH  15  16
ENDBRANCH   1  15
TORSDOF 22
ENDMDL
MODEL 8
REMARK VINA RESULT:    -4.277      4.357      6.271
REMARK INTER + INTRA:         -12.305
REMARK INTER:                  -8.806
REMARK INTRA:                  -3.499
REMARK UNBOUND:                -2.528
REMARK SMILES CCCCCCCCCCCCCCCCCCCCCCCC(=O)[O-]
REMARK SMILES IDX 13 1 14 2 15 3 16 4 17 5 18 6 19 7 20 8 21 9 22 10 23 11
REMARK SMILES IDX 24 12 25 13 26 14 12 15 11 16 10 17 9 18 8 19 7 20 6 21 5 22
REMARK SMILES IDX 4 23 3 24 2 25 1 26
REMARK H PARENT
REMARK Flexibility Score: inf
ROOT
ATOM      1  C   UNL     1      -9.520   5.932  -6.009  1.00  0.00     0.000 C 
ENDROOT
BRANCH   1   2
ATOM      2  C   UNL     1      -8.758   5.717  -7.326  1.00  0.00     0.000 C 
BRANCH   2   3
ATOM      3  C   UNL     1      -7.255   5.485  -7.106  1.00  0.00     0.000 C 
BRANCH   3   4
ATOM      4  C   UNL     1      -6.450   6.750  -7.439  1.00  0.00     0.000 C 
BRANCH   4   5
ATOM      5  C   UNL     1      -6.106   7.588  -6.194  1.00  0.00     0.000 C 
BRANCH   5   6
ATOM      6  C   UNL     1      -4.910   7.074  -5.365  1.00  0.00     0.000 C 
BRANCH   6   7
ATOM      7  C   UNL     1      -5.275   6.457  -4.003  1.00  0.00     0.000 C 
BRANCH   7   8
ATOM      8  C   UNL     1      -4.265   5.400  -3.536  1.00  0.00     0.000 C 
BRANCH   8   9
ATOM      9  C   UNL     1      -4.981   4.099  -3.145  1.00  0.00     0.000 C 
BRANCH   9  10
ATOM     10  C   UNL     1      -6.114   4.323  -2.126  1.00  0.00     0.006 C 
BRANCH  10  11
ATOM     11  C   UNL     1      -7.002   3.091  -1.892  1.00  0.00     0.053 C 
BRANCH  11  12
ATOM     12  C   UNL     1      -8.045   3.342  -0.847  1.00  0.00     0.041 C 
ATOM     13  O   UNL     1      -8.778   2.400  -0.445  1.00  0.00    -0.550 OA
ATOM     14  O   UNL     1      -8.232   4.623  -0.345  1.00  0.00    -0.550 OA
ENDBRANCH  11  12
ENDBRANCH  10  11
ENDBRANCH   9  10
ENDBRANCH   8   9
ENDBRANCH   7   8
ENDBRANCH   6   7
ENDBRANCH   5   6
ENDBRANCH   4   5
ENDBRANCH   3   4
ENDBRANCH   2   3
ENDBRANCH   1   2
BRANCH   1  15
ATOM     15  C   UNL     1      -8.773   5.351  -4.795  1.00  0.00     0.000 C 
BRANCH  15  16
ATOM     16  C   UNL     1      -8.836   6.267  -3.562  1.00  0.00     0.000 C 
BRANCH  16  17
ATOM     17  C   UNL     1      -9.340   7.679  -3.902  1.00  0.00     0.000 C 
BRANCH  17  18
ATOM     18  C   UNL     1      -8.347   8.788  -3.502  1.00  0.00    -0.000 C 
BRANCH  18  19
ATOM     19  C   UNL     1      -7.897   8.774  -2.029  1.00  0.00    -0.000 C 
BRANCH  19  20
ATOM     20  C   UNL     1      -9.052   9.006  -1.041  1.00  0.00    -0.000 C 
BRANCH  20  21
ATOM     21  C   UNL     1      -9.545  10.463  -1.030  1.00  0.00    -0.000 C 
BRANCH  21  22
ATOM     22  C   UNL     1     -11.083  10.597  -0.976  1.00  0.00    -0.000 C 
BRANCH  22  23
ATOM     23  C   UNL     1     -11.787   9.530  -1.827  1.00  0.00    -0.000 C 
BRANCH  23  24
ATOM     24  C   UNL     1     -12.114  10.067  -3.225  1.00  0.00    -0.000 C 
BRANCH  24  25
ATOM     25  C   UNL     1     -13.439  10.838  -3.222  1.00  0.00    -0.003 C 
ATOM     26  C   UNL     1     -13.209  12.331  -3.430  1.00  0.00     0.004 C 
ENDBRANCH  24  25
ENDBRANCH  23  24
ENDBRANCH  22  23
ENDBRANCH  21  22
ENDBRANCH  20  21
ENDBRANCH  19  20
ENDBRANCH  18  19
ENDBRANCH  17  18
ENDBRANCH  16  17
ENDBRANCH  15  16
ENDBRANCH   1  15
TORSDOF 22
ENDMDL
MODEL 9
REMARK VINA RESULT:    -4.266      2.980      6.449
REMARK INTER + INTRA:         -12.281
REMARK INTER:                 -10.335
REMARK INTRA:                  -1.946
REMARK UNBOUND:                -2.528
REMARK SMILES CCCCCCCCCCCCCCCCCCCCCCCC(=O)[O-]
REMARK SMILES IDX 13 1 14 2 15 3 16 4 17 5 18 6 19 7 20 8 21 9 22 10 23 11
REMARK SMILES IDX 24 12 25 13 26 14 12 15 11 16 10 17 9 18 8 19 7 20 6 21 5 22
REMARK SMILES IDX 4 23 3 24 2 25 1 26
REMARK H PARENT
REMARK Flexibility Score: inf
ROOT
ATOM      1  C   UNL     1      -9.538   5.244 -10.628  1.00  0.00     0.000 C 
ENDROOT
BRANCH   1   2
ATOM      2  C   UNL     1      -8.752   4.543 -11.748  1.00  0.00     0.000 C 
BRANCH   2   3
ATOM      3  C   UNL     1      -7.643   5.432 -12.335  1.00  0.00     0.000 C 
BRANCH   3   4
ATOM      4  C   UNL     1      -7.541   5.249 -13.856  1.00  0.00     0.000 C 
BRANCH   4   5
ATOM      5  C   UNL     1      -6.509   4.183 -14.265  1.00  0.00     0.000 C 
BRANCH   5   6
ATOM      6  C   UNL     1      -5.417   4.665 -15.242  1.00  0.00     0.000 C 
BRANCH   6   7
ATOM      7  C   UNL     1      -4.798   6.035 -14.907  1.00  0.00     0.000 C 
BRANCH   7   8
ATOM      8  C   UNL     1      -4.518   6.885 -16.155  1.00  0.00     0.000 C 
BRANCH   8   9
ATOM      9  C   UNL     1      -5.657   6.745 -17.175  1.00  0.00     0.000 C 
BRANCH   9  10
ATOM     10  C   UNL     1      -6.750   7.816 -17.002  1.00  0.00     0.006 C 
BRANCH  10  11
ATOM     11  C   UNL     1      -8.173   7.249 -16.881  1.00  0.00     0.053 C 
BRANCH  11  12
ATOM     12  C   UNL     1      -8.788   6.988 -18.221  1.00  0.00     0.041 C 
ATOM     13  O   UNL     1      -9.288   7.935 -18.885  1.00  0.00    -0.550 OA
ATOM     14  O   UNL     1      -8.843   5.693 -18.722  1.00  0.00    -0.550 OA
ENDBRANCH  11  12
ENDBRANCH  10  11
ENDBRANCH   9  10
ENDBRANCH   8   9
ENDBRANCH   7   8
ENDBRANCH   6   7
ENDBRANCH   5   6
ENDBRANCH   4   5
ENDBRANCH   3   4
ENDBRANCH   2   3
ENDBRANCH   1   2
BRANCH   1  15
ATOM     15  C   UNL     1      -9.472   4.478  -9.294  1.00  0.00     0.000 C 
BRANCH  15  16
ATOM     16  C   UNL     1      -9.076   5.374  -8.110  1.00  0.00     0.000 C 
BRANCH  16  17
ATOM     17  C   UNL     1      -7.559   5.613  -8.033  1.00  0.00     0.000 C 
BRANCH  17  18
ATOM     18  C   UNL     1      -7.113   6.249  -6.703  1.00  0.00    -0.000 C 
BRANCH  18  19
ATOM     19  C   UNL     1      -5.880   7.169  -6.789  1.00  0.00    -0.000 C 
BRANCH  19  20
ATOM     20  C   UNL     1      -5.102   7.262  -5.467  1.00  0.00    -0.000 C 
BRANCH  20  21
ATOM     21  C   UNL     1      -5.783   6.498  -4.317  1.00  0.00    -0.000 C 
BRANCH  21  22
ATOM     22  C   UNL     1      -6.482   7.416  -3.291  1.00  0.00    -0.000 C 
BRANCH  22  23
ATOM     23  C   UNL     1      -7.617   6.695  -2.549  1.00  0.00    -0.000 C 
BRANCH  23  24
ATOM     24  C   UNL     1      -8.692   6.207  -3.527  1.00  0.00    -0.000 C 
BRANCH  24  25
ATOM     25  C   UNL     1      -9.397   7.388  -4.204  1.00  0.00    -0.003 C 
ATOM     26  C   UNL     1     -10.193   8.208  -3.193  1.00  0.00     0.004 C 
ENDBRANCH  24  25
ENDBRANCH  23  24
ENDBRANCH  22  23
ENDBRANCH  21  22
ENDBRANCH  20  21
ENDBRANCH  19  20
ENDBRANCH  18  19
ENDBRANCH  17  18
ENDBRANCH  16  17
ENDBRANCH  15  16
ENDBRANCH   1  15
TORSDOF 22
ENDMDL
