MODEL 1
REMARK VINA RESULT:    25.450      0.000      0.000
REMARK INTER + INTRA:          28.886
REMARK INTER:                  29.169
REMARK INTRA:                  -0.283
REMARK UNBOUND:                -0.283
REMARK SMILES O=C1C[C@H](c2ccc(O)cc2)Oc2cc(O)cc(O)c21
REMARK SMILES IDX 3 1 4 2 12 3 13 4 14 5 15 6 17 7 18 8 20 9 2 10 1 11 5 12
REMARK SMILES IDX 6 13 11 14 7 15 10 16 8 17 9 18 19 20 16 22
REMARK H PARENT 9 19 19 21 16 23
REMARK Flexibility Score: inf
ROOT
ATOM      1  C   UNL     1       9.062   4.881  18.590  1.00  0.00     0.131 C 
ATOM      2  C   UNL     1       7.703   5.475  18.186  1.00  0.00     0.211 C 
ATOM      3  O   UNL     1       6.633   4.655  18.666  1.00  0.00    -0.484 OA
ATOM      4  C   UNL     1       6.676   3.258  18.586  1.00  0.00     0.138 A 
ATOM      5  C   UNL     1       5.501   2.524  18.766  1.00  0.00     0.093 A 
ATOM      6  C   UNL     1       5.521   1.127  18.666  1.00  0.00     0.123 A 
ATOM      7  C   UNL     1       6.721   0.467  18.392  1.00  0.00     0.093 A 
ATOM      8  C   UNL     1       7.912   1.190  18.229  1.00  0.00     0.133 A 
ATOM      9  C   UNL     1       7.895   2.598  18.333  1.00  0.00     0.102 A 
ATOM     10  C   UNL     1       9.120   3.427  18.222  1.00  0.00     0.174 C 
ATOM     11  O   UNL     1      10.220   2.921  17.875  1.00  0.00    -0.294 OA
ENDROOT
BRANCH   2  12
ATOM     12  C   UNL     1       7.555   6.881  18.716  1.00  0.00    -0.007 A 
ATOM     13  C   UNL     1       7.117   7.919  17.875  1.00  0.00     0.011 A 
ATOM     14  C   UNL     1       7.802   7.154  20.072  1.00  0.00     0.011 A 
ATOM     15  C   UNL     1       6.953   9.213  18.379  1.00  0.00     0.046 A 
ATOM     16  C   UNL     1       7.637   8.450  20.572  1.00  0.00     0.046 A 
ATOM     17  C   UNL     1       7.213   9.483  19.726  1.00  0.00     0.115 A 
BRANCH  17  18
ATOM     18  O   UNL     1       7.046  10.777  20.214  1.00  0.00    -0.508 OA
ATOM     19  H   UNL     1       6.559  10.956  21.085  1.00  0.00     0.293 HD
ENDBRANCH  17  18
ENDBRANCH   2  12
BRANCH   8  20
ATOM     20  O   UNL     1       9.103   0.510  17.973  1.00  0.00    -0.507 OA
ATOM     21  H   UNL     1       9.456   0.391  17.032  1.00  0.00     0.293 HD
ENDBRANCH   8  20
BRANCH   6  22
ATOM     22  O   UNL     1       4.352   0.388  18.834  1.00  0.00    -0.508 OA
ATOM     23  H   UNL     1       3.722   0.561  19.609  1.00  0.00     0.293 HD
ENDBRANCH   6  22
TORSDOF 4
ENDMDL
