MODEL 1
REMARK VINA RESULT:    -7.390      0.000      0.000
REMARK INTER + INTRA:          -8.038
REMARK INTER:                  -8.038
REMARK INTRA:                   0.000
REMARK UNBOUND:                 0.000
REMARK SMILES Cc1cc(O)c2c(c1)C(=O)c1cc(O)cc(O)c1C2=O
REMARK SMILES IDX 1 1 2 2 8 3 7 4 6 5 4 6 3 7 19 8 20 9 18 10 11 11 9 12 10 13
REMARK SMILES IDX 12 14 13 15 15 16 16 17 5 18 17 20 14 22
REMARK H PARENT 5 19 17 21 14 23
REMARK Flexibility Score: inf
ROOT
ATOM      1  C   UNL     1       4.417 -21.103  46.368  1.00  0.00     0.044 C 
ATOM      2  C   UNL     1       3.238 -21.459  47.223  1.00  0.00    -0.047 A 
ATOM      3  C   UNL     1       2.032 -21.854  46.632  1.00  0.00     0.016 A 
ATOM      4  C   UNL     1       0.931 -22.216  47.425  1.00  0.00     0.038 A 
ATOM      5  C   UNL     1       1.037 -22.185  48.832  1.00  0.00     0.076 A 
ATOM      6  C   UNL     1       2.286 -21.866  49.425  1.00  0.00     0.127 A 
ATOM      7  C   UNL     1       3.362 -21.489  48.616  1.00  0.00     0.050 A 
ATOM      8  C   UNL     1      -0.190 -22.431  49.635  1.00  0.00     0.201 C 
ATOM      9  O   UNL     1      -0.320 -21.884  50.763  1.00  0.00    -0.288 OA
ATOM     10  C   UNL     1      -1.333 -23.162  49.031  1.00  0.00     0.076 A 
ATOM     11  C   UNL     1      -1.434 -23.194  47.621  1.00  0.00     0.041 A 
ATOM     12  C   UNL     1      -0.341 -22.640  46.790  1.00  0.00     0.194 C 
ATOM     13  O   UNL     1      -0.481 -22.552  45.538  1.00  0.00    -0.289 OA
ATOM     14  C   UNL     1      -2.571 -23.756  47.016  1.00  0.00     0.059 A 
ATOM     15  C   UNL     1      -3.596 -24.298  47.795  1.00  0.00     0.120 A 
ATOM     16  C   UNL     1      -3.481 -24.304  49.185  1.00  0.00     0.093 A 
ATOM     17  C   UNL     1      -2.351 -23.769  49.812  1.00  0.00     0.131 A 
ENDROOT
BRANCH   6  18
ATOM     18  O   UNL     1       2.511 -21.946  50.801  1.00  0.00    -0.507 OA
ATOM     19  H   UNL     1       1.892 -22.423  51.442  1.00  0.00     0.293 HD
ENDBRANCH   6  18
BRANCH  17  20
ATOM     20  O   UNL     1      -2.264 -23.895  51.200  1.00  0.00    -0.507 OA
ATOM     21  H   UNL     1      -1.501 -23.524  51.749  1.00  0.00     0.293 HD
ENDBRANCH  17  20
BRANCH  15  22
ATOM     22  O   UNL     1      -4.730 -24.844  47.199  1.00  0.00    -0.508 OA
ATOM     23  H   UNL     1      -5.000 -25.808  47.358  1.00  0.00     0.293 HD
ENDBRANCH  15  22
TORSDOF 3
ENDMDL
MODEL 2
REMARK VINA RESULT:    -7.295      4.083      6.192
REMARK INTER + INTRA:          -7.935
REMARK INTER:                  -7.935
REMARK INTRA:                   0.000
REMARK UNBOUND:                 0.000
REMARK SMILES Cc1cc(O)c2c(c1)C(=O)c1cc(O)cc(O)c1C2=O
REMARK SMILES IDX 1 1 2 2 8 3 7 4 6 5 4 6 3 7 19 8 20 9 18 10 11 11 9 12 10 13
REMARK SMILES IDX 12 14 13 15 15 16 16 17 5 18 17 20 14 22
REMARK H PARENT 5 19 17 21 14 23
REMARK Flexibility Score: inf
ROOT
ATOM      1  C   UNL     1      -5.919 -20.026  42.713  1.00  0.00     0.044 C 
ATOM      2  C   UNL     1      -5.720 -20.440  44.141  1.00  0.00    -0.047 A 
ATOM      3  C   UNL     1      -4.933 -21.556  44.448  1.00  0.00     0.016 A 
ATOM      4  C   UNL     1      -4.718 -21.936  45.783  1.00  0.00     0.038 A 
ATOM      5  C   UNL     1      -5.298 -21.186  46.829  1.00  0.00     0.076 A 
ATOM      6  C   UNL     1      -6.025 -20.008  46.516  1.00  0.00     0.127 A 
ATOM      7  C   UNL     1      -6.243 -19.662  45.179  1.00  0.00     0.050 A 
ATOM      8  C   UNL     1      -5.172 -21.703  48.217  1.00  0.00     0.201 C 
ATOM      9  O   UNL     1      -6.075 -21.458  49.061  1.00  0.00    -0.288 OA
ATOM     10  C   UNL     1      -4.084 -22.657  48.553  1.00  0.00     0.076 A 
ATOM     11  C   UNL     1      -3.503 -23.404  47.503  1.00  0.00     0.041 A 
ATOM     12  C   UNL     1      -3.877 -23.116  46.099  1.00  0.00     0.194 C 
ATOM     13  O   UNL     1      -3.458 -23.860  45.168  1.00  0.00    -0.289 OA
ATOM     14  C   UNL     1      -2.570 -24.413  47.797  1.00  0.00     0.059 A 
ATOM     15  C   UNL     1      -2.200 -24.674  49.118  1.00  0.00     0.120 A 
ATOM     16  C   UNL     1      -2.741 -23.913  50.153  1.00  0.00     0.093 A 
ATOM     17  C   UNL     1      -3.656 -22.890  49.887  1.00  0.00     0.131 A 
ENDROOT
BRANCH   6  18
ATOM     18  O   UNL     1      -6.511 -19.139  47.495  1.00  0.00    -0.507 OA
ATOM     19  H   UNL     1      -5.917 -18.590  48.100  1.00  0.00     0.293 HD
ENDBRANCH   6  18
BRANCH  17  20
ATOM     20  O   UNL     1      -4.083 -22.110  50.964  1.00  0.00    -0.507 OA
ATOM     21  H   UNL     1      -4.969 -21.625  50.987  1.00  0.00     0.293 HD
ENDBRANCH  17  20
BRANCH  15  22
ATOM     22  O   UNL     1      -1.285 -25.682  49.414  1.00  0.00    -0.508 OA
ATOM     23  H   UNL     1      -0.449 -25.497  49.956  1.00  0.00     0.293 HD
ENDBRANCH  15  22
TORSDOF 3
ENDMDL
MODEL 3
REMARK VINA RESULT:    -7.219      3.538      6.177
REMARK INTER + INTRA:          -7.852
REMARK INTER:                  -7.852
REMARK INTRA:                   0.000
REMARK UNBOUND:                 0.000
REMARK SMILES Cc1cc(O)c2c(c1)C(=O)c1cc(O)cc(O)c1C2=O
REMARK SMILES IDX 1 1 2 2 8 3 7 4 6 5 4 6 3 7 19 8 20 9 18 10 11 11 9 12 10 13
REMARK SMILES IDX 12 14 13 15 15 16 16 17 5 18 17 20 14 22
REMARK H PARENT 5 19 17 21 14 23
REMARK Flexibility Score: inf
ROOT
ATOM      1  C   UNL     1      -6.033 -21.148  43.054  1.00  0.00     0.044 C 
ATOM      2  C   UNL     1      -5.686 -21.139  44.514  1.00  0.00    -0.047 A 
ATOM      3  C   UNL     1      -4.651 -21.947  44.996  1.00  0.00     0.016 A 
ATOM      4  C   UNL     1      -4.301 -21.925  46.357  1.00  0.00     0.038 A 
ATOM      5  C   UNL     1      -4.996 -21.080  47.249  1.00  0.00     0.076 A 
ATOM      6  C   UNL     1      -5.988 -20.203  46.739  1.00  0.00     0.127 A 
ATOM      7  C   UNL     1      -6.334 -20.256  45.385  1.00  0.00     0.050 A 
ATOM      8  C   UNL     1      -4.699 -21.193  48.700  1.00  0.00     0.201 C 
ATOM      9  O   UNL     1      -5.599 -20.945  49.546  1.00  0.00    -0.288 OA
ATOM     10  C   UNL     1      -3.407 -21.777  49.146  1.00  0.00     0.076 A 
ATOM     11  C   UNL     1      -2.711 -22.619  48.249  1.00  0.00     0.041 A 
ATOM     12  C   UNL     1      -3.197 -22.779  46.859  1.00  0.00     0.194 C 
ATOM     13  O   UNL     1      -2.655 -23.625  46.093  1.00  0.00    -0.289 OA
ATOM     14  C   UNL     1      -1.559 -23.298  48.681  1.00  0.00     0.059 A 
ATOM     15  C   UNL     1      -1.086 -23.135  49.984  1.00  0.00     0.120 A 
ATOM     16  C   UNL     1      -1.746 -22.273  50.859  1.00  0.00     0.093 A 
ATOM     17  C   UNL     1      -2.884 -21.571  50.449  1.00  0.00     0.131 A 
ENDROOT
BRANCH   6  18
ATOM     18  O   UNL     1      -6.624 -19.241  47.528  1.00  0.00    -0.507 OA
ATOM     19  H   UNL     1      -6.638 -19.269  48.539  1.00  0.00     0.293 HD
ENDBRANCH   6  18
BRANCH  17  20
ATOM     20  O   UNL     1      -3.437 -20.657  51.349  1.00  0.00    -0.507 OA
ATOM     21  H   UNL     1      -3.056 -20.474  52.267  1.00  0.00     0.293 HD
ENDBRANCH  17  20
BRANCH  15  22
ATOM     22  O   UNL     1       0.049 -23.816  50.420  1.00  0.00    -0.508 OA
ATOM     23  H   UNL     1       0.031 -24.401  51.247  1.00  0.00     0.293 HD
ENDBRANCH  15  22
TORSDOF 3
ENDMDL
MODEL 4
REMARK VINA RESULT:    -7.177      4.269      5.249
REMARK INTER + INTRA:          -7.806
REMARK INTER:                  -7.806
REMARK INTRA:                   0.000
REMARK UNBOUND:                 0.000
REMARK SMILES Cc1cc(O)c2c(c1)C(=O)c1cc(O)cc(O)c1C2=O
REMARK SMILES IDX 1 1 2 2 8 3 7 4 6 5 4 6 3 7 19 8 20 9 18 10 11 11 9 12 10 13
REMARK SMILES IDX 12 14 13 15 15 16 16 17 5 18 17 20 14 22
REMARK H PARENT 5 19 17 21 14 23
REMARK Flexibility Score: inf
ROOT
ATOM      1  C   UNL     1      -2.117 -27.002  44.196  1.00  0.00     0.044 C 
ATOM      2  C   UNL     1      -2.406 -26.057  45.324  1.00  0.00    -0.047 A 
ATOM      3  C   UNL     1      -3.207 -24.929  45.111  1.00  0.00     0.016 A 
ATOM      4  C   UNL     1      -3.505 -24.053  46.167  1.00  0.00     0.038 A 
ATOM      5  C   UNL     1      -2.996 -24.309  47.459  1.00  0.00     0.076 A 
ATOM      6  C   UNL     1      -2.255 -25.497  47.687  1.00  0.00     0.127 A 
ATOM      7  C   UNL     1      -1.953 -26.344  46.616  1.00  0.00     0.050 A 
ATOM      8  C   UNL     1      -3.209 -23.284  48.514  1.00  0.00     0.201 C 
ATOM      9  O   UNL     1      -2.362 -23.151  49.438  1.00  0.00    -0.288 OA
ATOM     10  C   UNL     1      -4.312 -22.299  48.375  1.00  0.00     0.076 A 
ATOM     11  C   UNL     1      -4.823 -22.048  47.081  1.00  0.00     0.041 A 
ATOM     12  C   UNL     1      -4.361 -22.864  45.934  1.00  0.00     0.194 C 
ATOM     13  O   UNL     1      -4.717 -22.563  44.760  1.00  0.00    -0.289 OA
ATOM     14  C   UNL     1      -5.769 -21.027  46.890  1.00  0.00     0.059 A 
ATOM     15  C   UNL     1      -6.222 -20.268  47.971  1.00  0.00     0.120 A 
ATOM     16  C   UNL     1      -5.751 -20.540  49.255  1.00  0.00     0.093 A 
ATOM     17  C   UNL     1      -4.824 -21.563  49.476  1.00  0.00     0.131 A 
ENDROOT
BRANCH   6  18
ATOM     18  O   UNL     1      -1.834 -25.892  48.959  1.00  0.00    -0.507 OA
ATOM     19  H   UNL     1      -2.085 -25.403  49.808  1.00  0.00     0.293 HD
ENDBRANCH   6  18
BRANCH  17  20
ATOM     20  O   UNL     1      -4.469 -21.838  50.798  1.00  0.00    -0.507 OA
ATOM     21  H   UNL     1      -3.547 -22.143  51.078  1.00  0.00     0.293 HD
ENDBRANCH  17  20
BRANCH  15  22
ATOM     22  O   UNL     1      -7.150 -19.246  47.784  1.00  0.00    -0.508 OA
ATOM     23  H   UNL     1      -7.122 -18.396  48.335  1.00  0.00     0.293 HD
ENDBRANCH  15  22
TORSDOF 3
ENDMDL
MODEL 5
REMARK VINA RESULT:    -7.175      2.767      5.197
REMARK INTER + INTRA:          -7.805
REMARK INTER:                  -7.805
REMARK INTRA:                   0.000
REMARK UNBOUND:                 0.000
REMARK SMILES Cc1cc(O)c2c(c1)C(=O)c1cc(O)cc(O)c1C2=O
REMARK SMILES IDX 1 1 2 2 8 3 7 4 6 5 4 6 3 7 19 8 20 9 18 10 11 11 9 12 10 13
REMARK SMILES IDX 12 14 13 15 15 16 16 17 5 18 17 20 14 22
REMARK H PARENT 5 19 17 21 14 23
REMARK Flexibility Score: inf
ROOT
ATOM      1  C   UNL     1      -2.616 -19.236  43.115  1.00  0.00     0.044 C 
ATOM      2  C   UNL     1      -2.974 -20.064  44.313  1.00  0.00    -0.047 A 
ATOM      3  C   UNL     1      -1.968 -20.635  45.101  1.00  0.00     0.016 A 
ATOM      4  C   UNL     1      -2.293 -21.389  46.241  1.00  0.00     0.038 A 
ATOM      5  C   UNL     1      -3.646 -21.574  46.600  1.00  0.00     0.076 A 
ATOM      6  C   UNL     1      -4.657 -20.923  45.846  1.00  0.00     0.127 A 
ATOM      7  C   UNL     1      -4.311 -20.195  44.704  1.00  0.00     0.050 A 
ATOM      8  C   UNL     1      -3.955 -22.498  47.722  1.00  0.00     0.201 C 
ATOM      9  O   UNL     1      -5.043 -23.134  47.728  1.00  0.00    -0.288 OA
ATOM     10  C   UNL     1      -2.910 -22.810  48.731  1.00  0.00     0.076 A 
ATOM     11  C   UNL     1      -1.556 -22.620  48.370  1.00  0.00     0.041 A 
ATOM     12  C   UNL     1      -1.220 -21.985  47.074  1.00  0.00     0.194 C 
ATOM     13  O   UNL     1      -0.019 -21.928  46.692  1.00  0.00    -0.289 OA
ATOM     14  C   UNL     1      -0.537 -23.033  49.244  1.00  0.00     0.059 A 
ATOM     15  C   UNL     1      -0.849 -23.614  50.474  1.00  0.00     0.120 A 
ATOM     16  C   UNL     1      -2.182 -23.766  50.852  1.00  0.00     0.093 A 
ATOM     17  C   UNL     1      -3.217 -23.346  50.009  1.00  0.00     0.131 A 
ENDROOT
BRANCH   6  18
ATOM     18  O   UNL     1      -6.004 -20.942  46.215  1.00  0.00    -0.507 OA
ATOM     19  H   UNL     1      -6.655 -20.203  45.990  1.00  0.00     0.293 HD
ENDBRANCH   6  18
BRANCH  17  20
ATOM     20  O   UNL     1      -4.523 -23.445  50.493  1.00  0.00    -0.507 OA
ATOM     21  H   UNL     1      -4.836 -24.177  51.114  1.00  0.00     0.293 HD
ENDBRANCH  17  20
BRANCH  15  22
ATOM     22  O   UNL     1       0.160 -24.036  51.338  1.00  0.00    -0.508 OA
ATOM     23  H   UNL     1      -0.051 -24.419  52.253  1.00  0.00     0.293 HD
ENDBRANCH  15  22
TORSDOF 3
ENDMDL
MODEL 6
REMARK VINA RESULT:    -7.055      3.823      6.111
REMARK INTER + INTRA:          -7.673
REMARK INTER:                  -7.673
REMARK INTRA:                   0.000
REMARK UNBOUND:                 0.000
REMARK SMILES Cc1cc(O)c2c(c1)C(=O)c1cc(O)cc(O)c1C2=O
REMARK SMILES IDX 1 1 2 2 8 3 7 4 6 5 4 6 3 7 19 8 20 9 18 10 11 11 9 12 10 13
REMARK SMILES IDX 12 14 13 15 15 16 16 17 5 18 17 20 14 22
REMARK H PARENT 5 19 17 21 14 23
REMARK Flexibility Score: inf
ROOT
ATOM      1  C   UNL     1      -1.127 -24.876  49.547  1.00  0.00     0.044 C 
ATOM      2  C   UNL     1      -2.203 -23.948  49.066  1.00  0.00    -0.047 A 
ATOM      3  C   UNL     1      -1.973 -23.112  47.967  1.00  0.00     0.016 A 
ATOM      4  C   UNL     1      -2.984 -22.260  47.492  1.00  0.00     0.038 A 
ATOM      5  C   UNL     1      -4.246 -22.245  48.124  1.00  0.00     0.076 A 
ATOM      6  C   UNL     1      -4.499 -23.154  49.184  1.00  0.00     0.127 A 
ATOM      7  C   UNL     1      -3.472 -23.978  49.653  1.00  0.00     0.050 A 
ATOM      8  C   UNL     1      -5.238 -21.227  47.689  1.00  0.00     0.201 C 
ATOM      9  O   UNL     1      -6.079 -20.780  48.514  1.00  0.00    -0.288 OA
ATOM     10  C   UNL     1      -5.116 -20.605  46.346  1.00  0.00     0.076 A 
ATOM     11  C   UNL     1      -3.852 -20.625  45.713  1.00  0.00     0.041 A 
ATOM     12  C   UNL     1      -2.734 -21.383  46.322  1.00  0.00     0.194 C 
ATOM     13  O   UNL     1      -1.574 -21.301  45.831  1.00  0.00    -0.289 OA
ATOM     14  C   UNL     1      -3.663 -19.929  44.507  1.00  0.00     0.059 A 
ATOM     15  C   UNL     1      -4.719 -19.230  43.919  1.00  0.00     0.120 A 
ATOM     16  C   UNL     1      -5.978 -19.242  44.519  1.00  0.00     0.093 A 
ATOM     17  C   UNL     1      -6.198 -19.942  45.709  1.00  0.00     0.131 A 
ENDROOT
BRANCH   6  18
ATOM     18  O   UNL     1      -5.759 -23.298  49.770  1.00  0.00    -0.507 OA
ATOM     19  H   UNL     1      -6.495 -22.609  49.690  1.00  0.00     0.293 HD
ENDBRANCH   6  18
BRANCH  17  20
ATOM     20  O   UNL     1      -7.504 -19.985  46.201  1.00  0.00    -0.507 OA
ATOM     21  H   UNL     1      -7.932 -20.817  46.581  1.00  0.00     0.293 HD
ENDBRANCH  17  20
BRANCH  15  22
ATOM     22  O   UNL     1      -4.533 -18.529  42.730  1.00  0.00    -0.508 OA
ATOM     23  H   UNL     1      -4.770 -18.935  41.832  1.00  0.00     0.293 HD
ENDBRANCH  15  22
TORSDOF 3
ENDMDL
MODEL 7
REMARK VINA RESULT:    -7.051      2.640      5.818
REMARK INTER + INTRA:          -7.670
REMARK INTER:                  -7.670
REMARK INTRA:                   0.000
REMARK UNBOUND:                 0.000
REMARK SMILES Cc1cc(O)c2c(c1)C(=O)c1cc(O)cc(O)c1C2=O
REMARK SMILES IDX 1 1 2 2 8 3 7 4 6 5 4 6 3 7 19 8 20 9 18 10 11 11 9 12 10 13
REMARK SMILES IDX 12 14 13 15 15 16 16 17 5 18 17 20 14 22
REMARK H PARENT 5 19 17 21 14 23
REMARK Flexibility Score: inf
ROOT
ATOM      1  C   UNL     1      -6.762 -20.386  45.827  1.00  0.00     0.044 C 
ATOM      2  C   UNL     1      -5.732 -20.867  46.806  1.00  0.00    -0.047 A 
ATOM      3  C   UNL     1      -4.389 -20.965  46.425  1.00  0.00     0.016 A 
ATOM      4  C   UNL     1      -3.414 -21.388  47.343  1.00  0.00     0.038 A 
ATOM      5  C   UNL     1      -3.787 -21.715  48.665  1.00  0.00     0.076 A 
ATOM      6  C   UNL     1      -5.135 -21.533  49.069  1.00  0.00     0.127 A 
ATOM      7  C   UNL     1      -6.092 -21.131  48.132  1.00  0.00     0.050 A 
ATOM      8  C   UNL     1      -2.755 -22.298  49.562  1.00  0.00     0.201 C 
ATOM      9  O   UNL     1      -3.097 -23.102  50.470  1.00  0.00    -0.288 OA
ATOM     10  C   UNL     1      -1.315 -22.081  49.270  1.00  0.00     0.076 A 
ATOM     11  C   UNL     1      -0.945 -21.750  47.947  1.00  0.00     0.041 A 
ATOM     12  C   UNL     1      -1.992 -21.483  46.933  1.00  0.00     0.194 C 
ATOM     13  O   UNL     1      -1.671 -21.312  45.724  1.00  0.00    -0.289 OA
ATOM     14  C   UNL     1       0.414 -21.672  47.601  1.00  0.00     0.059 A 
ATOM     15  C   UNL     1       1.405 -21.904  48.558  1.00  0.00     0.120 A 
ATOM     16  C   UNL     1       1.044 -22.191  49.874  1.00  0.00     0.093 A 
ATOM     17  C   UNL     1      -0.302 -22.255  50.249  1.00  0.00     0.131 A 
ENDROOT
BRANCH   6  18
ATOM     18  O   UNL     1      -5.557 -21.701  50.390  1.00  0.00    -0.507 OA
ATOM     19  H   UNL     1      -5.317 -21.065  51.138  1.00  0.00     0.293 HD
ENDBRANCH   6  18
BRANCH  17  20
ATOM     20  O   UNL     1      -0.585 -22.455  51.602  1.00  0.00    -0.507 OA
ATOM     21  H   UNL     1      -1.182 -21.847  52.145  1.00  0.00     0.293 HD
ENDBRANCH  17  20
BRANCH  15  22
ATOM     22  O   UNL     1       2.754 -21.840  48.215  1.00  0.00    -0.508 OA
ATOM     23  H   UNL     1       3.482 -22.024  48.895  1.00  0.00     0.293 HD
ENDBRANCH  15  22
TORSDOF 3
ENDMDL
MODEL 8
REMARK VINA RESULT:    -6.954      2.907      4.312
REMARK INTER + INTRA:          -7.564
REMARK INTER:                  -7.564
REMARK INTRA:                   0.000
REMARK UNBOUND:                 0.000
REMARK SMILES Cc1cc(O)c2c(c1)C(=O)c1cc(O)cc(O)c1C2=O
REMARK SMILES IDX 1 1 2 2 8 3 7 4 6 5 4 6 3 7 19 8 20 9 18 10 11 11 9 12 10 13
REMARK SMILES IDX 12 14 13 15 15 16 16 17 5 18 17 20 14 22
REMARK H PARENT 5 19 17 21 14 23
REMARK Flexibility Score: inf
ROOT
ATOM      1  C   UNL     1       2.127 -21.579  44.228  1.00  0.00     0.044 C 
ATOM      2  C   UNL     1       0.697 -21.502  44.675  1.00  0.00    -0.047 A 
ATOM      3  C   UNL     1       0.207 -22.401  45.629  1.00  0.00     0.016 A 
ATOM      4  C   UNL     1      -1.123 -22.319  46.074  1.00  0.00     0.038 A 
ATOM      5  C   UNL     1      -1.977 -21.319  45.558  1.00  0.00     0.076 A 
ATOM      6  C   UNL     1      -1.451 -20.359  44.654  1.00  0.00     0.127 A 
ATOM      7  C   UNL     1      -0.130 -20.473  44.210  1.00  0.00     0.050 A 
ATOM      8  C   UNL     1      -3.412 -21.356  45.940  1.00  0.00     0.201 C 
ATOM      9  O   UNL     1      -4.284 -20.922  45.140  1.00  0.00    -0.288 OA
ATOM     10  C   UNL     1      -3.830 -22.071  47.173  1.00  0.00     0.076 A 
ATOM     11  C   UNL     1      -2.971 -23.069  47.689  1.00  0.00     0.041 A 
ATOM     12  C   UNL     1      -1.631 -23.271  47.090  1.00  0.00     0.194 C 
ATOM     13  O   UNL     1      -0.913 -24.240  47.463  1.00  0.00    -0.289 OA
ATOM     14  C   UNL     1      -3.392 -23.860  48.771  1.00  0.00     0.059 A 
ATOM     15  C   UNL     1      -4.646 -23.660  49.352  1.00  0.00     0.120 A 
ATOM     16  C   UNL     1      -5.479 -22.650  48.872  1.00  0.00     0.093 A 
ATOM     17  C   UNL     1      -5.077 -21.835  47.809  1.00  0.00     0.131 A 
ENDROOT
BRANCH   6  18
ATOM     18  O   UNL     1      -2.189 -19.262  44.206  1.00  0.00    -0.507 OA
ATOM     19  H   UNL     1      -1.803 -18.526  43.630  1.00  0.00     0.293 HD
ENDBRANCH   6  18
BRANCH  17  20
ATOM     20  O   UNL     1      -5.924 -20.786  47.444  1.00  0.00    -0.507 OA
ATOM     21  H   UNL     1      -6.890 -20.914  47.176  1.00  0.00     0.293 HD
ENDBRANCH  17  20
BRANCH  15  22
ATOM     22  O   UNL     1      -5.071 -24.451  50.417  1.00  0.00    -0.508 OA
ATOM     23  H   UNL     1      -4.630 -25.338  50.627  1.00  0.00     0.293 HD
ENDBRANCH  15  22
TORSDOF 3
ENDMDL
MODEL 9
REMARK VINA RESULT:    -6.947      3.440      6.590
REMARK INTER + INTRA:          -7.556
REMARK INTER:                  -7.556
REMARK INTRA:                   0.000
REMARK UNBOUND:                 0.000
REMARK SMILES Cc1cc(O)c2c(c1)C(=O)c1cc(O)cc(O)c1C2=O
REMARK SMILES IDX 1 1 2 2 8 3 7 4 6 5 4 6 3 7 19 8 20 9 18 10 11 11 9 12 10 13
REMARK SMILES IDX 12 14 13 15 15 16 16 17 5 18 17 20 14 22
REMARK H PARENT 5 19 17 21 14 23
REMARK Flexibility Score: inf
ROOT
ATOM      1  C   UNL     1      -7.871 -19.702  44.892  1.00  0.00     0.044 C 
ATOM      2  C   UNL     1      -6.582 -20.411  45.184  1.00  0.00    -0.047 A 
ATOM      3  C   UNL     1      -6.238 -20.733  46.502  1.00  0.00     0.016 A 
ATOM      4  C   UNL     1      -5.046 -21.422  46.783  1.00  0.00     0.038 A 
ATOM      5  C   UNL     1      -4.185 -21.796  45.728  1.00  0.00     0.076 A 
ATOM      6  C   UNL     1      -4.579 -21.542  44.389  1.00  0.00     0.127 A 
ATOM      7  C   UNL     1      -5.760 -20.837  44.135  1.00  0.00     0.050 A 
ATOM      8  C   UNL     1      -2.867 -22.390  46.075  1.00  0.00     0.201 C 
ATOM      9  O   UNL     1      -1.881 -22.216  45.309  1.00  0.00    -0.288 OA
ATOM     10  C   UNL     1      -2.668 -23.021  47.405  1.00  0.00     0.076 A 
ATOM     11  C   UNL     1      -3.535 -22.647  48.457  1.00  0.00     0.041 A 
ATOM     12  C   UNL     1      -4.693 -21.765  48.181  1.00  0.00     0.194 C 
ATOM     13  O   UNL     1      -5.394 -21.327  49.135  1.00  0.00    -0.289 OA
ATOM     14  C   UNL     1      -3.294 -23.116  49.759  1.00  0.00     0.059 A 
ATOM     15  C   UNL     1      -2.215 -23.964  50.020  1.00  0.00     0.120 A 
ATOM     16  C   UNL     1      -1.383 -24.368  48.977  1.00  0.00     0.093 A 
ATOM     17  C   UNL     1      -1.611 -23.931  47.669  1.00  0.00     0.131 A 
ENDROOT
BRANCH   6  18
ATOM     18  O   UNL     1      -3.853 -22.001  43.288  1.00  0.00    -0.507 OA
ATOM     19  H   UNL     1      -4.167 -21.905  42.332  1.00  0.00     0.293 HD
ENDBRANCH   6  18
BRANCH  17  20
ATOM     20  O   UNL     1      -0.793 -24.450  46.663  1.00  0.00    -0.507 OA
ATOM     21  H   UNL     1       0.209 -24.550  46.752  1.00  0.00     0.293 HD
ENDBRANCH  17  20
BRANCH  15  22
ATOM     22  O   UNL     1      -1.967 -24.421  51.313  1.00  0.00    -0.508 OA
ATOM     23  H   UNL     1      -1.504 -23.839  52.001  1.00  0.00     0.293 HD
ENDBRANCH  15  22
TORSDOF 3
ENDMDL
