MODEL 1
REMARK VINA RESULT:    -6.043      0.000      0.000
REMARK INTER + INTRA:          -7.589
REMARK INTER:                  -7.280
REMARK INTRA:                  -0.309
REMARK UNBOUND:                -0.309
REMARK SMILES Oc1cc(O)c2cc(O)c(-c3ccc(O)c(O)c3)[o+]c2c1.[Cl-]
REMARK SMILES IDX 10 1 19 2 20 3 21 4 2 5 3 6 4 7 6 8 7 9 8 10 11 11 12 12
REMARK SMILES IDX 13 13 14 14 18 15 16 16 15 17 17 19 9 21 1 23 5 25
REMARK H PARENT 15 18 17 20 9 22 1 24 5 26
REMARK Flexibility Score: inf
ROOT
ATOM      1  C   UNL     1     110.279 103.827 100.643  1.00  0.00     0.402 A 
ATOM      2  O   UNL     1     110.241 102.892 101.589  1.00  0.00    -0.202 OA
ATOM      3  C   UNL     1     109.390 102.921 102.610  1.00  0.00     0.368 A 
ATOM      4  C   UNL     1     109.428 101.894 103.556  1.00  0.00     0.162 A 
ATOM      5  C   UNL     1     108.550 101.899 104.639  1.00  0.00     0.128 A 
ATOM      6  C   UNL     1     107.624 102.940 104.780  1.00  0.00     0.093 A 
ATOM      7  C   UNL     1     107.566 103.981 103.846  1.00  0.00     0.136 A 
ATOM      8  C   UNL     1     108.457 103.977 102.741  1.00  0.00     0.125 A 
ATOM      9  C   UNL     1     108.461 104.971 101.748  1.00  0.00     0.078 A 
ATOM     10  C   UNL     1     109.366 104.896 100.686  1.00  0.00     0.223 A 
ENDROOT
BRANCH   1  11
ATOM     11  C   UNL     1     111.281 103.688  99.561  1.00  0.00     0.087 A 
ATOM     12  C   UNL     1     112.606 104.092  99.791  1.00  0.00     0.022 A 
ATOM     13  C   UNL     1     113.563 103.988  98.779  1.00  0.00     0.051 A 
ATOM     14  C   UNL     1     113.210 103.496  97.519  1.00  0.00     0.157 A 
ATOM     15  C   UNL     1     110.922 103.212  98.287  1.00  0.00     0.068 A 
ATOM     16  C   UNL     1     111.882 103.110  97.268  1.00  0.00     0.158 A 
BRANCH  14  17
ATOM     17  O   UNL     1     114.187 103.402  96.529  1.00  0.00    -0.504 OA
ATOM     18  H   UNL     1     113.955 103.382  95.543  1.00  0.00     0.293 HD
ENDBRANCH  14  17
BRANCH  16  19
ATOM     19  O   UNL     1     111.519 102.631  96.010  1.00  0.00    -0.504 OA
ATOM     20  H   UNL     1     111.532 103.228  95.191  1.00  0.00     0.293 HD
ENDBRANCH  16  19
ENDBRANCH   1  11
BRANCH  10  21
ATOM     21  O   UNL     1     109.338 105.856  99.673  1.00  0.00    -0.500 OA
ATOM     22  H   UNL     1     108.697 106.641  99.701  1.00  0.00     0.294 HD
ENDBRANCH  10  21
BRANCH   5  23
ATOM     23  O   UNL     1     108.603 100.866 105.572  1.00  0.00    -0.507 OA
ATOM     24  H   UNL     1     108.917 101.025 106.522  1.00  0.00     0.293 HD
ENDBRANCH   5  23
BRANCH   7  25
ATOM     25  O   UNL     1     106.616 104.984 104.059  1.00  0.00    -0.507 OA
ATOM     26  H   UNL     1     106.063 105.410 103.328  1.00  0.00     0.293 HD
ENDBRANCH   7  25
TORSDOF 6
ENDMDL
MODEL 2
REMARK VINA RESULT:    -5.967      3.681      6.197
REMARK INTER + INTRA:          -7.498
REMARK INTER:                  -7.555
REMARK INTRA:                   0.057
REMARK UNBOUND:                -0.309
REMARK SMILES Oc1cc(O)c2cc(O)c(-c3ccc(O)c(O)c3)[o+]c2c1.[Cl-]
REMARK SMILES IDX 10 1 19 2 20 3 21 4 2 5 3 6 4 7 6 8 7 9 8 10 11 11 12 12
REMARK SMILES IDX 13 13 14 14 18 15 16 16 15 17 17 19 9 21 1 23 5 25
REMARK H PARENT 15 18 17 20 9 22 1 24 5 26
REMARK Flexibility Score: inf
ROOT
ATOM      1  C   UNL     1     110.436 103.156  97.308  1.00  0.00     0.402 A 
ATOM      2  O   UNL     1     111.563 103.805  97.025  1.00  0.00    -0.202 OA
ATOM      3  C   UNL     1     112.290 104.439  97.940  1.00  0.00     0.368 A 
ATOM      4  C   UNL     1     113.458 105.096  97.545  1.00  0.00     0.162 A 
ATOM      5  C   UNL     1     114.238 105.772  98.482  1.00  0.00     0.128 A 
ATOM      6  C   UNL     1     113.850 105.795  99.827  1.00  0.00     0.093 A 
ATOM      7  C   UNL     1     112.683 105.145 100.248  1.00  0.00     0.136 A 
ATOM      8  C   UNL     1     111.888 104.454  99.297  1.00  0.00     0.125 A 
ATOM      9  C   UNL     1     110.711 103.763  99.631  1.00  0.00     0.078 A 
ATOM     10  C   UNL     1     109.982 103.101  98.639  1.00  0.00     0.223 A 
ENDROOT
BRANCH   1  11
ATOM     11  C   UNL     1     109.711 102.497  96.199  1.00  0.00     0.087 A 
ATOM     12  C   UNL     1     108.314 102.614  96.121  1.00  0.00     0.022 A 
ATOM     13  C   UNL     1     107.607 101.984  95.094  1.00  0.00     0.051 A 
ATOM     14  C   UNL     1     108.279 101.214  94.141  1.00  0.00     0.157 A 
ATOM     15  C   UNL     1     110.384 101.705  95.251  1.00  0.00     0.068 A 
ATOM     16  C   UNL     1     109.674 101.069  94.221  1.00  0.00     0.158 A 
BRANCH  14  17
ATOM     17  O   UNL     1     107.548 100.599  93.126  1.00  0.00    -0.504 OA
ATOM     18  H   UNL     1     107.974  99.962  92.465  1.00  0.00     0.293 HD
ENDBRANCH  14  17
BRANCH  16  19
ATOM     19  O   UNL     1     110.351 100.292  93.281  1.00  0.00    -0.504 OA
ATOM     20  H   UNL     1     111.127  99.697  93.545  1.00  0.00     0.293 HD
ENDBRANCH  16  19
ENDBRANCH   1  11
BRANCH  10  21
ATOM     21  O   UNL     1     108.841 102.373  98.977  1.00  0.00    -0.500 OA
ATOM     22  H   UNL     1     108.178 102.066  98.275  1.00  0.00     0.294 HD
ENDBRANCH  10  21
BRANCH   5  23
ATOM     23  O   UNL     1     115.400 106.420  98.069  1.00  0.00    -0.507 OA
ATOM     24  H   UNL     1     115.639 107.346  98.404  1.00  0.00     0.293 HD
ENDBRANCH   5  23
BRANCH   7  25
ATOM     25  O   UNL     1     112.362 105.216 101.606  1.00  0.00    -0.507 OA
ATOM     26  H   UNL     1     111.486 105.568 101.968  1.00  0.00     0.293 HD
ENDBRANCH   7  25
TORSDOF 6
ENDMDL
MODEL 3
REMARK VINA RESULT:    -5.943      8.516     10.976
REMARK INTER + INTRA:          -7.469
REMARK INTER:                  -7.192
REMARK INTRA:                  -0.276
REMARK UNBOUND:                -0.309
REMARK SMILES Oc1cc(O)c2cc(O)c(-c3ccc(O)c(O)c3)[o+]c2c1.[Cl-]
REMARK SMILES IDX 10 1 19 2 20 3 21 4 2 5 3 6 4 7 6 8 7 9 8 10 11 11 12 12
REMARK SMILES IDX 13 13 14 14 18 15 16 16 15 17 17 19 9 21 1 23 5 25
REMARK H PARENT 15 18 17 20 9 22 1 24 5 26
REMARK Flexibility Score: inf
ROOT
ATOM      1  C   UNL     1     105.830 109.455  95.483  1.00  0.00     0.402 A 
ATOM      2  O   UNL     1     106.745 110.071  94.739  1.00  0.00    -0.202 OA
ATOM      3  C   UNL     1     106.625 111.331  94.331  1.00  0.00     0.368 A 
ATOM      4  C   UNL     1     107.639 111.891  93.549  1.00  0.00     0.162 A 
ATOM      5  C   UNL     1     107.539 113.208  93.103  1.00  0.00     0.128 A 
ATOM      6  C   UNL     1     106.417 113.975  93.440  1.00  0.00     0.093 A 
ATOM      7  C   UNL     1     105.388 113.437  94.221  1.00  0.00     0.136 A 
ATOM      8  C   UNL     1     105.487 112.097  94.678  1.00  0.00     0.125 A 
ATOM      9  C   UNL     1     104.511 111.479  95.478  1.00  0.00     0.078 A 
ATOM     10  C   UNL     1     104.681 110.156  95.894  1.00  0.00     0.223 A 
ENDROOT
BRANCH   1  11
ATOM     11  C   UNL     1     106.073 108.046  95.867  1.00  0.00     0.087 A 
ATOM     12  C   UNL     1     106.474 107.747  97.179  1.00  0.00     0.022 A 
ATOM     13  C   UNL     1     106.728 106.426  97.557  1.00  0.00     0.051 A 
ATOM     14  C   UNL     1     106.603 105.387  96.630  1.00  0.00     0.157 A 
ATOM     15  C   UNL     1     105.967 107.002  94.930  1.00  0.00     0.068 A 
ATOM     16  C   UNL     1     106.225 105.675  95.308  1.00  0.00     0.158 A 
BRANCH  14  17
ATOM     17  O   UNL     1     106.860 104.079  97.037  1.00  0.00    -0.504 OA
ATOM     18  H   UNL     1     107.411 103.440  96.478  1.00  0.00     0.293 HD
ENDBRANCH  14  17
BRANCH  16  19
ATOM     19  O   UNL     1     106.111 104.647  94.374  1.00  0.00    -0.504 OA
ATOM     20  H   UNL     1     106.518 104.722  93.450  1.00  0.00     0.293 HD
ENDBRANCH  16  19
ENDBRANCH   1  11
BRANCH  10  21
ATOM     21  O   UNL     1     103.736 109.557  96.728  1.00  0.00    -0.500 OA
ATOM     22  H   UNL     1     103.013 108.949  96.363  1.00  0.00     0.294 HD
ENDBRANCH  10  21
BRANCH   5  23
ATOM     23  O   UNL     1     108.560 113.750  92.326  1.00  0.00    -0.507 OA
ATOM     24  H   UNL     1     109.111 113.176  91.698  1.00  0.00     0.293 HD
ENDBRANCH   5  23
BRANCH   7  25
ATOM     25  O   UNL     1     104.300 114.265  94.511  1.00  0.00    -0.507 OA
ATOM     26  H   UNL     1     104.298 114.974  95.231  1.00  0.00     0.293 HD
ENDBRANCH   7  25
TORSDOF 6
ENDMDL
MODEL 4
REMARK VINA RESULT:    -5.893      5.526      7.278
REMARK INTER + INTRA:          -7.408
REMARK INTER:                  -7.176
REMARK INTRA:                  -0.233
REMARK UNBOUND:                -0.309
REMARK SMILES Oc1cc(O)c2cc(O)c(-c3ccc(O)c(O)c3)[o+]c2c1.[Cl-]
REMARK SMILES IDX 10 1 19 2 20 3 21 4 2 5 3 6 4 7 6 8 7 9 8 10 11 11 12 12
REMARK SMILES IDX 13 13 14 14 18 15 16 16 15 17 17 19 9 21 1 23 5 25
REMARK H PARENT 15 18 17 20 9 22 1 24 5 26
REMARK Flexibility Score: inf
ROOT
ATOM      1  C   UNL     1     106.743 104.182  96.543  1.00  0.00     0.402 A 
ATOM      2  O   UNL     1     106.792 105.360  95.926  1.00  0.00    -0.202 OA
ATOM      3  C   UNL     1     106.129 106.433  96.348  1.00  0.00     0.368 A 
ATOM      4  C   UNL     1     106.240 107.626  95.631  1.00  0.00     0.162 A 
ATOM      5  C   UNL     1     105.555 108.767  96.048  1.00  0.00     0.128 A 
ATOM      6  C   UNL     1     104.750 108.716  97.192  1.00  0.00     0.093 A 
ATOM      7  C   UNL     1     104.622 107.532  97.928  1.00  0.00     0.136 A 
ATOM      8  C   UNL     1     105.320 106.371  97.507  1.00  0.00     0.125 A 
ATOM      9  C   UNL     1     105.262 105.145  98.191  1.00  0.00     0.078 A 
ATOM     10  C   UNL     1     105.982 104.044  97.718  1.00  0.00     0.223 A 
ENDROOT
BRANCH   1  11
ATOM     11  C   UNL     1     107.518 103.059  95.968  1.00  0.00     0.087 A 
ATOM     12  C   UNL     1     108.667 102.601  96.634  1.00  0.00     0.022 A 
ATOM     13  C   UNL     1     109.424 101.555  96.100  1.00  0.00     0.051 A 
ATOM     14  C   UNL     1     109.058 100.963  94.888  1.00  0.00     0.157 A 
ATOM     15  C   UNL     1     107.163 102.476  94.739  1.00  0.00     0.068 A 
ATOM     16  C   UNL     1     107.925 101.427  94.200  1.00  0.00     0.158 A 
BRANCH  14  17
ATOM     17  O   UNL     1     109.832  99.920  94.381  1.00  0.00    -0.504 OA
ATOM     18  H   UNL     1     109.424  99.143  93.876  1.00  0.00     0.293 HD
ENDBRANCH  14  17
BRANCH  16  19
ATOM     19  O   UNL     1     107.560 100.851  92.984  1.00  0.00    -0.504 OA
ATOM     20  H   UNL     1     106.983 100.019  92.943  1.00  0.00     0.293 HD
ENDBRANCH  16  19
ENDBRANCH   1  11
BRANCH  10  21
ATOM     21  O   UNL     1     105.965 102.840  98.423  1.00  0.00    -0.500 OA
ATOM     22  H   UNL     1     106.811 102.309  98.591  1.00  0.00     0.294 HD
ENDBRANCH  10  21
BRANCH   5  23
ATOM     23  O   UNL     1     105.679 109.948  95.320  1.00  0.00    -0.507 OA
ATOM     24  H   UNL     1     106.415 110.617  95.516  1.00  0.00     0.293 HD
ENDBRANCH   5  23
BRANCH   7  25
ATOM     25  O   UNL     1     103.797 107.562  99.056  1.00  0.00    -0.507 OA
ATOM     26  H   UNL     1     104.132 107.641 100.006  1.00  0.00     0.293 HD
ENDBRANCH   7  25
TORSDOF 6
ENDMDL
MODEL 5
REMARK VINA RESULT:    -5.873     11.846     14.222
REMARK INTER + INTRA:          -7.384
REMARK INTER:                  -7.056
REMARK INTRA:                  -0.328
REMARK UNBOUND:                -0.309
REMARK SMILES Oc1cc(O)c2cc(O)c(-c3ccc(O)c(O)c3)[o+]c2c1.[Cl-]
REMARK SMILES IDX 10 1 19 2 20 3 21 4 2 5 3 6 4 7 6 8 7 9 8 10 11 11 12 12
REMARK SMILES IDX 13 13 14 14 18 15 16 16 15 17 17 19 9 21 1 23 5 25
REMARK H PARENT 15 18 17 20 9 22 1 24 5 26
REMARK Flexibility Score: inf
ROOT
ATOM      1  C   UNL     1     110.744 113.147  93.131  1.00  0.00     0.402 A 
ATOM      2  O   UNL     1     111.367 113.091  91.956  1.00  0.00    -0.202 OA
ATOM      3  C   UNL     1     112.660 112.808  91.829  1.00  0.00     0.368 A 
ATOM      4  C   UNL     1     113.226 112.776  90.553  1.00  0.00     0.162 A 
ATOM      5  C   UNL     1     114.580 112.485  90.388  1.00  0.00     0.128 A 
ATOM      6  C   UNL     1     115.378 112.224  91.509  1.00  0.00     0.093 A 
ATOM      7  C   UNL     1     114.834 112.251  92.799  1.00  0.00     0.136 A 
ATOM      8  C   UNL     1     113.457 112.544  92.969  1.00  0.00     0.125 A 
ATOM      9  C   UNL     1     112.823 112.579  94.222  1.00  0.00     0.078 A 
ATOM     10  C   UNL     1     111.459 112.871  94.311  1.00  0.00     0.223 A 
ENDROOT
BRANCH   1  11
ATOM     11  C   UNL     1     109.302 113.483  93.143  1.00  0.00     0.087 A 
ATOM     12  C   UNL     1     108.900 114.790  93.461  1.00  0.00     0.022 A 
ATOM     13  C   UNL     1     107.544 115.124  93.497  1.00  0.00     0.051 A 
ATOM     14  C   UNL     1     106.569 114.157  93.233  1.00  0.00     0.157 A 
ATOM     15  C   UNL     1     108.320 112.506  92.897  1.00  0.00     0.068 A 
ATOM     16  C   UNL     1     106.957 112.840  92.936  1.00  0.00     0.158 A 
BRANCH  14  17
ATOM     17  O   UNL     1     105.224 114.520  93.274  1.00  0.00    -0.504 OA
ATOM     18  H   UNL     1     104.906 115.441  92.998  1.00  0.00     0.293 HD
ENDBRANCH  14  17
BRANCH  16  19
ATOM     19  O   UNL     1     105.991 111.866  92.685  1.00  0.00    -0.504 OA
ATOM     20  H   UNL     1     106.081 111.217  91.913  1.00  0.00     0.293 HD
ENDBRANCH  16  19
ENDBRANCH   1  11
BRANCH  10  21
ATOM     21  O   UNL     1     110.819 112.857  95.550  1.00  0.00    -0.500 OA
ATOM     22  H   UNL     1     110.580 113.714  96.036  1.00  0.00     0.294 HD
ENDBRANCH  10  21
BRANCH   5  23
ATOM     23  O   UNL     1     115.127 112.456  89.107  1.00  0.00    -0.507 OA
ATOM     24  H   UNL     1     115.790 113.157  88.798  1.00  0.00     0.293 HD
ENDBRANCH   5  23
BRANCH   7  25
ATOM     25  O   UNL     1     115.697 111.983  93.866  1.00  0.00    -0.507 OA
ATOM     26  H   UNL     1     116.363 112.644  94.240  1.00  0.00     0.293 HD
ENDBRANCH   7  25
TORSDOF 6
ENDMDL
MODEL 6
REMARK VINA RESULT:    -5.866      8.547     11.359
REMARK INTER + INTRA:          -7.376
REMARK INTER:                  -7.274
REMARK INTRA:                  -0.102
REMARK UNBOUND:                -0.309
REMARK SMILES Oc1cc(O)c2cc(O)c(-c3ccc(O)c(O)c3)[o+]c2c1.[Cl-]
REMARK SMILES IDX 10 1 19 2 20 3 21 4 2 5 3 6 4 7 6 8 7 9 8 10 11 11 12 12
REMARK SMILES IDX 13 13 14 14 18 15 16 16 15 17 17 19 9 21 1 23 5 25
REMARK H PARENT 15 18 17 20 9 22 1 24 5 26
REMARK Flexibility Score: inf
ROOT
ATOM      1  C   UNL     1     105.656 109.887  95.752  1.00  0.00     0.402 A 
ATOM      2  O   UNL     1     106.774 110.278  95.146  1.00  0.00    -0.202 OA
ATOM      3  C   UNL     1     106.884 111.430  94.492  1.00  0.00     0.368 A 
ATOM      4  C   UNL     1     108.100 111.753  93.884  1.00  0.00     0.162 A 
ATOM      5  C   UNL     1     108.245 112.952  93.189  1.00  0.00     0.128 A 
ATOM      6  C   UNL     1     107.166 113.839  93.097  1.00  0.00     0.093 A 
ATOM      7  C   UNL     1     105.937 113.539  93.697  1.00  0.00     0.136 A 
ATOM      8  C   UNL     1     105.787 112.320  94.408  1.00  0.00     0.125 A 
ATOM      9  C   UNL     1     104.598 111.943  95.052  1.00  0.00     0.078 A 
ATOM     10  C   UNL     1     104.527 110.727  95.738  1.00  0.00     0.223 A 
ENDROOT
BRANCH   1  11
ATOM     11  C   UNL     1     105.654 108.576  96.440  1.00  0.00     0.087 A 
ATOM     12  C   UNL     1     105.915 107.409  95.704  1.00  0.00     0.022 A 
ATOM     13  C   UNL     1     105.900 106.160  96.329  1.00  0.00     0.051 A 
ATOM     14  C   UNL     1     105.608 106.054  97.692  1.00  0.00     0.157 A 
ATOM     15  C   UNL     1     105.341 108.466  97.807  1.00  0.00     0.068 A 
ATOM     16  C   UNL     1     105.323 107.211  98.436  1.00  0.00     0.158 A 
BRANCH  14  17
ATOM     17  O   UNL     1     105.602 104.794  98.289  1.00  0.00    -0.504 OA
ATOM     18  H   UNL     1     105.489 104.672  99.288  1.00  0.00     0.293 HD
ENDBRANCH  14  17
BRANCH  16  19
ATOM     19  O   UNL     1     105.018 107.113  99.793  1.00  0.00    -0.504 OA
ATOM     20  H   UNL     1     104.402 107.776 100.248  1.00  0.00     0.293 HD
ENDBRANCH  16  19
ENDBRANCH   1  11
BRANCH  10  21
ATOM     21  O   UNL     1     103.362 110.374  96.420  1.00  0.00    -0.500 OA
ATOM     22  H   UNL     1     103.389 109.823  97.270  1.00  0.00     0.294 HD
ENDBRANCH  10  21
BRANCH   5  23
ATOM     23  O   UNL     1     109.466 113.257  92.590  1.00  0.00    -0.507 OA
ATOM     24  H   UNL     1     109.799 114.211  92.520  1.00  0.00     0.293 HD
ENDBRANCH   5  23
BRANCH   7  25
ATOM     25  O   UNL     1     104.908 114.475  93.558  1.00  0.00    -0.507 OA
ATOM     26  H   UNL     1     104.119 114.552  94.184  1.00  0.00     0.293 HD
ENDBRANCH   7  25
TORSDOF 6
ENDMDL
MODEL 7
REMARK VINA RESULT:    -5.848      5.727      8.396
REMARK INTER + INTRA:          -7.354
REMARK INTER:                  -7.006
REMARK INTRA:                  -0.349
REMARK UNBOUND:                -0.309
REMARK SMILES Oc1cc(O)c2cc(O)c(-c3ccc(O)c(O)c3)[o+]c2c1.[Cl-]
REMARK SMILES IDX 10 1 19 2 20 3 21 4 2 5 3 6 4 7 6 8 7 9 8 10 11 11 12 12
REMARK SMILES IDX 13 13 14 14 18 15 16 16 15 17 17 19 9 21 1 23 5 25
REMARK H PARENT 15 18 17 20 9 22 1 24 5 26
REMARK Flexibility Score: inf
ROOT
ATOM      1  C   UNL     1     106.160 103.774  96.667  1.00  0.00     0.402 A 
ATOM      2  O   UNL     1     106.776 102.749  97.249  1.00  0.00    -0.202 OA
ATOM      3  C   UNL     1     107.591 101.923  96.599  1.00  0.00     0.368 A 
ATOM      4  C   UNL     1     108.190 100.872  97.297  1.00  0.00     0.162 A 
ATOM      5  C   UNL     1     109.047  99.988  96.642  1.00  0.00     0.128 A 
ATOM      6  C   UNL     1     109.308 100.153  95.277  1.00  0.00     0.093 A 
ATOM      7  C   UNL     1     108.720 101.199  94.555  1.00  0.00     0.136 A 
ATOM      8  C   UNL     1     107.849 102.101  95.220  1.00  0.00     0.125 A 
ATOM      9  C   UNL     1     107.226 103.186  94.580  1.00  0.00     0.078 A 
ATOM     10  C   UNL     1     106.384 104.036  95.303  1.00  0.00     0.223 A 
ENDROOT
BRANCH   1  11
ATOM     11  C   UNL     1     105.268 104.617  97.495  1.00  0.00     0.087 A 
ATOM     12  C   UNL     1     103.897 104.320  97.555  1.00  0.00     0.022 A 
ATOM     13  C   UNL     1     103.034 105.114  98.315  1.00  0.00     0.051 A 
ATOM     14  C   UNL     1     103.521 106.223  99.012  1.00  0.00     0.157 A 
ATOM     15  C   UNL     1     105.754 105.745  98.180  1.00  0.00     0.068 A 
ATOM     16  C   UNL     1     104.887 106.545  98.942  1.00  0.00     0.158 A 
BRANCH  14  17
ATOM     17  O   UNL     1     102.637 106.995  99.764  1.00  0.00    -0.504 OA
ATOM     18  H   UNL     1     102.615 106.957 100.776  1.00  0.00     0.293 HD
ENDBRANCH  14  17
BRANCH  16  19
ATOM     19  O   UNL     1     105.379 107.657  99.623  1.00  0.00    -0.504 OA
ATOM     20  H   UNL     1     104.880 108.539  99.629  1.00  0.00     0.293 HD
ENDBRANCH  16  19
ENDBRANCH   1  11
BRANCH  10  21
ATOM     21  O   UNL     1     105.804 105.142  94.680  1.00  0.00    -0.500 OA
ATOM     22  H   UNL     1     105.060 105.040  93.999  1.00  0.00     0.294 HD
ENDBRANCH  10  21
BRANCH   5  23
ATOM     23  O   UNL     1     109.636  98.946  97.355  1.00  0.00    -0.507 OA
ATOM     24  H   UNL     1     109.079  98.228  97.803  1.00  0.00     0.293 HD
ENDBRANCH   5  23
BRANCH   7  25
ATOM     25  O   UNL     1     109.028 101.295  93.195  1.00  0.00    -0.507 OA
ATOM     26  H   UNL     1     108.972 100.526  92.542  1.00  0.00     0.293 HD
ENDBRANCH   7  25
TORSDOF 6
ENDMDL
MODEL 8
REMARK VINA RESULT:    -5.806      8.852     11.482
REMARK INTER + INTRA:          -7.304
REMARK INTER:                  -7.439
REMARK INTRA:                   0.136
REMARK UNBOUND:                -0.309
REMARK SMILES Oc1cc(O)c2cc(O)c(-c3ccc(O)c(O)c3)[o+]c2c1.[Cl-]
REMARK SMILES IDX 10 1 19 2 20 3 21 4 2 5 3 6 4 7 6 8 7 9 8 10 11 11 12 12
REMARK SMILES IDX 13 13 14 14 18 15 16 16 15 17 17 19 9 21 1 23 5 25
REMARK H PARENT 15 18 17 20 9 22 1 24 5 26
REMARK Flexibility Score: inf
ROOT
ATOM      1  C   UNL     1     105.542 110.008  95.805  1.00  0.00     0.402 A 
ATOM      2  O   UNL     1     104.599 110.882  96.146  1.00  0.00    -0.202 OA
ATOM      3  C   UNL     1     104.496 112.092  95.605  1.00  0.00     0.368 A 
ATOM      4  C   UNL     1     103.471 112.942  96.031  1.00  0.00     0.162 A 
ATOM      5  C   UNL     1     103.340 114.218  95.485  1.00  0.00     0.128 A 
ATOM      6  C   UNL     1     104.241 114.652  94.504  1.00  0.00     0.093 A 
ATOM      7  C   UNL     1     105.276 113.820  94.061  1.00  0.00     0.136 A 
ATOM      8  C   UNL     1     105.410 112.520  94.614  1.00  0.00     0.125 A 
ATOM      9  C   UNL     1     106.408 111.613  94.221  1.00  0.00     0.078 A 
ATOM     10  C   UNL     1     106.475 110.346  94.807  1.00  0.00     0.223 A 
ENDROOT
BRANCH   1  11
ATOM     11  C   UNL     1     105.558 108.694  96.487  1.00  0.00     0.087 A 
ATOM     12  C   UNL     1     105.798 107.530  95.738  1.00  0.00     0.022 A 
ATOM     13  C   UNL     1     105.798 106.278  96.358  1.00  0.00     0.051 A 
ATOM     14  C   UNL     1     105.543 106.166  97.727  1.00  0.00     0.157 A 
ATOM     15  C   UNL     1     105.282 108.578  97.861  1.00  0.00     0.068 A 
ATOM     16  C   UNL     1     105.279 107.320  98.484  1.00  0.00     0.158 A 
BRANCH  14  17
ATOM     17  O   UNL     1     105.552 104.903  98.318  1.00  0.00    -0.504 OA
ATOM     18  H   UNL     1     105.329 104.764  99.296  1.00  0.00     0.293 HD
ENDBRANCH  14  17
BRANCH  16  19
ATOM     19  O   UNL     1     105.011 107.215  99.848  1.00  0.00    -0.504 OA
ATOM     20  H   UNL     1     104.088 107.397 100.223  1.00  0.00     0.293 HD
ENDBRANCH  16  19
ENDBRANCH   1  11
BRANCH  10  21
ATOM     21  O   UNL     1     107.435 109.427  94.382  1.00  0.00    -0.500 OA
ATOM     22  H   UNL     1     107.424 108.463  94.695  1.00  0.00     0.294 HD
ENDBRANCH  10  21
BRANCH   5  23
ATOM     23  O   UNL     1     102.312 115.050  95.921  1.00  0.00    -0.507 OA
ATOM     24  H   UNL     1     102.478 116.022  96.153  1.00  0.00     0.293 HD
ENDBRANCH   5  23
BRANCH   7  25
ATOM     25  O   UNL     1     106.135 114.328  93.082  1.00  0.00    -0.507 OA
ATOM     26  H   UNL     1     107.099 114.584  93.247  1.00  0.00     0.293 HD
ENDBRANCH   7  25
TORSDOF 6
ENDMDL
MODEL 9
REMARK VINA RESULT:    -5.646      5.402      5.981
REMARK INTER + INTRA:          -7.110
REMARK INTER:                  -6.769
REMARK INTRA:                  -0.341
REMARK UNBOUND:                -0.309
REMARK SMILES Oc1cc(O)c2cc(O)c(-c3ccc(O)c(O)c3)[o+]c2c1.[Cl-]
REMARK SMILES IDX 10 1 19 2 20 3 21 4 2 5 3 6 4 7 6 8 7 9 8 10 11 11 12 12
REMARK SMILES IDX 13 13 14 14 18 15 16 16 15 17 17 19 9 21 1 23 5 25
REMARK H PARENT 15 18 17 20 9 22 1 24 5 26
REMARK Flexibility Score: inf
ROOT
ATOM      1  C   UNL     1     106.308 103.704  96.895  1.00  0.00     0.402 A 
ATOM      2  O   UNL     1     105.550 103.143  97.834  1.00  0.00    -0.202 OA
ATOM      3  C   UNL     1     104.671 103.822  98.564  1.00  0.00     0.368 A 
ATOM      4  C   UNL     1     103.922 103.144  99.530  1.00  0.00     0.162 A 
ATOM      5  C   UNL     1     102.995 103.830 100.313  1.00  0.00     0.128 A 
ATOM      6  C   UNL     1     102.814 105.207 100.133  1.00  0.00     0.093 A 
ATOM      7  C   UNL     1     103.552 105.909  99.173  1.00  0.00     0.136 A 
ATOM      8  C   UNL     1     104.494 105.213  98.373  1.00  0.00     0.125 A 
ATOM      9  C   UNL     1     105.269 105.832  97.377  1.00  0.00     0.078 A 
ATOM     10  C   UNL     1     106.174 105.078  96.624  1.00  0.00     0.223 A 
ENDROOT
BRANCH   1  11
ATOM     11  C   UNL     1     107.257 102.843  96.155  1.00  0.00     0.087 A 
ATOM     12  C   UNL     1     108.550 102.642  96.665  1.00  0.00     0.022 A 
ATOM     13  C   UNL     1     109.469 101.849  95.973  1.00  0.00     0.051 A 
ATOM     14  C   UNL     1     109.119 101.259  94.755  1.00  0.00     0.157 A 
ATOM     15  C   UNL     1     106.913 102.266  94.919  1.00  0.00     0.068 A 
ATOM     16  C   UNL     1     107.836 101.471  94.222  1.00  0.00     0.158 A 
BRANCH  14  17
ATOM     17  O   UNL     1     110.056 100.472  94.088  1.00  0.00    -0.504 OA
ATOM     18  H   UNL     1     110.809 100.874  93.545  1.00  0.00     0.293 HD
ENDBRANCH  14  17
BRANCH  16  19
ATOM     19  O   UNL     1     107.484 100.897  93.001  1.00  0.00    -0.504 OA
ATOM     20  H   UNL     1     107.583 101.402  92.129  1.00  0.00     0.293 HD
ENDBRANCH  16  19
ENDBRANCH   1  11
BRANCH  10  21
ATOM     21  O   UNL     1     106.907 105.682  95.602  1.00  0.00    -0.500 OA
ATOM     22  H   UNL     1     106.897 106.686  95.460  1.00  0.00     0.294 HD
ENDBRANCH  10  21
BRANCH   5  23
ATOM     23  O   UNL     1     102.257 103.137 101.270  1.00  0.00    -0.507 OA
ATOM     24  H   UNL     1     101.509 103.583 101.788  1.00  0.00     0.293 HD
ENDBRANCH   5  23
BRANCH   7  25
ATOM     25  O   UNL     1     103.315 107.282  99.057  1.00  0.00    -0.507 OA
ATOM     26  H   UNL     1     102.810 107.711  98.294  1.00  0.00     0.293 HD
ENDBRANCH   7  25
TORSDOF 6
ENDMDL
