MODEL 1
REMARK VINA RESULT:    -2.456      0.000      0.000
REMARK INTER + INTRA:          -2.456
REMARK INTER:                  -2.456
REMARK INTRA:                   0.000
REMARK UNBOUND:                 0.000
REMARK SMILES CC(=O)[O-]
REMARK SMILES IDX 1 1 2 2 3 3 4 4
REMARK H PARENT
REMARK Flexibility Score: inf
ROOT
ATOM      1  C   UNL     1       9.112   5.932  11.555  1.00  0.00     0.063 C 
ATOM      2  C   UNL     1       9.004   5.527  10.124  1.00  0.00     0.038 C 
ATOM      3  O   UNL     1       7.872   5.336   9.605  1.00  0.00    -0.550 OA
ATOM      4  O   UNL     1      10.148   5.414   9.345  1.00  0.00    -0.550 OA
ENDROOT
TORSDOF 0
ENDMDL
MODEL 2
REMARK VINA RESULT:    -2.179      8.300      8.948
REMARK INTER + INTRA:          -2.179
REMARK INTER:                  -2.179
REMARK INTRA:                   0.000
REMARK UNBOUND:                 0.000
REMARK SMILES CC(=O)[O-]
REMARK SMILES IDX 1 1 2 2 3 3 4 4
REMARK H PARENT
REMARK Flexibility Score: inf
ROOT
ATOM      1  C   UNL     1       4.126   7.189  15.653  1.00  0.00     0.063 C 
ATOM      2  C   UNL     1       3.985   8.257  16.684  1.00  0.00     0.038 C 
ATOM      3  O   UNL     1       4.397   9.424  16.446  1.00  0.00    -0.550 OA
ATOM      4  O   UNL     1       3.350   7.982  17.888  1.00  0.00    -0.550 OA
ENDROOT
TORSDOF 0
ENDMDL
MODEL 3
REMARK VINA RESULT:    -2.133      1.383      1.767
REMARK INTER + INTRA:          -2.133
REMARK INTER:                  -2.133
REMARK INTRA:                   0.000
REMARK UNBOUND:                 0.000
REMARK SMILES CC(=O)[O-]
REMARK SMILES IDX 1 1 2 2 3 3 4 4
REMARK H PARENT
REMARK Flexibility Score: inf
ROOT
ATOM      1  C   UNL     1      10.159   5.321   9.448  1.00  0.00     0.063 C 
ATOM      2  C   UNL     1       8.918   5.600  10.227  1.00  0.00     0.038 C 
ATOM      3  O   UNL     1       7.788   5.430   9.697  1.00  0.00    -0.550 OA
ATOM      4  O   UNL     1       9.004   5.996  11.555  1.00  0.00    -0.550 OA
ENDROOT
TORSDOF 0
ENDMDL
MODEL 4
REMARK VINA RESULT:    -2.095      7.874      8.398
REMARK INTER + INTRA:          -2.095
REMARK INTER:                  -2.095
REMARK INTRA:                   0.000
REMARK UNBOUND:                 0.000
REMARK SMILES CC(=O)[O-]
REMARK SMILES IDX 1 1 2 2 3 3 4 4
REMARK H PARENT
REMARK Flexibility Score: inf
ROOT
ATOM      1  C   UNL     1       3.911   6.753  17.564  1.00  0.00     0.063 C 
ATOM      2  C   UNL     1       4.071   7.666  16.395  1.00  0.00     0.038 C 
ATOM      3  O   UNL     1       3.899   7.230  15.226  1.00  0.00    -0.550 OA
ATOM      4  O   UNL     1       4.357   9.009  16.596  1.00  0.00    -0.550 OA
ENDROOT
TORSDOF 0
ENDMDL
MODEL 5
REMARK VINA RESULT:    -2.086      8.588      8.995
REMARK INTER + INTRA:          -2.086
REMARK INTER:                  -2.086
REMARK INTRA:                   0.000
REMARK UNBOUND:                 0.000
REMARK SMILES CC(=O)[O-]
REMARK SMILES IDX 1 1 2 2 3 3 4 4
REMARK H PARENT
REMARK Flexibility Score: inf
ROOT
ATOM      1  C   UNL     1       4.261   7.098  15.664  1.00  0.00     0.063 C 
ATOM      2  C   UNL     1       3.354   6.613  16.744  1.00  0.00     0.038 C 
ATOM      3  O   UNL     1       3.797   6.441  17.911  1.00  0.00    -0.550 OA
ATOM      4  O   UNL     1       2.008   6.400  16.480  1.00  0.00    -0.550 OA
ENDROOT
TORSDOF 0
ENDMDL
MODEL 6
REMARK VINA RESULT:    -2.084     14.272     14.585
REMARK INTER + INTRA:          -2.084
REMARK INTER:                  -2.084
REMARK INTRA:                   0.000
REMARK UNBOUND:                 0.000
REMARK SMILES CC(=O)[O-]
REMARK SMILES IDX 1 1 2 2 3 3 4 4
REMARK H PARENT
REMARK Flexibility Score: inf
ROOT
ATOM      1  C   UNL     1       5.562  -6.648   6.417  1.00  0.00     0.063 C 
ATOM      2  C   UNL     1       5.539  -8.126   6.613  1.00  0.00     0.038 C 
ATOM      3  O   UNL     1       4.804  -8.634   7.501  1.00  0.00    -0.550 OA
ATOM      4  O   UNL     1       6.288  -8.950   5.784  1.00  0.00    -0.550 OA
ENDROOT
TORSDOF 0
ENDMDL
MODEL 7
REMARK VINA RESULT:    -2.036     13.874     14.221
REMARK INTER + INTRA:          -2.036
REMARK INTER:                  -2.036
REMARK INTRA:                   0.000
REMARK UNBOUND:                 0.000
REMARK SMILES CC(=O)[O-]
REMARK SMILES IDX 1 1 2 2 3 3 4 4
REMARK H PARENT
REMARK Flexibility Score: inf
ROOT
ATOM      1  C   UNL     1       4.868  -8.613   7.253  1.00  0.00     0.063 C 
ATOM      2  C   UNL     1       5.716  -7.656   6.487  1.00  0.00     0.038 C 
ATOM      3  O   UNL     1       6.590  -8.086   5.687  1.00  0.00    -0.550 OA
ATOM      4  O   UNL     1       5.510  -6.289   6.611  1.00  0.00    -0.550 OA
ENDROOT
TORSDOF 0
ENDMDL
MODEL 8
REMARK VINA RESULT:    -1.968     14.338     14.715
REMARK INTER + INTRA:          -1.968
REMARK INTER:                  -1.968
REMARK INTRA:                   0.000
REMARK UNBOUND:                 0.000
REMARK SMILES CC(=O)[O-]
REMARK SMILES IDX 1 1 2 2 3 3 4 4
REMARK H PARENT
REMARK Flexibility Score: inf
ROOT
ATOM      1  C   UNL     1       6.015  -8.931   5.520  1.00  0.00     0.063 C 
ATOM      2  C   UNL     1       5.418  -8.139   6.634  1.00  0.00     0.038 C 
ATOM      3  O   UNL     1       4.814  -8.724   7.571  1.00  0.00    -0.550 OA
ATOM      4  O   UNL     1       5.573  -6.760   6.668  1.00  0.00    -0.550 OA
ENDROOT
TORSDOF 0
ENDMDL
MODEL 9
REMARK VINA RESULT:    -1.915      9.099      9.674
REMARK INTER + INTRA:          -1.915
REMARK INTER:                  -1.915
REMARK INTRA:                   0.000
REMARK UNBOUND:                 0.000
REMARK SMILES CC(=O)[O-]
REMARK SMILES IDX 1 1 2 2 3 3 4 4
REMARK H PARENT
REMARK Flexibility Score: inf
ROOT
ATOM      1  C   UNL     1       2.435   5.663  17.238  1.00  0.00     0.063 C 
ATOM      2  C   UNL     1       3.368   6.698  17.769  1.00  0.00     0.038 C 
ATOM      3  O   UNL     1       3.052   7.371  18.785  1.00  0.00    -0.550 OA
ATOM      4  O   UNL     1       4.609   6.885  17.176  1.00  0.00    -0.550 OA
ENDROOT
TORSDOF 0
ENDMDL
