MODEL 1
REMARK VINA RESULT:    -4.175      0.000      0.000
REMARK INTER + INTRA:          -7.706
REMARK INTER:                  -6.738
REMARK INTRA:                  -0.968
REMARK UNBOUND:                -0.968
REMARK SMILES CCCCCCCCCCCCO
REMARK SMILES IDX 7 1 6 2 5 3 4 4 3 5 2 6 1 7 8 8 9 9 10 10 11 11 12 12 13 13
REMARK H PARENT 13 14
REMARK Flexibility Score: inf
ROOT
ATOM      1  C   UNL     1      29.047  27.267  24.378  1.00  0.00     0.000 C 
ENDROOT
BRANCH   1   2
ATOM      2  C   UNL     1      29.531  28.038  23.132  1.00  0.00    -0.000 C 
BRANCH   2   3
ATOM      3  C   UNL     1      30.168  27.135  22.060  1.00  0.00    -0.000 C 
BRANCH   3   4
ATOM      4  C   UNL     1      29.950  25.639  22.335  1.00  0.00    -0.000 C 
BRANCH   4   5
ATOM      5  C   UNL     1      29.161  24.941  21.216  1.00  0.00    -0.000 C 
BRANCH   5   6
ATOM      6  C   UNL     1      28.572  25.933  20.203  1.00  0.00    -0.003 C 
ATOM      7  C   UNL     1      28.699  25.403  18.778  1.00  0.00     0.004 C 
ENDBRANCH   5   6
ENDBRANCH   4   5
ENDBRANCH   3   4
ENDBRANCH   2   3
ENDBRANCH   1   2
BRANCH   1   8
ATOM      8  C   UNL     1      27.546  27.478  24.643  1.00  0.00     0.000 C 
BRANCH   8   9
ATOM      9  C   UNL     1      26.657  26.853  23.556  1.00  0.00     0.000 C 
BRANCH   9  10
ATOM     10  C   UNL     1      25.237  27.436  23.545  1.00  0.00     0.002 C 
BRANCH  10  11
ATOM     11  C   UNL     1      25.068  28.491  24.644  1.00  0.00     0.028 C 
BRANCH  11  12
ATOM     12  C   UNL     1      24.277  29.698  24.136  1.00  0.00     0.156 C 
BRANCH  12  13
ATOM     13  O   UNL     1      24.343  29.767  22.737  1.00  0.00    -0.396 OA
ATOM     14  H   UNL     1      25.174  30.264  22.516  1.00  0.00     0.210 HD
ENDBRANCH  12  13
ENDBRANCH  11  12
ENDBRANCH  10  11
ENDBRANCH   9  10
ENDBRANCH   8   9
ENDBRANCH   1   8
TORSDOF 11
ENDMDL
MODEL 2
REMARK VINA RESULT:    -4.117      2.155      2.621
REMARK INTER + INTRA:          -7.612
REMARK INTER:                  -6.556
REMARK INTRA:                  -1.057
REMARK UNBOUND:                -0.968
REMARK SMILES CCCCCCCCCCCCO
REMARK SMILES IDX 7 1 6 2 5 3 4 4 3 5 2 6 1 7 8 8 9 9 10 10 11 11 12 12 13 13
REMARK H PARENT 13 14
REMARK Flexibility Score: inf
ROOT
ATOM      1  C   UNL     1      28.727  27.156  24.271  1.00  0.00     0.000 C 
ENDROOT
BRANCH   1   2
ATOM      2  C   UNL     1      29.502  27.959  23.206  1.00  0.00    -0.000 C 
BRANCH   2   3
ATOM      3  C   UNL     1      29.895  27.126  21.973  1.00  0.00    -0.000 C 
BRANCH   3   4
ATOM      4  C   UNL     1      29.752  25.614  22.206  1.00  0.00    -0.000 C 
BRANCH   4   5
ATOM      5  C   UNL     1      29.015  24.906  21.058  1.00  0.00    -0.000 C 
BRANCH   5   6
ATOM      6  C   UNL     1      28.551  25.880  19.966  1.00  0.00    -0.003 C 
ATOM      7  C   UNL     1      28.793  25.302  18.575  1.00  0.00     0.004 C 
ENDBRANCH   5   6
ENDBRANCH   4   5
ENDBRANCH   3   4
ENDBRANCH   2   3
ENDBRANCH   1   2
BRANCH   1   8
ATOM      8  C   UNL     1      27.409  27.841  24.672  1.00  0.00     0.000 C 
BRANCH   8   9
ATOM      9  C   UNL     1      26.206  26.885  24.628  1.00  0.00     0.000 C 
BRANCH   9  10
ATOM     10  C   UNL     1      25.707  26.627  23.199  1.00  0.00     0.002 C 
BRANCH  10  11
ATOM     11  C   UNL     1      25.839  25.144  22.832  1.00  0.00     0.028 C 
BRANCH  11  12
ATOM     12  C   UNL     1      24.552  24.380  23.147  1.00  0.00     0.156 C 
BRANCH  12  13
ATOM     13  O   UNL     1      24.394  23.307  22.259  1.00  0.00    -0.396 OA
ATOM     14  H   UNL     1      23.486  22.938  22.416  1.00  0.00     0.210 HD
ENDBRANCH  12  13
ENDBRANCH  11  12
ENDBRANCH  10  11
ENDBRANCH   9  10
ENDBRANCH   8   9
ENDBRANCH   1   8
TORSDOF 11
ENDMDL
MODEL 3
REMARK VINA RESULT:    -3.864      4.475      5.371
REMARK INTER + INTRA:          -7.205
REMARK INTER:                  -6.590
REMARK INTRA:                  -0.615
REMARK UNBOUND:                -0.968
REMARK SMILES CCCCCCCCCCCCO
REMARK SMILES IDX 7 1 6 2 5 3 4 4 3 5 2 6 1 7 8 8 9 9 10 10 11 11 12 12 13 13
REMARK H PARENT 13 14
REMARK Flexibility Score: inf
ROOT
ATOM      1  C   UNL     1      24.672  24.885  24.228  1.00  0.00     0.000 C 
ENDROOT
BRANCH   1   2
ATOM      2  C   UNL     1      25.440  26.223  24.204  1.00  0.00    -0.000 C 
BRANCH   2   3
ATOM      3  C   UNL     1      26.347  26.390  22.972  1.00  0.00    -0.000 C 
BRANCH   3   4
ATOM      4  C   UNL     1      27.776  26.822  23.339  1.00  0.00    -0.000 C 
BRANCH   4   5
ATOM      5  C   UNL     1      28.758  26.673  22.165  1.00  0.00    -0.000 C 
BRANCH   5   6
ATOM      6  C   UNL     1      28.581  25.347  21.413  1.00  0.00    -0.003 C 
ATOM      7  C   UNL     1      28.590  25.567  19.903  1.00  0.00     0.004 C 
ENDBRANCH   5   6
ENDBRANCH   4   5
ENDBRANCH   3   4
ENDBRANCH   2   3
ENDBRANCH   1   2
BRANCH   1   8
ATOM      8  C   UNL     1      24.789  24.124  22.896  1.00  0.00     0.000 C 
BRANCH   8   9
ATOM      9  C   UNL     1      23.510  23.350  22.540  1.00  0.00     0.000 C 
BRANCH   9  10
ATOM     10  C   UNL     1      22.404  23.518  23.593  1.00  0.00     0.002 C 
BRANCH  10  11
ATOM     11  C   UNL     1      21.300  22.472  23.400  1.00  0.00     0.028 C 
BRANCH  11  12
ATOM     12  C   UNL     1      21.626  21.531  22.238  1.00  0.00     0.156 C 
BRANCH  12  13
ATOM     13  O   UNL     1      20.899  20.339  22.360  1.00  0.00    -0.396 OA
ATOM     14  H   UNL     1      20.294  20.293  21.575  1.00  0.00     0.210 HD
ENDBRANCH  12  13
ENDBRANCH  11  12
ENDBRANCH  10  11
ENDBRANCH   9  10
ENDBRANCH   8   9
ENDBRANCH   1   8
TORSDOF 11
ENDMDL
MODEL 4
REMARK VINA RESULT:    -3.828      1.404      2.966
REMARK INTER + INTRA:          -7.146
REMARK INTER:                  -6.563
REMARK INTRA:                  -0.583
REMARK UNBOUND:                -0.968
REMARK SMILES CCCCCCCCCCCCO
REMARK SMILES IDX 7 1 6 2 5 3 4 4 3 5 2 6 1 7 8 8 9 9 10 10 11 11 12 12 13 13
REMARK H PARENT 13 14
REMARK Flexibility Score: inf
ROOT
ATOM      1  C   UNL     1      27.272  26.493  22.552  1.00  0.00     0.000 C 
ENDROOT
BRANCH   1   2
ATOM      2  C   UNL     1      27.888  25.972  21.236  1.00  0.00    -0.000 C 
BRANCH   2   3
ATOM      3  C   UNL     1      29.253  25.287  21.426  1.00  0.00    -0.000 C 
BRANCH   3   4
ATOM      4  C   UNL     1      30.169  26.043  22.401  1.00  0.00    -0.000 C 
BRANCH   4   5
ATOM      5  C   UNL     1      31.155  25.113  23.127  1.00  0.00    -0.000 C 
BRANCH   5   6
ATOM      6  C   UNL     1      31.515  25.617  24.531  1.00  0.00    -0.003 C 
ATOM      7  C   UNL     1      30.507  26.653  25.019  1.00  0.00     0.004 C 
ENDBRANCH   5   6
ENDBRANCH   4   5
ENDBRANCH   3   4
ENDBRANCH   2   3
ENDBRANCH   1   2
BRANCH   1   8
ATOM      8  C   UNL     1      25.896  25.867  22.836  1.00  0.00     0.000 C 
BRANCH   8   9
ATOM      9  C   UNL     1      25.286  26.350  24.161  1.00  0.00     0.000 C 
BRANCH   9  10
ATOM     10  C   UNL     1      25.539  27.842  24.420  1.00  0.00     0.002 C 
BRANCH  10  11
ATOM     11  C   UNL     1      24.263  28.537  24.912  1.00  0.00     0.028 C 
BRANCH  11  12
ATOM     12  C   UNL     1      24.016  29.842  24.152  1.00  0.00     0.156 C 
BRANCH  12  13
ATOM     13  O   UNL     1      24.382  29.696  22.807  1.00  0.00    -0.396 OA
ATOM     14  H   UNL     1      24.924  28.867  22.748  1.00  0.00     0.210 HD
ENDBRANCH  12  13
ENDBRANCH  11  12
ENDBRANCH  10  11
ENDBRANCH   9  10
ENDBRANCH   8   9
ENDBRANCH   1   8
TORSDOF 11
ENDMDL
MODEL 5
REMARK VINA RESULT:    -3.802      2.608      4.015
REMARK INTER + INTRA:          -7.104
REMARK INTER:                  -5.942
REMARK INTRA:                  -1.162
REMARK UNBOUND:                -0.968
REMARK SMILES CCCCCCCCCCCCO
REMARK SMILES IDX 7 1 6 2 5 3 4 4 3 5 2 6 1 7 8 8 9 9 10 10 11 11 12 12 13 13
REMARK H PARENT 13 14
REMARK Flexibility Score: inf
ROOT
ATOM      1  C   UNL     1      29.933  25.114  21.289  1.00  0.00     0.000 C 
ENDROOT
BRANCH   1   2
ATOM      2  C   UNL     1      30.615  24.937  22.662  1.00  0.00    -0.000 C 
BRANCH   2   3
ATOM      3  C   UNL     1      31.431  26.164  23.105  1.00  0.00    -0.000 C 
BRANCH   3   4
ATOM      4  C   UNL     1      30.625  27.129  23.989  1.00  0.00    -0.000 C 
BRANCH   4   5
ATOM      5  C   UNL     1      30.221  28.413  23.247  1.00  0.00    -0.000 C 
BRANCH   5   6
ATOM      6  C   UNL     1      31.010  28.615  21.945  1.00  0.00    -0.003 C 
ATOM      7  C   UNL     1      32.106  29.660  22.123  1.00  0.00     0.004 C 
ENDBRANCH   5   6
ENDBRANCH   4   5
ENDBRANCH   3   4
ENDBRANCH   2   3
ENDBRANCH   1   2
BRANCH   1   8
ATOM      8  C   UNL     1      28.402  24.997  21.381  1.00  0.00     0.000 C 
BRANCH   8   9
ATOM      9  C   UNL     1      27.716  26.353  21.612  1.00  0.00     0.000 C 
BRANCH   9  10
ATOM     10  C   UNL     1      26.980  26.423  22.957  1.00  0.00     0.002 C 
BRANCH  10  11
ATOM     11  C   UNL     1      25.503  26.047  22.795  1.00  0.00     0.028 C 
BRANCH  11  12
ATOM     12  C   UNL     1      25.189  24.724  23.498  1.00  0.00     0.156 C 
BRANCH  12  13
ATOM     13  O   UNL     1      25.096  23.686  22.561  1.00  0.00    -0.396 OA
ATOM     14  H   UNL     1      25.000  24.115  21.671  1.00  0.00     0.210 HD
ENDBRANCH  12  13
ENDBRANCH  11  12
ENDBRANCH  10  11
ENDBRANCH   9  10
ENDBRANCH   8   9
ENDBRANCH   1   8
TORSDOF 11
ENDMDL
MODEL 6
REMARK VINA RESULT:    -3.766      2.299      4.989
REMARK INTER + INTRA:          -7.047
REMARK INTER:                  -6.051
REMARK INTRA:                  -0.996
REMARK UNBOUND:                -0.968
REMARK SMILES CCCCCCCCCCCCO
REMARK SMILES IDX 7 1 6 2 5 3 4 4 3 5 2 6 1 7 8 8 9 9 10 10 11 11 12 12 13 13
REMARK H PARENT 13 14
REMARK Flexibility Score: inf
ROOT
ATOM      1  C   UNL     1      28.817  28.211  24.303  1.00  0.00     0.000 C 
ENDROOT
BRANCH   1   2
ATOM      2  C   UNL     1      27.641  27.350  24.811  1.00  0.00    -0.000 C 
BRANCH   2   3
ATOM      3  C   UNL     1      26.273  28.042  24.684  1.00  0.00    -0.000 C 
BRANCH   3   4
ATOM      4  C   UNL     1      25.380  27.404  23.608  1.00  0.00    -0.000 C 
BRANCH   4   5
ATOM      5  C   UNL     1      26.021  26.163  22.967  1.00  0.00    -0.000 C 
BRANCH   5   6
ATOM      6  C   UNL     1      25.124  24.921  23.061  1.00  0.00    -0.003 C 
ATOM      7  C   UNL     1      24.627  24.709  24.488  1.00  0.00     0.004 C 
ENDBRANCH   5   6
ENDBRANCH   4   5
ENDBRANCH   3   4
ENDBRANCH   2   3
ENDBRANCH   1   2
BRANCH   1   8
ATOM      8  C   UNL     1      29.968  27.354  23.749  1.00  0.00     0.000 C 
BRANCH   8   9
ATOM      9  C   UNL     1      29.739  26.923  22.292  1.00  0.00     0.000 C 
BRANCH   9  10
ATOM     10  C   UNL     1      29.887  25.408  22.091  1.00  0.00     0.002 C 
BRANCH  10  11
ATOM     11  C   UNL     1      28.884  24.891  21.054  1.00  0.00     0.028 C 
BRANCH  11  12
ATOM     12  C   UNL     1      28.481  25.996  20.075  1.00  0.00     0.156 C 
BRANCH  12  13
ATOM     13  O   UNL     1      28.126  25.442  18.837  1.00  0.00    -0.396 OA
ATOM     14  H   UNL     1      28.001  24.469  18.987  1.00  0.00     0.210 HD
ENDBRANCH  12  13
ENDBRANCH  11  12
ENDBRANCH  10  11
ENDBRANCH   9  10
ENDBRANCH   8   9
ENDBRANCH   1   8
TORSDOF 11
ENDMDL
MODEL 7
REMARK VINA RESULT:    -3.601      3.695      6.043
REMARK INTER + INTRA:          -6.780
REMARK INTER:                  -6.120
REMARK INTRA:                  -0.660
REMARK UNBOUND:                -0.968
REMARK SMILES CCCCCCCCCCCCO
REMARK SMILES IDX 7 1 6 2 5 3 4 4 3 5 2 6 1 7 8 8 9 9 10 10 11 11 12 12 13 13
REMARK H PARENT 13 14
REMARK Flexibility Score: inf
ROOT
ATOM      1  C   UNL     1      25.928  26.465  23.217  1.00  0.00     0.000 C 
ENDROOT
BRANCH   1   2
ATOM      2  C   UNL     1      25.084  26.002  24.424  1.00  0.00    -0.000 C 
BRANCH   2   3
ATOM      3  C   UNL     1      24.633  24.534  24.332  1.00  0.00    -0.000 C 
BRANCH   3   4
ATOM      4  C   UNL     1      24.591  24.013  22.886  1.00  0.00    -0.000 C 
BRANCH   4   5
ATOM      5  C   UNL     1      23.263  23.316  22.548  1.00  0.00    -0.000 C 
BRANCH   5   6
ATOM      6  C   UNL     1      22.182  23.560  23.610  1.00  0.00    -0.003 C 
ATOM      7  C   UNL     1      21.198  22.396  23.670  1.00  0.00     0.004 C 
ENDBRANCH   5   6
ENDBRANCH   4   5
ENDBRANCH   3   4
ENDBRANCH   2   3
ENDBRANCH   1   2
BRANCH   1   8
ATOM      8  C   UNL     1      27.244  27.131  23.650  1.00  0.00     0.000 C 
BRANCH   8   9
ATOM      9  C   UNL     1      28.452  26.645  22.834  1.00  0.00     0.000 C 
BRANCH   9  10
ATOM     10  C   UNL     1      28.047  25.773  21.637  1.00  0.00     0.002 C 
BRANCH  10  11
ATOM     11  C   UNL     1      28.624  26.330  20.331  1.00  0.00     0.028 C 
BRANCH  11  12
ATOM     12  C   UNL     1      28.747  25.235  19.269  1.00  0.00     0.156 C 
BRANCH  12  13
ATOM     13  O   UNL     1      28.766  25.802  17.987  1.00  0.00    -0.396 OA
ATOM     14  H   UNL     1      27.992  25.421  17.497  1.00  0.00     0.210 HD
ENDBRANCH  12  13
ENDBRANCH  11  12
ENDBRANCH  10  11
ENDBRANCH   9  10
ENDBRANCH   8   9
ENDBRANCH   1   8
TORSDOF 11
ENDMDL
MODEL 8
REMARK VINA RESULT:    -3.595      1.489      2.974
REMARK INTER + INTRA:          -6.770
REMARK INTER:                  -5.961
REMARK INTRA:                  -0.809
REMARK UNBOUND:                -0.968
REMARK SMILES CCCCCCCCCCCCO
REMARK SMILES IDX 7 1 6 2 5 3 4 4 3 5 2 6 1 7 8 8 9 9 10 10 11 11 12 12 13 13
REMARK H PARENT 13 14
REMARK Flexibility Score: inf
ROOT
ATOM      1  C   UNL     1      28.592  25.670  21.663  1.00  0.00     0.000 C 
ENDROOT
BRANCH   1   2
ATOM      2  C   UNL     1      30.022  25.118  21.843  1.00  0.00    -0.000 C 
BRANCH   2   3
ATOM      3  C   UNL     1      30.644  25.457  23.209  1.00  0.00    -0.000 C 
BRANCH   3   4
ATOM      4  C   UNL     1      31.997  26.176  23.085  1.00  0.00    -0.000 C 
BRANCH   4   5
ATOM      5  C   UNL     1      31.955  27.614  23.626  1.00  0.00    -0.000 C 
BRANCH   5   6
ATOM      6  C   UNL     1      32.040  28.666  22.511  1.00  0.00    -0.003 C 
ATOM      7  C   UNL     1      30.691  29.341  22.289  1.00  0.00     0.004 C 
ENDBRANCH   5   6
ENDBRANCH   4   5
ENDBRANCH   3   4
ENDBRANCH   2   3
ENDBRANCH   1   2
BRANCH   1   8
ATOM      8  C   UNL     1      28.199  26.642  22.789  1.00  0.00     0.000 C 
BRANCH   8   9
ATOM      9  C   UNL     1      26.687  26.647  23.067  1.00  0.00     0.000 C 
BRANCH   9  10
ATOM     10  C   UNL     1      26.327  27.380  24.367  1.00  0.00     0.002 C 
BRANCH  10  11
ATOM     11  C   UNL     1      24.870  27.856  24.343  1.00  0.00     0.028 C 
BRANCH  11  12
ATOM     12  C   UNL     1      24.786  29.367  24.118  1.00  0.00     0.156 C 
BRANCH  12  13
ATOM     13  O   UNL     1      24.285  29.640  22.837  1.00  0.00    -0.396 OA
ATOM     14  H   UNL     1      23.904  28.790  22.494  1.00  0.00     0.210 HD
ENDBRANCH  12  13
ENDBRANCH  11  12
ENDBRANCH  10  11
ENDBRANCH   9  10
ENDBRANCH   8   9
ENDBRANCH   1   8
TORSDOF 11
ENDMDL
MODEL 9
REMARK VINA RESULT:    -3.480      2.498      5.725
REMARK INTER + INTRA:          -6.585
REMARK INTER:                  -5.988
REMARK INTRA:                  -0.597
REMARK UNBOUND:                -0.968
REMARK SMILES CCCCCCCCCCCCO
REMARK SMILES IDX 7 1 6 2 5 3 4 4 3 5 2 6 1 7 8 8 9 9 10 10 11 11 12 12 13 13
REMARK H PARENT 13 14
REMARK Flexibility Score: inf
ROOT
ATOM      1  C   UNL     1      28.565  25.095  21.248  1.00  0.00     0.000 C 
ENDROOT
BRANCH   1   2
ATOM      2  C   UNL     1      27.777  26.337  21.714  1.00  0.00    -0.000 C 
BRANCH   2   3
ATOM      3  C   UNL     1      26.532  25.995  22.553  1.00  0.00    -0.000 C 
BRANCH   3   4
ATOM      4  C   UNL     1      26.412  26.857  23.819  1.00  0.00    -0.000 C 
BRANCH   4   5
ATOM      5  C   UNL     1      25.048  27.559  23.930  1.00  0.00    -0.000 C 
BRANCH   5   6
ATOM      6  C   UNL     1      25.146  28.933  24.608  1.00  0.00    -0.003 C 
ATOM      7  C   UNL     1      24.165  29.922  23.986  1.00  0.00     0.004 C 
ENDBRANCH   5   6
ENDBRANCH   4   5
ENDBRANCH   3   4
ENDBRANCH   2   3
ENDBRANCH   1   2
BRANCH   1   8
ATOM      8  C   UNL     1      29.984  25.052  21.839  1.00  0.00     0.000 C 
BRANCH   8   9
ATOM      9  C   UNL     1      30.170  26.032  23.009  1.00  0.00     0.000 C 
BRANCH   9  10
ATOM     10  C   UNL     1      31.397  26.938  22.834  1.00  0.00     0.002 C 
BRANCH  10  11
ATOM     11  C   UNL     1      31.003  28.278  22.201  1.00  0.00     0.028 C 
BRANCH  11  12
ATOM     12  C   UNL     1      31.921  29.406  22.678  1.00  0.00     0.156 C 
BRANCH  12  13
ATOM     13  O   UNL     1      31.957  30.436  21.729  1.00  0.00    -0.396 OA
ATOM     14  H   UNL     1      31.014  30.645  21.499  1.00  0.00     0.210 HD
ENDBRANCH  12  13
ENDBRANCH  11  12
ENDBRANCH  10  11
ENDBRANCH   9  10
ENDBRANCH   8   9
ENDBRANCH   1   8
TORSDOF 11
ENDMDL
