MODEL 1
REMARK VINA RESULT:    -4.515      0.000      0.000
REMARK INTER + INTRA:         -10.676
REMARK INTER:                  -8.475
REMARK INTRA:                  -2.201
REMARK UNBOUND:                -2.201
REMARK SMILES O=C([O-])CCCCCCCCCCCCCCC(=O)[O-]
REMARK SMILES IDX 10 1 9 2 8 3 7 4 6 5 5 6 4 7 2 8 1 9 3 10 11 11 12 12 13 13
REMARK SMILES IDX 14 14 15 15 16 16 17 17 18 18 19 19 20 20
REMARK H PARENT
REMARK Flexibility Score: inf
ROOT
ATOM      1  C   UNL     1      42.987  59.748  12.298  1.00  0.00     0.000 C 
ENDROOT
BRANCH   1   2
ATOM      2  C   UNL     1      44.299  60.177  12.973  1.00  0.00     0.000 C 
BRANCH   2   3
ATOM      3  C   UNL     1      44.161  61.491  13.758  1.00  0.00     0.000 C 
BRANCH   3   4
ATOM      4  C   UNL     1      44.951  62.648  13.119  1.00  0.00     0.000 C 
BRANCH   4   5
ATOM      5  C   UNL     1      44.209  63.287  11.934  1.00  0.00     0.000 C 
BRANCH   5   6
ATOM      6  C   UNL     1      42.806  63.791  12.315  1.00  0.00     0.006 C 
BRANCH   6   7
ATOM      7  C   UNL     1      41.708  63.156  11.452  1.00  0.00     0.053 C 
BRANCH   7   8
ATOM      8  C   UNL     1      40.596  62.597  12.284  1.00  0.00     0.041 C 
ATOM      9  O   UNL     1      40.475  62.936  13.491  1.00  0.00    -0.550 OA
ATOM     10  O   UNL     1      39.710  61.676  11.737  1.00  0.00    -0.550 OA
ENDBRANCH   7   8
ENDBRANCH   6   7
ENDBRANCH   5   6
ENDBRANCH   4   5
ENDBRANCH   3   4
ENDBRANCH   2   3
ENDBRANCH   1   2
BRANCH   1  11
ATOM     11  C   UNL     1      43.103  59.836  10.769  1.00  0.00     0.000 C 
BRANCH  11  12
ATOM     12  C   UNL     1      44.554  60.010  10.284  1.00  0.00     0.000 C 
BRANCH  12  13
ATOM     13  C   UNL     1      44.703  60.664   8.898  1.00  0.00     0.000 C 
BRANCH  13  14
ATOM     14  C   UNL     1      43.364  61.134   8.309  1.00  0.00     0.000 C 
BRANCH  14  15
ATOM     15  C   UNL     1      43.562  62.351   7.397  1.00  0.00     0.000 C 
BRANCH  15  16
ATOM     16  C   UNL     1      42.432  63.374   7.592  1.00  0.00     0.006 C 
BRANCH  16  17
ATOM     17  C   UNL     1      42.791  64.751   7.020  1.00  0.00     0.053 C 
BRANCH  17  18
ATOM     18  C   UNL     1      42.682  65.827   8.056  1.00  0.00     0.041 C 
ATOM     19  O   UNL     1      41.982  65.648   9.087  1.00  0.00    -0.550 OA
ATOM     20  O   UNL     1      43.380  67.018   7.898  1.00  0.00    -0.550 OA
ENDBRANCH  17  18
ENDBRANCH  16  17
ENDBRANCH  15  16
ENDBRANCH  14  15
ENDBRANCH  13  14
ENDBRANCH  12  13
ENDBRANCH  11  12
ENDBRANCH   1  11
TORSDOF 15
ENDMDL
MODEL 2
REMARK VINA RESULT:    -4.401      1.360      5.271
REMARK INTER + INTRA:         -10.461
REMARK INTER:                  -7.923
REMARK INTRA:                  -2.538
REMARK UNBOUND:                -2.201
REMARK SMILES O=C([O-])CCCCCCCCCCCCCCC(=O)[O-]
REMARK SMILES IDX 10 1 9 2 8 3 7 4 6 5 5 6 4 7 2 8 1 9 3 10 11 11 12 12 13 13
REMARK SMILES IDX 14 14 15 15 16 16 17 17 18 18 19 19 20 20
REMARK H PARENT
REMARK Flexibility Score: inf
ROOT
ATOM      1  C   UNL     1      45.172  60.793  10.802  1.00  0.00     0.000 C 
ENDROOT
BRANCH   1   2
ATOM      2  C   UNL     1      44.221  60.242   9.728  1.00  0.00     0.000 C 
BRANCH   2   3
ATOM      3  C   UNL     1      44.100  61.171   8.509  1.00  0.00     0.000 C 
BRANCH   3   4
ATOM      4  C   UNL     1      42.715  61.097   7.843  1.00  0.00     0.000 C 
BRANCH   4   5
ATOM      5  C   UNL     1      42.428  62.307   6.939  1.00  0.00     0.000 C 
BRANCH   5   6
ATOM      6  C   UNL     1      43.561  63.348   6.965  1.00  0.00     0.006 C 
BRANCH   6   7
ATOM      7  C   UNL     1      43.113  64.705   6.406  1.00  0.00     0.053 C 
BRANCH   7   8
ATOM      8  C   UNL     1      42.828  65.692   7.496  1.00  0.00     0.041 C 
ATOM      9  O   UNL     1      41.747  65.631   8.140  1.00  0.00    -0.550 OA
ATOM     10  O   UNL     1      43.741  66.700   7.780  1.00  0.00    -0.550 OA
ENDBRANCH   7   8
ENDBRANCH   6   7
ENDBRANCH   5   6
ENDBRANCH   4   5
ENDBRANCH   3   4
ENDBRANCH   2   3
ENDBRANCH   1   2
BRANCH   1  11
ATOM     11  C   UNL     1      44.600  60.567  12.210  1.00  0.00     0.000 C 
BRANCH  11  12
ATOM     12  C   UNL     1      44.889  61.734  13.171  1.00  0.00     0.000 C 
BRANCH  12  13
ATOM     13  C   UNL     1      44.712  63.138  12.564  1.00  0.00     0.000 C 
BRANCH  13  14
ATOM     14  C   UNL     1      43.240  63.554  12.435  1.00  0.00     0.000 C 
BRANCH  14  15
ATOM     15  C   UNL     1      42.861  63.786  10.967  1.00  0.00     0.000 C 
BRANCH  15  16
ATOM     16  C   UNL     1      41.555  63.058  10.614  1.00  0.00     0.006 C 
BRANCH  16  17
ATOM     17  C   UNL     1      41.168  62.016  11.670  1.00  0.00     0.053 C 
BRANCH  17  18
ATOM     18  C   UNL     1      40.770  60.714  11.045  1.00  0.00     0.041 C 
ATOM     19  O   UNL     1      41.210  59.628  11.506  1.00  0.00    -0.550 OA
ATOM     20  O   UNL     1      39.887  60.697   9.973  1.00  0.00    -0.550 OA
ENDBRANCH  17  18
ENDBRANCH  16  17
ENDBRANCH  15  16
ENDBRANCH  14  15
ENDBRANCH  13  14
ENDBRANCH  12  13
ENDBRANCH  11  12
ENDBRANCH   1  11
TORSDOF 15
ENDMDL
MODEL 3
REMARK VINA RESULT:    -4.387      1.711      2.370
REMARK INTER + INTRA:         -10.436
REMARK INTER:                  -8.738
REMARK INTRA:                  -1.698
REMARK UNBOUND:                -2.201
REMARK SMILES O=C([O-])CCCCCCCCCCCCCCC(=O)[O-]
REMARK SMILES IDX 10 1 9 2 8 3 7 4 6 5 5 6 4 7 2 8 1 9 3 10 11 11 12 12 13 13
REMARK SMILES IDX 14 14 15 15 16 16 17 17 18 18 19 19 20 20
REMARK H PARENT
REMARK Flexibility Score: inf
ROOT
ATOM      1  C   UNL     1      44.982  60.127  10.138  1.00  0.00     0.000 C 
ENDROOT
BRANCH   1   2
ATOM      2  C   UNL     1      45.180  61.085  11.323  1.00  0.00     0.000 C 
BRANCH   2   3
ATOM      3  C   UNL     1      44.782  60.456  12.668  1.00  0.00     0.000 C 
BRANCH   3   4
ATOM      4  C   UNL     1      44.148  61.474  13.633  1.00  0.00     0.000 C 
BRANCH   4   5
ATOM      5  C   UNL     1      42.613  61.384  13.661  1.00  0.00     0.000 C 
BRANCH   5   6
ATOM      6  C   UNL     1      41.935  62.623  13.050  1.00  0.00     0.006 C 
BRANCH   6   7
ATOM      7  C   UNL     1      41.858  62.544  11.519  1.00  0.00     0.053 C 
BRANCH   7   8
ATOM      8  C   UNL     1      42.391  63.783  10.869  1.00  0.00     0.041 C 
ATOM      9  O   UNL     1      43.451  64.316  11.291  1.00  0.00    -0.550 OA
ATOM     10  O   UNL     1      41.701  64.369   9.814  1.00  0.00    -0.550 OA
ENDBRANCH   7   8
ENDBRANCH   6   7
ENDBRANCH   5   6
ENDBRANCH   4   5
ENDBRANCH   3   4
ENDBRANCH   2   3
ENDBRANCH   1   2
BRANCH   1  11
ATOM     11  C   UNL     1      44.531  60.891   8.884  1.00  0.00     0.000 C 
BRANCH  11  12
ATOM     12  C   UNL     1      43.059  60.630   8.517  1.00  0.00     0.000 C 
BRANCH  12  13
ATOM     13  C   UNL     1      42.426  61.675   7.580  1.00  0.00     0.000 C 
BRANCH  13  14
ATOM     14  C   UNL     1      43.411  62.774   7.155  1.00  0.00     0.000 C 
BRANCH  14  15
ATOM     15  C   UNL     1      42.717  63.825   6.280  1.00  0.00     0.000 C 
BRANCH  15  16
ATOM     16  C   UNL     1      43.706  64.917   5.842  1.00  0.00     0.006 C 
BRANCH  16  17
ATOM     17  C   UNL     1      43.089  66.319   5.910  1.00  0.00     0.053 C 
BRANCH  17  18
ATOM     18  C   UNL     1      42.837  66.747   7.323  1.00  0.00     0.041 C 
ATOM     19  O   UNL     1      41.664  66.982   7.716  1.00  0.00    -0.550 OA
ATOM     20  O   UNL     1      43.895  66.853   8.218  1.00  0.00    -0.550 OA
ENDBRANCH  17  18
ENDBRANCH  16  17
ENDBRANCH  15  16
ENDBRANCH  14  15
ENDBRANCH  13  14
ENDBRANCH  12  13
ENDBRANCH  11  12
ENDBRANCH   1  11
TORSDOF 15
ENDMDL
MODEL 4
REMARK VINA RESULT:    -4.307      1.608      3.229
REMARK INTER + INTRA:         -10.286
REMARK INTER:                  -8.347
REMARK INTRA:                  -1.939
REMARK UNBOUND:                -2.201
REMARK SMILES O=C([O-])CCCCCCCCCCCCCCC(=O)[O-]
REMARK SMILES IDX 10 1 9 2 8 3 7 4 6 5 5 6 4 7 2 8 1 9 3 10 11 11 12 12 13 13
REMARK SMILES IDX 14 14 15 15 16 16 17 17 18 18 19 19 20 20
REMARK H PARENT
REMARK Flexibility Score: inf
ROOT
ATOM      1  C   UNL     1      42.121  63.284   9.685  1.00  0.00     0.000 C 
ENDROOT
BRANCH   1   2
ATOM      2  C   UNL     1      42.750  64.320  10.630  1.00  0.00     0.000 C 
BRANCH   2   3
ATOM      3  C   UNL     1      42.964  63.775  12.051  1.00  0.00     0.000 C 
BRANCH   3   4
ATOM      4  C   UNL     1      44.453  63.597  12.399  1.00  0.00     0.000 C 
BRANCH   4   5
ATOM      5  C   UNL     1      44.753  62.223  13.020  1.00  0.00     0.000 C 
BRANCH   5   6
ATOM      6  C   UNL     1      43.480  61.478  13.456  1.00  0.00     0.006 C 
BRANCH   6   7
ATOM      7  C   UNL     1      43.425  60.050  12.898  1.00  0.00     0.053 C 
BRANCH   7   8
ATOM      8  C   UNL     1      42.462  59.932  11.757  1.00  0.00     0.041 C 
ATOM      9  O   UNL     1      41.341  60.504  11.813  1.00  0.00    -0.550 OA
ATOM     10  O   UNL     1      42.788  59.165  10.645  1.00  0.00    -0.550 OA
ENDBRANCH   7   8
ENDBRANCH   6   7
ENDBRANCH   5   6
ENDBRANCH   4   5
ENDBRANCH   3   4
ENDBRANCH   2   3
ENDBRANCH   1   2
BRANCH   1  11
ATOM     11  C   UNL     1      43.178  62.296   9.171  1.00  0.00     0.000 C 
BRANCH  11  12
ATOM     12  C   UNL     1      43.117  62.089   7.646  1.00  0.00     0.000 C 
BRANCH  12  13
ATOM     13  C   UNL     1      41.882  62.695   6.955  1.00  0.00     0.000 C 
BRANCH  13  14
ATOM     14  C   UNL     1      42.244  63.729   5.878  1.00  0.00     0.000 C 
BRANCH  14  15
ATOM     15  C   UNL     1      43.591  64.394   6.187  1.00  0.00     0.000 C 
BRANCH  15  16
ATOM     16  C   UNL     1      43.468  65.926   6.160  1.00  0.00     0.006 C 
BRANCH  16  17
ATOM     17  C   UNL     1      43.188  66.509   7.551  1.00  0.00     0.053 C 
BRANCH  17  18
ATOM     18  C   UNL     1      41.790  67.035   7.662  1.00  0.00     0.041 C 
ATOM     19  O   UNL     1      41.458  68.086   7.054  1.00  0.00    -0.550 OA
ATOM     20  O   UNL     1      40.845  66.346   8.411  1.00  0.00    -0.550 OA
ENDBRANCH  17  18
ENDBRANCH  16  17
ENDBRANCH  15  16
ENDBRANCH  14  15
ENDBRANCH  13  14
ENDBRANCH  12  13
ENDBRANCH  11  12
ENDBRANCH   1  11
TORSDOF 15
ENDMDL
MODEL 5
REMARK VINA RESULT:    -4.286      1.904      5.844
REMARK INTER + INTRA:         -10.245
REMARK INTER:                  -8.555
REMARK INTRA:                  -1.691
REMARK UNBOUND:                -2.201
REMARK SMILES O=C([O-])CCCCCCCCCCCCCCC(=O)[O-]
REMARK SMILES IDX 10 1 9 2 8 3 7 4 6 5 5 6 4 7 2 8 1 9 3 10 11 11 12 12 13 13
REMARK SMILES IDX 14 14 15 15 16 16 17 17 18 18 19 19 20 20
REMARK H PARENT
REMARK Flexibility Score: inf
ROOT
ATOM      1  C   UNL     1      44.727  60.791   9.070  1.00  0.00     0.000 C 
ENDROOT
BRANCH   1   2
ATOM      2  C   UNL     1      43.202  60.603   9.062  1.00  0.00     0.000 C 
BRANCH   2   3
ATOM      3  C   UNL     1      42.498  61.503   8.034  1.00  0.00     0.000 C 
BRANCH   3   4
ATOM      4  C   UNL     1      43.450  62.532   7.398  1.00  0.00     0.000 C 
BRANCH   4   5
ATOM      5  C   UNL     1      42.738  63.453   6.394  1.00  0.00     0.000 C 
BRANCH   5   6
ATOM      6  C   UNL     1      43.388  64.845   6.301  1.00  0.00     0.006 C 
BRANCH   6   7
ATOM      7  C   UNL     1      43.512  65.330   4.851  1.00  0.00     0.053 C 
BRANCH   7   8
ATOM      8  C   UNL     1      43.148  66.776   4.712  1.00  0.00     0.041 C 
ATOM      9  O   UNL     1      42.504  67.358   5.625  1.00  0.00    -0.550 OA
ATOM     10  O   UNL     1      43.491  67.474   3.561  1.00  0.00    -0.550 OA
ENDBRANCH   7   8
ENDBRANCH   6   7
ENDBRANCH   5   6
ENDBRANCH   4   5
ENDBRANCH   3   4
ENDBRANCH   2   3
ENDBRANCH   1   2
BRANCH   1  11
ATOM     11  C   UNL     1      45.278  60.751  10.503  1.00  0.00     0.000 C 
BRANCH  11  12
ATOM     12  C   UNL     1      44.268  60.189  11.521  1.00  0.00     0.000 C 
BRANCH  12  13
ATOM     13  C   UNL     1      44.635  60.420  12.998  1.00  0.00     0.000 C 
BRANCH  13  14
ATOM     14  C   UNL     1      43.543  61.168  13.777  1.00  0.00     0.000 C 
BRANCH  14  15
ATOM     15  C   UNL     1      42.257  61.279  12.950  1.00  0.00     0.000 C 
BRANCH  15  16
ATOM     16  C   UNL     1      41.780  62.738  12.865  1.00  0.00     0.006 C 
BRANCH  16  17
ATOM     17  C   UNL     1      41.681  63.232  11.417  1.00  0.00     0.053 C 
BRANCH  17  18
ATOM     18  C   UNL     1      42.834  64.115  11.051  1.00  0.00     0.041 C 
ATOM     19  O   UNL     1      42.771  64.852  10.032  1.00  0.00    -0.550 OA
ATOM     20  O   UNL     1      43.967  64.148  11.855  1.00  0.00    -0.550 OA
ENDBRANCH  17  18
ENDBRANCH  16  17
ENDBRANCH  15  16
ENDBRANCH  14  15
ENDBRANCH  13  14
ENDBRANCH  12  13
ENDBRANCH  11  12
ENDBRANCH   1  11
TORSDOF 15
ENDMDL
MODEL 6
REMARK VINA RESULT:    -4.284      1.350      5.728
REMARK INTER + INTRA:         -10.241
REMARK INTER:                  -8.707
REMARK INTRA:                  -1.535
REMARK UNBOUND:                -2.201
REMARK SMILES O=C([O-])CCCCCCCCCCCCCCC(=O)[O-]
REMARK SMILES IDX 10 1 9 2 8 3 7 4 6 5 5 6 4 7 2 8 1 9 3 10 11 11 12 12 13 13
REMARK SMILES IDX 14 14 15 15 16 16 17 17 18 18 19 19 20 20
REMARK H PARENT
REMARK Flexibility Score: inf
ROOT
ATOM      1  C   UNL     1      43.448  61.848   8.795  1.00  0.00     0.000 C 
ENDROOT
BRANCH   1   2
ATOM      2  C   UNL     1      42.788  61.870   7.407  1.00  0.00     0.000 C 
BRANCH   2   3
ATOM      3  C   UNL     1      43.176  63.110   6.585  1.00  0.00     0.000 C 
BRANCH   3   4
ATOM      4  C   UNL     1      42.123  63.468   5.521  1.00  0.00     0.000 C 
BRANCH   4   5
ATOM      5  C   UNL     1      42.493  64.731   4.727  1.00  0.00     0.000 C 
BRANCH   5   6
ATOM      6  C   UNL     1      43.505  65.623   5.467  1.00  0.00     0.006 C 
BRANCH   6   7
ATOM      7  C   UNL     1      42.822  66.775   6.216  1.00  0.00     0.053 C 
BRANCH   7   8
ATOM      8  C   UNL     1      42.889  66.592   7.701  1.00  0.00     0.041 C 
ATOM      9  O   UNL     1      43.946  66.868   8.327  1.00  0.00    -0.550 OA
ATOM     10  O   UNL     1      41.793  66.088   8.392  1.00  0.00    -0.550 OA
ENDBRANCH   7   8
ENDBRANCH   6   7
ENDBRANCH   5   6
ENDBRANCH   4   5
ENDBRANCH   3   4
ENDBRANCH   2   3
ENDBRANCH   1   2
BRANCH   1  11
ATOM     11  C   UNL     1      44.560  60.790   8.857  1.00  0.00     0.000 C 
BRANCH  11  12
ATOM     12  C   UNL     1      44.555  59.988  10.171  1.00  0.00     0.000 C 
BRANCH  12  13
ATOM     13  C   UNL     1      43.171  59.812  10.822  1.00  0.00     0.000 C 
BRANCH  13  14
ATOM     14  C   UNL     1      43.202  59.974  12.349  1.00  0.00     0.000 C 
BRANCH  14  15
ATOM     15  C   UNL     1      44.566  60.492  12.820  1.00  0.00     0.000 C 
BRANCH  15  16
ATOM     16  C   UNL     1      44.428  61.856  13.514  1.00  0.00     0.006 C 
BRANCH  16  17
ATOM     17  C   UNL     1      44.603  63.024  12.536  1.00  0.00     0.053 C 
BRANCH  17  18
ATOM     18  C   UNL     1      43.289  63.642  12.168  1.00  0.00     0.041 C 
ATOM     19  O   UNL     1      42.259  63.394  12.846  1.00  0.00    -0.550 OA
ATOM     20  O   UNL     1      43.210  64.520  11.094  1.00  0.00    -0.550 OA
ENDBRANCH  17  18
ENDBRANCH  16  17
ENDBRANCH  15  16
ENDBRANCH  14  15
ENDBRANCH  13  14
ENDBRANCH  12  13
ENDBRANCH  11  12
ENDBRANCH   1  11
TORSDOF 15
ENDMDL
MODEL 7
REMARK VINA RESULT:    -4.185      1.430      5.351
REMARK INTER + INTRA:         -10.056
REMARK INTER:                  -8.122
REMARK INTRA:                  -1.934
REMARK UNBOUND:                -2.201
REMARK SMILES O=C([O-])CCCCCCCCCCCCCCC(=O)[O-]
REMARK SMILES IDX 10 1 9 2 8 3 7 4 6 5 5 6 4 7 2 8 1 9 3 10 11 11 12 12 13 13
REMARK SMILES IDX 14 14 15 15 16 16 17 17 18 18 19 19 20 20
REMARK H PARENT
REMARK Flexibility Score: inf
ROOT
ATOM      1  C   UNL     1      43.130  62.227   8.472  1.00  0.00     0.000 C 
ENDROOT
BRANCH   1   2
ATOM      2  C   UNL     1      42.223  61.941   7.264  1.00  0.00     0.000 C 
BRANCH   2   3
ATOM      3  C   UNL     1      42.383  62.979   6.142  1.00  0.00     0.000 C 
BRANCH   3   4
ATOM      4  C   UNL     1      43.544  63.956   6.401  1.00  0.00     0.000 C 
BRANCH   4   5
ATOM      5  C   UNL     1      43.179  65.410   6.061  1.00  0.00     0.000 C 
BRANCH   5   6
ATOM      6  C   UNL     1      43.436  66.376   7.232  1.00  0.00     0.006 C 
BRANCH   6   7
ATOM      7  C   UNL     1      42.774  65.898   8.531  1.00  0.00     0.053 C 
BRANCH   7   8
ATOM      8  C   UNL     1      41.279  65.960   8.452  1.00  0.00     0.041 C 
ATOM      9  O   UNL     1      40.705  67.031   8.124  1.00  0.00    -0.550 OA
ATOM     10  O   UNL     1      40.518  64.842   8.772  1.00  0.00    -0.550 OA
ENDBRANCH   7   8
ENDBRANCH   6   7
ENDBRANCH   5   6
ENDBRANCH   4   5
ENDBRANCH   3   4
ENDBRANCH   2   3
ENDBRANCH   1   2
BRANCH   1  11
ATOM     11  C   UNL     1      44.167  61.109   8.656  1.00  0.00     0.000 C 
BRANCH  11  12
ATOM     12  C   UNL     1      44.181  60.530  10.083  1.00  0.00     0.000 C 
BRANCH  12  13
ATOM     13  C   UNL     1      45.272  61.099  11.007  1.00  0.00     0.000 C 
BRANCH  13  14
ATOM     14  C   UNL     1      44.713  61.649  12.328  1.00  0.00     0.000 C 
BRANCH  14  15
ATOM     15  C   UNL     1      44.524  63.169  12.253  1.00  0.00     0.000 C 
BRANCH  15  16
ATOM     16  C   UNL     1      43.032  63.538  12.236  1.00  0.00     0.006 C 
BRANCH  16  17
ATOM     17  C   UNL     1      42.151  62.417  12.803  1.00  0.00     0.053 C 
BRANCH  17  18
ATOM     18  C   UNL     1      41.034  62.063  11.870  1.00  0.00     0.041 C 
ATOM     19  O   UNL     1      40.944  60.899  11.400  1.00  0.00    -0.550 OA
ATOM     20  O   UNL     1      40.072  63.012  11.545  1.00  0.00    -0.550 OA
ENDBRANCH  17  18
ENDBRANCH  16  17
ENDBRANCH  15  16
ENDBRANCH  14  15
ENDBRANCH  13  14
ENDBRANCH  12  13
ENDBRANCH  11  12
ENDBRANCH   1  11
TORSDOF 15
ENDMDL
MODEL 8
REMARK VINA RESULT:    -4.161      1.161      5.540
REMARK INTER + INTRA:         -10.010
REMARK INTER:                  -8.302
REMARK INTRA:                  -1.708
REMARK UNBOUND:                -2.201
REMARK SMILES O=C([O-])CCCCCCCCCCCCCCC(=O)[O-]
REMARK SMILES IDX 10 1 9 2 8 3 7 4 6 5 5 6 4 7 2 8 1 9 3 10 11 11 12 12 13 13
REMARK SMILES IDX 14 14 15 15 16 16 17 17 18 18 19 19 20 20
REMARK H PARENT
REMARK Flexibility Score: inf
ROOT
ATOM      1  C   UNL     1      44.559  60.638   8.634  1.00  0.00     0.000 C 
ENDROOT
BRANCH   1   2
ATOM      2  C   UNL     1      43.095  61.105   8.652  1.00  0.00     0.000 C 
BRANCH   2   3
ATOM      3  C   UNL     1      42.953  62.623   8.462  1.00  0.00     0.000 C 
BRANCH   3   4
ATOM      4  C   UNL     1      41.573  63.025   7.912  1.00  0.00     0.000 C 
BRANCH   4   5
ATOM      5  C   UNL     1      41.657  64.159   6.878  1.00  0.00     0.000 C 
BRANCH   5   6
ATOM      6  C   UNL     1      43.089  64.386   6.361  1.00  0.00     0.006 C 
BRANCH   6   7
ATOM      7  C   UNL     1      43.353  65.858   6.018  1.00  0.00     0.053 C 
BRANCH   7   8
ATOM      8  C   UNL     1      43.022  66.767   7.162  1.00  0.00     0.041 C 
ATOM      9  O   UNL     1      42.078  67.594   7.061  1.00  0.00    -0.550 OA
ATOM     10  O   UNL     1      43.775  66.721   8.329  1.00  0.00    -0.550 OA
ENDBRANCH   7   8
ENDBRANCH   6   7
ENDBRANCH   5   6
ENDBRANCH   4   5
ENDBRANCH   3   4
ENDBRANCH   2   3
ENDBRANCH   1   2
BRANCH   1  11
ATOM     11  C   UNL     1      44.954  60.018   9.982  1.00  0.00     0.000 C 
BRANCH  11  12
ATOM     12  C   UNL     1      45.270  61.071  11.060  1.00  0.00     0.000 C 
BRANCH  12  13
ATOM     13  C   UNL     1      44.650  60.796  12.442  1.00  0.00     0.000 C 
BRANCH  13  14
ATOM     14  C   UNL     1      44.216  62.076  13.170  1.00  0.00     0.000 C 
BRANCH  14  15
ATOM     15  C   UNL     1      44.300  63.292  12.241  1.00  0.00     0.000 C 
BRANCH  15  16
ATOM     16  C   UNL     1      42.898  63.791  11.858  1.00  0.00     0.006 C 
BRANCH  16  17
ATOM     17  C   UNL     1      41.843  63.416  12.907  1.00  0.00     0.053 C 
BRANCH  17  18
ATOM     18  C   UNL     1      40.706  62.651  12.302  1.00  0.00     0.041 C 
ATOM     19  O   UNL     1      39.517  62.951  12.586  1.00  0.00    -0.550 OA
ATOM     20  O   UNL     1      40.960  61.627  11.398  1.00  0.00    -0.550 OA
ENDBRANCH  17  18
ENDBRANCH  16  17
ENDBRANCH  15  16
ENDBRANCH  14  15
ENDBRANCH  13  14
ENDBRANCH  12  13
ENDBRANCH  11  12
ENDBRANCH   1  11
TORSDOF 15
ENDMDL
MODEL 9
REMARK VINA RESULT:    -4.154      2.381      6.272
REMARK INTER + INTRA:          -9.998
REMARK INTER:                  -7.978
REMARK INTRA:                  -2.020
REMARK UNBOUND:                -2.201
REMARK SMILES O=C([O-])CCCCCCCCCCCCCCC(=O)[O-]
REMARK SMILES IDX 10 1 9 2 8 3 7 4 6 5 5 6 4 7 2 8 1 9 3 10 11 11 12 12 13 13
REMARK SMILES IDX 14 14 15 15 16 16 17 17 18 18 19 19 20 20
REMARK H PARENT
REMARK Flexibility Score: inf
ROOT
ATOM      1  C   UNL     1      41.467  63.126   8.608  1.00  0.00     0.000 C 
ENDROOT
BRANCH   1   2
ATOM      2  C   UNL     1      42.792  62.615   8.019  1.00  0.00     0.000 C 
BRANCH   2   3
ATOM      3  C   UNL     1      43.095  63.211   6.635  1.00  0.00     0.000 C 
BRANCH   3   4
ATOM      4  C   UNL     1      42.501  64.619   6.454  1.00  0.00     0.000 C 
BRANCH   4   5
ATOM      5  C   UNL     1      43.544  65.730   6.658  1.00  0.00     0.000 C 
BRANCH   5   6
ATOM      6  C   UNL     1      43.064  66.822   7.632  1.00  0.00     0.006 C 
BRANCH   6   7
ATOM      7  C   UNL     1      41.536  66.851   7.761  1.00  0.00     0.053 C 
BRANCH   7   8
ATOM      8  C   UNL     1      40.939  68.036   7.065  1.00  0.00     0.041 C 
ATOM      9  O   UNL     1      41.624  69.077   6.884  1.00  0.00    -0.550 OA
ATOM     10  O   UNL     1      39.615  68.002   6.642  1.00  0.00    -0.550 OA
ENDBRANCH   7   8
ENDBRANCH   6   7
ENDBRANCH   5   6
ENDBRANCH   4   5
ENDBRANCH   3   4
ENDBRANCH   2   3
ENDBRANCH   1   2
BRANCH   1  11
ATOM     11  C   UNL     1      41.628  63.483  10.093  1.00  0.00     0.000 C 
BRANCH  11  12
ATOM     12  C   UNL     1      42.818  64.424  10.361  1.00  0.00     0.000 C 
BRANCH  12  13
ATOM     13  C   UNL     1      43.513  64.224  11.720  1.00  0.00     0.000 C 
BRANCH  13  14
ATOM     14  C   UNL     1      43.265  62.833  12.322  1.00  0.00     0.000 C 
BRANCH  14  15
ATOM     15  C   UNL     1      44.558  62.245  12.899  1.00  0.00     0.000 C 
BRANCH  15  16
ATOM     16  C   UNL     1      44.855  60.865  12.292  1.00  0.00     0.006 C 
BRANCH  16  17
ATOM     17  C   UNL     1      45.182  60.948  10.796  1.00  0.00     0.053 C 
BRANCH  17  18
ATOM     18  C   UNL     1      44.350  59.997   9.992  1.00  0.00     0.041 C 
ATOM     19  O   UNL     1      43.133  59.830  10.266  1.00  0.00    -0.550 OA
ATOM     20  O   UNL     1      44.912  59.318   8.917  1.00  0.00    -0.550 OA
ENDBRANCH  17  18
ENDBRANCH  16  17
ENDBRANCH  15  16
ENDBRANCH  14  15
ENDBRANCH  13  14
ENDBRANCH  12  13
ENDBRANCH  11  12
ENDBRANCH   1  11
TORSDOF 15
ENDMDL
