MODEL 1
REMARK VINA RESULT:    -6.112      0.000      0.000
REMARK INTER + INTRA:          -7.469
REMARK INTER:                  -7.184
REMARK INTRA:                  -0.285
REMARK UNBOUND:                -0.285
REMARK SMILES O=c1c(O)c(-c2ccc(O)cc2)oc2cc(O)cc(O)c12
REMARK SMILES IDX 5 1 3 2 2 3 1 4 21 5 19 6 18 7 16 8 15 9 14 10 13 11 6 12
REMARK SMILES IDX 7 13 8 14 9 15 12 16 11 17 10 18 4 20 20 22 17 24
REMARK H PARENT 10 19 4 21 20 23 17 25
REMARK Flexibility Score: inf
ROOT
ATOM      1  C   UNL     1      -0.251  -3.773  -4.502  1.00  0.00     0.180 A 
ATOM      2  C   UNL     1      -1.642  -3.586  -4.585  1.00  0.00     0.208 A 
ATOM      3  C   UNL     1      -2.162  -2.289  -4.452  1.00  0.00     0.238 A 
ATOM      4  O   UNL     1      -3.403  -2.119  -4.582  1.00  0.00    -0.285 OA
ATOM      5  C   UNL     1      -1.289  -1.199  -4.222  1.00  0.00     0.111 A 
ATOM      6  C   UNL     1      -1.710   0.152  -4.032  1.00  0.00     0.134 A 
ATOM      7  C   UNL     1      -0.751   1.168  -3.941  1.00  0.00     0.093 A 
ATOM      8  C   UNL     1       0.615   0.875  -3.968  1.00  0.00     0.123 A 
ATOM      9  C   UNL     1       1.035  -0.447  -4.093  1.00  0.00     0.094 A 
ATOM     10  C   UNL     1       0.103  -1.479  -4.222  1.00  0.00     0.146 A 
ATOM     11  O   UNL     1       0.547  -2.723  -4.351  1.00  0.00    -0.452 OA
ENDROOT
BRANCH   1  12
ATOM     12  C   UNL     1       0.370  -5.113  -4.607  1.00  0.00     0.021 A 
ATOM     13  C   UNL     1       0.960  -5.509  -5.821  1.00  0.00     0.016 A 
ATOM     14  C   UNL     1       1.572  -6.761  -5.935  1.00  0.00     0.047 A 
ATOM     15  C   UNL     1       1.617  -7.626  -4.838  1.00  0.00     0.115 A 
ATOM     16  C   UNL     1       0.437  -5.980  -3.501  1.00  0.00     0.016 A 
ATOM     17  C   UNL     1       1.051  -7.231  -3.619  1.00  0.00     0.047 A 
BRANCH  15  18
ATOM     18  O   UNL     1       2.229  -8.870  -4.966  1.00  0.00    -0.508 OA
ATOM     19  H   UNL     1       3.234  -8.976  -4.892  1.00  0.00     0.293 HD
ENDBRANCH  15  18
ENDBRANCH   1  12
BRANCH   2  20
ATOM     20  O   UNL     1      -2.484  -4.672  -4.836  1.00  0.00    -0.502 OA
ATOM     21  H   UNL     1      -2.196  -5.631  -4.684  1.00  0.00     0.293 HD
ENDBRANCH   2  20
BRANCH   6  22
ATOM     22  O   UNL     1      -3.046   0.541  -3.899  1.00  0.00    -0.507 OA
ATOM     23  H   UNL     1      -3.574   1.033  -4.603  1.00  0.00     0.293 HD
ENDBRANCH   6  22
BRANCH   8  24
ATOM     24  O   UNL     1       1.562   1.891  -3.862  1.00  0.00    -0.508 OA
ATOM     25  H   UNL     1       2.259   2.043  -4.580  1.00  0.00     0.293 HD
ENDBRANCH   8  24
TORSDOF 5
ENDMDL
MODEL 2
REMARK VINA RESULT:    -5.594      1.864      6.926
REMARK INTER + INTRA:          -6.860
REMARK INTER:                  -6.559
REMARK INTRA:                  -0.300
REMARK UNBOUND:                -0.285
REMARK SMILES O=c1c(O)c(-c2ccc(O)cc2)oc2cc(O)cc(O)c12
REMARK SMILES IDX 5 1 3 2 2 3 1 4 21 5 19 6 18 7 16 8 15 9 14 10 13 11 6 12
REMARK SMILES IDX 7 13 8 14 9 15 12 16 11 17 10 18 4 20 20 22 17 24
REMARK H PARENT 10 19 4 21 20 23 17 25
REMARK Flexibility Score: inf
ROOT
ATOM      1  C   UNL     1      -0.588   0.155  -4.283  1.00  0.00     0.180 A 
ATOM      2  C   UNL     1      -1.930  -0.258  -4.337  1.00  0.00     0.208 A 
ATOM      3  C   UNL     1      -2.219  -1.633  -4.346  1.00  0.00     0.238 A 
ATOM      4  O   UNL     1      -3.424  -1.997  -4.340  1.00  0.00    -0.285 OA
ATOM      5  C   UNL     1      -1.163  -2.575  -4.318  1.00  0.00     0.111 A 
ATOM      6  C   UNL     1      -1.339  -3.991  -4.364  1.00  0.00     0.134 A 
ATOM      7  C   UNL     1      -0.231  -4.830  -4.198  1.00  0.00     0.093 A 
ATOM      8  C   UNL     1       1.056  -4.304  -4.054  1.00  0.00     0.123 A 
ATOM      9  C   UNL     1       1.244  -2.924  -4.067  1.00  0.00     0.094 A 
ATOM     10  C   UNL     1       0.154  -2.061  -4.195  1.00  0.00     0.146 A 
ATOM     11  O   UNL     1       0.377  -0.753  -4.191  1.00  0.00    -0.452 OA
ENDROOT
BRANCH   1  12
ATOM     12  C   UNL     1      -0.203   1.585  -4.295  1.00  0.00     0.021 A 
ATOM     13  C   UNL     1      -0.000   2.257  -3.078  1.00  0.00     0.016 A 
ATOM     14  C   UNL     1       0.385   3.601  -3.067  1.00  0.00     0.047 A 
ATOM     15  C   UNL     1       0.587   4.286  -4.269  1.00  0.00     0.115 A 
ATOM     16  C   UNL     1       0.022   2.274  -5.502  1.00  0.00     0.016 A 
ATOM     17  C   UNL     1       0.407   3.617  -5.487  1.00  0.00     0.047 A 
BRANCH  15  18
ATOM     18  O   UNL     1       0.970   5.625  -4.243  1.00  0.00    -0.508 OA
ATOM     19  H   UNL     1       0.363   6.342  -3.865  1.00  0.00     0.293 HD
ENDBRANCH  15  18
ENDBRANCH   1  12
BRANCH   2  20
ATOM     20  O   UNL     1      -2.958   0.688  -4.341  1.00  0.00    -0.502 OA
ATOM     21  H   UNL     1      -3.886   0.485  -3.989  1.00  0.00     0.293 HD
ENDBRANCH   2  20
BRANCH   6  22
ATOM     22  O   UNL     1      -2.567  -4.617  -4.596  1.00  0.00    -0.507 OA
ATOM     23  H   UNL     1      -2.677  -5.529  -5.013  1.00  0.00     0.293 HD
ENDBRANCH   6  22
BRANCH   8  24
ATOM     24  O   UNL     1       2.155  -5.147  -3.905  1.00  0.00    -0.508 OA
ATOM     25  H   UNL     1       2.418  -5.808  -4.626  1.00  0.00     0.293 HD
ENDBRANCH   8  24
TORSDOF 5
ENDMDL
MODEL 3
REMARK VINA RESULT:    -5.544      2.092      6.770
REMARK INTER + INTRA:          -6.801
REMARK INTER:                  -6.524
REMARK INTRA:                  -0.276
REMARK UNBOUND:                -0.285
REMARK SMILES O=c1c(O)c(-c2ccc(O)cc2)oc2cc(O)cc(O)c12
REMARK SMILES IDX 5 1 3 2 2 3 1 4 21 5 19 6 18 7 16 8 15 9 14 10 13 11 6 12
REMARK SMILES IDX 7 13 8 14 9 15 12 16 11 17 10 18 4 20 20 22 17 24
REMARK H PARENT 10 19 4 21 20 23 17 25
REMARK Flexibility Score: inf
ROOT
ATOM      1  C   UNL     1       0.190  -1.866  -3.489  1.00  0.00     0.180 A 
ATOM      2  C   UNL     1       0.039  -2.174  -2.126  1.00  0.00     0.208 A 
ATOM      3  C   UNL     1       0.071  -3.519  -1.725  1.00  0.00     0.238 A 
ATOM      4  O   UNL     1      -0.010  -3.786  -0.497  1.00  0.00    -0.285 OA
ATOM      5  C   UNL     1       0.236  -4.539  -2.692  1.00  0.00     0.111 A 
ATOM      6  C   UNL     1       0.242  -5.937  -2.403  1.00  0.00     0.134 A 
ATOM      7  C   UNL     1       0.544  -6.851  -3.420  1.00  0.00     0.093 A 
ATOM      8  C   UNL     1       0.775  -6.422  -4.729  1.00  0.00     0.123 A 
ATOM      9  C   UNL     1       0.712  -5.064  -5.033  1.00  0.00     0.094 A 
ATOM     10  C   UNL     1       0.449  -4.125  -4.033  1.00  0.00     0.146 A 
ATOM     11  O   UNL     1       0.409  -2.841  -4.364  1.00  0.00    -0.452 OA
ENDROOT
BRANCH   1  12
ATOM     12  C   UNL     1       0.143  -0.474  -3.992  1.00  0.00     0.021 A 
ATOM     13  C   UNL     1       1.312   0.307  -3.977  1.00  0.00     0.016 A 
ATOM     14  C   UNL     1       1.294   1.616  -4.467  1.00  0.00     0.047 A 
ATOM     15  C   UNL     1       0.117   2.157  -4.992  1.00  0.00     0.115 A 
ATOM     16  C   UNL     1      -1.034   0.069  -4.540  1.00  0.00     0.016 A 
ATOM     17  C   UNL     1      -1.047   1.378  -5.030  1.00  0.00     0.047 A 
BRANCH  15  18
ATOM     18  O   UNL     1       0.114   3.462  -5.477  1.00  0.00    -0.508 OA
ATOM     19  H   UNL     1      -0.199   3.678  -6.415  1.00  0.00     0.293 HD
ENDBRANCH  15  18
ENDBRANCH   1  12
BRANCH   2  20
ATOM     20  O   UNL     1      -0.099  -1.150  -1.185  1.00  0.00    -0.502 OA
ATOM     21  H   UNL     1      -0.978  -0.671  -1.027  1.00  0.00     0.293 HD
ENDBRANCH   2  20
BRANCH   6  22
ATOM     22  O   UNL     1      -0.065  -6.476  -1.150  1.00  0.00    -0.507 OA
ATOM     23  H   UNL     1      -0.975  -6.437  -0.716  1.00  0.00     0.293 HD
ENDBRANCH   6  22
BRANCH   8  24
ATOM     24  O   UNL     1       1.059  -7.340  -5.738  1.00  0.00    -0.508 OA
ATOM     25  H   UNL     1       0.542  -7.347  -6.609  1.00  0.00     0.293 HD
ENDBRANCH   8  24
TORSDOF 5
ENDMDL
MODEL 4
REMARK VINA RESULT:    -5.331      2.013      6.683
REMARK INTER + INTRA:          -6.551
REMARK INTER:                  -6.692
REMARK INTRA:                   0.141
REMARK UNBOUND:                -0.285
REMARK SMILES O=c1c(O)c(-c2ccc(O)cc2)oc2cc(O)cc(O)c12
REMARK SMILES IDX 5 1 3 2 2 3 1 4 21 5 19 6 18 7 16 8 15 9 14 10 13 11 6 12
REMARK SMILES IDX 7 13 8 14 9 15 12 16 11 17 10 18 4 20 20 22 17 24
REMARK H PARENT 10 19 4 21 20 23 17 25
REMARK Flexibility Score: inf
ROOT
ATOM      1  C   UNL     1       0.617  -4.098  -4.411  1.00  0.00     0.180 A 
ATOM      2  C   UNL     1       0.043  -5.315  -4.004  1.00  0.00     0.208 A 
ATOM      3  C   UNL     1       0.827  -6.480  -4.035  1.00  0.00     0.238 A 
ATOM      4  O   UNL     1       0.326  -7.557  -3.618  1.00  0.00    -0.285 OA
ATOM      5  C   UNL     1       2.166  -6.417  -4.487  1.00  0.00     0.111 A 
ATOM      6  C   UNL     1       3.039  -7.541  -4.598  1.00  0.00     0.134 A 
ATOM      7  C   UNL     1       4.384  -7.342  -4.933  1.00  0.00     0.093 A 
ATOM      8  C   UNL     1       4.872  -6.065  -5.226  1.00  0.00     0.123 A 
ATOM      9  C   UNL     1       4.013  -4.969  -5.178  1.00  0.00     0.094 A 
ATOM     10  C   UNL     1       2.675  -5.132  -4.812  1.00  0.00     0.146 A 
ATOM     11  O   UNL     1       1.895  -4.059  -4.768  1.00  0.00    -0.452 OA
ENDROOT
BRANCH   1  12
ATOM     12  C   UNL     1      -0.153  -2.833  -4.430  1.00  0.00     0.021 A 
ATOM     13  C   UNL     1       0.480  -1.633  -4.065  1.00  0.00     0.016 A 
ATOM     14  C   UNL     1      -0.222  -0.424  -4.098  1.00  0.00     0.047 A 
ATOM     15  C   UNL     1      -1.557  -0.396  -4.509  1.00  0.00     0.115 A 
ATOM     16  C   UNL     1      -1.492  -2.795  -4.864  1.00  0.00     0.016 A 
ATOM     17  C   UNL     1      -2.189  -1.584  -4.896  1.00  0.00     0.047 A 
BRANCH  15  18
ATOM     18  O   UNL     1      -2.244   0.816  -4.536  1.00  0.00    -0.508 OA
ATOM     19  H   UNL     1      -1.785   1.690  -4.307  1.00  0.00     0.293 HD
ENDBRANCH  15  18
ENDBRANCH   1  12
BRANCH   2  20
ATOM     20  O   UNL     1      -1.274  -5.352  -3.539  1.00  0.00    -0.502 OA
ATOM     21  H   UNL     1      -1.926  -6.080  -3.808  1.00  0.00     0.293 HD
ENDBRANCH   2  20
BRANCH   6  22
ATOM     22  O   UNL     1       2.631  -8.866  -4.418  1.00  0.00    -0.507 OA
ATOM     23  H   UNL     1       2.938  -9.465  -3.667  1.00  0.00     0.293 HD
ENDBRANCH   6  22
BRANCH   8  24
ATOM     24  O   UNL     1       6.208  -5.878  -5.573  1.00  0.00    -0.508 OA
ATOM     25  H   UNL     1       6.943  -6.454  -5.182  1.00  0.00     0.293 HD
ENDBRANCH   8  24
TORSDOF 5
ENDMDL
MODEL 5
REMARK VINA RESULT:    -5.329      1.308      2.985
REMARK INTER + INTRA:          -6.548
REMARK INTER:                  -6.297
REMARK INTRA:                  -0.252
REMARK UNBOUND:                -0.285
REMARK SMILES O=c1c(O)c(-c2ccc(O)cc2)oc2cc(O)cc(O)c12
REMARK SMILES IDX 5 1 3 2 2 3 1 4 21 5 19 6 18 7 16 8 15 9 14 10 13 11 6 12
REMARK SMILES IDX 7 13 8 14 9 15 12 16 11 17 10 18 4 20 20 22 17 24
REMARK H PARENT 10 19 4 21 20 23 17 25
REMARK Flexibility Score: inf
ROOT
ATOM      1  C   UNL     1       0.834  -3.168  -4.182  1.00  0.00     0.180 A 
ATOM      2  C   UNL     1       1.798  -2.269  -3.694  1.00  0.00     0.208 A 
ATOM      3  C   UNL     1       1.482  -0.903  -3.627  1.00  0.00     0.238 A 
ATOM      4  O   UNL     1       2.329  -0.110  -3.138  1.00  0.00    -0.285 OA
ATOM      5  C   UNL     1       0.214  -0.450  -4.064  1.00  0.00     0.111 A 
ATOM      6  C   UNL     1      -0.198   0.917  -4.079  1.00  0.00     0.134 A 
ATOM      7  C   UNL     1      -1.521   1.235  -4.410  1.00  0.00     0.093 A 
ATOM      8  C   UNL     1      -2.428   0.242  -4.790  1.00  0.00     0.123 A 
ATOM      9  C   UNL     1      -2.018  -1.088  -4.836  1.00  0.00     0.094 A 
ATOM     10  C   UNL     1      -0.715  -1.441  -4.477  1.00  0.00     0.146 A 
ATOM     11  O   UNL     1      -0.369  -2.721  -4.523  1.00  0.00    -0.452 OA
ENDROOT
BRANCH   1  12
ATOM     12  C   UNL     1       1.102  -4.619  -4.306  1.00  0.00     0.021 A 
ATOM     13  C   UNL     1       1.889  -5.089  -5.372  1.00  0.00     0.016 A 
ATOM     14  C   UNL     1       2.173  -6.452  -5.495  1.00  0.00     0.047 A 
ATOM     15  C   UNL     1       1.688  -7.361  -4.550  1.00  0.00     0.115 A 
ATOM     16  C   UNL     1       0.635  -5.537  -3.347  1.00  0.00     0.016 A 
ATOM     17  C   UNL     1       0.921  -6.899  -3.473  1.00  0.00     0.047 A 
BRANCH  15  18
ATOM     18  O   UNL     1       1.978  -8.716  -4.686  1.00  0.00    -0.508 OA
ATOM     19  H   UNL     1       2.771  -9.138  -4.217  1.00  0.00     0.293 HD
ENDBRANCH  15  18
ENDBRANCH   1  12
BRANCH   2  20
ATOM     20  O   UNL     1       3.035  -2.740  -3.246  1.00  0.00    -0.502 OA
ATOM     21  H   UNL     1       3.903  -2.532  -3.725  1.00  0.00     0.293 HD
ENDBRANCH   2  20
BRANCH   6  22
ATOM     22  O   UNL     1       0.653   1.991  -3.807  1.00  0.00    -0.507 OA
ATOM     23  H   UNL     1       0.381   2.830  -3.318  1.00  0.00     0.293 HD
ENDBRANCH   6  22
BRANCH   8  24
ATOM     24  O   UNL     1      -3.738   0.570  -5.132  1.00  0.00    -0.508 OA
ATOM     25  H   UNL     1      -3.963   1.445  -5.589  1.00  0.00     0.293 HD
ENDBRANCH   8  24
TORSDOF 5
ENDMDL
MODEL 6
REMARK VINA RESULT:    -5.284      2.666      4.944
REMARK INTER + INTRA:          -6.495
REMARK INTER:                  -6.245
REMARK INTRA:                  -0.250
REMARK UNBOUND:                -0.285
REMARK SMILES O=c1c(O)c(-c2ccc(O)cc2)oc2cc(O)cc(O)c12
REMARK SMILES IDX 5 1 3 2 2 3 1 4 21 5 19 6 18 7 16 8 15 9 14 10 13 11 6 12
REMARK SMILES IDX 7 13 8 14 9 15 12 16 11 17 10 18 4 20 20 22 17 24
REMARK H PARENT 10 19 4 21 20 23 17 25
REMARK Flexibility Score: inf
ROOT
ATOM      1  C   UNL     1      -0.415   0.435  -3.812  1.00  0.00     0.180 A 
ATOM      2  C   UNL     1      -0.454   0.867  -2.475  1.00  0.00     0.208 A 
ATOM      3  C   UNL     1      -0.169   2.211  -2.186  1.00  0.00     0.238 A 
ATOM      4  O   UNL     1      -0.259   2.605  -0.994  1.00  0.00    -0.285 OA
ATOM      5  C   UNL     1       0.168   3.101  -3.234  1.00  0.00     0.111 A 
ATOM      6  C   UNL     1       0.515   4.474  -3.051  1.00  0.00     0.134 A 
ATOM      7  C   UNL     1       0.703   5.293  -4.171  1.00  0.00     0.093 A 
ATOM      8  C   UNL     1       0.622   4.774  -5.466  1.00  0.00     0.123 A 
ATOM      9  C   UNL     1       0.343   3.422  -5.652  1.00  0.00     0.094 A 
ATOM     10  C   UNL     1       0.115   2.588  -4.556  1.00  0.00     0.146 A 
ATOM     11  O   UNL     1      -0.160   1.308  -4.779  1.00  0.00    -0.452 OA
ENDROOT
BRANCH   1  12
ATOM     12  C   UNL     1      -0.679  -0.972  -4.193  1.00  0.00     0.021 A 
ATOM     13  C   UNL     1       0.314  -1.944  -3.981  1.00  0.00     0.016 A 
ATOM     14  C   UNL     1       0.077  -3.281  -4.313  1.00  0.00     0.047 A 
ATOM     15  C   UNL     1      -1.156  -3.667  -4.845  1.00  0.00     0.115 A 
ATOM     16  C   UNL     1      -1.926  -1.370  -4.711  1.00  0.00     0.016 A 
ATOM     17  C   UNL     1      -2.159  -2.708  -5.040  1.00  0.00     0.047 A 
BRANCH  15  18
ATOM     18  O   UNL     1      -1.378  -5.003  -5.172  1.00  0.00    -0.508 OA
ATOM     19  H   UNL     1      -1.619  -5.285  -6.115  1.00  0.00     0.293 HD
ENDBRANCH  15  18
ENDBRANCH   1  12
BRANCH   2  20
ATOM     20  O   UNL     1      -0.812  -0.023  -1.459  1.00  0.00    -0.502 OA
ATOM     21  H   UNL     1      -1.754  -0.382  -1.356  1.00  0.00     0.293 HD
ENDBRANCH   2  20
BRANCH   6  22
ATOM     22  O   UNL     1       0.711   5.069  -1.802  1.00  0.00    -0.507 OA
ATOM     23  H   UNL     1       1.169   5.955  -1.653  1.00  0.00     0.293 HD
ENDBRANCH   6  22
BRANCH   8  24
ATOM     24  O   UNL     1       0.826   5.594  -6.574  1.00  0.00    -0.508 OA
ATOM     25  H   UNL     1       1.663   6.155  -6.670  1.00  0.00     0.293 HD
ENDBRANCH   8  24
TORSDOF 5
ENDMDL
MODEL 7
REMARK VINA RESULT:    -5.259      2.312      7.674
REMARK INTER + INTRA:          -6.467
REMARK INTER:                  -6.178
REMARK INTRA:                  -0.289
REMARK UNBOUND:                -0.285
REMARK SMILES O=c1c(O)c(-c2ccc(O)cc2)oc2cc(O)cc(O)c12
REMARK SMILES IDX 5 1 3 2 2 3 1 4 21 5 19 6 18 7 16 8 15 9 14 10 13 11 6 12
REMARK SMILES IDX 7 13 8 14 9 15 12 16 11 17 10 18 4 20 20 22 17 24
REMARK H PARENT 10 19 4 21 20 23 17 25
REMARK Flexibility Score: inf
ROOT
ATOM      1  C   UNL     1       0.706   0.658  -4.069  1.00  0.00     0.180 A 
ATOM      2  C   UNL     1       1.880  -0.046  -3.751  1.00  0.00     0.208 A 
ATOM      3  C   UNL     1       1.855  -1.450  -3.761  1.00  0.00     0.238 A 
ATOM      4  O   UNL     1       2.922  -2.075  -3.529  1.00  0.00    -0.285 OA
ATOM      5  C   UNL     1       0.654  -2.131  -4.073  1.00  0.00     0.111 A 
ATOM      6  C   UNL     1       0.504  -3.551  -4.074  1.00  0.00     0.134 A 
ATOM      7  C   UNL     1      -0.694  -4.118  -4.525  1.00  0.00     0.093 A 
ATOM      8  C   UNL     1      -1.771  -3.315  -4.912  1.00  0.00     0.123 A 
ATOM      9  C   UNL     1      -1.654  -1.929  -4.858  1.00  0.00     0.094 A 
ATOM     10  C   UNL     1      -0.459  -1.334  -4.447  1.00  0.00     0.146 A 
ATOM     11  O   UNL     1      -0.387  -0.009  -4.421  1.00  0.00    -0.452 OA
ENDROOT
BRANCH   1  12
ATOM     12  C   UNL     1       0.648   2.138  -4.055  1.00  0.00     0.021 A 
ATOM     13  C   UNL     1       0.306   2.805  -2.866  1.00  0.00     0.016 A 
ATOM     14  C   UNL     1       0.267   4.202  -2.825  1.00  0.00     0.047 A 
ATOM     15  C   UNL     1       0.582   4.950  -3.963  1.00  0.00     0.115 A 
ATOM     16  C   UNL     1       0.984   2.897  -5.191  1.00  0.00     0.016 A 
ATOM     17  C   UNL     1       0.945   4.293  -5.146  1.00  0.00     0.047 A 
BRANCH  15  18
ATOM     18  O   UNL     1       0.538   6.341  -3.907  1.00  0.00    -0.508 OA
ATOM     19  H   UNL     1       0.814   6.847  -3.073  1.00  0.00     0.293 HD
ENDBRANCH  15  18
ENDBRANCH   1  12
BRANCH   2  20
ATOM     20  O   UNL     1       3.061   0.645  -3.469  1.00  0.00    -0.502 OA
ATOM     21  H   UNL     1       3.099   1.656  -3.410  1.00  0.00     0.293 HD
ENDBRANCH   2  20
BRANCH   6  22
ATOM     22  O   UNL     1       1.483  -4.439  -3.620  1.00  0.00    -0.507 OA
ATOM     23  H   UNL     1       1.627  -4.691  -2.654  1.00  0.00     0.293 HD
ENDBRANCH   6  22
BRANCH   8  24
ATOM     24  O   UNL     1      -2.965  -3.889  -5.345  1.00  0.00    -0.508 OA
ATOM     25  H   UNL     1      -3.863  -3.485  -5.109  1.00  0.00     0.293 HD
ENDBRANCH   8  24
TORSDOF 5
ENDMDL
MODEL 8
REMARK VINA RESULT:    -5.237      1.692      2.623
REMARK INTER + INTRA:          -6.440
REMARK INTER:                  -6.152
REMARK INTRA:                  -0.289
REMARK UNBOUND:                -0.285
REMARK SMILES O=c1c(O)c(-c2ccc(O)cc2)oc2cc(O)cc(O)c12
REMARK SMILES IDX 5 1 3 2 2 3 1 4 21 5 19 6 18 7 16 8 15 9 14 10 13 11 6 12
REMARK SMILES IDX 7 13 8 14 9 15 12 16 11 17 10 18 4 20 20 22 17 24
REMARK H PARENT 10 19 4 21 20 23 17 25
REMARK Flexibility Score: inf
ROOT
ATOM      1  C   UNL     1       0.353  -2.052  -4.041  1.00  0.00     0.180 A 
ATOM      2  C   UNL     1      -0.761  -1.274  -4.397  1.00  0.00     0.208 A 
ATOM      3  C   UNL     1      -0.607   0.116  -4.526  1.00  0.00     0.238 A 
ATOM      4  O   UNL     1      -1.594   0.802  -4.898  1.00  0.00    -0.285 OA
ATOM      5  C   UNL     1       0.654   0.711  -4.281  1.00  0.00     0.111 A 
ATOM      6  C   UNL     1       0.915   2.113  -4.343  1.00  0.00     0.134 A 
ATOM      7  C   UNL     1       2.229   2.577  -4.210  1.00  0.00     0.093 A 
ATOM      8  C   UNL     1       3.283   1.696  -3.952  1.00  0.00     0.123 A 
ATOM      9  C   UNL     1       3.028   0.332  -3.831  1.00  0.00     0.094 A 
ATOM     10  C   UNL     1       1.733  -0.165  -3.994  1.00  0.00     0.146 A 
ATOM     11  O   UNL     1       1.538  -1.473  -3.882  1.00  0.00    -0.452 OA
ENDROOT
BRANCH   1  12
ATOM     12  C   UNL     1       0.264  -3.520  -3.862  1.00  0.00     0.021 A 
ATOM     13  C   UNL     1       0.461  -4.365  -4.967  1.00  0.00     0.016 A 
ATOM     14  C   UNL     1       0.403  -5.754  -4.815  1.00  0.00     0.047 A 
ATOM     15  C   UNL     1       0.162  -6.316  -3.558  1.00  0.00     0.115 A 
ATOM     16  C   UNL     1       0.042  -4.092  -2.595  1.00  0.00     0.016 A 
ATOM     17  C   UNL     1      -0.014  -5.481  -2.447  1.00  0.00     0.047 A 
BRANCH  15  18
ATOM     18  O   UNL     1       0.106  -7.701  -3.422  1.00  0.00    -0.508 OA
ATOM     19  H   UNL     1       0.678  -8.312  -3.993  1.00  0.00     0.293 HD
ENDBRANCH  15  18
ENDBRANCH   1  12
BRANCH   2  20
ATOM     20  O   UNL     1      -1.991  -1.883  -4.656  1.00  0.00    -0.502 OA
ATOM     21  H   UNL     1      -2.845  -1.608  -4.186  1.00  0.00     0.293 HD
ENDBRANCH   2  20
BRANCH   6  22
ATOM     22  O   UNL     1      -0.077   3.085  -4.504  1.00  0.00    -0.507 OA
ATOM     23  H   UNL     1      -1.044   2.966  -4.246  1.00  0.00     0.293 HD
ENDBRANCH   6  22
BRANCH   8  24
ATOM     24  O   UNL     1       4.585   2.169  -3.806  1.00  0.00    -0.508 OA
ATOM     25  H   UNL     1       5.347   1.552  -3.552  1.00  0.00     0.293 HD
ENDBRANCH   8  24
TORSDOF 5
ENDMDL
MODEL 9
REMARK VINA RESULT:    -5.187      3.745      6.818
REMARK INTER + INTRA:          -6.382
REMARK INTER:                  -6.093
REMARK INTRA:                  -0.289
REMARK UNBOUND:                -0.285
REMARK SMILES O=c1c(O)c(-c2ccc(O)cc2)oc2cc(O)cc(O)c12
REMARK SMILES IDX 5 1 3 2 2 3 1 4 21 5 19 6 18 7 16 8 15 9 14 10 13 11 6 12
REMARK SMILES IDX 7 13 8 14 9 15 12 16 11 17 10 18 4 20 20 22 17 24
REMARK H PARENT 10 19 4 21 20 23 17 25
REMARK Flexibility Score: inf
ROOT
ATOM      1  C   UNL     1      -0.375   2.437  -3.775  1.00  0.00     0.180 A 
ATOM      2  C   UNL     1      -0.528   2.916  -2.462  1.00  0.00     0.208 A 
ATOM      3  C   UNL     1       0.038   4.154  -2.120  1.00  0.00     0.238 A 
ATOM      4  O   UNL     1      -0.148   4.604  -0.959  1.00  0.00    -0.285 OA
ATOM      5  C   UNL     1       0.764   4.889  -3.088  1.00  0.00     0.111 A 
ATOM      6  C   UNL     1       1.414   6.136  -2.840  1.00  0.00     0.134 A 
ATOM      7  C   UNL     1       1.992   6.837  -3.906  1.00  0.00     0.093 A 
ATOM      8  C   UNL     1       2.001   6.305  -5.198  1.00  0.00     0.123 A 
ATOM      9  C   UNL     1       1.421   5.062  -5.438  1.00  0.00     0.094 A 
ATOM     10  C   UNL     1       0.805   4.355  -4.403  1.00  0.00     0.146 A 
ATOM     11  O   UNL     1       0.254   3.179  -4.678  1.00  0.00    -0.452 OA
ENDROOT
BRANCH   1  12
ATOM     12  C   UNL     1      -0.922   1.129  -4.204  1.00  0.00     0.021 A 
ATOM     13  C   UNL     1      -0.137  -0.028  -4.064  1.00  0.00     0.016 A 
ATOM     14  C   UNL     1      -0.642  -1.276  -4.442  1.00  0.00     0.047 A 
ATOM     15  C   UNL     1      -1.939  -1.387  -4.949  1.00  0.00     0.115 A 
ATOM     16  C   UNL     1      -2.235   1.008  -4.696  1.00  0.00     0.016 A 
ATOM     17  C   UNL     1      -2.736  -0.241  -5.072  1.00  0.00     0.047 A 
BRANCH  15  18
ATOM     18  O   UNL     1      -2.429  -2.636  -5.323  1.00  0.00    -0.508 OA
ATOM     19  H   UNL     1      -3.112  -2.738  -6.064  1.00  0.00     0.293 HD
ENDBRANCH  15  18
ENDBRANCH   1  12
BRANCH   2  20
ATOM     20  O   UNL     1      -1.268   2.186  -1.528  1.00  0.00    -0.502 OA
ATOM     21  H   UNL     1      -1.464   1.198  -1.641  1.00  0.00     0.293 HD
ENDBRANCH   2  20
BRANCH   6  22
ATOM     22  O   UNL     1       1.542   6.710  -1.572  1.00  0.00    -0.507 OA
ATOM     23  H   UNL     1       2.250   6.461  -0.898  1.00  0.00     0.293 HD
ENDBRANCH   6  22
BRANCH   8  24
ATOM     24  O   UNL     1       2.592   7.003  -6.249  1.00  0.00    -0.508 OA
ATOM     25  H   UNL     1       2.265   6.903  -7.202  1.00  0.00     0.293 HD
ENDBRANCH   8  24
TORSDOF 5
ENDMDL
