MODEL 1
REMARK VINA RESULT:    -4.711      0.000      0.000
REMARK INTER + INTRA:          -4.711
REMARK INTER:                  -4.711
REMARK INTRA:                   0.000
REMARK UNBOUND:                 0.000
REMARK SMILES C=C1CCC[C@]2(C)CC(=O)C(=C(C)C)C[C@H]12
REMARK SMILES IDX 13 1 12 2 11 3 15 4 16 5 2 6 1 7 3 8 4 9 5 10 6 11 8 12 9 13
REMARK SMILES IDX 10 14 7 15 14 16
REMARK H PARENT
REMARK Flexibility Score: inf
ROOT
ATOM      1  C   UNL     1       9.613 -31.375  19.358  1.00  0.00     0.039 C 
ATOM      2  C   UNL     1       9.647 -31.485  17.850  1.00  0.00    -0.070 C 
ATOM      3  C   UNL     1       8.830 -32.350  17.182  1.00  0.00    -0.006 C 
ATOM      4  C   UNL     1       8.875 -32.500  15.674  1.00  0.00     0.047 C 
ATOM      5  C   UNL     1       8.588 -33.945  15.191  1.00  0.00     0.025 C 
ATOM      6  C   UNL     1       8.419 -33.927  13.680  1.00  0.00    -0.073 C 
ATOM      7  C   UNL     1       9.439 -34.260  12.875  1.00  0.00     0.008 C 
ATOM      8  C   UNL     1       7.133 -33.375  13.098  1.00  0.00     0.031 C 
ATOM      9  C   UNL     1       5.900 -33.940  13.814  1.00  0.00     0.005 C 
ATOM     10  C   UNL     1       6.034 -33.908  15.348  1.00  0.00     0.008 C 
ATOM     11  C   UNL     1       7.334 -34.598  15.856  1.00  0.00    -0.018 C 
ATOM     12  C   UNL     1       7.427 -34.488  17.401  1.00  0.00     0.088 C 
ATOM     13  C   UNL     1       7.752 -33.104  17.862  1.00  0.00     0.159 C 
ATOM     14  O   UNL     1       7.101 -32.600  18.817  1.00  0.00    -0.295 OA
ATOM     15  C   UNL     1       7.293 -36.112  15.516  1.00  0.00     0.012 C 
ATOM     16  C   UNL     1      10.650 -30.627  17.116  1.00  0.00     0.039 C 
ENDROOT
TORSDOF 0
ENDMDL
MODEL 2
REMARK VINA RESULT:    -3.582      2.268      4.521
REMARK INTER + INTRA:          -3.582
REMARK INTER:                  -3.582
REMARK INTRA:                   0.000
REMARK UNBOUND:                 0.000
REMARK SMILES C=C1CCC[C@]2(C)CC(=O)C(=C(C)C)C[C@H]12
REMARK SMILES IDX 13 1 12 2 11 3 15 4 16 5 2 6 1 7 3 8 4 9 5 10 6 11 8 12 9 13
REMARK SMILES IDX 10 14 7 15 14 16
REMARK H PARENT
REMARK Flexibility Score: inf
ROOT
ATOM      1  C   UNL     1      12.095 -34.385  12.875  1.00  0.00     0.039 C 
ATOM      2  C   UNL     1      10.977 -35.108  13.592  1.00  0.00    -0.070 C 
ATOM      3  C   UNL     1      10.074 -34.435  14.360  1.00  0.00    -0.006 C 
ATOM      4  C   UNL     1       8.968 -35.148  15.115  1.00  0.00     0.047 C 
ATOM      5  C   UNL     1       8.618 -34.480  16.469  1.00  0.00     0.025 C 
ATOM      6  C   UNL     1       7.353 -35.122  17.015  1.00  0.00    -0.073 C 
ATOM      7  C   UNL     1       7.424 -36.093  17.939  1.00  0.00     0.008 C 
ATOM      8  C   UNL     1       6.023 -34.760  16.386  1.00  0.00     0.031 C 
ATOM      9  C   UNL     1       5.875 -33.244  16.208  1.00  0.00     0.005 C 
ATOM     10  C   UNL     1       7.130 -32.589  15.599  1.00  0.00     0.008 C 
ATOM     11  C   UNL     1       8.432 -32.931  16.383  1.00  0.00    -0.018 C 
ATOM     12  C   UNL     1       9.657 -32.280  15.690  1.00  0.00     0.088 C 
ATOM     13  C   UNL     1      10.022 -32.956  14.408  1.00  0.00     0.159 C 
ATOM     14  O   UNL     1      10.274 -32.258  13.389  1.00  0.00    -0.295 OA
ATOM     15  C   UNL     1       8.356 -32.334  17.814  1.00  0.00     0.012 C 
ATOM     16  C   UNL     1      10.926 -36.612  13.454  1.00  0.00     0.039 C 
ENDROOT
TORSDOF 0
ENDMDL
