MODEL 1
REMARK VINA RESULT:    -3.583      0.000      0.000
REMARK INTER + INTRA:          -7.457
REMARK INTER:                  -6.516
REMARK INTRA:                  -0.940
REMARK UNBOUND:                -0.940
REMARK SMILES CCCCCCCCCCCCCCCC(=O)[O-]
REMARK SMILES IDX 9 1 10 2 11 3 12 4 13 5 14 6 15 7 16 8 17 9 18 10 8 11 7 12
REMARK SMILES IDX 6 13 5 14 4 15 3 16 2 17 1 18
REMARK H PARENT
REMARK Flexibility Score: inf
ROOT
ATOM      1  C   UNL     1      -4.639  35.616  22.156  1.00  0.00     0.000 C 
ENDROOT
BRANCH   1   2
ATOM      2  C   UNL     1      -5.424  35.279  23.435  1.00  0.00     0.000 C 
BRANCH   2   3
ATOM      3  C   UNL     1      -6.125  36.508  24.038  1.00  0.00     0.000 C 
BRANCH   3   4
ATOM      4  C   UNL     1      -5.449  36.999  25.331  1.00  0.00     0.000 C 
BRANCH   4   5
ATOM      5  C   UNL     1      -4.947  38.448  25.220  1.00  0.00     0.000 C 
BRANCH   5   6
ATOM      6  C   UNL     1      -5.397  39.131  23.920  1.00  0.00     0.006 C 
BRANCH   6   7
ATOM      7  C   UNL     1      -5.346  40.655  24.057  1.00  0.00     0.053 C 
BRANCH   7   8
ATOM      8  C   UNL     1      -5.714  41.311  22.764  1.00  0.00     0.041 C 
ATOM      9  O   UNL     1      -5.723  40.645  21.695  1.00  0.00    -0.550 OA
ATOM     10  O   UNL     1      -6.000  42.670  22.731  1.00  0.00    -0.550 OA
ENDBRANCH   7   8
ENDBRANCH   6   7
ENDBRANCH   5   6
ENDBRANCH   4   5
ENDBRANCH   3   4
ENDBRANCH   2   3
ENDBRANCH   1   2
BRANCH   1  11
ATOM     11  C   UNL     1      -5.388  36.594  21.232  1.00  0.00     0.000 C 
BRANCH  11  12
ATOM     12  C   UNL     1      -5.230  36.330  19.723  1.00  0.00    -0.000 C 
BRANCH  12  13
ATOM     13  C   UNL     1      -3.786  36.514  19.228  1.00  0.00    -0.000 C 
BRANCH  13  14
ATOM     14  C   UNL     1      -3.592  37.798  18.400  1.00  0.00    -0.000 C 
BRANCH  14  15
ATOM     15  C   UNL     1      -2.427  37.756  17.394  1.00  0.00    -0.000 C 
BRANCH  15  16
ATOM     16  C   UNL     1      -2.460  36.513  16.489  1.00  0.00    -0.000 C 
BRANCH  16  17
ATOM     17  C   UNL     1      -2.824  36.853  15.035  1.00  0.00    -0.003 C 
ATOM     18  C   UNL     1      -3.406  38.259  14.888  1.00  0.00     0.004 C 
ENDBRANCH  16  17
ENDBRANCH  15  16
ENDBRANCH  14  15
ENDBRANCH  13  14
ENDBRANCH  12  13
ENDBRANCH  11  12
ENDBRANCH   1  11
TORSDOF 14
ENDMDL
MODEL 2
REMARK VINA RESULT:    -3.470      1.998      3.631
REMARK INTER + INTRA:          -7.250
REMARK INTER:                  -6.448
REMARK INTRA:                  -0.803
REMARK UNBOUND:                -0.940
REMARK SMILES CCCCCCCCCCCCCCCC(=O)[O-]
REMARK SMILES IDX 9 1 10 2 11 3 12 4 13 5 14 6 15 7 16 8 17 9 18 10 8 11 7 12
REMARK SMILES IDX 6 13 5 14 4 15 3 16 2 17 1 18
REMARK H PARENT
REMARK Flexibility Score: inf
ROOT
ATOM      1  C   UNL     1      -3.325  37.282  20.240  1.00  0.00     0.000 C 
ENDROOT
BRANCH   1   2
ATOM      2  C   UNL     1      -4.400  36.591  19.385  1.00  0.00     0.000 C 
BRANCH   2   3
ATOM      3  C   UNL     1      -5.574  36.063  20.227  1.00  0.00     0.000 C 
BRANCH   3   4
ATOM      4  C   UNL     1      -5.128  35.552  21.609  1.00  0.00     0.000 C 
BRANCH   4   5
ATOM      5  C   UNL     1      -6.118  35.926  22.724  1.00  0.00     0.000 C 
BRANCH   5   6
ATOM      6  C   UNL     1      -5.535  35.705  24.129  1.00  0.00     0.006 C 
BRANCH   6   7
ATOM      7  C   UNL     1      -6.125  36.703  25.128  1.00  0.00     0.053 C 
BRANCH   7   8
ATOM      8  C   UNL     1      -5.215  37.879  25.296  1.00  0.00     0.041 C 
ATOM      9  O   UNL     1      -5.323  38.877  24.535  1.00  0.00    -0.550 OA
ATOM     10  O   UNL     1      -4.215  37.852  26.259  1.00  0.00    -0.550 OA
ENDBRANCH   7   8
ENDBRANCH   6   7
ENDBRANCH   5   6
ENDBRANCH   4   5
ENDBRANCH   3   4
ENDBRANCH   2   3
ENDBRANCH   1   2
BRANCH   1  11
ATOM     11  C   UNL     1      -2.560  38.377  19.473  1.00  0.00     0.000 C 
BRANCH  11  12
ATOM     12  C   UNL     1      -1.088  38.057  19.156  1.00  0.00    -0.000 C 
BRANCH  12  13
ATOM     13  C   UNL     1      -0.805  37.955  17.648  1.00  0.00    -0.000 C 
BRANCH  13  14
ATOM     14  C   UNL     1      -2.024  37.471  16.840  1.00  0.00    -0.000 C 
BRANCH  14  15
ATOM     15  C   UNL     1      -1.687  36.635  15.591  1.00  0.00    -0.000 C 
BRANCH  15  16
ATOM     16  C   UNL     1      -2.388  37.146  14.320  1.00  0.00    -0.000 C 
BRANCH  16  17
ATOM     17  C   UNL     1      -3.841  37.571  14.580  1.00  0.00    -0.003 C 
ATOM     18  C   UNL     1      -4.203  38.884  13.886  1.00  0.00     0.004 C 
ENDBRANCH  16  17
ENDBRANCH  15  16
ENDBRANCH  14  15
ENDBRANCH  13  14
ENDBRANCH  12  13
ENDBRANCH  11  12
ENDBRANCH   1  11
TORSDOF 14
ENDMDL
MODEL 3
REMARK VINA RESULT:    -3.147      3.164      6.937
REMARK INTER + INTRA:          -6.663
REMARK INTER:                  -5.364
REMARK INTRA:                  -1.299
REMARK UNBOUND:                -0.940
REMARK SMILES CCCCCCCCCCCCCCCC(=O)[O-]
REMARK SMILES IDX 9 1 10 2 11 3 12 4 13 5 14 6 15 7 16 8 17 9 18 10 8 11 7 12
REMARK SMILES IDX 6 13 5 14 4 15 3 16 2 17 1 18
REMARK H PARENT
REMARK Flexibility Score: inf
ROOT
ATOM      1  C   UNL     1      -5.981  36.292  21.893  1.00  0.00     0.000 C 
ENDROOT
BRANCH   1   2
ATOM      2  C   UNL     1      -5.566  36.144  20.419  1.00  0.00     0.000 C 
BRANCH   2   3
ATOM      3  C   UNL     1      -5.039  37.459  19.821  1.00  0.00     0.000 C 
BRANCH   3   4
ATOM      4  C   UNL     1      -3.616  37.799  20.300  1.00  0.00     0.000 C 
BRANCH   4   5
ATOM      5  C   UNL     1      -2.573  37.690  19.176  1.00  0.00     0.000 C 
BRANCH   5   6
ATOM      6  C   UNL     1      -3.184  37.218  17.848  1.00  0.00     0.006 C 
BRANCH   6   7
ATOM      7  C   UNL     1      -2.793  38.156  16.702  1.00  0.00     0.053 C 
BRANCH   7   8
ATOM      8  C   UNL     1      -2.796  37.423  15.398  1.00  0.00     0.041 C 
ATOM      9  O   UNL     1      -2.044  36.427  15.231  1.00  0.00    -0.550 OA
ATOM     10  O   UNL     1      -3.592  37.869  14.351  1.00  0.00    -0.550 OA
ENDBRANCH   7   8
ENDBRANCH   6   7
ENDBRANCH   5   6
ENDBRANCH   4   5
ENDBRANCH   3   4
ENDBRANCH   2   3
ENDBRANCH   1   2
BRANCH   1  11
ATOM     11  C   UNL     1      -5.021  35.577  22.862  1.00  0.00     0.000 C 
BRANCH  11  12
ATOM     12  C   UNL     1      -5.218  35.909  24.353  1.00  0.00    -0.000 C 
BRANCH  12  13
ATOM     13  C   UNL     1      -5.930  37.252  24.581  1.00  0.00    -0.000 C 
BRANCH  13  14
ATOM     14  C   UNL     1      -5.000  38.335  25.160  1.00  0.00    -0.000 C 
BRANCH  14  15
ATOM     15  C   UNL     1      -5.071  39.702  24.452  1.00  0.00    -0.000 C 
BRANCH  15  16
ATOM     16  C   UNL     1      -5.448  39.588  22.965  1.00  0.00    -0.000 C 
BRANCH  16  17
ATOM     17  C   UNL     1      -5.737  40.955  22.326  1.00  0.00    -0.003 C 
ATOM     18  C   UNL     1      -6.116  42.019  23.357  1.00  0.00     0.004 C 
ENDBRANCH  16  17
ENDBRANCH  15  16
ENDBRANCH  14  15
ENDBRANCH  13  14
ENDBRANCH  12  13
ENDBRANCH  11  12
ENDBRANCH   1  11
TORSDOF 14
ENDMDL
MODEL 4
REMARK VINA RESULT:    -2.901      2.820      6.398
REMARK INTER + INTRA:          -6.215
REMARK INTER:                  -4.857
REMARK INTRA:                  -1.358
REMARK UNBOUND:                -0.940
REMARK SMILES CCCCCCCCCCCCCCCC(=O)[O-]
REMARK SMILES IDX 9 1 10 2 11 3 12 4 13 5 14 6 15 7 16 8 17 9 18 10 8 11 7 12
REMARK SMILES IDX 6 13 5 14 4 15 3 16 2 17 1 18
REMARK H PARENT
REMARK Flexibility Score: inf
ROOT
ATOM      1  C   UNL     1      -5.881  35.684  24.293  1.00  0.00     0.000 C 
ENDROOT
BRANCH   1   2
ATOM      2  C   UNL     1      -5.959  36.291  22.882  1.00  0.00     0.000 C 
BRANCH   2   3
ATOM      3  C   UNL     1      -4.746  35.920  22.013  1.00  0.00     0.000 C 
BRANCH   3   4
ATOM      4  C   UNL     1      -4.895  36.392  20.555  1.00  0.00     0.000 C 
BRANCH   4   5
ATOM      5  C   UNL     1      -3.646  37.126  20.042  1.00  0.00     0.000 C 
BRANCH   5   6
ATOM      6  C   UNL     1      -3.744  37.485  18.551  1.00  0.00     0.006 C 
BRANCH   6   7
ATOM      7  C   UNL     1      -2.370  37.856  17.986  1.00  0.00     0.053 C 
BRANCH   7   8
ATOM      8  C   UNL     1      -2.301  37.541  16.525  1.00  0.00     0.041 C 
ATOM      9  O   UNL     1      -1.525  36.641  16.107  1.00  0.00    -0.550 OA
ATOM     10  O   UNL     1      -3.056  38.274  15.619  1.00  0.00    -0.550 OA
ENDBRANCH   7   8
ENDBRANCH   6   7
ENDBRANCH   5   6
ENDBRANCH   4   5
ENDBRANCH   3   4
ENDBRANCH   2   3
ENDBRANCH   1   2
BRANCH   1  11
ATOM     11  C   UNL     1      -5.973  36.742  25.408  1.00  0.00     0.000 C 
BRANCH  11  12
ATOM     12  C   UNL     1      -4.651  37.452  25.756  1.00  0.00    -0.000 C 
BRANCH  12  13
ATOM     13  C   UNL     1      -4.733  38.981  25.609  1.00  0.00    -0.000 C 
BRANCH  13  14
ATOM     14  C   UNL     1      -5.504  39.424  24.351  1.00  0.00    -0.000 C 
BRANCH  14  15
ATOM     15  C   UNL     1      -5.322  40.902  23.961  1.00  0.00    -0.000 C 
BRANCH  15  16
ATOM     16  C   UNL     1      -5.629  41.173  22.478  1.00  0.00    -0.000 C 
BRANCH  16  17
ATOM     17  C   UNL     1      -5.624  39.891  21.632  1.00  0.00    -0.003 C 
ATOM     18  C   UNL     1      -5.981  40.149  20.169  1.00  0.00     0.004 C 
ENDBRANCH  16  17
ENDBRANCH  15  16
ENDBRANCH  14  15
ENDBRANCH  13  14
ENDBRANCH  12  13
ENDBRANCH  11  12
ENDBRANCH   1  11
TORSDOF 14
ENDMDL
MODEL 5
REMARK VINA RESULT:    -2.859      2.529      4.363
REMARK INTER + INTRA:          -6.139
REMARK INTER:                  -6.553
REMARK INTRA:                   0.414
REMARK UNBOUND:                -0.940
REMARK SMILES CCCCCCCCCCCCCCCC(=O)[O-]
REMARK SMILES IDX 9 1 10 2 11 3 12 4 13 5 14 6 15 7 16 8 17 9 18 10 8 11 7 12
REMARK SMILES IDX 6 13 5 14 4 15 3 16 2 17 1 18
REMARK H PARENT
REMARK Flexibility Score: inf
ROOT
ATOM      1  C   UNL     1      -1.439  37.876  19.959  1.00  0.00     0.000 C 
ENDROOT
BRANCH   1   2
ATOM      2  C   UNL     1      -2.974  37.929  20.042  1.00  0.00     0.000 C 
BRANCH   2   3
ATOM      3  C   UNL     1      -3.592  36.569  20.410  1.00  0.00     0.000 C 
BRANCH   3   4
ATOM      4  C   UNL     1      -5.118  36.642  20.591  1.00  0.00     0.000 C 
BRANCH   4   5
ATOM      5  C   UNL     1      -5.704  35.352  21.188  1.00  0.00     0.000 C 
BRANCH   5   6
ATOM      6  C   UNL     1      -6.125  35.518  22.656  1.00  0.00     0.006 C 
BRANCH   6   7
ATOM      7  C   UNL     1      -5.523  36.792  23.256  1.00  0.00     0.053 C 
BRANCH   7   8
ATOM      8  C   UNL     1      -5.553  36.733  24.750  1.00  0.00     0.041 C 
ATOM      9  O   UNL     1      -5.026  37.653  25.431  1.00  0.00    -0.550 OA
ATOM     10  O   UNL     1      -6.118  35.639  25.392  1.00  0.00    -0.550 OA
ENDBRANCH   7   8
ENDBRANCH   6   7
ENDBRANCH   5   6
ENDBRANCH   4   5
ENDBRANCH   3   4
ENDBRANCH   2   3
ENDBRANCH   1   2
BRANCH   1  11
ATOM     11  C   UNL     1      -0.910  38.026  18.520  1.00  0.00     0.000 C 
BRANCH  11  12
ATOM     12  C   UNL     1      -1.984  38.242  17.439  1.00  0.00    -0.000 C 
BRANCH  12  13
ATOM     13  C   UNL     1      -2.548  36.925  16.880  1.00  0.00    -0.000 C 
BRANCH  13  14
ATOM     14  C   UNL     1      -1.676  36.324  15.762  1.00  0.00    -0.000 C 
BRANCH  14  15
ATOM     15  C   UNL     1      -2.069  36.740  14.332  1.00  0.00    -0.000 C 
BRANCH  15  16
ATOM     16  C   UNL     1      -3.535  37.192  14.221  1.00  0.00    -0.000 C 
BRANCH  16  17
ATOM     17  C   UNL     1      -3.785  38.548  14.898  1.00  0.00    -0.003 C 
ATOM     18  C   UNL     1      -4.433  39.565  13.959  1.00  0.00     0.004 C 
ENDBRANCH  16  17
ENDBRANCH  15  16
ENDBRANCH  14  15
ENDBRANCH  13  14
ENDBRANCH  12  13
ENDBRANCH  11  12
ENDBRANCH   1  11
TORSDOF 14
ENDMDL
MODEL 6
REMARK VINA RESULT:    -2.681      3.111      7.386
REMARK INTER + INTRA:          -5.815
REMARK INTER:                  -4.478
REMARK INTRA:                  -1.337
REMARK UNBOUND:                -0.940
REMARK SMILES CCCCCCCCCCCCCCCC(=O)[O-]
REMARK SMILES IDX 9 1 10 2 11 3 12 4 13 5 14 6 15 7 16 8 17 9 18 10 8 11 7 12
REMARK SMILES IDX 6 13 5 14 4 15 3 16 2 17 1 18
REMARK H PARENT
REMARK Flexibility Score: inf
ROOT
ATOM      1  C   UNL     1      -5.448  38.169  19.949  1.00  0.00     0.000 C 
ENDROOT
BRANCH   1   2
ATOM      2  C   UNL     1      -4.539  37.307  20.840  1.00  0.00     0.000 C 
BRANCH   2   3
ATOM      3  C   UNL     1      -3.307  36.776  20.087  1.00  0.00     0.000 C 
BRANCH   3   4
ATOM      4  C   UNL     1      -2.267  37.874  19.805  1.00  0.00     0.000 C 
BRANCH   4   5
ATOM      5  C   UNL     1      -1.880  37.952  18.319  1.00  0.00     0.000 C 
BRANCH   5   6
ATOM      6  C   UNL     1      -3.098  37.880  17.386  1.00  0.00     0.006 C 
BRANCH   6   7
ATOM      7  C   UNL     1      -2.992  36.682  16.439  1.00  0.00     0.053 C 
BRANCH   7   8
ATOM      8  C   UNL     1      -2.866  37.143  15.021  1.00  0.00     0.041 C 
ATOM      9  O   UNL     1      -1.865  36.809  14.333  1.00  0.00    -0.550 OA
ATOM     10  O   UNL     1      -3.829  37.981  14.475  1.00  0.00    -0.550 OA
ENDBRANCH   7   8
ENDBRANCH   6   7
ENDBRANCH   5   6
ENDBRANCH   4   5
ENDBRANCH   3   4
ENDBRANCH   2   3
ENDBRANCH   1   2
BRANCH   1  11
ATOM     11  C   UNL     1      -5.361  39.672  20.276  1.00  0.00     0.000 C 
BRANCH  11  12
ATOM     12  C   UNL     1      -6.113  40.117  21.543  1.00  0.00    -0.000 C 
BRANCH  12  13
ATOM     13  C   UNL     1      -5.202  40.801  22.575  1.00  0.00    -0.000 C 
BRANCH  13  14
ATOM     14  C   UNL     1      -5.367  40.230  23.996  1.00  0.00    -0.000 C 
BRANCH  14  15
ATOM     15  C   UNL     1      -5.814  38.758  24.060  1.00  0.00    -0.000 C 
BRANCH  15  16
ATOM     16  C   UNL     1      -5.071  37.951  25.137  1.00  0.00    -0.000 C 
BRANCH  16  17
ATOM     17  C   UNL     1      -5.464  36.466  25.136  1.00  0.00    -0.003 C 
ATOM     18  C   UNL     1      -6.125  36.032  23.828  1.00  0.00     0.004 C 
ENDBRANCH  16  17
ENDBRANCH  15  16
ENDBRANCH  14  15
ENDBRANCH  13  14
ENDBRANCH  12  13
ENDBRANCH  11  12
ENDBRANCH   1  11
TORSDOF 14
ENDMDL
