MODEL 1
REMARK VINA RESULT:    -3.721      0.000      0.000
REMARK INTER + INTRA:          -4.933
REMARK INTER:                  -5.244
REMARK INTRA:                   0.311
REMARK UNBOUND:                 0.311
REMARK SMILES CC1=CCC(=C(C)C)C(=O)CC(C)=CCC1
REMARK SMILES IDX 12 1 14 2 13 3 15 4 16 5 2 6 1 7 3 8 11 10 9 11 10 12 5 13
REMARK SMILES IDX 6 14 7 15 8 16 4 17
REMARK H PARENT
REMARK Flexibility Score: 60.00
ROOT
ATOM      1  C   UNL     1     148.752 151.495 168.820  1.00  0.00    -0.070 C 
ATOM      2  C   UNL     1     150.040 151.504 168.386  1.00  0.00    -0.027 C 
ATOM      3  C   UNL     1     148.351 150.380 169.756  1.00  0.00     0.039 C 
ENDROOT
BRANCH   2   4
ATOM      4  C   UNL     1     150.632 152.422 167.342  1.00  0.00     0.032 C 
BRANCH   4   5
ATOM      5  C   UNL     1     150.080 152.182 165.931  1.00  0.00     0.034 C 
BRANCH   5   6
ATOM      6  C   UNL     1     149.483 153.433 165.313  1.00  0.00    -0.077 C 
ATOM      7  C   UNL     1     150.406 154.578 164.973  1.00  0.00     0.039 C 
ATOM      8  C   UNL     1     148.151 153.629 165.136  1.00  0.00    -0.023 CG0
ATOM      9  G   UNL     1     147.037 152.610 165.283  1.00  0.00     0.000 G0
ENDBRANCH   5   6
ENDBRANCH   4   5
ENDBRANCH   2   4
BRANCH   1  10
ATOM     10  C   UNL     1     147.728 152.588 168.531  1.00  0.00     0.111 C 
BRANCH  10  11
ATOM     11  C   UNL     1     146.528 152.124 167.748  1.00  0.00     0.163 C 
ATOM     12  O   UNL     1     145.883 151.123 168.161  1.00  0.00    -0.294 OA
BRANCH  11  13
ATOM     13  C   UNL     1     146.102 152.794 166.485  1.00  0.00    -0.002 C 
ATOM     14  C   UNL     1     144.901 153.431 166.376  1.00  0.00    -0.069 C 
ATOM     15  C   UNL     1     143.889 153.417 167.500  1.00  0.00     0.039 C 
ATOM     16  C   UNL     1     144.498 154.125 165.095  1.00  0.00     0.039 C 
BRANCH  13  17
ATOM     17  C   UNL     1     147.014 152.611 165.283  1.00  0.00     0.066 CG0
ATOM     18  G   UNL     1     148.134 153.625 165.149  1.00  0.00     0.000 G0
ENDBRANCH  13  17
ENDBRANCH  11  13
ENDBRANCH  10  11
ENDBRANCH   1  10
TORSDOF 0
ENDMDL
MODEL 2
REMARK VINA RESULT:    -3.425      1.761      3.841
REMARK INTER + INTRA:          -4.516
REMARK INTER:                  -4.614
REMARK INTRA:                   0.098
REMARK UNBOUND:                 0.311
REMARK SMILES CC1=CCC(=C(C)C)C(=O)CC(C)=CCC1
REMARK SMILES IDX 12 1 14 2 13 3 15 4 16 5 2 6 1 7 3 8 11 10 9 11 10 12 5 13
REMARK SMILES IDX 6 14 7 15 8 16 4 17
REMARK H PARENT
REMARK Flexibility Score: 60.00
ROOT
ATOM      1  C   UNL     1     149.022 152.142 168.289  1.00  0.00    -0.070 C 
ATOM      2  C   UNL     1     147.925 151.400 168.596  1.00  0.00    -0.027 C 
ATOM      3  C   UNL     1     150.368 151.557 168.644  1.00  0.00     0.039 C 
ENDROOT
BRANCH   2   4
ATOM      4  C   UNL     1     146.483 151.832 168.473  1.00  0.00     0.032 C 
BRANCH   4   5
ATOM      5  C   UNL     1     145.929 151.722 167.047  1.00  0.00     0.034 C 
BRANCH   5   6
ATOM      6  C   UNL     1     145.475 153.057 166.488  1.00  0.00    -0.077 C 
ATOM      7  C   UNL     1     144.298 153.745 167.135  1.00  0.00     0.039 C 
ATOM      8  C   UNL     1     146.001 153.631 165.374  1.00  0.00    -0.023 CG0
ATOM      9  G   UNL     1     147.246 153.212 164.617  1.00  0.00     0.000 G0
ENDBRANCH   5   6
ENDBRANCH   4   5
ENDBRANCH   2   4
BRANCH   1  10
ATOM     10  C   UNL     1     148.997 153.451 167.507  1.00  0.00     0.111 C 
BRANCH  10  11
ATOM     11  C   UNL     1     149.353 153.314 166.051  1.00  0.00     0.163 C 
ATOM     12  O   UNL     1     150.392 152.673 165.738  1.00  0.00    -0.294 OA
BRANCH  11  13
ATOM     13  C   UNL     1     148.533 153.941 164.974  1.00  0.00    -0.002 C 
ATOM     14  C   UNL     1     148.852 155.152 164.436  1.00  0.00    -0.069 C 
ATOM     15  C   UNL     1     150.006 155.976 164.963  1.00  0.00     0.039 C 
ATOM     16  C   UNL     1     148.022 155.759 163.328  1.00  0.00     0.039 C 
BRANCH  13  17
ATOM     17  C   UNL     1     147.244 153.224 164.604  1.00  0.00     0.066 CG0
ATOM     18  G   UNL     1     146.010 153.653 165.376  1.00  0.00     0.000 G0
ENDBRANCH  13  17
ENDBRANCH  11  13
ENDBRANCH  10  11
ENDBRANCH   1  10
TORSDOF 0
ENDMDL
MODEL 3
REMARK VINA RESULT:    -3.278      3.108      5.000
REMARK INTER + INTRA:          -4.309
REMARK INTER:                  -4.503
REMARK INTRA:                   0.194
REMARK UNBOUND:                 0.311
REMARK SMILES CC1=CCC(=C(C)C)C(=O)CC(C)=CCC1
REMARK SMILES IDX 12 1 14 2 13 3 15 4 16 5 2 6 1 7 3 8 11 10 9 11 10 12 5 13
REMARK SMILES IDX 6 14 7 15 8 16 4 17
REMARK H PARENT
REMARK Flexibility Score: 60.00
ROOT
ATOM      1  C   UNL     1     151.513 149.850 163.635  1.00  0.00    -0.070 C 
ATOM      2  C   UNL     1     150.937 149.717 162.410  1.00  0.00    -0.027 C 
ATOM      3  C   UNL     1     153.016 149.994 163.675  1.00  0.00     0.039 C 
ENDROOT
BRANCH   2   4
ATOM      4  C   UNL     1     149.485 149.416 162.127  1.00  0.00     0.032 C 
BRANCH   4   5
ATOM      5  C   UNL     1     148.594 150.665 162.095  1.00  0.00     0.034 C 
BRANCH   5   6
ATOM      6  C   UNL     1     147.543 150.665 163.190  1.00  0.00    -0.077 C 
ATOM      7  C   UNL     1     146.379 149.711 163.070  1.00  0.00     0.039 C 
ATOM      8  C   UNL     1     147.530 151.541 164.228  1.00  0.00    -0.023 CG0
ATOM      9  G   UNL     1     148.625 152.507 164.639  1.00  0.00     0.000 G0
ENDBRANCH   5   6
ENDBRANCH   4   5
ENDBRANCH   2   4
BRANCH   1  10
ATOM     10  C   UNL     1     150.749 149.987 164.947  1.00  0.00     0.111 C 
BRANCH  10  11
ATOM     11  C   UNL     1     150.746 151.378 165.524  1.00  0.00     0.163 C 
ATOM     12  O   UNL     1     151.850 151.932 165.776  1.00  0.00    -0.294 OA
BRANCH  11  13
ATOM     13  C   UNL     1     149.480 152.103 165.834  1.00  0.00    -0.002 C 
ATOM     14  C   UNL     1     149.044 152.277 167.114  1.00  0.00    -0.069 C 
ATOM     15  C   UNL     1     149.771 151.666 168.291  1.00  0.00     0.039 C 
ATOM     16  C   UNL     1     147.770 153.037 167.410  1.00  0.00     0.039 C 
BRANCH  13  17
ATOM     17  C   UNL     1     148.630 152.516 164.644  1.00  0.00     0.066 CG0
ATOM     18  G   UNL     1     147.540 151.539 164.246  1.00  0.00     0.000 G0
ENDBRANCH  13  17
ENDBRANCH  11  13
ENDBRANCH  10  11
ENDBRANCH   1  10
TORSDOF 0
ENDMDL
MODEL 4
REMARK VINA RESULT:    -3.247      1.734      4.133
REMARK INTER + INTRA:          -4.265
REMARK INTER:                  -4.561
REMARK INTRA:                   0.297
REMARK UNBOUND:                 0.311
REMARK SMILES CC1=CCC(=C(C)C)C(=O)CC(C)=CCC1
REMARK SMILES IDX 12 1 14 2 13 3 15 4 16 5 2 6 1 7 3 8 11 10 9 11 10 12 5 13
REMARK SMILES IDX 6 14 7 15 8 16 4 17
REMARK H PARENT
REMARK Flexibility Score: 60.00
ROOT
ATOM      1  C   UNL     1     148.056 152.040 168.512  1.00  0.00    -0.070 C 
ATOM      2  C   UNL     1     146.837 151.490 168.270  1.00  0.00    -0.027 C 
ATOM      3  C   UNL     1     149.100 151.149 169.142  1.00  0.00     0.039 C 
ENDROOT
BRANCH   2   4
ATOM      4  C   UNL     1     145.602 152.214 167.788  1.00  0.00     0.032 C 
BRANCH   4   5
ATOM      5  C   UNL     1     145.220 151.877 166.340  1.00  0.00     0.034 C 
BRANCH   5   6
ATOM      6  C   UNL     1     145.699 152.920 165.348  1.00  0.00    -0.077 C 
ATOM      7  C   UNL     1     144.784 154.074 165.018  1.00  0.00     0.039 C 
ATOM      8  C   UNL     1     146.866 152.830 164.659  1.00  0.00    -0.023 CG0
ATOM      9  G   UNL     1     148.002 151.849 164.884  1.00  0.00     0.000 G0
ENDBRANCH   5   6
ENDBRANCH   4   5
ENDBRANCH   2   4
BRANCH   1  10
ATOM     10  C   UNL     1     148.480 153.442 168.085  1.00  0.00     0.111 C 
BRANCH  10  11
ATOM     11  C   UNL     1     148.835 153.567 166.627  1.00  0.00     0.163 C 
ATOM     12  O   UNL     1     148.848 154.713 166.101  1.00  0.00    -0.294 OA
BRANCH  11  13
ATOM     13  C   UNL     1     149.140 152.376 165.782  1.00  0.00    -0.002 C 
ATOM     14  C   UNL     1     150.394 151.845 165.709  1.00  0.00    -0.069 C 
ATOM     15  C   UNL     1     151.571 152.489 166.407  1.00  0.00     0.039 C 
ATOM     16  C   UNL     1     150.677 150.623 164.866  1.00  0.00     0.039 C 
BRANCH  13  17
ATOM     17  C   UNL     1     148.011 151.869 164.900  1.00  0.00     0.066 CG0
ATOM     18  G   UNL     1     146.873 152.843 164.665  1.00  0.00     0.000 G0
ENDBRANCH  13  17
ENDBRANCH  11  13
ENDBRANCH  10  11
ENDBRANCH   1  10
TORSDOF 0
ENDMDL
MODEL 5
REMARK VINA RESULT:    -3.171      1.825      3.866
REMARK INTER + INTRA:          -4.158
REMARK INTER:                  -4.288
REMARK INTRA:                   0.130
REMARK UNBOUND:                 0.311
REMARK SMILES CC1=CCC(=C(C)C)C(=O)CC(C)=CCC1
REMARK SMILES IDX 12 1 14 2 13 3 15 4 16 5 2 6 1 7 3 8 11 10 9 11 10 12 5 13
REMARK SMILES IDX 6 14 7 15 8 16 4 17
REMARK H PARENT
REMARK Flexibility Score: 60.00
ROOT
ATOM      1  C   UNL     1     150.608 152.179 166.856  1.00  0.00    -0.070 C 
ATOM      2  C   UNL     1     150.235 151.857 168.123  1.00  0.00    -0.027 C 
ATOM      3  C   UNL     1     152.016 152.688 166.662  1.00  0.00     0.039 C 
ENDROOT
BRANCH   2   4
ATOM      4  C   UNL     1     148.849 151.471 168.583  1.00  0.00     0.032 C 
BRANCH   4   5
ATOM      5  C   UNL     1     147.834 152.618 168.501  1.00  0.00     0.034 C 
BRANCH   5   6
ATOM      6  C   UNL     1     146.439 152.143 168.139  1.00  0.00    -0.077 C 
ATOM      7  C   UNL     1     145.702 151.263 169.120  1.00  0.00     0.039 C 
ATOM      8  C   UNL     1     145.844 152.379 166.941  1.00  0.00    -0.023 CG0
ATOM      9  G   UNL     1     146.312 153.317 165.844  1.00  0.00     0.000 G0
ENDBRANCH   5   6
ENDBRANCH   4   5
ENDBRANCH   2   4
BRANCH   1  10
ATOM     10  C   UNL     1     149.755 151.948 165.612  1.00  0.00     0.111 C 
BRANCH  10  11
ATOM     11  C   UNL     1     148.788 153.061 165.305  1.00  0.00     0.163 C 
ATOM     12  O   UNL     1     149.179 154.254 165.420  1.00  0.00    -0.294 OA
BRANCH  11  13
ATOM     13  C   UNL     1     147.377 152.793 164.902  1.00  0.00    -0.002 C 
ATOM     14  C   UNL     1     147.065 152.220 163.705  1.00  0.00    -0.069 C 
ATOM     15  C   UNL     1     148.127 151.905 162.674  1.00  0.00     0.039 C 
ATOM     16  C   UNL     1     145.630 151.934 163.325  1.00  0.00     0.039 C 
BRANCH  13  17
ATOM     17  C   UNL     1     146.298 153.320 165.834  1.00  0.00     0.066 CG0
ATOM     18  G   UNL     1     145.854 152.368 166.928  1.00  0.00     0.000 G0
ENDBRANCH  13  17
ENDBRANCH  11  13
ENDBRANCH  10  11
ENDBRANCH   1  10
TORSDOF 0
ENDMDL
MODEL 6
REMARK VINA RESULT:    -3.163      2.150      4.654
REMARK INTER + INTRA:          -4.147
REMARK INTER:                  -4.212
REMARK INTRA:                   0.065
REMARK UNBOUND:                 0.311
REMARK SMILES CC1=CCC(=C(C)C)C(=O)CC(C)=CCC1
REMARK SMILES IDX 12 1 14 2 13 3 15 4 16 5 2 6 1 7 3 8 11 10 9 11 10 12 5 13
REMARK SMILES IDX 6 14 7 15 8 16 4 17
REMARK H PARENT
REMARK Flexibility Score: 60.00
ROOT
ATOM      1  C   UNL     1     145.841 152.959 166.010  1.00  0.00    -0.070 C 
ATOM      2  C   UNL     1     146.146 153.373 167.268  1.00  0.00    -0.027 C 
ATOM      3  C   UNL     1     144.703 153.665 165.312  1.00  0.00     0.039 C 
ENDROOT
BRANCH   2   4
ATOM      4  C   UNL     1     147.135 152.731 168.212  1.00  0.00     0.032 C 
BRANCH   4   5
ATOM      5  C   UNL     1     148.552 153.310 168.103  1.00  0.00     0.034 C 
BRANCH   5   6
ATOM      6  C   UNL     1     149.600 152.249 167.822  1.00  0.00    -0.077 C 
ATOM      7  C   UNL     1     150.006 151.324 168.944  1.00  0.00     0.039 C 
ATOM      8  C   UNL     1     150.271 152.139 166.646  1.00  0.00    -0.023 CG0
ATOM      9  G   UNL     1     149.978 152.855 165.342  1.00  0.00     0.000 G0
ENDBRANCH   5   6
ENDBRANCH   4   5
ENDBRANCH   2   4
BRANCH   1  10
ATOM     10  C   UNL     1     146.636 151.928 165.215  1.00  0.00     0.111 C 
BRANCH  10  11
ATOM     11  C   UNL     1     147.668 152.517 164.290  1.00  0.00     0.163 C 
ATOM     12  O   UNL     1     147.302 153.363 163.430  1.00  0.00    -0.294 OA
BRANCH  11  13
ATOM     13  C   UNL     1     149.101 152.106 164.341  1.00  0.00    -0.002 C 
ATOM     14  C   UNL     1     149.570 151.037 163.636  1.00  0.00    -0.069 C 
ATOM     15  C   UNL     1     148.646 150.148 162.833  1.00  0.00     0.039 C 
ATOM     16  C   UNL     1     151.031 150.650 163.681  1.00  0.00     0.039 C 
BRANCH  13  17
ATOM     17  C   UNL     1     149.984 152.854 165.326  1.00  0.00     0.066 CG0
ATOM     18  G   UNL     1     150.280 152.127 166.624  1.00  0.00     0.000 G0
ENDBRANCH  13  17
ENDBRANCH  11  13
ENDBRANCH  10  11
ENDBRANCH   1  10
TORSDOF 0
ENDMDL
MODEL 7
REMARK VINA RESULT:    -3.125      2.894      4.216
REMARK INTER + INTRA:          -4.093
REMARK INTER:                  -4.088
REMARK INTRA:                  -0.005
REMARK UNBOUND:                 0.311
REMARK SMILES CC1=CCC(=C(C)C)C(=O)CC(C)=CCC1
REMARK SMILES IDX 12 1 14 2 13 3 15 4 16 5 2 6 1 7 3 8 11 10 9 11 10 12 5 13
REMARK SMILES IDX 6 14 7 15 8 16 4 17
REMARK H PARENT
REMARK Flexibility Score: 60.00
ROOT
ATOM      1  C   UNL     1     149.906 154.300 165.543  1.00  0.00    -0.070 C 
ATOM      2  C   UNL     1     150.545 155.461 165.238  1.00  0.00    -0.027 C 
ATOM      3  C   UNL     1     150.770 153.117 165.909  1.00  0.00     0.039 C 
ENDROOT
BRANCH   2   4
ATOM      4  C   UNL     1     149.911 156.724 164.705  1.00  0.00     0.032 C 
BRANCH   4   5
ATOM      5  C   UNL     1     149.815 156.765 163.174  1.00  0.00     0.034 C 
BRANCH   5   6
ATOM      6  C   UNL     1     148.492 157.322 162.683  1.00  0.00    -0.077 C 
ATOM      7  C   UNL     1     148.352 158.818 162.537  1.00  0.00     0.039 C 
ATOM      8  C   UNL     1     147.387 156.565 162.457  1.00  0.00    -0.023 CG0
ATOM      9  G   UNL     1     147.295 155.051 162.417  1.00  0.00     0.000 G0
ENDBRANCH   5   6
ENDBRANCH   4   5
ENDBRANCH   2   4
BRANCH   1  10
ATOM     10  C   UNL     1     148.394 154.143 165.661  1.00  0.00     0.111 C 
BRANCH  10  11
ATOM     11  C   UNL     1     147.730 153.571 164.437  1.00  0.00     0.163 C 
ATOM     12  O   UNL     1     148.037 152.406 164.068  1.00  0.00    -0.294 OA
BRANCH  11  13
ATOM     13  C   UNL     1     146.747 154.354 163.632  1.00  0.00    -0.002 C 
ATOM     14  C   UNL     1     145.413 154.346 163.916  1.00  0.00    -0.069 C 
ATOM     15  C   UNL     1     144.839 153.470 165.007  1.00  0.00     0.039 C 
ATOM     16  C   UNL     1     144.436 155.165 163.104  1.00  0.00     0.039 C 
BRANCH  13  17
ATOM     17  C   UNL     1     147.290 155.049 162.394  1.00  0.00     0.066 CG0
ATOM     18  G   UNL     1     147.397 156.559 162.484  1.00  0.00     0.000 G0
ENDBRANCH  13  17
ENDBRANCH  11  13
ENDBRANCH  10  11
ENDBRANCH   1  10
TORSDOF 0
ENDMDL
MODEL 8
REMARK VINA RESULT:    -3.113      3.827      6.346
REMARK INTER + INTRA:          -4.076
REMARK INTER:                  -4.074
REMARK INTRA:                  -0.002
REMARK UNBOUND:                 0.311
REMARK SMILES CC1=CCC(=C(C)C)C(=O)CC(C)=CCC1
REMARK SMILES IDX 12 1 14 2 13 3 15 4 16 5 2 6 1 7 3 8 11 10 9 11 10 12 5 13
REMARK SMILES IDX 6 14 7 15 8 16 4 17
REMARK H PARENT
REMARK Flexibility Score: 60.00
ROOT
ATOM      1  C   UNL     1     149.665 156.694 163.620  1.00  0.00    -0.070 C 
ATOM      2  C   UNL     1     149.634 156.377 164.941  1.00  0.00    -0.027 C 
ATOM      3  C   UNL     1     149.114 158.043 163.223  1.00  0.00     0.039 C 
ENDROOT
BRANCH   2   4
ATOM      4  C   UNL     1     149.989 155.044 165.556  1.00  0.00     0.032 C 
BRANCH   4   5
ATOM      5  C   UNL     1     149.015 153.918 165.183  1.00  0.00     0.034 C 
BRANCH   5   6
ATOM      6  C   UNL     1     149.724 152.650 164.745  1.00  0.00    -0.077 C 
ATOM      7  C   UNL     1     150.570 151.913 165.754  1.00  0.00     0.039 C 
ATOM      8  C   UNL     1     149.725 152.185 163.468  1.00  0.00    -0.023 CG0
ATOM      9  G   UNL     1     148.875 152.665 162.307  1.00  0.00     0.000 G0
ENDBRANCH   5   6
ENDBRANCH   4   5
ENDBRANCH   2   4
BRANCH   1  10
ATOM     10  C   UNL     1     150.323 155.846 162.536  1.00  0.00     0.111 C 
BRANCH  10  11
ATOM     11  C   UNL     1     149.354 155.101 161.656  1.00  0.00     0.163 C 
ATOM     12  O   UNL     1     148.358 155.717 161.192  1.00  0.00    -0.294 OA
BRANCH  11  13
ATOM     13  C   UNL     1     149.523 153.651 161.345  1.00  0.00    -0.002 C 
ATOM     14  C   UNL     1     150.123 153.225 160.197  1.00  0.00    -0.069 C 
ATOM     15  C   UNL     1     150.571 154.195 159.127  1.00  0.00     0.039 C 
ATOM     16  C   UNL     1     150.307 151.751 159.912  1.00  0.00     0.039 C 
BRANCH  13  17
ATOM     17  C   UNL     1     148.867 152.674 162.307  1.00  0.00     0.066 CG0
ATOM     18  G   UNL     1     149.734 152.207 163.461  1.00  0.00     0.000 G0
ENDBRANCH  13  17
ENDBRANCH  11  13
ENDBRANCH  10  11
ENDBRANCH   1  10
TORSDOF 0
ENDMDL
MODEL 9
REMARK VINA RESULT:    -3.020      1.250      1.593
REMARK INTER + INTRA:          -3.945
REMARK INTER:                  -3.934
REMARK INTRA:                  -0.011
REMARK UNBOUND:                 0.311
REMARK SMILES CC1=CCC(=C(C)C)C(=O)CC(C)=CCC1
REMARK SMILES IDX 12 1 14 2 13 3 15 4 16 5 2 6 1 7 3 8 11 10 9 11 10 12 5 13
REMARK SMILES IDX 6 14 7 15 8 16 4 17
REMARK H PARENT
REMARK Flexibility Score: 60.00
ROOT
ATOM      1  C   UNL     1     146.707 151.570 168.553  1.00  0.00    -0.070 C 
ATOM      2  C   UNL     1     148.036 151.839 168.647  1.00  0.00    -0.027 C 
ATOM      3  C   UNL     1     146.186 150.394 169.344  1.00  0.00     0.039 C 
ENDROOT
BRANCH   2   4
ATOM      4  C   UNL     1     148.807 152.860 167.844  1.00  0.00     0.032 C 
BRANCH   4   5
ATOM      5  C   UNL     1     149.330 152.320 166.506  1.00  0.00     0.034 C 
BRANCH   5   6
ATOM      6  C   UNL     1     149.182 153.318 165.372  1.00  0.00    -0.077 C 
ATOM      7  C   UNL     1     150.254 154.365 165.191  1.00  0.00     0.039 C 
ATOM      8  C   UNL     1     148.093 153.391 164.564  1.00  0.00    -0.023 CG0
ATOM      9  G   UNL     1     146.948 152.401 164.461  1.00  0.00     0.000 G0
ENDBRANCH   5   6
ENDBRANCH   4   5
ENDBRANCH   2   4
BRANCH   1  10
ATOM     10  C   UNL     1     145.693 152.435 167.811  1.00  0.00     0.111 C 
BRANCH  10  11
ATOM     11  C   UNL     1     145.366 151.958 166.421  1.00  0.00     0.163 C 
ATOM     12  O   UNL     1     144.841 150.821 166.277  1.00  0.00    -0.294 OA
BRANCH  11  13
ATOM     13  C   UNL     1     145.674 152.776 165.212  1.00  0.00    -0.002 C 
ATOM     14  C   UNL     1     144.811 153.721 164.742  1.00  0.00    -0.069 C 
ATOM     15  C   UNL     1     143.449 153.934 165.364  1.00  0.00     0.039 C 
ATOM     16  C   UNL     1     145.152 154.557 163.529  1.00  0.00     0.039 C 
BRANCH  13  17
ATOM     17  C   UNL     1     146.935 152.404 164.449  1.00  0.00     0.066 CG0
ATOM     18  G   UNL     1     148.078 153.396 164.550  1.00  0.00     0.000 G0
ENDBRANCH  13  17
ENDBRANCH  11  13
ENDBRANCH  10  11
ENDBRANCH   1  10
TORSDOF 0
ENDMDL
