MODEL 1
REMARK VINA RESULT:    -3.780      0.000      0.000
REMARK INTER + INTRA:          -4.504
REMARK INTER:                  -4.443
REMARK INTRA:                  -0.062
REMARK UNBOUND:                -0.062
REMARK SMILES CCCCC(=O)[O-]
REMARK SMILES IDX 4 1 5 2 6 3 7 4 3 5 2 6 1 7
REMARK H PARENT
REMARK Flexibility Score: inf
ROOT
ATOM      1  C   UNL     1      14.287  74.025  69.820  1.00  0.00     0.053 C 
ENDROOT
BRANCH   1   2
ATOM      2  C   UNL     1      15.062  73.561  68.625  1.00  0.00     0.041 C 
ATOM      3  O   UNL     1      15.112  74.270  67.585  1.00  0.00    -0.550 OA
ATOM      4  O   UNL     1      15.706  72.332  68.649  1.00  0.00    -0.550 OA
ENDBRANCH   1   2
BRANCH   1   5
ATOM      5  C   UNL     1      13.295  75.153  69.484  1.00  0.00     0.006 C 
BRANCH   5   6
ATOM      6  C   UNL     1      13.502  76.433  70.313  1.00  0.00    -0.003 C 
ATOM      7  C   UNL     1      13.806  77.662  69.459  1.00  0.00     0.004 C 
ENDBRANCH   5   6
ENDBRANCH   1   5
TORSDOF 3
ENDMDL
MODEL 2
REMARK VINA RESULT:    -3.734      2.312      3.840
REMARK INTER + INTRA:          -4.451
REMARK INTER:                  -4.402
REMARK INTRA:                  -0.049
REMARK UNBOUND:                -0.062
REMARK SMILES CCCCC(=O)[O-]
REMARK SMILES IDX 4 1 5 2 6 3 7 4 3 5 2 6 1 7
REMARK H PARENT
REMARK Flexibility Score: inf
ROOT
ATOM      1  C   UNL     1      13.302  75.352  69.144  1.00  0.00     0.053 C 
ENDROOT
BRANCH   1   2
ATOM      2  C   UNL     1      13.951  76.548  69.770  1.00  0.00     0.041 C 
ATOM      3  O   UNL     1      13.580  77.710  69.455  1.00  0.00    -0.550 OA
ATOM      4  O   UNL     1      14.985  76.381  70.681  1.00  0.00    -0.550 OA
ENDBRANCH   1   2
BRANCH   1   5
ATOM      5  C   UNL     1      14.065  74.045  69.427  1.00  0.00     0.006 C 
BRANCH   5   6
ATOM      6  C   UNL     1      15.082  73.669  68.335  1.00  0.00    -0.003 C 
ATOM      7  C   UNL     1      15.430  72.182  68.322  1.00  0.00     0.004 C 
ENDBRANCH   5   6
ENDBRANCH   1   5
TORSDOF 3
ENDMDL
MODEL 3
REMARK VINA RESULT:    -3.547      3.180      3.539
REMARK INTER + INTRA:          -4.231
REMARK INTER:                  -4.149
REMARK INTRA:                  -0.081
REMARK UNBOUND:                -0.062
REMARK SMILES CCCCC(=O)[O-]
REMARK SMILES IDX 4 1 5 2 6 3 7 4 3 5 2 6 1 7
REMARK H PARENT
REMARK Flexibility Score: inf
ROOT
ATOM      1  C   UNL     1      15.661  74.584  70.994  1.00  0.00     0.053 C 
ENDROOT
BRANCH   1   2
ATOM      2  C   UNL     1      15.419  75.470  72.177  1.00  0.00     0.041 C 
ATOM      3  O   UNL     1      15.979  76.597  72.253  1.00  0.00    -0.550 OA
ATOM      4  O   UNL     1      14.599  75.041  73.212  1.00  0.00    -0.550 OA
ENDBRANCH   1   2
BRANCH   1   5
ATOM      5  C   UNL     1      14.364  74.218  70.251  1.00  0.00     0.006 C 
BRANCH   5   6
ATOM      6  C   UNL     1      13.495  75.432  69.879  1.00  0.00    -0.003 C 
ATOM      7  C   UNL     1      13.067  75.441  68.413  1.00  0.00     0.004 C 
ENDBRANCH   5   6
ENDBRANCH   1   5
TORSDOF 3
ENDMDL
MODEL 4
REMARK VINA RESULT:    -3.543      2.476      3.310
REMARK INTER + INTRA:          -4.226
REMARK INTER:                  -4.123
REMARK INTRA:                  -0.103
REMARK UNBOUND:                -0.062
REMARK SMILES CCCCC(=O)[O-]
REMARK SMILES IDX 4 1 5 2 6 3 7 4 3 5 2 6 1 7
REMARK H PARENT
REMARK Flexibility Score: inf
ROOT
ATOM      1  C   UNL     1      13.405  75.405  70.569  1.00  0.00     0.053 C 
ENDROOT
BRANCH   1   2
ATOM      2  C   UNL     1      13.455  76.296  69.366  1.00  0.00     0.041 C 
ATOM      3  O   UNL     1      13.819  77.497  69.479  1.00  0.00    -0.550 OA
ATOM      4  O   UNL     1      13.071  75.810  68.124  1.00  0.00    -0.550 OA
ENDBRANCH   1   2
BRANCH   1   5
ATOM      5  C   UNL     1      14.728  74.656  70.810  1.00  0.00     0.006 C 
BRANCH   5   6
ATOM      6  C   UNL     1      15.720  75.418  71.706  1.00  0.00    -0.003 C 
ATOM      7  C   UNL     1      15.055  76.089  72.906  1.00  0.00     0.004 C 
ENDBRANCH   5   6
ENDBRANCH   1   5
TORSDOF 3
ENDMDL
MODEL 5
REMARK VINA RESULT:    -3.519      2.071      2.891
REMARK INTER + INTRA:          -4.197
REMARK INTER:                  -4.163
REMARK INTRA:                  -0.034
REMARK UNBOUND:                -0.062
REMARK SMILES CCCCC(=O)[O-]
REMARK SMILES IDX 4 1 5 2 6 3 7 4 3 5 2 6 1 7
REMARK H PARENT
REMARK Flexibility Score: inf
ROOT
ATOM      1  C   UNL     1      14.234  74.590  70.207  1.00  0.00     0.053 C 
ENDROOT
BRANCH   1   2
ATOM      2  C   UNL     1      13.967  74.736  68.740  1.00  0.00     0.041 C 
ATOM      3  O   UNL     1      14.818  74.347  67.897  1.00  0.00    -0.550 OA
ATOM      4  O   UNL     1      12.789  75.327  68.304  1.00  0.00    -0.550 OA
ENDBRANCH   1   2
BRANCH   1   5
ATOM      5  C   UNL     1      15.723  74.355  70.519  1.00  0.00     0.006 C 
BRANCH   5   6
ATOM      6  C   UNL     1      16.185  74.970  71.852  1.00  0.00    -0.003 C 
ATOM      7  C   UNL     1      15.032  75.283  72.803  1.00  0.00     0.004 C 
ENDBRANCH   5   6
ENDBRANCH   1   5
TORSDOF 3
ENDMDL
MODEL 6
REMARK VINA RESULT:    -3.459      2.317      2.606
REMARK INTER + INTRA:          -4.127
REMARK INTER:                  -4.070
REMARK INTRA:                  -0.057
REMARK UNBOUND:                -0.062
REMARK SMILES CCCCC(=O)[O-]
REMARK SMILES IDX 4 1 5 2 6 3 7 4 3 5 2 6 1 7
REMARK H PARENT
REMARK Flexibility Score: inf
ROOT
ATOM      1  C   UNL     1      14.596  75.744  71.526  1.00  0.00     0.053 C 
ENDROOT
BRANCH   1   2
ATOM      2  C   UNL     1      15.800  74.875  71.326  1.00  0.00     0.041 C 
ATOM      3  O   UNL     1      15.801  73.984  70.436  1.00  0.00    -0.550 OA
ATOM      4  O   UNL     1      16.911  75.030  72.143  1.00  0.00    -0.550 OA
ENDBRANCH   1   2
BRANCH   1   5
ATOM      5  C   UNL     1      13.448  75.400  70.559  1.00  0.00     0.006 C 
BRANCH   5   6
ATOM      6  C   UNL     1      13.463  76.221  69.258  1.00  0.00    -0.003 C 
ATOM      7  C   UNL     1      13.797  77.694  69.479  1.00  0.00     0.004 C 
ENDBRANCH   5   6
ENDBRANCH   1   5
TORSDOF 3
ENDMDL
MODEL 7
REMARK VINA RESULT:    -3.457      3.130      3.849
REMARK INTER + INTRA:          -4.125
REMARK INTER:                  -3.996
REMARK INTRA:                  -0.129
REMARK UNBOUND:                -0.062
REMARK SMILES CCCCC(=O)[O-]
REMARK SMILES IDX 4 1 5 2 6 3 7 4 3 5 2 6 1 7
REMARK H PARENT
REMARK Flexibility Score: inf
ROOT
ATOM      1  C   UNL     1      14.482  75.316  71.613  1.00  0.00     0.053 C 
ENDROOT
BRANCH   1   2
ATOM      2  C   UNL     1      14.720  75.933  70.269  1.00  0.00     0.041 C 
ATOM      3  O   UNL     1      15.444  75.348  69.420  1.00  0.00    -0.550 OA
ATOM      4  O   UNL     1      14.166  77.169  69.963  1.00  0.00    -0.550 OA
ENDBRANCH   1   2
BRANCH   1   5
ATOM      5  C   UNL     1      15.036  76.171  72.766  1.00  0.00     0.006 C 
BRANCH   5   6
ATOM      6  C   UNL     1      16.503  76.597  72.576  1.00  0.00    -0.003 C 
ATOM      7  C   UNL     1      17.490  75.442  72.731  1.00  0.00     0.004 C 
ENDBRANCH   5   6
ENDBRANCH   1   5
TORSDOF 3
ENDMDL
MODEL 8
REMARK VINA RESULT:    -3.431      3.618      3.958
REMARK INTER + INTRA:          -4.094
REMARK INTER:                  -4.063
REMARK INTRA:                  -0.031
REMARK UNBOUND:                -0.062
REMARK SMILES CCCCC(=O)[O-]
REMARK SMILES IDX 4 1 5 2 6 3 7 4 3 5 2 6 1 7
REMARK H PARENT
REMARK Flexibility Score: inf
ROOT
ATOM      1  C   UNL     1      15.073  76.050  72.536  1.00  0.00     0.053 C 
ENDROOT
BRANCH   1   2
ATOM      2  C   UNL     1      16.545  76.313  72.624  1.00  0.00     0.041 C 
ATOM      3  O   UNL     1      16.984  77.493  72.575  1.00  0.00    -0.550 OA
ATOM      4  O   UNL     1      17.436  75.253  72.730  1.00  0.00    -0.550 OA
ENDBRANCH   1   2
BRANCH   1   5
ATOM      5  C   UNL     1      14.608  75.748  71.100  1.00  0.00     0.006 C 
BRANCH   5   6
ATOM      6  C   UNL     1      13.405  76.593  70.644  1.00  0.00    -0.003 C 
ATOM      7  C   UNL     1      13.740  77.550  69.502  1.00  0.00     0.004 C 
ENDBRANCH   5   6
ENDBRANCH   1   5
TORSDOF 3
ENDMDL
MODEL 9
REMARK VINA RESULT:    -3.425      3.424      4.469
REMARK INTER + INTRA:          -4.087
REMARK INTER:                  -4.066
REMARK INTRA:                  -0.021
REMARK UNBOUND:                -0.062
REMARK SMILES CCCCC(=O)[O-]
REMARK SMILES IDX 4 1 5 2 6 3 7 4 3 5 2 6 1 7
REMARK H PARENT
REMARK Flexibility Score: inf
ROOT
ATOM      1  C   UNL     1      14.483  75.474  71.166  1.00  0.00     0.053 C 
ENDROOT
BRANCH   1   2
ATOM      2  C   UNL     1      15.011  75.689  72.551  1.00  0.00     0.041 C 
ATOM      3  O   UNL     1      14.536  75.039  73.521  1.00  0.00    -0.550 OA
ATOM      4  O   UNL     1      16.009  76.628  72.778  1.00  0.00    -0.550 OA
ENDBRANCH   1   2
BRANCH   1   5
ATOM      5  C   UNL     1      15.282  74.418  70.382  1.00  0.00     0.006 C 
BRANCH   5   6
ATOM      6  C   UNL     1      14.405  73.458  69.558  1.00  0.00    -0.003 C 
ATOM      7  C   UNL     1      15.210  72.566  68.615  1.00  0.00     0.004 C 
ENDBRANCH   5   6
ENDBRANCH   1   5
TORSDOF 3
ENDMDL
