MODEL 1
REMARK VINA RESULT:    -3.626      0.000      0.000
REMARK INTER + INTRA:          -5.209
REMARK INTER:                  -4.898
REMARK INTRA:                  -0.310
REMARK UNBOUND:                -0.310
REMARK SMILES CCCCCCCC(=O)[O-]
REMARK SMILES IDX 5 1 6 2 7 3 8 4 9 5 10 6 4 7 3 8 2 9 1 10
REMARK H PARENT
REMARK Flexibility Score: inf
ROOT
ATOM      1  C   UNL     1     174.494 175.935 182.501  1.00  0.00     0.000 C 
ENDROOT
BRANCH   1   2
ATOM      2  C   UNL     1     173.641 177.207 182.641  1.00  0.00     0.006 C 
BRANCH   2   3
ATOM      3  C   UNL     1     172.143 176.923 182.467  1.00  0.00     0.053 C 
BRANCH   3   4
ATOM      4  C   UNL     1     171.620 177.474 181.176  1.00  0.00     0.041 C 
ATOM      5  O   UNL     1     172.403 177.685 180.213  1.00  0.00    -0.550 OA
ATOM      6  O   UNL     1     170.272 177.781 181.047  1.00  0.00    -0.550 OA
ENDBRANCH   3   4
ENDBRANCH   2   3
ENDBRANCH   1   2
BRANCH   1   7
ATOM      7  C   UNL     1     175.814 176.019 183.282  1.00  0.00     0.000 C 
BRANCH   7   8
ATOM      8  C   UNL     1     176.807 177.015 182.663  1.00  0.00    -0.000 C 
BRANCH   8   9
ATOM      9  C   UNL     1     177.117 176.645 181.207  1.00  0.00    -0.003 C 
ATOM     10  C   UNL     1     177.111 177.881 180.312  1.00  0.00     0.004 C 
ENDBRANCH   8   9
ENDBRANCH   7   8
ENDBRANCH   1   7
TORSDOF 6
ENDMDL
MODEL 2
REMARK VINA RESULT:    -3.601      2.140      3.269
REMARK INTER + INTRA:          -5.175
REMARK INTER:                  -4.704
REMARK INTRA:                  -0.471
REMARK UNBOUND:                -0.310
REMARK SMILES CCCCCCCC(=O)[O-]
REMARK SMILES IDX 5 1 6 2 7 3 8 4 9 5 10 6 4 7 3 8 2 9 1 10
REMARK H PARENT
REMARK Flexibility Score: inf
ROOT
ATOM      1  C   UNL     1     177.079 176.756 180.895  1.00  0.00     0.000 C 
ENDROOT
BRANCH   1   2
ATOM      2  C   UNL     1     176.433 177.607 179.788  1.00  0.00     0.006 C 
BRANCH   2   3
ATOM      3  C   UNL     1     175.346 176.836 179.026  1.00  0.00     0.053 C 
BRANCH   3   4
ATOM      4  C   UNL     1     173.972 177.322 179.374  1.00  0.00     0.041 C 
ATOM      5  O   UNL     1     173.186 177.706 178.468  1.00  0.00    -0.550 OA
ATOM      6  O   UNL     1     173.571 177.378 180.702  1.00  0.00    -0.550 OA
ENDBRANCH   3   4
ENDBRANCH   2   3
ENDBRANCH   1   2
BRANCH   1   7
ATOM      7  C   UNL     1     177.001 177.426 182.276  1.00  0.00     0.000 C 
BRANCH   7   8
ATOM      8  C   UNL     1     176.141 176.632 183.272  1.00  0.00    -0.000 C 
BRANCH   8   9
ATOM      9  C   UNL     1     176.221 175.127 182.986  1.00  0.00    -0.003 C 
ATOM     10  C   UNL     1     174.829 174.503 182.927  1.00  0.00     0.004 C 
ENDBRANCH   8   9
ENDBRANCH   7   8
ENDBRANCH   1   7
TORSDOF 6
ENDMDL
MODEL 3
REMARK VINA RESULT:    -3.589      2.131      4.388
REMARK INTER + INTRA:          -5.159
REMARK INTER:                  -4.702
REMARK INTRA:                  -0.456
REMARK UNBOUND:                -0.310
REMARK SMILES CCCCCCCC(=O)[O-]
REMARK SMILES IDX 5 1 6 2 7 3 8 4 9 5 10 6 4 7 3 8 2 9 1 10
REMARK H PARENT
REMARK Flexibility Score: inf
ROOT
ATOM      1  C   UNL     1     176.933 176.200 182.213  1.00  0.00     0.000 C 
ENDROOT
BRANCH   1   2
ATOM      2  C   UNL     1     177.066 177.715 181.983  1.00  0.00     0.006 C 
BRANCH   2   3
ATOM      3  C   UNL     1     177.482 178.048 180.544  1.00  0.00     0.053 C 
BRANCH   3   4
ATOM      4  C   UNL     1     176.596 177.377 179.540  1.00  0.00     0.041 C 
ATOM      5  O   UNL     1     175.384 177.706 179.443  1.00  0.00    -0.550 OA
ATOM      6  O   UNL     1     177.102 176.369 178.730  1.00  0.00    -0.550 OA
ENDBRANCH   3   4
ENDBRANCH   2   3
ENDBRANCH   1   2
BRANCH   1   7
ATOM      7  C   UNL     1     175.560 175.806 182.781  1.00  0.00     0.000 C 
BRANCH   7   8
ATOM      8  C   UNL     1     174.583 176.991 182.844  1.00  0.00    -0.000 C 
BRANCH   8   9
ATOM      9  C   UNL     1     173.271 176.657 182.123  1.00  0.00    -0.003 C 
ATOM     10  C   UNL     1     172.196 177.697 182.427  1.00  0.00     0.004 C 
ENDBRANCH   8   9
ENDBRANCH   7   8
ENDBRANCH   1   7
TORSDOF 6
ENDMDL
MODEL 4
REMARK VINA RESULT:    -3.579      3.095      4.418
REMARK INTER + INTRA:          -5.144
REMARK INTER:                  -4.645
REMARK INTRA:                  -0.500
REMARK UNBOUND:                -0.310
REMARK SMILES CCCCCCCC(=O)[O-]
REMARK SMILES IDX 5 1 6 2 7 3 8 4 9 5 10 6 4 7 3 8 2 9 1 10
REMARK H PARENT
REMARK Flexibility Score: inf
ROOT
ATOM      1  C   UNL     1     177.232 177.716 182.127  1.00  0.00     0.000 C 
ENDROOT
BRANCH   1   2
ATOM      2  C   UNL     1     177.216 177.957 180.608  1.00  0.00     0.006 C 
BRANCH   2   3
ATOM      3  C   UNL     1     176.059 177.222 179.917  1.00  0.00     0.053 C 
BRANCH   3   4
ATOM      4  C   UNL     1     176.550 176.103 179.049  1.00  0.00     0.041 C 
ATOM      5  O   UNL     1     177.186 176.354 177.992  1.00  0.00    -0.550 OA
ATOM      6  O   UNL     1     176.281 174.786 179.395  1.00  0.00    -0.550 OA
ENDBRANCH   3   4
ENDBRANCH   2   3
ENDBRANCH   1   2
BRANCH   1   7
ATOM      7  C   UNL     1     175.985 176.964 182.619  1.00  0.00     0.000 C 
BRANCH   7   8
ATOM      8  C   UNL     1     176.309 175.554 183.137  1.00  0.00    -0.000 C 
BRANCH   8   9
ATOM      9  C   UNL     1     175.110 174.615 182.953  1.00  0.00    -0.003 C 
ATOM     10  C   UNL     1     173.863 175.389 182.537  1.00  0.00     0.004 C 
ENDBRANCH   8   9
ENDBRANCH   7   8
ENDBRANCH   1   7
TORSDOF 6
ENDMDL
MODEL 5
REMARK VINA RESULT:    -3.534      1.241      1.704
REMARK INTER + INTRA:          -5.085
REMARK INTER:                  -4.527
REMARK INTRA:                  -0.558
REMARK UNBOUND:                -0.310
REMARK SMILES CCCCCCCC(=O)[O-]
REMARK SMILES IDX 5 1 6 2 7 3 8 4 9 5 10 6 4 7 3 8 2 9 1 10
REMARK H PARENT
REMARK Flexibility Score: inf
ROOT
ATOM      1  C   UNL     1     175.878 175.187 182.739  1.00  0.00     0.000 C 
ENDROOT
BRANCH   1   2
ATOM      2  C   UNL     1     174.363 174.962 182.598  1.00  0.00     0.006 C 
BRANCH   2   3
ATOM      3  C   UNL     1     173.587 176.284 182.520  1.00  0.00     0.053 C 
BRANCH   3   4
ATOM      4  C   UNL     1     173.065 176.542 181.139  1.00  0.00     0.041 C 
ATOM      5  O   UNL     1     172.681 177.695 180.812  1.00  0.00    -0.550 OA
ATOM      6  O   UNL     1     172.978 175.501 180.224  1.00  0.00    -0.550 OA
ENDBRANCH   3   4
ENDBRANCH   2   3
ENDBRANCH   1   2
BRANCH   1   7
ATOM      7  C   UNL     1     176.221 176.591 183.262  1.00  0.00     0.000 C 
BRANCH   7   8
ATOM      8  C   UNL     1     177.028 177.419 182.249  1.00  0.00    -0.000 C 
BRANCH   8   9
ATOM      9  C   UNL     1     177.036 176.744 180.872  1.00  0.00    -0.003 C 
ATOM     10  C   UNL     1     176.383 177.633 179.818  1.00  0.00     0.004 C 
ENDBRANCH   8   9
ENDBRANCH   7   8
ENDBRANCH   1   7
TORSDOF 6
ENDMDL
MODEL 6
REMARK VINA RESULT:    -3.515      3.936      4.993
REMARK INTER + INTRA:          -5.058
REMARK INTER:                  -4.693
REMARK INTRA:                  -0.365
REMARK UNBOUND:                -0.310
REMARK SMILES CCCCCCCC(=O)[O-]
REMARK SMILES IDX 5 1 6 2 7 3 8 4 9 5 10 6 4 7 3 8 2 9 1 10
REMARK H PARENT
REMARK Flexibility Score: inf
ROOT
ATOM      1  C   UNL     1     176.458 175.637 183.041  1.00  0.00     0.000 C 
ENDROOT
BRANCH   1   2
ATOM      2  C   UNL     1     176.079 174.424 182.174  1.00  0.00     0.006 C 
BRANCH   2   3
ATOM      3  C   UNL     1     177.308 173.610 181.749  1.00  0.00     0.053 C 
BRANCH   3   4
ATOM      4  C   UNL     1     176.923 172.382 180.981  1.00  0.00     0.041 C 
ATOM      5  O   UNL     1     177.279 171.244 181.386  1.00  0.00    -0.550 OA
ATOM      6  O   UNL     1     176.196 172.497 179.804  1.00  0.00    -0.550 OA
ENDBRANCH   3   4
ENDBRANCH   2   3
ENDBRANCH   1   2
BRANCH   1   7
ATOM      7  C   UNL     1     176.076 176.974 182.385  1.00  0.00     0.000 C 
BRANCH   7   8
ATOM      8  C   UNL     1     177.300 177.762 181.892  1.00  0.00    -0.000 C 
BRANCH   8   9
ATOM      9  C   UNL     1     177.195 178.051 180.390  1.00  0.00    -0.003 C 
ATOM     10  C   UNL     1     175.954 177.398 179.788  1.00  0.00     0.004 C 
ENDBRANCH   8   9
ENDBRANCH   7   8
ENDBRANCH   1   7
TORSDOF 6
ENDMDL
MODEL 7
REMARK VINA RESULT:    -3.513      1.631      2.150
REMARK INTER + INTRA:          -5.055
REMARK INTER:                  -4.404
REMARK INTRA:                  -0.652
REMARK UNBOUND:                -0.310
REMARK SMILES CCCCCCCC(=O)[O-]
REMARK SMILES IDX 5 1 6 2 7 3 8 4 9 5 10 6 4 7 3 8 2 9 1 10
REMARK H PARENT
REMARK Flexibility Score: inf
ROOT
ATOM      1  C   UNL     1     175.421 174.156 182.055  1.00  0.00     0.000 C 
ENDROOT
BRANCH   1   2
ATOM      2  C   UNL     1     174.259 174.777 182.847  1.00  0.00     0.006 C 
BRANCH   2   3
ATOM      3  C   UNL     1     173.178 175.360 181.926  1.00  0.00     0.053 C 
BRANCH   3   4
ATOM      4  C   UNL     1     173.311 176.846 181.784  1.00  0.00     0.041 C 
ATOM      5  O   UNL     1     173.602 177.352 180.669  1.00  0.00    -0.550 OA
ATOM      6  O   UNL     1     173.142 177.668 182.890  1.00  0.00    -0.550 OA
ENDBRANCH   3   4
ENDBRANCH   2   3
ENDBRANCH   1   2
BRANCH   1   7
ATOM      7  C   UNL     1     176.728 174.952 182.200  1.00  0.00     0.000 C 
BRANCH   7   8
ATOM      8  C   UNL     1     177.011 175.853 180.988  1.00  0.00    -0.000 C 
BRANCH   8   9
ATOM      9  C   UNL     1     177.057 177.329 181.401  1.00  0.00    -0.003 C 
ATOM     10  C   UNL     1     177.003 177.478 182.919  1.00  0.00     0.004 C 
ENDBRANCH   8   9
ENDBRANCH   7   8
ENDBRANCH   1   7
TORSDOF 6
ENDMDL
MODEL 8
REMARK VINA RESULT:    -3.509      2.939      4.188
REMARK INTER + INTRA:          -5.050
REMARK INTER:                  -4.598
REMARK INTRA:                  -0.452
REMARK UNBOUND:                -0.310
REMARK SMILES CCCCCCCC(=O)[O-]
REMARK SMILES IDX 5 1 6 2 7 3 8 4 9 5 10 6 4 7 3 8 2 9 1 10
REMARK H PARENT
REMARK Flexibility Score: inf
ROOT
ATOM      1  C   UNL     1     176.043 177.007 182.426  1.00  0.00     0.000 C 
ENDROOT
BRANCH   1   2
ATOM      2  C   UNL     1     177.354 177.511 181.801  1.00  0.00     0.006 C 
BRANCH   2   3
ATOM      3  C   UNL     1     177.151 178.034 180.372  1.00  0.00     0.053 C 
BRANCH   3   4
ATOM      4  C   UNL     1     176.451 177.030 179.507  1.00  0.00     0.041 C 
ATOM      5  O   UNL     1     177.003 175.931 179.239  1.00  0.00    -0.550 OA
ATOM      6  O   UNL     1     175.202 177.322 178.975  1.00  0.00    -0.550 OA
ENDBRANCH   3   4
ENDBRANCH   2   3
ENDBRANCH   1   2
BRANCH   1   7
ATOM      7  C   UNL     1     176.236 175.725 183.251  1.00  0.00     0.000 C 
BRANCH   7   8
ATOM      8  C   UNL     1     175.958 174.450 182.438  1.00  0.00    -0.000 C 
BRANCH   8   9
ATOM      9  C   UNL     1     177.267 173.763 182.033  1.00  0.00    -0.003 C 
ATOM     10  C   UNL     1     176.999 172.514 181.198  1.00  0.00     0.004 C 
ENDBRANCH   8   9
ENDBRANCH   7   8
ENDBRANCH   1   7
TORSDOF 6
ENDMDL
MODEL 9
REMARK VINA RESULT:    -3.497      1.595      2.769
REMARK INTER + INTRA:          -5.034
REMARK INTER:                  -4.520
REMARK INTRA:                  -0.514
REMARK UNBOUND:                -0.310
REMARK SMILES CCCCCCCC(=O)[O-]
REMARK SMILES IDX 5 1 6 2 7 3 8 4 9 5 10 6 4 7 3 8 2 9 1 10
REMARK H PARENT
REMARK Flexibility Score: inf
ROOT
ATOM      1  C   UNL     1     176.302 176.933 179.610  1.00  0.00     0.000 C 
ENDROOT
BRANCH   1   2
ATOM      2  C   UNL     1     174.836 177.392 179.522  1.00  0.00     0.006 C 
BRANCH   2   3
ATOM      3  C   UNL     1     173.886 176.441 180.263  1.00  0.00     0.053 C 
BRANCH   3   4
ATOM      4  C   UNL     1     172.990 177.178 181.212  1.00  0.00     0.041 C 
ATOM      5  O   UNL     1     172.011 177.837 180.775  1.00  0.00    -0.550 OA
ATOM      6  O   UNL     1     173.256 177.159 182.574  1.00  0.00    -0.550 OA
ENDBRANCH   3   4
ENDBRANCH   2   3
ENDBRANCH   1   2
BRANCH   1   7
ATOM      7  C   UNL     1     177.135 177.797 180.569  1.00  0.00     0.000 C 
BRANCH   7   8
ATOM      8  C   UNL     1     177.005 177.352 182.034  1.00  0.00    -0.000 C 
BRANCH   8   9
ATOM      9  C   UNL     1     176.961 175.822 182.139  1.00  0.00    -0.003 C 
ATOM     10  C   UNL     1     176.072 175.375 183.297  1.00  0.00     0.004 C 
ENDBRANCH   8   9
ENDBRANCH   7   8
ENDBRANCH   1   7
TORSDOF 6
ENDMDL
