MODEL 1
REMARK VINA RESULT:    27.603      0.000      0.000
REMARK INTER + INTRA:          27.603
REMARK INTER:                  27.603
REMARK INTRA:                   0.000
REMARK UNBOUND:                 0.000
REMARK SMILES CC1=CC[C@@]2(C)CCCC(C)(C)[C@]23C[C@H]13
REMARK SMILES IDX 1 1 2 2 3 3 4 4 5 5 7 6 8 7 9 8 10 9 13 10 15 11 14 12 11 13
REMARK SMILES IDX 12 14 6 15
REMARK H PARENT
REMARK Flexibility Score: inf
ROOT
ATOM      1  C   UNL     1      -0.083   9.156  -6.690  1.00  0.00     0.039 C 
ATOM      2  C   UNL     1      -0.531   7.956  -7.480  1.00  0.00    -0.074 C 
ATOM      3  C   UNL     1      -1.793   7.911  -7.922  1.00  0.00    -0.027 C 
ATOM      4  C   UNL     1      -2.362   6.694  -8.571  1.00  0.00     0.034 C 
ATOM      5  C   UNL     1      -1.365   5.929  -9.496  1.00  0.00    -0.022 C 
ATOM      6  C   UNL     1      -1.301   6.667 -10.858  1.00  0.00     0.008 C 
ATOM      7  C   UNL     1      -0.256   6.089 -11.822  1.00  0.00     0.001 C 
ATOM      8  C   UNL     1       1.152   6.107 -11.215  1.00  0.00     0.007 C 
ATOM      9  C   UNL     1       1.278   5.366  -9.854  1.00  0.00    -0.029 C 
ATOM     10  C   UNL     1       0.099   5.841  -8.898  1.00  0.00    -0.012 C 
ATOM     11  C   UNL     1       0.487   6.895  -7.835  1.00  0.00     0.022 C 
ATOM     12  C   UNL     1       0.169   5.463  -7.408  1.00  0.00     0.017 C 
ATOM     13  C   UNL     1       1.227   3.831 -10.064  1.00  0.00     0.012 C 
ATOM     14  C   UNL     1       2.709   5.681  -9.325  1.00  0.00     0.012 C 
ATOM     15  C   UNL     1      -1.980   4.515  -9.684  1.00  0.00     0.012 C 
ENDROOT
TORSDOF 0
ENDMDL
