MODEL 1
REMARK VINA RESULT:    -4.884      0.000      0.000
REMARK INTER + INTRA:         -12.338
REMARK INTER:                 -10.594
REMARK INTRA:                  -1.744
REMARK UNBOUND:                -1.744
REMARK SMILES CCCCCCCCCCCCCCCCCCCCCC(=O)[O-]
REMARK SMILES IDX 12 1 11 2 10 3 9 4 8 5 7 6 6 7 5 8 4 9 3 10 2 11 1 12 13 13
REMARK SMILES IDX 14 14 15 15 16 16 17 17 18 18 19 19 20 20 21 21 22 22 23 23
REMARK SMILES IDX 24 24
REMARK H PARENT
REMARK Flexibility Score: inf
ROOT
ATOM      1  C   UNL     1      -4.744 -15.991   5.045  1.00  0.00     0.000 C 
ENDROOT
BRANCH   1   2
ATOM      2  C   UNL     1      -6.275 -15.810   5.064  1.00  0.00     0.000 C 
BRANCH   2   3
ATOM      3  C   UNL     1      -6.741 -14.520   5.774  1.00  0.00     0.000 C 
BRANCH   3   4
ATOM      4  C   UNL     1      -8.018 -13.932   5.150  1.00  0.00    -0.000 C 
BRANCH   4   5
ATOM      5  C   UNL     1      -8.787 -13.011   6.115  1.00  0.00    -0.000 C 
BRANCH   5   6
ATOM      6  C   UNL     1     -10.245 -12.719   5.714  1.00  0.00    -0.000 C 
BRANCH   6   7
ATOM      7  C   UNL     1     -10.932 -11.722   6.662  1.00  0.00    -0.000 C 
BRANCH   7   8
ATOM      8  C   UNL     1     -11.337 -10.419   5.955  1.00  0.00    -0.000 C 
BRANCH   8   9
ATOM      9  C   UNL     1     -12.577  -9.740   6.582  1.00  0.00    -0.000 C 
BRANCH   9  10
ATOM     10  C   UNL     1     -13.647 -10.764   6.989  1.00  0.00    -0.000 C 
BRANCH  10  11
ATOM     11  C   UNL     1     -14.995 -10.081   7.247  1.00  0.00    -0.003 C 
ATOM     12  C   UNL     1     -15.246  -9.904   8.742  1.00  0.00     0.004 C 
ENDBRANCH  10  11
ENDBRANCH   9  10
ENDBRANCH   8   9
ENDBRANCH   7   8
ENDBRANCH   6   7
ENDBRANCH   5   6
ENDBRANCH   4   5
ENDBRANCH   3   4
ENDBRANCH   2   3
ENDBRANCH   1   2
BRANCH   1  13
ATOM     13  C   UNL     1      -4.222 -16.986   3.992  1.00  0.00     0.000 C 
BRANCH  13  14
ATOM     14  C   UNL     1      -2.685 -17.031   3.837  1.00  0.00     0.000 C 
BRANCH  14  15
ATOM     15  C   UNL     1      -1.954 -17.989   4.796  1.00  0.00     0.000 C 
BRANCH  15  16
ATOM     16  C   UNL     1      -2.446 -19.442   4.679  1.00  0.00     0.000 C 
BRANCH  16  17
ATOM     17  C   UNL     1      -3.124 -19.942   5.965  1.00  0.00     0.000 C 
BRANCH  17  18
ATOM     18  C   UNL     1      -4.603 -20.311   5.756  1.00  0.00     0.000 C 
BRANCH  18  19
ATOM     19  C   UNL     1      -5.569 -19.323   6.438  1.00  0.00     0.000 C 
BRANCH  19  20
ATOM     20  C   UNL     1      -7.024 -19.387   5.935  1.00  0.00     0.006 C 
BRANCH  20  21
ATOM     21  C   UNL     1      -7.128 -19.445   4.405  1.00  0.00     0.053 C 
BRANCH  21  22
ATOM     22  C   UNL     1      -8.526 -19.155   3.949  1.00  0.00     0.041 C 
ATOM     23  O   UNL     1      -8.978 -17.980   4.006  1.00  0.00    -0.550 OA
ATOM     24  O   UNL     1      -9.322 -20.175   3.442  1.00  0.00    -0.550 OA
ENDBRANCH  21  22
ENDBRANCH  20  21
ENDBRANCH  19  20
ENDBRANCH  18  19
ENDBRANCH  17  18
ENDBRANCH  16  17
ENDBRANCH  15  16
ENDBRANCH  14  15
ENDBRANCH  13  14
ENDBRANCH   1  13
TORSDOF 20
ENDMDL
MODEL 2
REMARK VINA RESULT:    -4.574      1.944      3.008
REMARK INTER + INTRA:         -11.666
REMARK INTER:                  -9.368
REMARK INTRA:                  -2.298
REMARK UNBOUND:                -1.744
REMARK SMILES CCCCCCCCCCCCCCCCCCCCCC(=O)[O-]
REMARK SMILES IDX 12 1 11 2 10 3 9 4 8 5 7 6 6 7 5 8 4 9 3 10 2 11 1 12 13 13
REMARK SMILES IDX 14 14 15 15 16 16 17 17 18 18 19 19 20 20 21 21 22 22 23 23
REMARK SMILES IDX 24 24
REMARK H PARENT
REMARK Flexibility Score: inf
ROOT
ATOM      1  C   UNL     1      -2.342 -15.149   6.841  1.00  0.00     0.000 C 
ENDROOT
BRANCH   1   2
ATOM      2  C   UNL     1      -3.660 -15.829   7.265  1.00  0.00     0.000 C 
BRANCH   2   3
ATOM      3  C   UNL     1      -4.872 -14.872   7.297  1.00  0.00     0.000 C 
BRANCH   3   4
ATOM      4  C   UNL     1      -6.171 -15.551   6.832  1.00  0.00    -0.000 C 
BRANCH   4   5
ATOM      5  C   UNL     1      -6.453 -15.342   5.332  1.00  0.00    -0.000 C 
BRANCH   5   6
ATOM      6  C   UNL     1      -6.945 -13.933   4.952  1.00  0.00    -0.000 C 
BRANCH   6   7
ATOM      7  C   UNL     1      -8.473 -13.792   5.055  1.00  0.00    -0.000 C 
BRANCH   7   8
ATOM      8  C   UNL     1      -8.901 -12.812   6.160  1.00  0.00    -0.000 C 
BRANCH   8   9
ATOM      9  C   UNL     1     -10.407 -12.465   6.122  1.00  0.00    -0.000 C 
BRANCH   9  10
ATOM     10  C   UNL     1     -10.648 -10.949   6.117  1.00  0.00    -0.000 C 
BRANCH  10  11
ATOM     11  C   UNL     1      -9.672 -10.231   7.055  1.00  0.00    -0.003 C 
ATOM     12  C   UNL     1      -9.008  -9.047   6.359  1.00  0.00     0.004 C 
ENDBRANCH  10  11
ENDBRANCH   9  10
ENDBRANCH   8   9
ENDBRANCH   7   8
ENDBRANCH   6   7
ENDBRANCH   5   6
ENDBRANCH   4   5
ENDBRANCH   3   4
ENDBRANCH   2   3
ENDBRANCH   1   2
BRANCH   1  13
ATOM     13  C   UNL     1      -1.779 -15.614   5.485  1.00  0.00     0.000 C 
BRANCH  13  14
ATOM     14  C   UNL     1      -2.836 -16.100   4.469  1.00  0.00     0.000 C 
BRANCH  14  15
ATOM     15  C   UNL     1      -2.476 -17.392   3.712  1.00  0.00     0.000 C 
BRANCH  15  16
ATOM     16  C   UNL     1      -3.605 -18.437   3.741  1.00  0.00     0.000 C 
BRANCH  16  17
ATOM     17  C   UNL     1      -3.361 -19.542   4.781  1.00  0.00     0.000 C 
BRANCH  17  18
ATOM     18  C   UNL     1      -4.091 -19.282   6.111  1.00  0.00     0.000 C 
BRANCH  18  19
ATOM     19  C   UNL     1      -5.577 -18.923   5.919  1.00  0.00     0.000 C 
BRANCH  19  20
ATOM     20  C   UNL     1      -6.469 -20.086   5.447  1.00  0.00     0.006 C 
BRANCH  20  21
ATOM     21  C   UNL     1      -7.490 -19.664   4.381  1.00  0.00     0.053 C 
BRANCH  21  22
ATOM     22  C   UNL     1      -8.735 -20.493   4.469  1.00  0.00     0.041 C 
ATOM     23  O   UNL     1      -9.565 -20.488   3.521  1.00  0.00    -0.550 OA
ATOM     24  O   UNL     1      -8.970 -21.285   5.586  1.00  0.00    -0.550 OA
ENDBRANCH  21  22
ENDBRANCH  20  21
ENDBRANCH  19  20
ENDBRANCH  18  19
ENDBRANCH  17  18
ENDBRANCH  16  17
ENDBRANCH  15  16
ENDBRANCH  14  15
ENDBRANCH  13  14
ENDBRANCH   1  13
TORSDOF 20
ENDMDL
MODEL 3
REMARK VINA RESULT:    -4.572      2.806      5.298
REMARK INTER + INTRA:         -11.661
REMARK INTER:                  -8.418
REMARK INTRA:                  -3.243
REMARK UNBOUND:                -1.744
REMARK SMILES CCCCCCCCCCCCCCCCCCCCCC(=O)[O-]
REMARK SMILES IDX 12 1 11 2 10 3 9 4 8 5 7 6 6 7 5 8 4 9 3 10 2 11 1 12 13 13
REMARK SMILES IDX 14 14 15 15 16 16 17 17 18 18 19 19 20 20 21 21 22 22 23 23
REMARK SMILES IDX 24 24
REMARK H PARENT
REMARK Flexibility Score: inf
ROOT
ATOM      1  C   UNL     1      -3.320 -19.094   4.293  1.00  0.00     0.000 C 
ENDROOT
BRANCH   1   2
ATOM      2  C   UNL     1      -2.279 -18.255   3.523  1.00  0.00     0.000 C 
BRANCH   2   3
ATOM      3  C   UNL     1      -2.447 -16.731   3.710  1.00  0.00     0.000 C 
BRANCH   3   4
ATOM      4  C   UNL     1      -1.826 -16.227   5.024  1.00  0.00    -0.000 C 
BRANCH   4   5
ATOM      5  C   UNL     1      -2.868 -15.629   5.988  1.00  0.00    -0.000 C 
BRANCH   5   6
ATOM      6  C   UNL     1      -3.468 -16.625   6.997  1.00  0.00    -0.000 C 
BRANCH   6   7
ATOM      7  C   UNL     1      -4.976 -16.842   6.789  1.00  0.00    -0.000 C 
BRANCH   7   8
ATOM      8  C   UNL     1      -5.486 -16.218   5.480  1.00  0.00    -0.000 C 
BRANCH   8   9
ATOM      9  C   UNL     1      -6.922 -15.654   5.589  1.00  0.00    -0.000 C 
BRANCH   9  10
ATOM     10  C   UNL     1      -6.983 -14.164   5.221  1.00  0.00    -0.000 C 
BRANCH  10  11
ATOM     11  C   UNL     1      -8.412 -13.742   4.862  1.00  0.00    -0.003 C 
ATOM     12  C   UNL     1      -9.101 -13.066   6.044  1.00  0.00     0.004 C 
ENDBRANCH  10  11
ENDBRANCH   9  10
ENDBRANCH   8   9
ENDBRANCH   7   8
ENDBRANCH   6   7
ENDBRANCH   5   6
ENDBRANCH   4   5
ENDBRANCH   3   4
ENDBRANCH   2   3
ENDBRANCH   1   2
BRANCH   1  13
ATOM     13  C   UNL     1      -2.749 -20.321   5.027  1.00  0.00     0.000 C 
BRANCH  13  14
ATOM     14  C   UNL     1      -2.171 -20.034   6.432  1.00  0.00     0.000 C 
BRANCH  14  15
ATOM     15  C   UNL     1      -3.085 -20.420   7.609  1.00  0.00     0.000 C 
BRANCH  15  16
ATOM     16  C   UNL     1      -4.468 -20.921   7.155  1.00  0.00     0.000 C 
BRANCH  16  17
ATOM     17  C   UNL     1      -5.612 -20.348   8.005  1.00  0.00     0.000 C 
BRANCH  17  18
ATOM     18  C   UNL     1      -6.860 -20.004   7.173  1.00  0.00     0.000 C 
BRANCH  18  19
ATOM     19  C   UNL     1      -6.603 -20.062   5.655  1.00  0.00     0.000 C 
BRANCH  19  20
ATOM     20  C   UNL     1      -7.536 -19.180   4.805  1.00  0.00     0.006 C 
BRANCH  20  21
ATOM     21  C   UNL     1      -8.641 -19.979   4.101  1.00  0.00     0.053 C 
BRANCH  21  22
ATOM     22  C   UNL     1      -9.519 -19.081   3.284  1.00  0.00     0.041 C 
ATOM     23  O   UNL     1      -9.620 -17.859   3.578  1.00  0.00    -0.550 OA
ATOM     24  O   UNL     1     -10.209 -19.585   2.188  1.00  0.00    -0.550 OA
ENDBRANCH  21  22
ENDBRANCH  20  21
ENDBRANCH  19  20
ENDBRANCH  18  19
ENDBRANCH  17  18
ENDBRANCH  16  17
ENDBRANCH  15  16
ENDBRANCH  14  15
ENDBRANCH  13  14
ENDBRANCH   1  13
TORSDOF 20
ENDMDL
MODEL 4
REMARK VINA RESULT:    -4.554      2.230      3.241
REMARK INTER + INTRA:         -11.623
REMARK INTER:                  -9.108
REMARK INTRA:                  -2.515
REMARK UNBOUND:                -1.744
REMARK SMILES CCCCCCCCCCCCCCCCCCCCCC(=O)[O-]
REMARK SMILES IDX 12 1 11 2 10 3 9 4 8 5 7 6 6 7 5 8 4 9 3 10 2 11 1 12 13 13
REMARK SMILES IDX 14 14 15 15 16 16 17 17 18 18 19 19 20 20 21 21 22 22 23 23
REMARK SMILES IDX 24 24
REMARK H PARENT
REMARK Flexibility Score: inf
ROOT
ATOM      1  C   UNL     1      -3.880 -16.051   5.482  1.00  0.00     0.000 C 
ENDROOT
BRANCH   1   2
ATOM      2  C   UNL     1      -4.974 -16.416   4.458  1.00  0.00     0.000 C 
BRANCH   2   3
ATOM      3  C   UNL     1      -6.409 -16.131   4.952  1.00  0.00     0.000 C 
BRANCH   3   4
ATOM      4  C   UNL     1      -6.469 -14.959   5.946  1.00  0.00    -0.000 C 
BRANCH   4   5
ATOM      5  C   UNL     1      -7.233 -13.742   5.391  1.00  0.00    -0.000 C 
BRANCH   5   6
ATOM      6  C   UNL     1      -8.690 -14.020   4.979  1.00  0.00    -0.000 C 
BRANCH   6   7
ATOM      7  C   UNL     1      -9.696 -13.119   5.713  1.00  0.00    -0.000 C 
BRANCH   7   8
ATOM      8  C   UNL     1      -9.028 -11.893   6.357  1.00  0.00    -0.000 C 
BRANCH   8   9
ATOM      9  C   UNL     1     -10.007 -10.722   6.609  1.00  0.00    -0.000 C 
BRANCH   9  10
ATOM     10  C   UNL     1     -11.450 -11.212   6.798  1.00  0.00    -0.000 C 
BRANCH  10  11
ATOM     11  C   UNL     1     -12.452 -10.236   6.169  1.00  0.00    -0.003 C 
ATOM     12  C   UNL     1     -13.821 -10.347   6.833  1.00  0.00     0.004 C 
ENDBRANCH  10  11
ENDBRANCH   9  10
ENDBRANCH   8   9
ENDBRANCH   7   8
ENDBRANCH   6   7
ENDBRANCH   5   6
ENDBRANCH   4   5
ENDBRANCH   3   4
ENDBRANCH   2   3
ENDBRANCH   1   2
BRANCH   1  13
ATOM     13  C   UNL     1      -2.469 -15.880   4.892  1.00  0.00     0.000 C 
BRANCH  13  14
ATOM     14  C   UNL     1      -1.325 -16.481   5.739  1.00  0.00     0.000 C 
BRANCH  14  15
ATOM     15  C   UNL     1      -0.877 -17.896   5.330  1.00  0.00     0.000 C 
BRANCH  15  16
ATOM     16  C   UNL     1      -1.264 -18.251   3.883  1.00  0.00     0.000 C 
BRANCH  16  17
ATOM     17  C   UNL     1      -2.027 -19.581   3.785  1.00  0.00     0.000 C 
BRANCH  17  18
ATOM     18  C   UNL     1      -2.650 -20.012   5.125  1.00  0.00     0.000 C 
BRANCH  18  19
ATOM     19  C   UNL     1      -4.173 -19.785   5.178  1.00  0.00     0.000 C 
BRANCH  19  20
ATOM     20  C   UNL     1      -4.765 -19.688   6.597  1.00  0.00     0.006 C 
BRANCH  20  21
ATOM     21  C   UNL     1      -3.828 -18.991   7.592  1.00  0.00     0.053 C 
BRANCH  21  22
ATOM     22  C   UNL     1      -4.580 -18.022   8.453  1.00  0.00     0.041 C 
ATOM     23  O   UNL     1      -5.748 -17.670   8.135  1.00  0.00    -0.550 OA
ATOM     24  O   UNL     1      -4.003 -17.524   9.614  1.00  0.00    -0.550 OA
ENDBRANCH  21  22
ENDBRANCH  20  21
ENDBRANCH  19  20
ENDBRANCH  18  19
ENDBRANCH  17  18
ENDBRANCH  16  17
ENDBRANCH  15  16
ENDBRANCH  14  15
ENDBRANCH  13  14
ENDBRANCH   1  13
TORSDOF 20
ENDMDL
MODEL 5
REMARK VINA RESULT:    -4.552      3.144      8.656
REMARK INTER + INTRA:         -11.619
REMARK INTER:                  -9.507
REMARK INTRA:                  -2.113
REMARK UNBOUND:                -1.744
REMARK SMILES CCCCCCCCCCCCCCCCCCCCCC(=O)[O-]
REMARK SMILES IDX 12 1 11 2 10 3 9 4 8 5 7 6 6 7 5 8 4 9 3 10 2 11 1 12 13 13
REMARK SMILES IDX 14 14 15 15 16 16 17 17 18 18 19 19 20 20 21 21 22 22 23 23
REMARK SMILES IDX 24 24
REMARK H PARENT
REMARK Flexibility Score: inf
ROOT
ATOM      1  C   UNL     1      -3.018 -16.758   3.642  1.00  0.00     0.000 C 
ENDROOT
BRANCH   1   2
ATOM      2  C   UNL     1      -1.998 -16.347   4.723  1.00  0.00     0.000 C 
BRANCH   2   3
ATOM      3  C   UNL     1      -1.410 -17.538   5.511  1.00  0.00     0.000 C 
BRANCH   3   4
ATOM      4  C   UNL     1      -1.930 -17.604   6.957  1.00  0.00    -0.000 C 
BRANCH   4   5
ATOM      5  C   UNL     1      -2.876 -18.794   7.200  1.00  0.00    -0.000 C 
BRANCH   5   6
ATOM      6  C   UNL     1      -4.274 -18.417   7.726  1.00  0.00    -0.000 C 
BRANCH   6   7
ATOM      7  C   UNL     1      -5.319 -19.515   7.468  1.00  0.00    -0.000 C 
BRANCH   7   8
ATOM      8  C   UNL     1      -6.484 -19.024   6.592  1.00  0.00    -0.000 C 
BRANCH   8   9
ATOM      9  C   UNL     1      -7.056 -20.120   5.663  1.00  0.00    -0.000 C 
BRANCH   9  10
ATOM     10  C   UNL     1      -7.077 -19.674   4.194  1.00  0.00    -0.000 C 
BRANCH  10  11
ATOM     11  C   UNL     1      -8.515 -19.540   3.677  1.00  0.00    -0.003 C 
ATOM     12  C   UNL     1      -9.059 -18.136   3.921  1.00  0.00     0.004 C 
ENDBRANCH  10  11
ENDBRANCH   9  10
ENDBRANCH   8   9
ENDBRANCH   7   8
ENDBRANCH   6   7
ENDBRANCH   5   6
ENDBRANCH   4   5
ENDBRANCH   3   4
ENDBRANCH   2   3
ENDBRANCH   1   2
BRANCH   1  13
ATOM     13  C   UNL     1      -4.437 -17.048   4.165  1.00  0.00     0.000 C 
BRANCH  13  14
ATOM     14  C   UNL     1      -4.999 -16.001   5.153  1.00  0.00     0.000 C 
BRANCH  14  15
ATOM     15  C   UNL     1      -6.456 -15.573   4.900  1.00  0.00     0.000 C 
BRANCH  15  16
ATOM     16  C   UNL     1      -6.863 -14.327   5.707  1.00  0.00     0.000 C 
BRANCH  16  17
ATOM     17  C   UNL     1      -8.224 -13.762   5.274  1.00  0.00     0.000 C 
BRANCH  17  18
ATOM     18  C   UNL     1      -8.918 -12.957   6.388  1.00  0.00     0.000 C 
BRANCH  18  19
ATOM     19  C   UNL     1     -10.272 -12.368   5.947  1.00  0.00     0.000 C 
BRANCH  19  20
ATOM     20  C   UNL     1     -10.499 -10.897   6.343  1.00  0.00     0.006 C 
BRANCH  20  21
ATOM     21  C   UNL     1     -11.257 -10.743   7.669  1.00  0.00     0.053 C 
BRANCH  21  22
ATOM     22  C   UNL     1     -12.680 -10.337   7.431  1.00  0.00     0.041 C 
ATOM     23  O   UNL     1     -13.429 -10.060   8.406  1.00  0.00    -0.550 OA
ATOM     24  O   UNL     1     -13.174 -10.243   6.136  1.00  0.00    -0.550 OA
ENDBRANCH  21  22
ENDBRANCH  20  21
ENDBRANCH  19  20
ENDBRANCH  18  19
ENDBRANCH  17  18
ENDBRANCH  16  17
ENDBRANCH  15  16
ENDBRANCH  14  15
ENDBRANCH  13  14
ENDBRANCH   1  13
TORSDOF 20
ENDMDL
MODEL 6
REMARK VINA RESULT:    -4.552     11.646     13.252
REMARK INTER + INTRA:         -11.619
REMARK INTER:                  -8.896
REMARK INTRA:                  -2.723
REMARK UNBOUND:                -1.744
REMARK SMILES CCCCCCCCCCCCCCCCCCCCCC(=O)[O-]
REMARK SMILES IDX 12 1 11 2 10 3 9 4 8 5 7 6 6 7 5 8 4 9 3 10 2 11 1 12 13 13
REMARK SMILES IDX 14 14 15 15 16 16 17 17 18 18 19 19 20 20 21 21 22 22 23 23
REMARK SMILES IDX 24 24
REMARK H PARENT
REMARK Flexibility Score: inf
ROOT
ATOM      1  C   UNL     1      -8.438 -17.844  16.113  1.00  0.00     0.000 C 
ENDROOT
BRANCH   1   2
ATOM      2  C   UNL     1      -9.515 -17.150  16.972  1.00  0.00     0.000 C 
BRANCH   2   3
ATOM      3  C   UNL     1      -8.995 -16.652  18.339  1.00  0.00     0.000 C 
BRANCH   3   4
ATOM      4  C   UNL     1     -10.094 -16.631  19.415  1.00  0.00    -0.000 C 
BRANCH   4   5
ATOM      5  C   UNL     1     -11.508 -16.807  18.831  1.00  0.00    -0.000 C 
BRANCH   5   6
ATOM      6  C   UNL     1     -12.434 -17.735  19.639  1.00  0.00    -0.000 C 
BRANCH   6   7
ATOM      7  C   UNL     1     -12.743 -19.050  18.904  1.00  0.00    -0.000 C 
BRANCH   7   8
ATOM      8  C   UNL     1     -11.690 -20.137  19.175  1.00  0.00    -0.000 C 
BRANCH   8   9
ATOM      9  C   UNL     1     -10.859 -20.511  17.926  1.00  0.00    -0.000 C 
BRANCH   9  10
ATOM     10  C   UNL     1     -11.610 -20.204  16.623  1.00  0.00    -0.000 C 
BRANCH  10  11
ATOM     11  C   UNL     1     -10.930 -20.871  15.422  1.00  0.00    -0.003 C 
ATOM     12  C   UNL     1     -10.910 -19.940  14.213  1.00  0.00     0.004 C 
ENDBRANCH  10  11
ENDBRANCH   9  10
ENDBRANCH   8   9
ENDBRANCH   7   8
ENDBRANCH   6   7
ENDBRANCH   5   6
ENDBRANCH   4   5
ENDBRANCH   3   4
ENDBRANCH   2   3
ENDBRANCH   1   2
BRANCH   1  13
ATOM     13  C   UNL     1      -7.644 -18.948  16.835  1.00  0.00     0.000 C 
BRANCH  13  14
ATOM     14  C   UNL     1      -6.172 -19.096  16.389  1.00  0.00     0.000 C 
BRANCH  14  15
ATOM     15  C   UNL     1      -5.788 -20.483  15.842  1.00  0.00     0.000 C 
BRANCH  15  16
ATOM     16  C   UNL     1      -6.875 -21.545  16.086  1.00  0.00     0.000 C 
BRANCH  16  17
ATOM     17  C   UNL     1      -7.487 -22.074  14.779  1.00  0.00     0.000 C 
BRANCH  17  18
ATOM     18  C   UNL     1      -6.867 -23.408  14.327  1.00  0.00     0.000 C 
BRANCH  18  19
ATOM     19  C   UNL     1      -6.090 -24.121  15.450  1.00  0.00     0.000 C 
BRANCH  19  20
ATOM     20  C   UNL     1      -4.710 -24.666  15.039  1.00  0.00     0.006 C 
BRANCH  20  21
ATOM     21  C   UNL     1      -4.754 -26.132  14.587  1.00  0.00     0.053 C 
BRANCH  21  22
ATOM     22  C   UNL     1      -3.395 -26.759  14.658  1.00  0.00     0.041 C 
ATOM     23  O   UNL     1      -3.261 -27.999  14.471  1.00  0.00    -0.550 OA
ATOM     24  O   UNL     1      -2.275 -25.976  14.909  1.00  0.00    -0.550 OA
ENDBRANCH  21  22
ENDBRANCH  20  21
ENDBRANCH  19  20
ENDBRANCH  18  19
ENDBRANCH  17  18
ENDBRANCH  16  17
ENDBRANCH  15  16
ENDBRANCH  14  15
ENDBRANCH  13  14
ENDBRANCH   1  13
TORSDOF 20
ENDMDL
MODEL 7
REMARK VINA RESULT:    -4.548      3.286      8.380
REMARK INTER + INTRA:         -11.609
REMARK INTER:                  -9.033
REMARK INTRA:                  -2.577
REMARK UNBOUND:                -1.744
REMARK SMILES CCCCCCCCCCCCCCCCCCCCCC(=O)[O-]
REMARK SMILES IDX 12 1 11 2 10 3 9 4 8 5 7 6 6 7 5 8 4 9 3 10 2 11 1 12 13 13
REMARK SMILES IDX 14 14 15 15 16 16 17 17 18 18 19 19 20 20 21 21 22 22 23 23
REMARK SMILES IDX 24 24
REMARK H PARENT
REMARK Flexibility Score: inf
ROOT
ATOM      1  C   UNL     1      -2.614 -16.042   4.384  1.00  0.00     0.000 C 
ENDROOT
BRANCH   1   2
ATOM      2  C   UNL     1      -2.879 -17.328   3.574  1.00  0.00     0.000 C 
BRANCH   2   3
ATOM      3  C   UNL     1      -1.706 -18.332   3.599  1.00  0.00     0.000 C 
BRANCH   3   4
ATOM      4  C   UNL     1      -2.071 -19.648   4.307  1.00  0.00    -0.000 C 
BRANCH   4   5
ATOM      5  C   UNL     1      -2.170 -19.497   5.837  1.00  0.00    -0.000 C 
BRANCH   5   6
ATOM      6  C   UNL     1      -3.529 -19.894   6.443  1.00  0.00    -0.000 C 
BRANCH   6   7
ATOM      7  C   UNL     1      -4.582 -20.224   5.372  1.00  0.00    -0.000 C 
BRANCH   7   8
ATOM      8  C   UNL     1      -6.011 -19.886   5.827  1.00  0.00    -0.000 C 
BRANCH   8   9
ATOM      9  C   UNL     1      -6.999 -19.690   4.653  1.00  0.00    -0.000 C 
BRANCH   9  10
ATOM     10  C   UNL     1      -7.698 -18.325   4.713  1.00  0.00    -0.000 C 
BRANCH  10  11
ATOM     11  C   UNL     1      -8.992 -18.331   3.890  1.00  0.00    -0.003 C 
ATOM     12  C   UNL     1      -9.193 -19.670   3.188  1.00  0.00     0.004 C 
ENDBRANCH  10  11
ENDBRANCH   9  10
ENDBRANCH   8   9
ENDBRANCH   7   8
ENDBRANCH   6   7
ENDBRANCH   5   6
ENDBRANCH   4   5
ENDBRANCH   3   4
ENDBRANCH   2   3
ENDBRANCH   1   2
BRANCH   1  13
ATOM     13  C   UNL     1      -3.266 -16.008   5.778  1.00  0.00     0.000 C 
BRANCH  13  14
ATOM     14  C   UNL     1      -4.744 -16.456   5.823  1.00  0.00     0.000 C 
BRANCH  14  15
ATOM     15  C   UNL     1      -5.551 -15.941   7.030  1.00  0.00     0.000 C 
BRANCH  15  16
ATOM     16  C   UNL     1      -6.531 -14.815   6.658  1.00  0.00     0.000 C 
BRANCH  16  17
ATOM     17  C   UNL     1      -6.855 -14.785   5.156  1.00  0.00     0.000 C 
BRANCH  17  18
ATOM     18  C   UNL     1      -7.874 -13.693   4.786  1.00  0.00     0.000 C 
BRANCH  18  19
ATOM     19  C   UNL     1      -8.482 -12.998   6.019  1.00  0.00     0.000 C 
BRANCH  19  20
ATOM     20  C   UNL     1     -10.021 -12.997   6.070  1.00  0.00     0.006 C 
BRANCH  20  21
ATOM     21  C   UNL     1     -10.625 -11.591   5.946  1.00  0.00     0.053 C 
BRANCH  21  22
ATOM     22  C   UNL     1     -10.266 -10.744   7.129  1.00  0.00     0.041 C 
ATOM     23  O   UNL     1     -10.657 -11.071   8.281  1.00  0.00    -0.550 OA
ATOM     24  O   UNL     1      -9.483  -9.608   6.964  1.00  0.00    -0.550 OA
ENDBRANCH  21  22
ENDBRANCH  20  21
ENDBRANCH  19  20
ENDBRANCH  18  19
ENDBRANCH  17  18
ENDBRANCH  16  17
ENDBRANCH  15  16
ENDBRANCH  14  15
ENDBRANCH  13  14
ENDBRANCH   1  13
TORSDOF 20
ENDMDL
MODEL 8
REMARK VINA RESULT:    -4.486     10.885     14.692
REMARK INTER + INTRA:         -11.476
REMARK INTER:                  -8.294
REMARK INTRA:                  -3.181
REMARK UNBOUND:                -1.744
REMARK SMILES CCCCCCCCCCCCCCCCCCCCCC(=O)[O-]
REMARK SMILES IDX 12 1 11 2 10 3 9 4 8 5 7 6 6 7 5 8 4 9 3 10 2 11 1 12 13 13
REMARK SMILES IDX 14 14 15 15 16 16 17 17 18 18 19 19 20 20 21 21 22 22 23 23
REMARK SMILES IDX 24 24
REMARK H PARENT
REMARK Flexibility Score: inf
ROOT
ATOM      1  C   UNL     1      -5.851 -25.968  12.066  1.00  0.00     0.000 C 
ENDROOT
BRANCH   1   2
ATOM      2  C   UNL     1      -6.478 -27.006  13.019  1.00  0.00     0.000 C 
BRANCH   2   3
ATOM      3  C   UNL     1      -5.599 -28.256  13.243  1.00  0.00     0.000 C 
BRANCH   3   4
ATOM      4  C   UNL     1      -4.100 -27.920  13.307  1.00  0.00    -0.000 C 
BRANCH   4   5
ATOM      5  C   UNL     1      -3.548 -27.915  14.745  1.00  0.00    -0.000 C 
BRANCH   5   6
ATOM      6  C   UNL     1      -2.746 -26.659  15.131  1.00  0.00    -0.000 C 
BRANCH   6   7
ATOM      7  C   UNL     1      -2.407 -25.777  13.917  1.00  0.00    -0.000 C 
BRANCH   7   8
ATOM      8  C   UNL     1      -2.145 -24.313  14.308  1.00  0.00    -0.000 C 
BRANCH   8   9
ATOM      9  C   UNL     1      -2.421 -23.314  13.160  1.00  0.00    -0.000 C 
BRANCH   9  10
ATOM     10  C   UNL     1      -3.055 -22.012  13.671  1.00  0.00    -0.000 C 
BRANCH  10  11
ATOM     11  C   UNL     1      -3.723 -21.237  12.529  1.00  0.00    -0.003 C 
ATOM     12  C   UNL     1      -5.164 -20.877  12.877  1.00  0.00     0.004 C 
ENDBRANCH  10  11
ENDBRANCH   9  10
ENDBRANCH   8   9
ENDBRANCH   7   8
ENDBRANCH   6   7
ENDBRANCH   5   6
ENDBRANCH   4   5
ENDBRANCH   3   4
ENDBRANCH   2   3
ENDBRANCH   1   2
BRANCH   1  13
ATOM     13  C   UNL     1      -5.706 -24.552  12.653  1.00  0.00     0.000 C 
BRANCH  13  14
ATOM     14  C   UNL     1      -6.483 -24.303  13.965  1.00  0.00     0.000 C 
BRANCH  14  15
ATOM     15  C   UNL     1      -5.620 -24.238  15.238  1.00  0.00     0.000 C 
BRANCH  15  16
ATOM     16  C   UNL     1      -6.297 -23.460  16.381  1.00  0.00     0.000 C 
BRANCH  16  17
ATOM     17  C   UNL     1      -6.453 -21.964  16.067  1.00  0.00     0.000 C 
BRANCH  17  18
ATOM     18  C   UNL     1      -7.858 -21.428  16.395  1.00  0.00     0.000 C 
BRANCH  18  19
ATOM     19  C   UNL     1      -8.728 -21.220  15.141  1.00  0.00     0.000 C 
BRANCH  19  20
ATOM     20  C   UNL     1     -10.089 -20.546  15.401  1.00  0.00     0.006 C 
BRANCH  20  21
ATOM     21  C   UNL     1     -10.961 -21.321  16.398  1.00  0.00     0.053 C 
BRANCH  21  22
ATOM     22  C   UNL     1     -11.380 -20.446  17.541  1.00  0.00     0.041 C 
ATOM     23  O   UNL     1     -12.324 -19.624  17.393  1.00  0.00    -0.550 OA
ATOM     24  O   UNL     1     -10.744 -20.552  18.771  1.00  0.00    -0.550 OA
ENDBRANCH  21  22
ENDBRANCH  20  21
ENDBRANCH  19  20
ENDBRANCH  18  19
ENDBRANCH  17  18
ENDBRANCH  16  17
ENDBRANCH  15  16
ENDBRANCH  14  15
ENDBRANCH  13  14
ENDBRANCH   1  13
TORSDOF 20
ENDMDL
MODEL 9
REMARK VINA RESULT:    -4.482      3.138      8.275
REMARK INTER + INTRA:         -11.466
REMARK INTER:                  -9.168
REMARK INTRA:                  -2.297
REMARK UNBOUND:                -1.744
REMARK SMILES CCCCCCCCCCCCCCCCCCCCCC(=O)[O-]
REMARK SMILES IDX 12 1 11 2 10 3 9 4 8 5 7 6 6 7 5 8 4 9 3 10 2 11 1 12 13 13
REMARK SMILES IDX 14 14 15 15 16 16 17 17 18 18 19 19 20 20 21 21 22 22 23 23
REMARK SMILES IDX 24 24
REMARK H PARENT
REMARK Flexibility Score: inf
ROOT
ATOM      1  C   UNL     1      -2.370 -17.717   4.364  1.00  0.00     0.000 C 
ENDROOT
BRANCH   1   2
ATOM      2  C   UNL     1      -3.220 -18.968   4.060  1.00  0.00     0.000 C 
BRANCH   2   3
ATOM      3  C   UNL     1      -3.154 -20.049   5.161  1.00  0.00     0.000 C 
BRANCH   3   4
ATOM      4  C   UNL     1      -4.044 -19.713   6.370  1.00  0.00    -0.000 C 
BRANCH   4   5
ATOM      5  C   UNL     1      -5.526 -19.533   5.992  1.00  0.00    -0.000 C 
BRANCH   5   6
ATOM      6  C   UNL     1      -6.516 -19.649   7.166  1.00  0.00    -0.000 C 
BRANCH   6   7
ATOM      7  C   UNL     1      -7.433 -20.877   7.048  1.00  0.00    -0.000 C 
BRANCH   7   8
ATOM      8  C   UNL     1      -7.362 -21.535   5.660  1.00  0.00    -0.000 C 
BRANCH   8   9
ATOM      9  C   UNL     1      -8.731 -22.043   5.152  1.00  0.00    -0.000 C 
BRANCH   9  10
ATOM     10  C   UNL     1      -9.490 -20.962   4.368  1.00  0.00    -0.000 C 
BRANCH  10  11
ATOM     11  C   UNL     1      -8.525 -20.079   3.568  1.00  0.00    -0.003 C 
ATOM     12  C   UNL     1      -8.673 -18.611   3.955  1.00  0.00     0.004 C 
ENDBRANCH  10  11
ENDBRANCH   9  10
ENDBRANCH   8   9
ENDBRANCH   7   8
ENDBRANCH   6   7
ENDBRANCH   5   6
ENDBRANCH   4   5
ENDBRANCH   3   4
ENDBRANCH   2   3
ENDBRANCH   1   2
BRANCH   1  13
ATOM     13  C   UNL     1      -3.098 -16.375   4.170  1.00  0.00     0.000 C 
BRANCH  13  14
ATOM     14  C   UNL     1      -4.577 -16.360   4.616  1.00  0.00     0.000 C 
BRANCH  14  15
ATOM     15  C   UNL     1      -4.827 -15.855   6.049  1.00  0.00     0.000 C 
BRANCH  15  16
ATOM     16  C   UNL     1      -6.223 -15.233   6.230  1.00  0.00     0.000 C 
BRANCH  16  17
ATOM     17  C   UNL     1      -6.889 -14.877   4.891  1.00  0.00     0.000 C 
BRANCH  17  18
ATOM     18  C   UNL     1      -8.027 -13.853   5.044  1.00  0.00     0.000 C 
BRANCH  18  19
ATOM     19  C   UNL     1      -8.210 -13.371   6.495  1.00  0.00     0.000 C 
BRANCH  19  20
ATOM     20  C   UNL     1      -9.058 -12.095   6.654  1.00  0.00     0.006 C 
BRANCH  20  21
ATOM     21  C   UNL     1     -10.405 -12.176   5.922  1.00  0.00     0.053 C 
BRANCH  21  22
ATOM     22  C   UNL     1     -11.241 -10.963   6.198  1.00  0.00     0.041 C 
ATOM     23  O   UNL     1     -10.852  -9.827   5.817  1.00  0.00    -0.550 OA
ATOM     24  O   UNL     1     -12.459 -11.089   6.856  1.00  0.00    -0.550 OA
ENDBRANCH  21  22
ENDBRANCH  20  21
ENDBRANCH  19  20
ENDBRANCH  18  19
ENDBRANCH  17  18
ENDBRANCH  16  17
ENDBRANCH  15  16
ENDBRANCH  14  15
ENDBRANCH  13  14
ENDBRANCH   1  13
TORSDOF 20
ENDMDL
