MODEL 1
REMARK VINA RESULT:     0.413      0.000      0.000
REMARK INTER + INTRA:           0.571
REMARK INTER:                   0.558
REMARK INTRA:                   0.013
REMARK UNBOUND:                 0.013
REMARK SMILES CC[C@H](CC[C@@H](C)[C@H]1CC[C@H]2[C@H]3CC(=O)C4=CC(=O)CC[C@]4(C)[C@H]3CC[C@]12C)C(C)C
REMARK SMILES IDX 4 1 3 2 2 3 1 4 29 5 30 6 31 7 5 8 6 9 7 10 8 11 9 12 27 13
REMARK SMILES IDX 10 14 11 15 26 16 28 17 12 18 25 19 24 20 13 21 22 22 14 23
REMARK SMILES IDX 16 24 21 25 23 26 15 27 17 28 20 29 18 30 19 31
REMARK H PARENT
REMARK Flexibility Score: inf
ROOT
ATOM      1  C   UNL     1      18.129   7.838  18.716  1.00  0.00     0.004 C 
ENDROOT
BRANCH   1   2
ATOM      2  C   UNL     1      18.113   9.300  19.245  1.00  0.00    -0.009 C 
BRANCH   2   3
ATOM      3  C   UNL     1      17.058  10.218  18.557  1.00  0.00     0.000 C 
ATOM      4  C   UNL     1      16.404   9.678  17.283  1.00  0.00     0.004 C 
ENDBRANCH   2   3
BRANCH   2   5
ATOM      5  C   UNL     1      18.112   9.400  20.813  1.00  0.00    -0.014 C 
ATOM      6  C   UNL     1      17.484  10.689  21.380  1.00  0.00     0.007 C 
ATOM      7  C   UNL     1      17.410   8.185  21.451  1.00  0.00     0.007 C 
ENDBRANCH   2   5
ENDBRANCH   1   2
BRANCH   1   8
ATOM      8  C   UNL     1      19.527   7.212  18.528  1.00  0.00     0.004 C 
BRANCH   8   9
ATOM      9  C   UNL     1      19.617   5.910  17.667  1.00  0.00    -0.011 C 
ATOM     10  C   UNL     1      21.084   5.455  17.509  1.00  0.00     0.008 C 
BRANCH   9  11
ATOM     11  C   UNL     1      18.739   4.784  18.324  1.00  0.00    -0.002 C 
ATOM     12  C   UNL     1      18.257   3.742  17.273  1.00  0.00     0.005 C 
ATOM     13  C   UNL     1      19.335   3.904  19.477  1.00  0.00    -0.026 C 
ATOM     14  C   UNL     1      18.102   2.395  17.993  1.00  0.00     0.005 C 
ATOM     15  C   UNL     1      18.311   2.751  19.451  1.00  0.00    -0.001 C 
ATOM     16  C   UNL     1      19.266   4.520  20.901  1.00  0.00     0.007 C 
ATOM     17  C   UNL     1      20.795   3.476  19.127  1.00  0.00     0.012 C 
ATOM     18  C   UNL     1      18.464   1.624  20.498  1.00  0.00     0.004 C 
ATOM     19  C   UNL     1      19.479   3.456  22.015  1.00  0.00     0.005 C 
ATOM     20  C   UNL     1      18.509   2.232  21.933  1.00  0.00     0.003 C 
ATOM     21  C   UNL     1      19.601   0.617  20.274  1.00  0.00     0.085 C 
ATOM     22  C   UNL     1      18.679   1.125  23.085  1.00  0.00    -0.000 C 
ATOM     23  C   UNL     1      19.401  -0.535  21.208  1.00  0.00     0.159 C 
ATOM     24  C   UNL     1      18.740  -0.308  22.515  1.00  0.00     0.005 C 
ATOM     25  C   UNL     1      17.456   1.242  24.053  1.00  0.00     0.020 C 
ATOM     26  C   UNL     1      19.990   1.318  23.899  1.00  0.00     0.017 C 
ATOM     27  O   UNL     1      19.807  -1.679  20.871  1.00  0.00    -0.295 OA
ATOM     28  C   UNL     1      18.283  -1.365  23.213  1.00  0.00     0.055 C 
ATOM     29  C   UNL     1      17.421   0.145  25.124  1.00  0.00     0.081 C 
ATOM     30  C   UNL     1      17.592  -1.208  24.501  1.00  0.00     0.156 C 
ATOM     31  O   UNL     1      17.171  -2.224  25.109  1.00  0.00    -0.295 OA
ENDBRANCH   9  11
ENDBRANCH   8   9
ENDBRANCH   1   8
TORSDOF 6
ENDMDL
MODEL 2
REMARK VINA RESULT:     2.618      1.470      2.932
REMARK INTER + INTRA:           3.549
REMARK INTER:                   4.581
REMARK INTRA:                  -1.032
REMARK UNBOUND:                 0.013
REMARK SMILES CC[C@H](CC[C@@H](C)[C@H]1CC[C@H]2[C@H]3CC(=O)C4=CC(=O)CC[C@]4(C)[C@H]3CC[C@]12C)C(C)C
REMARK SMILES IDX 4 1 3 2 2 3 1 4 29 5 30 6 31 7 5 8 6 9 7 10 8 11 9 12 27 13
REMARK SMILES IDX 10 14 11 15 26 16 28 17 12 18 25 19 24 20 13 21 22 22 14 23
REMARK SMILES IDX 16 24 21 25 23 26 15 27 17 28 20 29 18 30 19 31
REMARK H PARENT
REMARK Flexibility Score: inf
ROOT
ATOM      1  C   UNL     1      17.952   7.812  19.263  1.00  0.00     0.004 C 
ENDROOT
BRANCH   1   2
ATOM      2  C   UNL     1      18.317   9.169  19.930  1.00  0.00    -0.009 C 
BRANCH   2   3
ATOM      3  C   UNL     1      17.869  10.423  19.118  1.00  0.00     0.000 C 
ATOM      4  C   UNL     1      16.733  10.220  18.112  1.00  0.00     0.004 C 
ENDBRANCH   2   3
BRANCH   2   5
ATOM      5  C   UNL     1      17.946   9.238  21.455  1.00  0.00    -0.014 C 
ATOM      6  C   UNL     1      17.544  10.638  21.962  1.00  0.00     0.007 C 
ATOM      7  C   UNL     1      16.820   8.243  21.802  1.00  0.00     0.007 C 
ENDBRANCH   2   5
ENDBRANCH   1   2
BRANCH   1   8
ATOM      8  C   UNL     1      19.124   7.059  18.599  1.00  0.00     0.004 C 
BRANCH   8   9
ATOM      9  C   UNL     1      18.861   5.587  18.143  1.00  0.00    -0.011 C 
ATOM     10  C   UNL     1      19.338   5.366  16.691  1.00  0.00     0.008 C 
BRANCH   9  11
ATOM     11  C   UNL     1      19.572   4.596  19.134  1.00  0.00    -0.002 C 
ATOM     12  C   UNL     1      19.758   5.224  20.545  1.00  0.00     0.005 C 
ATOM     13  C   UNL     1      18.931   3.196  19.430  1.00  0.00    -0.026 C 
ATOM     14  C   UNL     1      19.727   4.082  21.569  1.00  0.00     0.005 C 
ATOM     15  C   UNL     1      19.720   2.837  20.706  1.00  0.00    -0.001 C 
ATOM     16  C   UNL     1      19.239   2.079  18.395  1.00  0.00     0.007 C 
ATOM     17  C   UNL     1      17.391   3.345  19.645  1.00  0.00     0.012 C 
ATOM     18  C   UNL     1      19.456   1.459  21.356  1.00  0.00     0.004 C 
ATOM     19  C   UNL     1      18.936   0.660  18.952  1.00  0.00     0.005 C 
ATOM     20  C   UNL     1      19.652   0.327  20.301  1.00  0.00     0.003 C 
ATOM     21  C   UNL     1      18.138   1.294  22.125  1.00  0.00     0.085 C 
ATOM     22  C   UNL     1      19.386  -1.143  20.893  1.00  0.00    -0.000 C 
ATOM     23  C   UNL     1      18.206   0.019  22.908  1.00  0.00     0.159 C 
ATOM     24  C   UNL     1      19.012  -1.112  22.390  1.00  0.00     0.005 C 
ATOM     25  C   UNL     1      20.691  -1.984  20.706  1.00  0.00     0.020 C 
ATOM     26  C   UNL     1      18.211  -1.864  20.173  1.00  0.00     0.017 C 
ATOM     27  O   UNL     1      17.568  -0.073  23.990  1.00  0.00    -0.295 OA
ATOM     28  C   UNL     1      19.328  -2.126  23.218  1.00  0.00     0.055 C 
ATOM     29  C   UNL     1      20.620  -3.370  21.358  1.00  0.00     0.081 C 
ATOM     30  C   UNL     1      20.148  -3.264  22.777  1.00  0.00     0.156 C 
ATOM     31  O   UNL     1      20.428  -4.181  23.590  1.00  0.00    -0.295 OA
ENDBRANCH   9  11
ENDBRANCH   8   9
ENDBRANCH   1   8
TORSDOF 6
ENDMDL
