MODEL 1
REMARK VINA RESULT:    -4.452      0.000      0.000
REMARK INTER + INTRA:          -5.498
REMARK INTER:                  -5.233
REMARK INTRA:                  -0.265
REMARK UNBOUND:                -0.265
REMARK SMILES O=c1cc(-c2ccc(O)c(O)c2)oc2cc(O)cc(O)c12
REMARK SMILES IDX 4 1 3 2 2 3 1 4 21 5 19 6 18 7 16 8 15 9 14 10 13 11 5 12
REMARK SMILES IDX 6 13 7 14 8 15 12 16 10 17 9 18 11 20 20 22 17 24
REMARK H PARENT 9 19 11 21 20 23 17 25
REMARK Flexibility Score: inf
ROOT
ATOM      1  C   UNL     1      26.389  37.367  24.034  1.00  0.00     0.138 A 
ATOM      2  C   UNL     1      26.608  38.134  22.882  1.00  0.00     0.100 A 
ATOM      3  C   UNL     1      26.851  37.497  21.664  1.00  0.00     0.197 A 
ATOM      4  O   UNL     1      27.105  38.212  20.661  1.00  0.00    -0.289 OA
ATOM      5  C   UNL     1      26.843  36.084  21.596  1.00  0.00     0.107 A 
ATOM      6  C   UNL     1      27.037  35.326  20.402  1.00  0.00     0.134 A 
ATOM      7  C   UNL     1      27.125  33.932  20.475  1.00  0.00     0.093 A 
ATOM      8  C   UNL     1      26.964  33.263  21.692  1.00  0.00     0.123 A 
ATOM      9  C   UNL     1      26.719  33.989  22.854  1.00  0.00     0.094 A 
ATOM     10  C   UNL     1      26.661  35.384  22.819  1.00  0.00     0.146 A 
ATOM     11  O   UNL     1      26.441  36.040  23.954  1.00  0.00    -0.456 OA
ENDROOT
BRANCH   1  12
ATOM     12  C   UNL     1      26.124  37.992  25.355  1.00  0.00     0.021 A 
ATOM     13  C   UNL     1      27.098  37.915  26.363  1.00  0.00     0.016 A 
ATOM     14  C   UNL     1      26.871  38.490  27.614  1.00  0.00     0.051 A 
ATOM     15  C   UNL     1      25.666  39.143  27.892  1.00  0.00     0.157 A 
ATOM     16  C   UNL     1      24.907  38.637  25.638  1.00  0.00     0.062 A 
ATOM     17  C   UNL     1      24.669  39.214  26.891  1.00  0.00     0.158 A 
BRANCH  15  18
ATOM     18  O   UNL     1      25.504  39.702  29.161  1.00  0.00    -0.504 OA
ATOM     19  H   UNL     1      25.771  39.241  30.020  1.00  0.00     0.293 HD
ENDBRANCH  15  18
BRANCH  17  20
ATOM     20  O   UNL     1      23.436  39.836  27.100  1.00  0.00    -0.504 OA
ATOM     21  H   UNL     1      23.216  40.397  27.910  1.00  0.00     0.293 HD
ENDBRANCH  17  20
ENDBRANCH   1  12
BRANCH   6  22
ATOM     22  O   UNL     1      27.125  35.891  19.125  1.00  0.00    -0.507 OA
ATOM     23  H   UNL     1      27.770  35.598  18.408  1.00  0.00     0.293 HD
ENDBRANCH   6  22
BRANCH   8  24
ATOM     24  O   UNL     1      27.037  31.873  21.753  1.00  0.00    -0.508 OA
ATOM     25  H   UNL     1      27.207  31.314  20.925  1.00  0.00     0.293 HD
ENDBRANCH   8  24
TORSDOF 5
ENDMDL
MODEL 2
REMARK VINA RESULT:    -3.862     13.835     15.821
REMARK INTER + INTRA:          -4.805
REMARK INTER:                  -4.487
REMARK INTRA:                  -0.318
REMARK UNBOUND:                -0.265
REMARK SMILES O=c1cc(-c2ccc(O)c(O)c2)oc2cc(O)cc(O)c12
REMARK SMILES IDX 4 1 3 2 2 3 1 4 21 5 19 6 18 7 16 8 15 9 14 10 13 11 5 12
REMARK SMILES IDX 6 13 7 14 8 15 12 16 10 17 9 18 11 20 20 22 17 24
REMARK H PARENT 9 19 11 21 20 23 17 25
REMARK Flexibility Score: inf
ROOT
ATOM      1  C   UNL     1      26.856  22.133  18.283  1.00  0.00     0.138 A 
ATOM      2  C   UNL     1      26.762  21.218  17.226  1.00  0.00     0.100 A 
ATOM      3  C   UNL     1      26.766  21.681  15.909  1.00  0.00     0.197 A 
ATOM      4  O   UNL     1      26.617  20.842  14.984  1.00  0.00    -0.289 OA
ATOM      5  C   UNL     1      26.898  23.067  15.651  1.00  0.00     0.107 A 
ATOM      6  C   UNL     1      26.956  23.650  14.350  1.00  0.00     0.134 A 
ATOM      7  C   UNL     1      26.971  25.043  14.218  1.00  0.00     0.093 A 
ATOM      8  C   UNL     1      26.990  25.874  15.341  1.00  0.00     0.123 A 
ATOM      9  C   UNL     1      26.988  25.313  16.616  1.00  0.00     0.094 A 
ATOM     10  C   UNL     1      26.939  23.927  16.781  1.00  0.00     0.146 A 
ATOM     11  O   UNL     1      26.924  23.434  18.016  1.00  0.00    -0.456 OA
ENDROOT
BRANCH   1  12
ATOM     12  C   UNL     1      26.857  21.695  19.702  1.00  0.00     0.021 A 
ATOM     13  C   UNL     1      26.684  20.335  20.005  1.00  0.00     0.016 A 
ATOM     14  C   UNL     1      26.676  19.899  21.331  1.00  0.00     0.051 A 
ATOM     15  C   UNL     1      26.827  20.809  22.383  1.00  0.00     0.157 A 
ATOM     16  C   UNL     1      26.995  22.612  20.760  1.00  0.00     0.062 A 
ATOM     17  C   UNL     1      26.984  22.184  22.093  1.00  0.00     0.158 A 
BRANCH  15  18
ATOM     18  O   UNL     1      26.815  20.307  23.686  1.00  0.00    -0.504 OA
ATOM     19  H   UNL     1      27.545  20.477  24.363  1.00  0.00     0.293 HD
ENDBRANCH  15  18
BRANCH  17  20
ATOM     20  O   UNL     1      27.125  23.153  23.090  1.00  0.00    -0.504 OA
ATOM     21  H   UNL     1      27.080  22.955  24.079  1.00  0.00     0.293 HD
ENDBRANCH  17  20
ENDBRANCH   1  12
BRANCH   6  22
ATOM     22  O   UNL     1      27.027  22.909  13.166  1.00  0.00    -0.507 OA
ATOM     23  H   UNL     1      27.763  22.987  12.480  1.00  0.00     0.293 HD
ENDBRANCH   6  22
BRANCH   8  24
ATOM     24  O   UNL     1      27.019  27.259  15.200  1.00  0.00    -0.508 OA
ATOM     25  H   UNL     1      26.525  27.869  15.840  1.00  0.00     0.293 HD
ENDBRANCH   8  24
TORSDOF 5
ENDMDL
MODEL 3
REMARK VINA RESULT:    -1.881      1.624      7.102
REMARK INTER + INTRA:          -2.476
REMARK INTER:                  -2.212
REMARK INTRA:                  -0.264
REMARK UNBOUND:                -0.265
REMARK SMILES O=c1cc(-c2ccc(O)c(O)c2)oc2cc(O)cc(O)c12
REMARK SMILES IDX 4 1 3 2 2 3 1 4 21 5 19 6 18 7 16 8 15 9 14 10 13 11 5 12
REMARK SMILES IDX 6 13 7 14 8 15 12 16 10 17 9 18 11 20 20 22 17 24
REMARK H PARENT 9 19 11 21 20 23 17 25
REMARK Flexibility Score: inf
ROOT
ATOM      1  C   UNL     1      25.374  37.617  24.480  1.00  0.00     0.138 A 
ATOM      2  C   UNL     1      24.231  38.420  24.594  1.00  0.00     0.100 A 
ATOM      3  C   UNL     1      23.872  38.940  25.839  1.00  0.00     0.197 A 
ATOM      4  O   UNL     1      22.808  39.605  25.920  1.00  0.00    -0.289 OA
ATOM      5  C   UNL     1      24.683  38.678  26.969  1.00  0.00     0.107 A 
ATOM      6  C   UNL     1      24.439  39.189  28.280  1.00  0.00     0.134 A 
ATOM      7  C   UNL     1      25.243  38.768  29.345  1.00  0.00     0.093 A 
ATOM      8  C   UNL     1      26.320  37.903  29.137  1.00  0.00     0.123 A 
ATOM      9  C   UNL     1      26.600  37.442  27.853  1.00  0.00     0.094 A 
ATOM     10  C   UNL     1      25.795  37.816  26.775  1.00  0.00     0.146 A 
ATOM     11  O   UNL     1      26.088  37.341  25.568  1.00  0.00    -0.456 OA
ENDROOT
BRANCH   1  12
ATOM     12  C   UNL     1      25.801  37.040  23.181  1.00  0.00     0.021 A 
ATOM     13  C   UNL     1      26.651  37.779  22.342  1.00  0.00     0.016 A 
ATOM     14  C   UNL     1      27.062  37.261  21.113  1.00  0.00     0.051 A 
ATOM     15  C   UNL     1      26.627  36.002  20.688  1.00  0.00     0.157 A 
ATOM     16  C   UNL     1      25.352  35.780  22.747  1.00  0.00     0.062 A 
ATOM     17  C   UNL     1      25.757  35.253  21.514  1.00  0.00     0.158 A 
BRANCH  15  18
ATOM     18  O   UNL     1      27.080  35.539  19.451  1.00  0.00    -0.504 OA
ATOM     19  H   UNL     1      27.750  36.029  18.875  1.00  0.00     0.293 HD
ENDBRANCH  15  18
BRANCH  17  20
ATOM     20  O   UNL     1      25.268  33.996  21.150  1.00  0.00    -0.504 OA
ATOM     21  H   UNL     1      25.812  33.299  20.662  1.00  0.00     0.293 HD
ENDBRANCH  17  20
ENDBRANCH   1  12
BRANCH   6  22
ATOM     22  O   UNL     1      23.442  40.123  28.580  1.00  0.00    -0.507 OA
ATOM     23  H   UNL     1      22.961  40.188  29.463  1.00  0.00     0.293 HD
ENDBRANCH   6  22
BRANCH   8  24
ATOM     24  O   UNL     1      27.125  37.502  30.201  1.00  0.00    -0.508 OA
ATOM     25  H   UNL     1      27.666  36.646  30.164  1.00  0.00     0.293 HD
ENDBRANCH   8  24
TORSDOF 5
ENDMDL
