MODEL 1
REMARK VINA RESULT:    -3.823      0.000      0.000
REMARK INTER + INTRA:          -9.119
REMARK INTER:                  -6.729
REMARK INTRA:                  -2.390
REMARK UNBOUND:                -2.390
REMARK SMILES CCCCCCCCCCCCCCC(=O)[O-]
REMARK SMILES IDX 9 1 10 2 11 3 12 4 13 5 14 6 15 7 16 8 17 9 8 10 7 11 6 12
REMARK SMILES IDX 5 13 4 14 3 15 2 16 1 17
REMARK H PARENT
REMARK Flexibility Score: inf
ROOT
ATOM      1  C   UNL     1      13.912 -36.224  -1.360  1.00  0.00     0.000 C 
ENDROOT
BRANCH   1   2
ATOM      2  C   UNL     1      13.875 -35.961   0.154  1.00  0.00     0.000 C 
BRANCH   2   3
ATOM      3  C   UNL     1      14.879 -36.860   0.889  1.00  0.00     0.000 C 
BRANCH   3   4
ATOM      4  C   UNL     1      14.773 -38.340   0.477  1.00  0.00     0.000 C 
BRANCH   4   5
ATOM      5  C   UNL     1      15.969 -39.216   0.890  1.00  0.00     0.006 C 
BRANCH   5   6
ATOM      6  C   UNL     1      17.136 -38.403   1.464  1.00  0.00     0.053 C 
BRANCH   6   7
ATOM      7  C   UNL     1      18.442 -38.959   0.994  1.00  0.00     0.041 C 
ATOM      8  O   UNL     1      18.577 -40.198   0.813  1.00  0.00    -0.550 OA
ATOM      9  O   UNL     1      19.529 -38.115   0.799  1.00  0.00    -0.550 OA
ENDBRANCH   6   7
ENDBRANCH   5   6
ENDBRANCH   4   5
ENDBRANCH   3   4
ENDBRANCH   2   3
ENDBRANCH   1   2
BRANCH   1  10
ATOM     10  C   UNL     1      13.965 -34.929  -2.190  1.00  0.00     0.000 C 
BRANCH  10  11
ATOM     11  C   UNL     1      14.586 -33.717  -1.469  1.00  0.00    -0.000 C 
BRANCH  11  12
ATOM     12  C   UNL     1      15.700 -32.986  -2.248  1.00  0.00    -0.000 C 
BRANCH  12  13
ATOM     13  C   UNL     1      17.114 -33.563  -2.054  1.00  0.00    -0.000 C 
BRANCH  13  14
ATOM     14  C   UNL     1      17.331 -34.289  -0.713  1.00  0.00    -0.000 C 
BRANCH  14  15
ATOM     15  C   UNL     1      17.720 -35.777  -0.873  1.00  0.00    -0.000 C 
BRANCH  15  16
ATOM     16  C   UNL     1      17.583 -36.300  -2.314  1.00  0.00    -0.003 C 
ATOM     17  C   UNL     1      17.101 -37.749  -2.369  1.00  0.00     0.004 C 
ENDBRANCH  15  16
ENDBRANCH  14  15
ENDBRANCH  13  14
ENDBRANCH  12  13
ENDBRANCH  11  12
ENDBRANCH  10  11
ENDBRANCH   1  10
TORSDOF 13
ENDMDL
MODEL 2
REMARK VINA RESULT:    -3.692      1.220      3.511
REMARK INTER + INTRA:          -8.887
REMARK INTER:                  -6.628
REMARK INTRA:                  -2.259
REMARK UNBOUND:                -2.390
REMARK SMILES CCCCCCCCCCCCCCC(=O)[O-]
REMARK SMILES IDX 9 1 10 2 11 3 12 4 13 5 14 6 15 7 16 8 17 9 8 10 7 11 6 12
REMARK SMILES IDX 5 13 4 14 3 15 2 16 1 17
REMARK H PARENT
REMARK Flexibility Score: inf
ROOT
ATOM      1  C   UNL     1      17.409 -34.385  -0.801  1.00  0.00     0.000 C 
ENDROOT
BRANCH   1   2
ATOM      2  C   UNL     1      17.518 -35.253   0.463  1.00  0.00     0.000 C 
BRANCH   2   3
ATOM      3  C   UNL     1      16.225 -35.184   1.287  1.00  0.00     0.000 C 
BRANCH   3   4
ATOM      4  C   UNL     1      15.788 -36.554   1.835  1.00  0.00     0.000 C 
BRANCH   4   5
ATOM      5  C   UNL     1      16.942 -37.501   2.211  1.00  0.00     0.006 C 
BRANCH   5   6
ATOM      6  C   UNL     1      17.078 -38.689   1.250  1.00  0.00     0.053 C 
BRANCH   6   7
ATOM      7  C   UNL     1      18.503 -39.134   1.167  1.00  0.00     0.041 C 
ATOM      8  O   UNL     1      18.834 -40.283   1.562  1.00  0.00    -0.550 OA
ATOM      9  O   UNL     1      19.478 -38.264   0.694  1.00  0.00    -0.550 OA
ENDBRANCH   6   7
ENDBRANCH   5   6
ENDBRANCH   4   5
ENDBRANCH   3   4
ENDBRANCH   2   3
ENDBRANCH   1   2
BRANCH   1  10
ATOM     10  C   UNL     1      17.458 -35.211  -2.099  1.00  0.00     0.000 C 
BRANCH  10  11
ATOM     11  C   UNL     1      17.742 -36.713  -1.905  1.00  0.00    -0.000 C 
BRANCH  11  12
ATOM     12  C   UNL     1      16.597 -37.660  -2.322  1.00  0.00    -0.000 C 
BRANCH  12  13
ATOM     13  C   UNL     1      15.246 -37.389  -1.633  1.00  0.00    -0.000 C 
BRANCH  13  14
ATOM     14  C   UNL     1      14.028 -37.434  -2.574  1.00  0.00    -0.000 C 
BRANCH  14  15
ATOM     15  C   UNL     1      13.221 -36.115  -2.602  1.00  0.00    -0.000 C 
BRANCH  15  16
ATOM     16  C   UNL     1      13.774 -35.032  -1.660  1.00  0.00    -0.003 C 
ATOM     17  C   UNL     1      14.016 -33.702  -2.374  1.00  0.00     0.004 C 
ENDBRANCH  15  16
ENDBRANCH  14  15
ENDBRANCH  13  14
ENDBRANCH  12  13
ENDBRANCH  11  12
ENDBRANCH  10  11
ENDBRANCH   1  10
TORSDOF 13
ENDMDL
MODEL 3
REMARK VINA RESULT:    -3.566      0.977      2.548
REMARK INTER + INTRA:          -8.667
REMARK INTER:                  -6.396
REMARK INTRA:                  -2.271
REMARK UNBOUND:                -2.390
REMARK SMILES CCCCCCCCCCCCCCC(=O)[O-]
REMARK SMILES IDX 9 1 10 2 11 3 12 4 13 5 14 6 15 7 16 8 17 9 8 10 7 11 6 12
REMARK SMILES IDX 5 13 4 14 3 15 2 16 1 17
REMARK H PARENT
REMARK Flexibility Score: inf
ROOT
ATOM      1  C   UNL     1      14.095 -37.649  -1.282  1.00  0.00     0.000 C 
ENDROOT
BRANCH   1   2
ATOM      2  C   UNL     1      14.017 -36.459  -0.313  1.00  0.00     0.000 C 
BRANCH   2   3
ATOM      3  C   UNL     1      14.018 -36.939   1.145  1.00  0.00     0.000 C 
BRANCH   3   4
ATOM      4  C   UNL     1      14.731 -38.291   1.331  1.00  0.00     0.000 C 
BRANCH   4   5
ATOM      5  C   UNL     1      16.241 -38.195   1.618  1.00  0.00     0.006 C 
BRANCH   5   6
ATOM      6  C   UNL     1      17.046 -39.327   0.969  1.00  0.00     0.053 C 
BRANCH   6   7
ATOM      7  C   UNL     1      18.513 -39.076   1.113  1.00  0.00     0.041 C 
ATOM      8  O   UNL     1      19.211 -38.791   0.104  1.00  0.00    -0.550 OA
ATOM      9  O   UNL     1      19.121 -39.200   2.356  1.00  0.00    -0.550 OA
ENDBRANCH   6   7
ENDBRANCH   5   6
ENDBRANCH   4   5
ENDBRANCH   3   4
ENDBRANCH   2   3
ENDBRANCH   1   2
BRANCH   1  10
ATOM     10  C   UNL     1      15.033 -37.388  -2.474  1.00  0.00     0.000 C 
BRANCH  10  11
ATOM     11  C   UNL     1      16.518 -37.706  -2.217  1.00  0.00    -0.000 C 
BRANCH  11  12
ATOM     12  C   UNL     1      17.458 -36.482  -2.185  1.00  0.00    -0.000 C 
BRANCH  12  13
ATOM     13  C   UNL     1      17.661 -35.854  -0.794  1.00  0.00    -0.000 C 
BRANCH  13  14
ATOM     14  C   UNL     1      17.105 -34.425  -0.649  1.00  0.00    -0.000 C 
BRANCH  14  15
ATOM     15  C   UNL     1      16.966 -33.677  -1.996  1.00  0.00    -0.000 C 
BRANCH  15  16
ATOM     16  C   UNL     1      15.724 -32.773  -2.074  1.00  0.00    -0.003 C 
ATOM     17  C   UNL     1      14.449 -33.554  -2.394  1.00  0.00     0.004 C 
ENDBRANCH  15  16
ENDBRANCH  14  15
ENDBRANCH  13  14
ENDBRANCH  12  13
ENDBRANCH  11  12
ENDBRANCH  10  11
ENDBRANCH   1  10
TORSDOF 13
ENDMDL
MODEL 4
REMARK VINA RESULT:    -3.560      2.162      3.837
REMARK INTER + INTRA:          -8.656
REMARK INTER:                  -6.224
REMARK INTRA:                  -2.431
REMARK UNBOUND:                -2.390
REMARK SMILES CCCCCCCCCCCCCCC(=O)[O-]
REMARK SMILES IDX 9 1 10 2 11 3 12 4 13 5 14 6 15 7 16 8 17 9 8 10 7 11 6 12
REMARK SMILES IDX 5 13 4 14 3 15 2 16 1 17
REMARK H PARENT
REMARK Flexibility Score: inf
ROOT
ATOM      1  C   UNL     1      15.148 -33.866  -2.025  1.00  0.00     0.000 C 
ENDROOT
BRANCH   1   2
ATOM      2  C   UNL     1      14.468 -33.869  -0.647  1.00  0.00     0.000 C 
BRANCH   2   3
ATOM      3  C   UNL     1      13.887 -35.253  -0.326  1.00  0.00     0.000 C 
BRANCH   3   4
ATOM      4  C   UNL     1      13.449 -36.025  -1.584  1.00  0.00     0.000 C 
BRANCH   4   5
ATOM      5  C   UNL     1      13.692 -37.544  -1.531  1.00  0.00     0.006 C 
BRANCH   5   6
ATOM      6  C   UNL     1      14.110 -38.130  -2.885  1.00  0.00     0.053 C 
BRANCH   6   7
ATOM      7  C   UNL     1      15.060 -39.269  -2.692  1.00  0.00     0.041 C 
ATOM      8  O   UNL     1      15.820 -39.628  -3.630  1.00  0.00    -0.550 OA
ATOM      9  O   UNL     1      15.077 -39.965  -1.489  1.00  0.00    -0.550 OA
ENDBRANCH   6   7
ENDBRANCH   5   6
ENDBRANCH   4   5
ENDBRANCH   3   4
ENDBRANCH   2   3
ENDBRANCH   1   2
BRANCH   1  10
ATOM     10  C   UNL     1      16.624 -33.433  -1.962  1.00  0.00     0.000 C 
BRANCH  10  11
ATOM     11  C   UNL     1      17.646 -34.581  -2.069  1.00  0.00    -0.000 C 
BRANCH  11  12
ATOM     12  C   UNL     1      17.038 -35.990  -2.234  1.00  0.00    -0.000 C 
BRANCH  12  13
ATOM     13  C   UNL     1      18.053 -37.147  -2.166  1.00  0.00    -0.000 C 
BRANCH  13  14
ATOM     14  C   UNL     1      18.077 -37.899  -0.823  1.00  0.00    -0.000 C 
BRANCH  14  15
ATOM     15  C   UNL     1      16.949 -37.472   0.145  1.00  0.00    -0.000 C 
BRANCH  15  16
ATOM     16  C   UNL     1      17.462 -36.839   1.450  1.00  0.00    -0.003 C 
ATOM     17  C   UNL     1      17.257 -35.325   1.487  1.00  0.00     0.004 C 
ENDBRANCH  15  16
ENDBRANCH  14  15
ENDBRANCH  13  14
ENDBRANCH  12  13
ENDBRANCH  11  12
ENDBRANCH  10  11
ENDBRANCH   1  10
TORSDOF 13
ENDMDL
MODEL 5
REMARK VINA RESULT:    -3.487      1.071      2.970
REMARK INTER + INTRA:          -8.526
REMARK INTER:                  -6.544
REMARK INTRA:                  -1.982
REMARK UNBOUND:                -2.390
REMARK SMILES CCCCCCCCCCCCCCC(=O)[O-]
REMARK SMILES IDX 9 1 10 2 11 3 12 4 13 5 14 6 15 7 16 8 17 9 8 10 7 11 6 12
REMARK SMILES IDX 5 13 4 14 3 15 2 16 1 17
REMARK H PARENT
REMARK Flexibility Score: inf
ROOT
ATOM      1  C   UNL     1      17.434 -35.947  -2.143  1.00  0.00     0.000 C 
ENDROOT
BRANCH   1   2
ATOM      2  C   UNL     1      16.196 -36.857  -2.131  1.00  0.00     0.000 C 
BRANCH   2   3
ATOM      3  C   UNL     1      16.490 -38.171  -1.394  1.00  0.00     0.000 C 
BRANCH   3   4
ATOM      4  C   UNL     1      15.503 -38.449  -0.246  1.00  0.00     0.000 C 
BRANCH   4   5
ATOM      5  C   UNL     1      16.148 -38.956   1.057  1.00  0.00     0.006 C 
BRANCH   5   6
ATOM      6  C   UNL     1      17.215 -38.000   1.607  1.00  0.00     0.053 C 
BRANCH   6   7
ATOM      7  C   UNL     1      18.568 -38.633   1.542  1.00  0.00     0.041 C 
ATOM      8  O   UNL     1      18.810 -39.682   2.195  1.00  0.00    -0.550 OA
ATOM      9  O   UNL     1      19.578 -38.041   0.795  1.00  0.00    -0.550 OA
ENDBRANCH   6   7
ENDBRANCH   5   6
ENDBRANCH   4   5
ENDBRANCH   3   4
ENDBRANCH   2   3
ENDBRANCH   1   2
BRANCH   1  10
ATOM     10  C   UNL     1      17.246 -34.671  -1.303  1.00  0.00     0.000 C 
BRANCH  10  11
ATOM     11  C   UNL     1      16.978 -33.390  -2.115  1.00  0.00    -0.000 C 
BRANCH  11  12
ATOM     12  C   UNL     1      15.568 -32.784  -1.944  1.00  0.00    -0.000 C 
BRANCH  12  13
ATOM     13  C   UNL     1      14.424 -33.625  -2.538  1.00  0.00    -0.000 C 
BRANCH  13  14
ATOM     14  C   UNL     1      13.423 -34.168  -1.501  1.00  0.00    -0.000 C 
BRANCH  14  15
ATOM     15  C   UNL     1      13.863 -33.934  -0.037  1.00  0.00    -0.000 C 
BRANCH  15  16
ATOM     16  C   UNL     1      13.977 -35.229   0.786  1.00  0.00    -0.003 C 
ATOM     17  C   UNL     1      15.128 -35.185   1.791  1.00  0.00     0.004 C 
ENDBRANCH  15  16
ENDBRANCH  14  15
ENDBRANCH  13  14
ENDBRANCH  12  13
ENDBRANCH  11  12
ENDBRANCH  10  11
ENDBRANCH   1  10
TORSDOF 13
ENDMDL
MODEL 6
REMARK VINA RESULT:    -3.466      1.333      3.116
REMARK INTER + INTRA:          -8.489
REMARK INTER:                  -6.620
REMARK INTRA:                  -1.870
REMARK UNBOUND:                -2.390
REMARK SMILES CCCCCCCCCCCCCCC(=O)[O-]
REMARK SMILES IDX 9 1 10 2 11 3 12 4 13 5 14 6 15 7 16 8 17 9 8 10 7 11 6 12
REMARK SMILES IDX 5 13 4 14 3 15 2 16 1 17
REMARK H PARENT
REMARK Flexibility Score: inf
ROOT
ATOM      1  C   UNL     1      16.175 -32.998  -2.139  1.00  0.00     0.000 C 
ENDROOT
BRANCH   1   2
ATOM      2  C   UNL     1      17.035 -34.216  -1.768  1.00  0.00     0.000 C 
BRANCH   2   3
ATOM      3  C   UNL     1      16.632 -34.774  -0.396  1.00  0.00     0.000 C 
BRANCH   3   4
ATOM      4  C   UNL     1      17.834 -34.994   0.539  1.00  0.00     0.000 C 
BRANCH   4   5
ATOM      5  C   UNL     1      17.827 -36.332   1.302  1.00  0.00     0.006 C 
BRANCH   5   6
ATOM      6  C   UNL     1      18.626 -37.430   0.589  1.00  0.00     0.053 C 
BRANCH   6   7
ATOM      7  C   UNL     1      18.054 -38.777   0.897  1.00  0.00     0.041 C 
ATOM      8  O   UNL     1      18.778 -39.805   0.831  1.00  0.00    -0.550 OA
ATOM      9  O   UNL     1      16.707 -38.905   1.213  1.00  0.00    -0.550 OA
ENDBRANCH   6   7
ENDBRANCH   5   6
ENDBRANCH   4   5
ENDBRANCH   3   4
ENDBRANCH   2   3
ENDBRANCH   1   2
BRANCH   1  10
ATOM     10  C   UNL     1      14.715 -33.134  -1.671  1.00  0.00     0.000 C 
BRANCH  10  11
ATOM     11  C   UNL     1      13.714 -33.547  -2.767  1.00  0.00    -0.000 C 
BRANCH  11  12
ATOM     12  C   UNL     1      13.179 -34.991  -2.661  1.00  0.00    -0.000 C 
BRANCH  12  13
ATOM     13  C   UNL     1      13.166 -35.576  -1.237  1.00  0.00    -0.000 C 
BRANCH  13  14
ATOM     14  C   UNL     1      13.941 -36.897  -1.080  1.00  0.00    -0.000 C 
BRANCH  14  15
ATOM     15  C   UNL     1      14.634 -37.365  -2.381  1.00  0.00    -0.000 C 
BRANCH  15  16
ATOM     16  C   UNL     1      15.794 -38.348  -2.143  1.00  0.00    -0.003 C 
ATOM     17  C   UNL     1      17.148 -37.765  -2.545  1.00  0.00     0.004 C 
ENDBRANCH  15  16
ENDBRANCH  14  15
ENDBRANCH  13  14
ENDBRANCH  12  13
ENDBRANCH  11  12
ENDBRANCH  10  11
ENDBRANCH   1  10
TORSDOF 13
ENDMDL
MODEL 7
REMARK VINA RESULT:    -3.465      1.466      3.356
REMARK INTER + INTRA:          -8.489
REMARK INTER:                  -6.360
REMARK INTRA:                  -2.129
REMARK UNBOUND:                -2.390
REMARK SMILES CCCCCCCCCCCCCCC(=O)[O-]
REMARK SMILES IDX 9 1 10 2 11 3 12 4 13 5 14 6 15 7 16 8 17 9 8 10 7 11 6 12
REMARK SMILES IDX 5 13 4 14 3 15 2 16 1 17
REMARK H PARENT
REMARK Flexibility Score: inf
ROOT
ATOM      1  C   UNL     1      17.302 -34.160  -1.378  1.00  0.00     0.000 C 
ENDROOT
BRANCH   1   2
ATOM      2  C   UNL     1      17.745 -35.380  -2.201  1.00  0.00     0.000 C 
BRANCH   2   3
ATOM      3  C   UNL     1      16.678 -36.483  -2.162  1.00  0.00     0.000 C 
BRANCH   3   4
ATOM      4  C   UNL     1      16.905 -37.498  -1.027  1.00  0.00     0.000 C 
BRANCH   4   5
ATOM      5  C   UNL     1      18.378 -37.863  -0.767  1.00  0.00     0.006 C 
BRANCH   5   6
ATOM      6  C   UNL     1      18.762 -37.774   0.715  1.00  0.00     0.053 C 
BRANCH   6   7
ATOM      7  C   UNL     1      18.412 -39.044   1.424  1.00  0.00     0.041 C 
ATOM      8  O   UNL     1      18.693 -40.157   0.907  1.00  0.00    -0.550 OA
ATOM      9  O   UNL     1      17.734 -39.000   2.636  1.00  0.00    -0.550 OA
ENDBRANCH   6   7
ENDBRANCH   5   6
ENDBRANCH   4   5
ENDBRANCH   3   4
ENDBRANCH   2   3
ENDBRANCH   1   2
BRANCH   1  10
ATOM     10  C   UNL     1      16.363 -33.223  -2.158  1.00  0.00     0.000 C 
BRANCH  10  11
ATOM     11  C   UNL     1      14.990 -32.983  -1.501  1.00  0.00    -0.000 C 
BRANCH  11  12
ATOM     12  C   UNL     1      13.885 -33.986  -1.897  1.00  0.00    -0.000 C 
BRANCH  12  13
ATOM     13  C   UNL     1      13.559 -35.047  -0.830  1.00  0.00    -0.000 C 
BRANCH  13  14
ATOM     14  C   UNL     1      13.923 -34.641   0.610  1.00  0.00    -0.000 C 
BRANCH  14  15
ATOM     15  C   UNL     1      14.687 -35.738   1.387  1.00  0.00    -0.000 C 
BRANCH  15  16
ATOM     16  C   UNL     1      16.108 -35.323   1.806  1.00  0.00    -0.003 C 
ATOM     17  C   UNL     1      16.479 -35.827   3.200  1.00  0.00     0.004 C 
ENDBRANCH  15  16
ENDBRANCH  14  15
ENDBRANCH  13  14
ENDBRANCH  12  13
ENDBRANCH  11  12
ENDBRANCH  10  11
ENDBRANCH   1  10
TORSDOF 13
ENDMDL
MODEL 8
REMARK VINA RESULT:    -3.428      1.275      3.809
REMARK INTER + INTRA:          -8.423
REMARK INTER:                  -6.235
REMARK INTRA:                  -2.188
REMARK UNBOUND:                -2.390
REMARK SMILES CCCCCCCCCCCCCCC(=O)[O-]
REMARK SMILES IDX 9 1 10 2 11 3 12 4 13 5 14 6 15 7 16 8 17 9 8 10 7 11 6 12
REMARK SMILES IDX 5 13 4 14 3 15 2 16 1 17
REMARK H PARENT
REMARK Flexibility Score: inf
ROOT
ATOM      1  C   UNL     1      17.467 -34.181  -0.773  1.00  0.00     0.000 C 
ENDROOT
BRANCH   1   2
ATOM      2  C   UNL     1      17.324 -34.902  -2.123  1.00  0.00     0.000 C 
BRANCH   2   3
ATOM      3  C   UNL     1      18.065 -36.247  -2.105  1.00  0.00     0.000 C 
BRANCH   3   4
ATOM      4  C   UNL     1      17.128 -37.451  -2.310  1.00  0.00     0.000 C 
BRANCH   4   5
ATOM      5  C   UNL     1      17.031 -38.410  -1.109  1.00  0.00     0.006 C 
BRANCH   5   6
ATOM      6  C   UNL     1      18.339 -38.507  -0.314  1.00  0.00     0.053 C 
BRANCH   6   7
ATOM      7  C   UNL     1      18.114 -39.223   0.979  1.00  0.00     0.041 C 
ATOM      8  O   UNL     1      17.088 -39.933   1.141  1.00  0.00    -0.550 OA
ATOM      9  O   UNL     1      19.016 -39.070   2.025  1.00  0.00    -0.550 OA
ENDBRANCH   6   7
ENDBRANCH   5   6
ENDBRANCH   4   5
ENDBRANCH   3   4
ENDBRANCH   2   3
ENDBRANCH   1   2
BRANCH   1  10
ATOM     10  C   UNL     1      17.775 -35.143   0.388  1.00  0.00     0.000 C 
BRANCH  10  11
ATOM     11  C   UNL     1      16.572 -35.482   1.290  1.00  0.00    -0.000 C 
BRANCH  11  12
ATOM     12  C   UNL     1      15.195 -35.049   0.743  1.00  0.00    -0.000 C 
BRANCH  12  13
ATOM     13  C   UNL     1      14.406 -36.156   0.020  1.00  0.00    -0.000 C 
BRANCH  13  14
ATOM     14  C   UNL     1      13.968 -35.799  -1.413  1.00  0.00    -0.000 C 
BRANCH  14  15
ATOM     15  C   UNL     1      13.242 -34.438  -1.515  1.00  0.00    -0.000 C 
BRANCH  15  16
ATOM     16  C   UNL     1      13.949 -33.429  -2.436  1.00  0.00    -0.003 C 
ATOM     17  C   UNL     1      14.606 -32.287  -1.661  1.00  0.00     0.004 C 
ENDBRANCH  15  16
ENDBRANCH  14  15
ENDBRANCH  13  14
ENDBRANCH  12  13
ENDBRANCH  11  12
ENDBRANCH  10  11
ENDBRANCH   1  10
TORSDOF 13
ENDMDL
MODEL 9
REMARK VINA RESULT:    -3.428      1.165      1.797
REMARK INTER + INTRA:          -8.423
REMARK INTER:                  -6.249
REMARK INTRA:                  -2.174
REMARK UNBOUND:                -2.390
REMARK SMILES CCCCCCCCCCCCCCC(=O)[O-]
REMARK SMILES IDX 9 1 10 2 11 3 12 4 13 5 14 6 15 7 16 8 17 9 8 10 7 11 6 12
REMARK SMILES IDX 5 13 4 14 3 15 2 16 1 17
REMARK H PARENT
REMARK Flexibility Score: inf
ROOT
ATOM      1  C   UNL     1      13.793 -35.362  -0.198  1.00  0.00     0.000 C 
ENDROOT
BRANCH   1   2
ATOM      2  C   UNL     1      13.962 -36.501  -1.216  1.00  0.00     0.000 C 
BRANCH   2   3
ATOM      3  C   UNL     1      14.359 -37.807  -0.513  1.00  0.00     0.000 C 
BRANCH   3   4
ATOM      4  C   UNL     1      15.343 -38.656  -1.338  1.00  0.00     0.000 C 
BRANCH   4   5
ATOM      5  C   UNL     1      16.135 -39.700  -0.529  1.00  0.00     0.006 C 
BRANCH   5   6
ATOM      6  C   UNL     1      16.879 -39.091   0.666  1.00  0.00     0.053 C 
BRANCH   6   7
ATOM      7  C   UNL     1      18.303 -39.547   0.683  1.00  0.00     0.041 C 
ATOM      8  O   UNL     1      18.641 -40.550   1.365  1.00  0.00    -0.550 OA
ATOM      9  O   UNL     1      19.270 -38.836  -0.017  1.00  0.00    -0.550 OA
ENDBRANCH   6   7
ENDBRANCH   5   6
ENDBRANCH   4   5
ENDBRANCH   3   4
ENDBRANCH   2   3
ENDBRANCH   1   2
BRANCH   1  10
ATOM     10  C   UNL     1      13.943 -33.967  -0.832  1.00  0.00     0.000 C 
BRANCH  10  11
ATOM     11  C   UNL     1      14.782 -33.926  -2.124  1.00  0.00    -0.000 C 
BRANCH  11  12
ATOM     12  C   UNL     1      16.008 -32.989  -2.083  1.00  0.00    -0.000 C 
BRANCH  12  13
ATOM     13  C   UNL     1      17.369 -33.704  -2.001  1.00  0.00    -0.000 C 
BRANCH  13  14
ATOM     14  C   UNL     1      17.288 -35.242  -2.029  1.00  0.00    -0.000 C 
BRANCH  14  15
ATOM     15  C   UNL     1      17.655 -35.904  -0.680  1.00  0.00    -0.000 C 
BRANCH  15  16
ATOM     16  C   UNL     1      17.695 -34.919   0.501  1.00  0.00    -0.003 C 
ATOM     17  C   UNL     1      16.969 -35.454   1.735  1.00  0.00     0.004 C 
ENDBRANCH  15  16
ENDBRANCH  14  15
ENDBRANCH  13  14
ENDBRANCH  12  13
ENDBRANCH  11  12
ENDBRANCH  10  11
ENDBRANCH   1  10
TORSDOF 13
ENDMDL
