MODEL 1
REMARK VINA RESULT:    -4.631      0.000      0.000
REMARK INTER + INTRA:          -7.116
REMARK INTER:                  -6.526
REMARK INTRA:                  -0.590
REMARK UNBOUND:                -0.590
REMARK SMILES C=CCCCCCCC(=O)[O-]
REMARK SMILES IDX 6 1 7 2 8 3 9 4 10 5 11 6 5 7 4 8 3 9 2 10 1 11
REMARK H PARENT
REMARK Flexibility Score: inf
ROOT
ATOM      1  C   UNL     1     -13.599   1.966 -37.502  1.00  0.00     0.000 C 
ENDROOT
BRANCH   1   2
ATOM      2  C   UNL     1     -12.571   0.827 -37.344  1.00  0.00     0.006 C 
BRANCH   2   3
ATOM      3  C   UNL     1     -11.798   0.850 -36.015  1.00  0.00     0.053 C 
BRANCH   3   4
ATOM      4  C   UNL     1     -12.707   0.678 -34.838  1.00  0.00     0.041 C 
ATOM      5  O   UNL     1     -13.339  -0.400 -34.677  1.00  0.00    -0.550 OA
ATOM      6  O   UNL     1     -12.832   1.695 -33.901  1.00  0.00    -0.550 OA
ENDBRANCH   3   4
ENDBRANCH   2   3
ENDBRANCH   1   2
BRANCH   1   7
ATOM      7  C   UNL     1     -15.075   1.521 -37.492  1.00  0.00     0.000 C 
BRANCH   7   8
ATOM      8  C   UNL     1     -15.882   1.972 -36.261  1.00  0.00     0.004 C 
BRANCH   8   9
ATOM      9  C   UNL     1     -16.476   0.794 -35.475  1.00  0.00     0.027 C 
BRANCH   9  10
ATOM     10  C   UNL     1     -16.527   1.096 -34.003  1.00  0.00    -0.035 C 
ATOM     11  C   UNL     1     -17.357   2.015 -33.502  1.00  0.00     0.004 C 
ENDBRANCH   9  10
ENDBRANCH   8   9
ENDBRANCH   7   8
ENDBRANCH   1   7
TORSDOF 7
ENDMDL
MODEL 2
REMARK VINA RESULT:    -4.612      2.270      5.026
REMARK INTER + INTRA:          -7.089
REMARK INTER:                  -6.620
REMARK INTRA:                  -0.469
REMARK UNBOUND:                -0.590
REMARK SMILES C=CCCCCCCC(=O)[O-]
REMARK SMILES IDX 6 1 7 2 8 3 9 4 10 5 11 6 5 7 4 8 3 9 2 10 1 11
REMARK H PARENT
REMARK Flexibility Score: inf
ROOT
ATOM      1  C   UNL     1     -14.971   3.018 -33.062  1.00  0.00     0.000 C 
ENDROOT
BRANCH   1   2
ATOM      2  C   UNL     1     -16.215   2.232 -32.599  1.00  0.00     0.006 C 
BRANCH   2   3
ATOM      3  C   UNL     1     -17.420   2.334 -33.547  1.00  0.00     0.053 C 
BRANCH   3   4
ATOM      4  C   UNL     1     -17.063   1.943 -34.948  1.00  0.00     0.041 C 
ATOM      5  O   UNL     1     -17.130   2.787 -35.879  1.00  0.00    -0.550 OA
ATOM      6  O   UNL     1     -16.625   0.653 -35.218  1.00  0.00    -0.550 OA
ENDBRANCH   3   4
ENDBRANCH   2   3
ENDBRANCH   1   2
BRANCH   1   7
ATOM      7  C   UNL     1     -13.663   2.205 -33.112  1.00  0.00     0.000 C 
BRANCH   7   8
ATOM      8  C   UNL     1     -13.139   1.902 -34.527  1.00  0.00     0.004 C 
BRANCH   8   9
ATOM      9  C   UNL     1     -13.056   0.397 -34.821  1.00  0.00     0.027 C 
BRANCH   9  10
ATOM     10  C   UNL     1     -12.320   0.135 -36.105  1.00  0.00    -0.035 C 
ATOM     11  C   UNL     1     -11.372   0.963 -36.554  1.00  0.00     0.004 C 
ENDBRANCH   9  10
ENDBRANCH   8   9
ENDBRANCH   7   8
ENDBRANCH   1   7
TORSDOF 7
ENDMDL
MODEL 3
REMARK VINA RESULT:    -4.607      1.593      2.564
REMARK INTER + INTRA:          -7.082
REMARK INTER:                  -6.256
REMARK INTRA:                  -0.826
REMARK UNBOUND:                -0.590
REMARK SMILES C=CCCCCCCC(=O)[O-]
REMARK SMILES IDX 6 1 7 2 8 3 9 4 10 5 11 6 5 7 4 8 3 9 2 10 1 11
REMARK H PARENT
REMARK Flexibility Score: inf
ROOT
ATOM      1  C   UNL     1     -11.593   0.832 -36.364  1.00  0.00     0.000 C 
ENDROOT
BRANCH   1   2
ATOM      2  C   UNL     1     -11.731   1.863 -35.224  1.00  0.00     0.006 C 
BRANCH   2   3
ATOM      3  C   UNL     1     -12.535   1.365 -34.013  1.00  0.00     0.053 C 
BRANCH   3   4
ATOM      4  C   UNL     1     -13.483   2.407 -33.505  1.00  0.00     0.041 C 
ATOM      5  O   UNL     1     -13.975   2.308 -32.350  1.00  0.00    -0.550 OA
ATOM      6  O   UNL     1     -13.796   3.506 -34.294  1.00  0.00    -0.550 OA
ENDBRANCH   3   4
ENDBRANCH   2   3
ENDBRANCH   1   2
BRANCH   1   7
ATOM      7  C   UNL     1     -12.827   0.696 -37.277  1.00  0.00     0.000 C 
BRANCH   7   8
ATOM      8  C   UNL     1     -13.556   2.016 -37.587  1.00  0.00     0.004 C 
BRANCH   8   9
ATOM      9  C   UNL     1     -15.083   1.892 -37.485  1.00  0.00     0.027 C 
BRANCH   9  10
ATOM     10  C   UNL     1     -15.481   1.069 -36.292  1.00  0.00    -0.035 C 
ATOM     11  C   UNL     1     -16.553   1.373 -35.554  1.00  0.00     0.004 C 
ENDBRANCH   9  10
ENDBRANCH   8   9
ENDBRANCH   7   8
ENDBRANCH   1   7
TORSDOF 7
ENDMDL
MODEL 4
REMARK VINA RESULT:    -4.564      1.925      3.013
REMARK INTER + INTRA:          -7.022
REMARK INTER:                  -6.494
REMARK INTRA:                  -0.528
REMARK UNBOUND:                -0.590
REMARK SMILES C=CCCCCCCC(=O)[O-]
REMARK SMILES IDX 6 1 7 2 8 3 9 4 10 5 11 6 5 7 4 8 3 9 2 10 1 11
REMARK H PARENT
REMARK Flexibility Score: inf
ROOT
ATOM      1  C   UNL     1     -13.627   2.767 -33.163  1.00  0.00     0.000 C 
ENDROOT
BRANCH   1   2
ATOM      2  C   UNL     1     -13.121   2.662 -34.616  1.00  0.00     0.006 C 
BRANCH   2   3
ATOM      3  C   UNL     1     -11.786   1.918 -34.771  1.00  0.00     0.053 C 
BRANCH   3   4
ATOM      4  C   UNL     1     -11.812   0.955 -35.918  1.00  0.00     0.041 C 
ATOM      5  O   UNL     1     -12.522  -0.083 -35.859  1.00  0.00    -0.550 OA
ATOM      6  O   UNL     1     -11.076   1.222 -37.065  1.00  0.00    -0.550 OA
ENDBRANCH   3   4
ENDBRANCH   2   3
ENDBRANCH   1   2
BRANCH   1   7
ATOM      7  C   UNL     1     -15.069   3.289 -33.007  1.00  0.00     0.000 C 
BRANCH   7   8
ATOM      8  C   UNL     1     -16.144   2.197 -32.859  1.00  0.00     0.004 C 
BRANCH   8   9
ATOM      9  C   UNL     1     -17.317   2.380 -33.832  1.00  0.00     0.027 C 
BRANCH   9  10
ATOM     10  C   UNL     1     -17.019   1.755 -35.166  1.00  0.00    -0.035 C 
ATOM     11  C   UNL     1     -16.270   0.653 -35.275  1.00  0.00     0.004 C 
ENDBRANCH   9  10
ENDBRANCH   8   9
ENDBRANCH   7   8
ENDBRANCH   1   7
TORSDOF 7
ENDMDL
MODEL 5
REMARK VINA RESULT:    -4.558      1.901      3.561
REMARK INTER + INTRA:          -7.014
REMARK INTER:                  -6.224
REMARK INTRA:                  -0.790
REMARK UNBOUND:                -0.590
REMARK SMILES C=CCCCCCCC(=O)[O-]
REMARK SMILES IDX 6 1 7 2 8 3 9 4 10 5 11 6 5 7 4 8 3 9 2 10 1 11
REMARK H PARENT
REMARK Flexibility Score: inf
ROOT
ATOM      1  C   UNL     1     -13.565   1.924 -37.452  1.00  0.00     0.000 C 
ENDROOT
BRANCH   1   2
ATOM      2  C   UNL     1     -15.054   1.520 -37.469  1.00  0.00     0.006 C 
BRANCH   2   3
ATOM      3  C   UNL     1     -15.935   2.307 -36.487  1.00  0.00     0.053 C 
BRANCH   3   4
ATOM      4  C   UNL     1     -16.500   1.427 -35.415  1.00  0.00     0.041 C 
ATOM      5  O   UNL     1     -16.177   0.211 -35.357  1.00  0.00    -0.550 OA
ATOM      6  O   UNL     1     -17.359   1.957 -34.462  1.00  0.00    -0.550 OA
ENDBRANCH   3   4
ENDBRANCH   2   3
ENDBRANCH   1   2
BRANCH   1   7
ATOM      7  C   UNL     1     -12.569   0.750 -37.360  1.00  0.00     0.000 C 
BRANCH   7   8
ATOM      8  C   UNL     1     -12.100   0.406 -35.935  1.00  0.00     0.004 C 
BRANCH   8   9
ATOM      9  C   UNL     1     -12.208   1.595 -34.969  1.00  0.00     0.027 C 
BRANCH   9  10
ATOM     10  C   UNL     1     -13.092   1.263 -33.799  1.00  0.00    -0.035 C 
ATOM     11  C   UNL     1     -13.701   2.215 -33.085  1.00  0.00     0.004 C 
ENDBRANCH   9  10
ENDBRANCH   8   9
ENDBRANCH   7   8
ENDBRANCH   1   7
TORSDOF 7
ENDMDL
MODEL 6
REMARK VINA RESULT:    -4.553      1.865      4.195
REMARK INTER + INTRA:          -7.006
REMARK INTER:                  -6.274
REMARK INTRA:                  -0.732
REMARK UNBOUND:                -0.590
REMARK SMILES C=CCCCCCCC(=O)[O-]
REMARK SMILES IDX 6 1 7 2 8 3 9 4 10 5 11 6 5 7 4 8 3 9 2 10 1 11
REMARK H PARENT
REMARK Flexibility Score: inf
ROOT
ATOM      1  C   UNL     1     -12.735   1.093 -34.018  1.00  0.00     0.000 C 
ENDROOT
BRANCH   1   2
ATOM      2  C   UNL     1     -13.763   1.980 -33.287  1.00  0.00     0.006 C 
BRANCH   2   3
ATOM      3  C   UNL     1     -15.016   2.310 -34.113  1.00  0.00     0.053 C 
BRANCH   3   4
ATOM      4  C   UNL     1     -16.056   1.238 -34.003  1.00  0.00     0.041 C 
ATOM      5  O   UNL     1     -17.010   1.360 -33.189  1.00  0.00    -0.550 OA
ATOM      6  O   UNL     1     -15.990   0.119 -34.822  1.00  0.00    -0.550 OA
ENDBRANCH   3   4
ENDBRANCH   2   3
ENDBRANCH   1   2
BRANCH   1   7
ATOM      7  C   UNL     1     -11.763   1.846 -34.948  1.00  0.00     0.000 C 
BRANCH   7   8
ATOM      8  C   UNL     1     -11.475   1.149 -36.290  1.00  0.00     0.004 C 
BRANCH   8   9
ATOM      9  C   UNL     1     -12.745   0.620 -36.971  1.00  0.00     0.027 C 
BRANCH   9  10
ATOM     10  C   UNL     1     -13.567   1.747 -37.534  1.00  0.00    -0.035 C 
ATOM     11  C   UNL     1     -14.871   1.606 -37.791  1.00  0.00     0.004 C 
ENDBRANCH   9  10
ENDBRANCH   8   9
ENDBRANCH   7   8
ENDBRANCH   1   7
TORSDOF 7
ENDMDL
MODEL 7
REMARK VINA RESULT:    -4.526      1.975      3.430
REMARK INTER + INTRA:          -6.968
REMARK INTER:                  -6.206
REMARK INTRA:                  -0.762
REMARK UNBOUND:                -0.590
REMARK SMILES C=CCCCCCCC(=O)[O-]
REMARK SMILES IDX 6 1 7 2 8 3 9 4 10 5 11 6 5 7 4 8 3 9 2 10 1 11
REMARK H PARENT
REMARK Flexibility Score: inf
ROOT
ATOM      1  C   UNL     1     -12.533   0.811 -37.314  1.00  0.00     0.000 C 
ENDROOT
BRANCH   1   2
ATOM      2  C   UNL     1     -13.562   1.951 -37.468  1.00  0.00     0.006 C 
BRANCH   2   3
ATOM      3  C   UNL     1     -15.019   1.479 -37.583  1.00  0.00     0.053 C 
BRANCH   3   4
ATOM      4  C   UNL     1     -15.751   1.605 -36.283  1.00  0.00     0.041 C 
ATOM      5  O   UNL     1     -16.017   0.580 -35.602  1.00  0.00    -0.550 OA
ATOM      6  O   UNL     1     -16.111   2.860 -35.807  1.00  0.00    -0.550 OA
ENDBRANCH   3   4
ENDBRANCH   2   3
ENDBRANCH   1   2
BRANCH   1   7
ATOM      7  C   UNL     1     -11.445   1.051 -36.250  1.00  0.00     0.000 C 
BRANCH   7   8
ATOM      8  C   UNL     1     -11.893   1.886 -35.037  1.00  0.00     0.004 C 
BRANCH   8   9
ATOM      9  C   UNL     1     -12.665   1.061 -33.998  1.00  0.00     0.027 C 
BRANCH   9  10
ATOM     10  C   UNL     1     -13.640   1.919 -33.240  1.00  0.00    -0.035 C 
ATOM     11  C   UNL     1     -13.590   3.253 -33.290  1.00  0.00     0.004 C 
ENDBRANCH   9  10
ENDBRANCH   8   9
ENDBRANCH   7   8
ENDBRANCH   1   7
TORSDOF 7
ENDMDL
MODEL 8
REMARK VINA RESULT:    -4.483      2.099      3.944
REMARK INTER + INTRA:          -6.907
REMARK INTER:                  -6.177
REMARK INTRA:                  -0.730
REMARK UNBOUND:                -0.590
REMARK SMILES C=CCCCCCCC(=O)[O-]
REMARK SMILES IDX 6 1 7 2 8 3 9 4 10 5 11 6 5 7 4 8 3 9 2 10 1 11
REMARK H PARENT
REMARK Flexibility Score: inf
ROOT
ATOM      1  C   UNL     1     -14.856   1.444 -37.560  1.00  0.00     0.000 C 
ENDROOT
BRANCH   1   2
ATOM      2  C   UNL     1     -15.811   2.144 -36.571  1.00  0.00     0.006 C 
BRANCH   2   3
ATOM      3  C   UNL     1     -16.404   1.216 -35.499  1.00  0.00     0.053 C 
BRANCH   3   4
ATOM      4  C   UNL     1     -16.998   1.987 -34.360  1.00  0.00     0.041 C 
ATOM      5  O   UNL     1     -17.305   3.200 -34.507  1.00  0.00    -0.550 OA
ATOM      6  O   UNL     1     -17.242   1.357 -33.147  1.00  0.00    -0.550 OA
ENDBRANCH   3   4
ENDBRANCH   2   3
ENDBRANCH   1   2
BRANCH   1   7
ATOM      7  C   UNL     1     -13.377   1.864 -37.451  1.00  0.00     0.000 C 
BRANCH   7   8
ATOM      8  C   UNL     1     -12.423   0.762 -36.954  1.00  0.00     0.004 C 
BRANCH   8   9
ATOM      9  C   UNL     1     -12.778   0.257 -35.548  1.00  0.00     0.027 C 
BRANCH   9  10
ATOM     10  C   UNL     1     -12.353   1.241 -34.494  1.00  0.00    -0.035 C 
ATOM     11  C   UNL     1     -13.238   1.840 -33.692  1.00  0.00     0.004 C 
ENDBRANCH   9  10
ENDBRANCH   8   9
ENDBRANCH   7   8
ENDBRANCH   1   7
TORSDOF 7
ENDMDL
MODEL 9
REMARK VINA RESULT:    -4.480      2.351      4.370
REMARK INTER + INTRA:          -6.903
REMARK INTER:                  -6.042
REMARK INTRA:                  -0.861
REMARK UNBOUND:                -0.590
REMARK SMILES C=CCCCCCCC(=O)[O-]
REMARK SMILES IDX 6 1 7 2 8 3 9 4 10 5 11 6 5 7 4 8 3 9 2 10 1 11
REMARK H PARENT
REMARK Flexibility Score: inf
ROOT
ATOM      1  C   UNL     1     -16.743   1.199 -33.617  1.00  0.00     0.000 C 
ENDROOT
BRANCH   1   2
ATOM      2  C   UNL     1     -16.946   1.608 -35.091  1.00  0.00     0.006 C 
BRANCH   2   3
ATOM      3  C   UNL     1     -15.920   1.006 -36.063  1.00  0.00     0.053 C 
BRANCH   3   4
ATOM      4  C   UNL     1     -15.283   2.053 -36.923  1.00  0.00     0.041 C 
ATOM      5  O   UNL     1     -15.867   3.151 -37.122  1.00  0.00    -0.550 OA
ATOM      6  O   UNL     1     -14.030   1.829 -37.478  1.00  0.00    -0.550 OA
ENDBRANCH   3   4
ENDBRANCH   2   3
ENDBRANCH   1   2
BRANCH   1   7
ATOM      7  C   UNL     1     -16.366   2.351 -32.664  1.00  0.00     0.000 C 
BRANCH   7   8
ATOM      8  C   UNL     1     -15.278   3.303 -33.193  1.00  0.00     0.004 C 
BRANCH   8   9
ATOM      9  C   UNL     1     -13.866   2.906 -32.738  1.00  0.00     0.027 C 
BRANCH   9  10
ATOM     10  C   UNL     1     -13.102   2.249 -33.854  1.00  0.00    -0.035 C 
ATOM     11  C   UNL     1     -12.858   0.935 -33.862  1.00  0.00     0.004 C 
ENDBRANCH   9  10
ENDBRANCH   8   9
ENDBRANCH   7   8
ENDBRANCH   1   7
TORSDOF 7
ENDMDL
