MODEL 1
REMARK VINA RESULT:    -2.869      0.000      0.000
REMARK INTER + INTRA:          -3.435
REMARK INTER:                  -3.372
REMARK INTRA:                  -0.063
REMARK UNBOUND:                -0.063
REMARK SMILES CCCCC(=O)[O-]
REMARK SMILES IDX 4 1 5 2 6 3 7 4 3 5 2 6 1 7
REMARK H PARENT
REMARK Flexibility Score: inf
ROOT
ATOM      1  C   UNL     1       3.144  71.365  18.988  1.00  0.00     0.053 C 
ENDROOT
BRANCH   1   2
ATOM      2  C   UNL     1       2.472  72.693  18.833  1.00  0.00     0.041 C 
ATOM      3  O   UNL     1       2.980  73.578  18.095  1.00  0.00    -0.550 OA
ATOM      4  O   UNL     1       1.259  72.937  19.463  1.00  0.00    -0.550 OA
ENDBRANCH   1   2
BRANCH   1   5
ATOM      5  C   UNL     1       2.151  70.320  19.505  1.00  0.00     0.006 C 
BRANCH   5   6
ATOM      6  C   UNL     1       2.743  69.535  20.681  1.00  0.00    -0.003 C 
ATOM      7  C   UNL     1       4.265  69.627  20.696  1.00  0.00     0.004 C 
ENDBRANCH   5   6
ENDBRANCH   1   5
TORSDOF 3
ENDMDL
MODEL 2
REMARK VINA RESULT:    -2.817     13.947     14.489
REMARK INTER + INTRA:          -3.375
REMARK INTER:                  -3.348
REMARK INTRA:                  -0.026
REMARK UNBOUND:                -0.063
REMARK SMILES CCCCC(=O)[O-]
REMARK SMILES IDX 4 1 5 2 6 3 7 4 3 5 2 6 1 7
REMARK H PARENT
REMARK Flexibility Score: inf
ROOT
ATOM      1  C   UNL     1       3.283  64.001   8.172  1.00  0.00     0.053 C 
ENDROOT
BRANCH   1   2
ATOM      2  C   UNL     1       2.304  62.881   8.336  1.00  0.00     0.041 C 
ATOM      3  O   UNL     1       1.210  62.898   7.712  1.00  0.00    -0.550 OA
ATOM      4  O   UNL     1       2.621  61.793   9.138  1.00  0.00    -0.550 OA
ENDBRANCH   1   2
BRANCH   1   5
ATOM      5  C   UNL     1       2.677  65.122   7.323  1.00  0.00     0.006 C 
BRANCH   5   6
ATOM      6  C   UNL     1       3.768  65.896   6.575  1.00  0.00    -0.003 C 
ATOM      7  C   UNL     1       3.195  66.631   5.368  1.00  0.00     0.004 C 
ENDBRANCH   5   6
ENDBRANCH   1   5
TORSDOF 3
ENDMDL
MODEL 3
REMARK VINA RESULT:    -2.683     12.947     13.382
REMARK INTER + INTRA:          -3.217
REMARK INTER:                  -3.124
REMARK INTRA:                  -0.093
REMARK UNBOUND:                -0.063
REMARK SMILES CCCCC(=O)[O-]
REMARK SMILES IDX 4 1 5 2 6 3 7 4 3 5 2 6 1 7
REMARK H PARENT
REMARK Flexibility Score: inf
ROOT
ATOM      1  C   UNL     1       3.001  64.045   8.255  1.00  0.00     0.053 C 
ENDROOT
BRANCH   1   2
ATOM      2  C   UNL     1       2.224  62.770   8.351  1.00  0.00     0.041 C 
ATOM      3  O   UNL     1       2.613  61.846   9.114  1.00  0.00    -0.550 OA
ATOM      4  O   UNL     1       1.043  62.620   7.636  1.00  0.00    -0.550 OA
ENDBRANCH   1   2
BRANCH   1   5
ATOM      5  C   UNL     1       2.056  65.250   8.257  1.00  0.00     0.006 C 
BRANCH   5   6
ATOM      6  C   UNL     1       1.449  65.469   9.647  1.00  0.00    -0.003 C 
ATOM      7  C   UNL     1       2.531  65.530  10.719  1.00  0.00     0.004 C 
ENDBRANCH   5   6
ENDBRANCH   1   5
TORSDOF 3
ENDMDL
MODEL 4
REMARK VINA RESULT:    -2.662      1.625      2.617
REMARK INTER + INTRA:          -3.192
REMARK INTER:                  -3.099
REMARK INTRA:                  -0.093
REMARK UNBOUND:                -0.063
REMARK SMILES CCCCC(=O)[O-]
REMARK SMILES IDX 4 1 5 2 6 3 7 4 3 5 2 6 1 7
REMARK H PARENT
REMARK Flexibility Score: inf
ROOT
ATOM      1  C   UNL     1       3.302  71.538  18.927  1.00  0.00     0.053 C 
ENDROOT
BRANCH   1   2
ATOM      2  C   UNL     1       2.472  72.772  18.766  1.00  0.00     0.041 C 
ATOM      3  O   UNL     1       1.382  72.889  19.388  1.00  0.00    -0.550 OA
ATOM      4  O   UNL     1       2.924  73.815  17.969  1.00  0.00    -0.550 OA
ENDBRANCH   1   2
BRANCH   1   5
ATOM      5  C   UNL     1       2.507  70.298  18.508  1.00  0.00     0.006 C 
BRANCH   5   6
ATOM      6  C   UNL     1       2.130  70.362  17.024  1.00  0.00    -0.003 C 
ATOM      7  C   UNL     1       3.083  69.525  16.177  1.00  0.00     0.004 C 
ENDBRANCH   5   6
ENDBRANCH   1   5
TORSDOF 3
ENDMDL
MODEL 5
REMARK VINA RESULT:    -2.585     13.624     13.931
REMARK INTER + INTRA:          -3.102
REMARK INTER:                  -3.041
REMARK INTRA:                  -0.061
REMARK UNBOUND:                -0.063
REMARK SMILES CCCCC(=O)[O-]
REMARK SMILES IDX 4 1 5 2 6 3 7 4 3 5 2 6 1 7
REMARK H PARENT
REMARK Flexibility Score: inf
ROOT
ATOM      1  C   UNL     1       2.875  65.366   7.825  1.00  0.00     0.053 C 
ENDROOT
BRANCH   1   2
ATOM      2  C   UNL     1       3.212  65.951   6.490  1.00  0.00     0.041 C 
ATOM      3  O   UNL     1       2.296  66.329   5.712  1.00  0.00    -0.550 OA
ATOM      4  O   UNL     1       4.540  66.127   6.124  1.00  0.00    -0.550 OA
ENDBRANCH   1   2
BRANCH   1   5
ATOM      5  C   UNL     1       1.543  64.612   7.759  1.00  0.00     0.006 C 
BRANCH   5   6
ATOM      6  C   UNL     1       1.743  63.119   8.041  1.00  0.00    -0.003 C 
ATOM      7  C   UNL     1       2.947  62.886   8.949  1.00  0.00     0.004 C 
ENDBRANCH   5   6
ENDBRANCH   1   5
TORSDOF 3
ENDMDL
MODEL 6
REMARK VINA RESULT:    -2.481     13.254     13.615
REMARK INTER + INTRA:          -2.979
REMARK INTER:                  -2.926
REMARK INTRA:                  -0.053
REMARK UNBOUND:                -0.063
REMARK SMILES CCCCC(=O)[O-]
REMARK SMILES IDX 4 1 5 2 6 3 7 4 3 5 2 6 1 7
REMARK H PARENT
REMARK Flexibility Score: inf
ROOT
ATOM      1  C   UNL     1       1.647  64.700   7.606  1.00  0.00     0.053 C 
ENDROOT
BRANCH   1   2
ATOM      2  C   UNL     1       0.524  65.689   7.576  1.00  0.00     0.041 C 
ATOM      3  O   UNL     1      -0.299  65.743   8.528  1.00  0.00    -0.550 OA
ATOM      4  O   UNL     1       0.415  66.585   6.520  1.00  0.00    -0.550 OA
ENDBRANCH   1   2
BRANCH   1   5
ATOM      5  C   UNL     1       1.102  63.273   7.703  1.00  0.00     0.006 C 
BRANCH   5   6
ATOM      6  C   UNL     1       2.105  62.348   8.401  1.00  0.00    -0.003 C 
ATOM      7  C   UNL     1       3.171  63.149   9.141  1.00  0.00     0.004 C 
ENDBRANCH   5   6
ENDBRANCH   1   5
TORSDOF 3
ENDMDL
MODEL 7
REMARK VINA RESULT:    -2.480      2.891      3.751
REMARK INTER + INTRA:          -2.978
REMARK INTER:                  -2.931
REMARK INTRA:                  -0.048
REMARK UNBOUND:                -0.063
REMARK SMILES CCCCC(=O)[O-]
REMARK SMILES IDX 4 1 5 2 6 3 7 4 3 5 2 6 1 7
REMARK H PARENT
REMARK Flexibility Score: inf
ROOT
ATOM      1  C   UNL     1       3.569  70.413  19.717  1.00  0.00     0.053 C 
ENDROOT
BRANCH   1   2
ATOM      2  C   UNL     1       3.870  69.557  20.907  1.00  0.00     0.041 C 
ATOM      3  O   UNL     1       5.059  69.239  21.175  1.00  0.00    -0.550 OA
ATOM      4  O   UNL     1       2.842  69.151  21.748  1.00  0.00    -0.550 OA
ENDBRANCH   1   2
BRANCH   1   5
ATOM      5  C   UNL     1       2.063  70.668  19.606  1.00  0.00     0.006 C 
BRANCH   5   6
ATOM      6  C   UNL     1       1.783  72.034  18.970  1.00  0.00    -0.003 C 
ATOM      7  C   UNL     1       3.061  72.660  18.422  1.00  0.00     0.004 C 
ENDBRANCH   5   6
ENDBRANCH   1   5
TORSDOF 3
ENDMDL
MODEL 8
REMARK VINA RESULT:    -2.470      7.916      8.574
REMARK INTER + INTRA:          -2.966
REMARK INTER:                  -2.911
REMARK INTRA:                  -0.055
REMARK UNBOUND:                -0.063
REMARK SMILES CCCCC(=O)[O-]
REMARK SMILES IDX 4 1 5 2 6 3 7 4 3 5 2 6 1 7
REMARK H PARENT
REMARK Flexibility Score: inf
ROOT
ATOM      1  C   UNL     1      -5.794  72.942  21.585  1.00  0.00     0.053 C 
ENDROOT
BRANCH   1   2
ATOM      2  C   UNL     1      -5.032  72.475  20.385  1.00  0.00     0.041 C 
ATOM      3  O   UNL     1      -5.229  73.009  19.261  1.00  0.00    -0.550 OA
ATOM      4  O   UNL     1      -4.067  71.485  20.516  1.00  0.00    -0.550 OA
ENDBRANCH   1   2
BRANCH   1   5
ATOM      5  C   UNL     1      -5.503  74.419  21.864  1.00  0.00     0.006 C 
BRANCH   5   6
ATOM      6  C   UNL     1      -5.016  74.621  23.303  1.00  0.00    -0.003 C 
ATOM      7  C   UNL     1      -3.949  73.596  23.673  1.00  0.00     0.004 C 
ENDBRANCH   5   6
ENDBRANCH   1   5
TORSDOF 3
ENDMDL
MODEL 9
REMARK VINA RESULT:    -2.439      2.817      3.715
REMARK INTER + INTRA:          -2.930
REMARK INTER:                  -2.848
REMARK INTRA:                  -0.082
REMARK UNBOUND:                -0.063
REMARK SMILES CCCCC(=O)[O-]
REMARK SMILES IDX 4 1 5 2 6 3 7 4 3 5 2 6 1 7
REMARK H PARENT
REMARK Flexibility Score: inf
ROOT
ATOM      1  C   UNL     1       2.757  70.285  18.324  1.00  0.00     0.053 C 
ENDROOT
BRANCH   1   2
ATOM      2  C   UNL     1       2.671  69.700  16.949  1.00  0.00     0.041 C 
ATOM      3  O   UNL     1       1.882  70.192  16.099  1.00  0.00    -0.550 OA
ATOM      4  O   UNL     1       3.498  68.644  16.589  1.00  0.00    -0.550 OA
ENDBRANCH   1   2
BRANCH   1   5
ATOM      5  C   UNL     1       1.517  71.130  18.626  1.00  0.00     0.006 C 
BRANCH   5   6
ATOM      6  C   UNL     1       1.911  72.542  19.076  1.00  0.00    -0.003 C 
ATOM      7  C   UNL     1       3.032  73.104  18.208  1.00  0.00     0.004 C 
ENDBRANCH   5   6
ENDBRANCH   1   5
TORSDOF 3
ENDMDL
