MODEL 1
REMARK VINA RESULT:    -2.711      0.000      0.000
REMARK INTER + INTRA:          -3.489
REMARK INTER:                  -3.266
REMARK INTRA:                  -0.224
REMARK UNBOUND:                -0.224
REMARK SMILES OCC(O)CO
REMARK SMILES IDX 3 1 5 2 6 3 2 5 1 6 4 8
REMARK H PARENT 6 4 1 7 4 9
REMARK Flexibility Score: inf
ROOT
ATOM      1  C   UNL     1     144.523 144.126 116.137  1.00  0.00     0.165 C 
ENDROOT
BRANCH   1   2
ATOM      2  C   UNL     1     145.069 143.176 117.218  1.00  0.00     0.190 C 
BRANCH   2   3
ATOM      3  O   UNL     1     144.519 143.477 118.472  1.00  0.00    -0.394 OA
ATOM      4  H   UNL     1     143.926 142.718 118.712  1.00  0.00     0.210 HD
ENDBRANCH   2   3
ENDBRANCH   1   2
BRANCH   1   5
ATOM      5  C   UNL     1     143.062 144.525 116.414  1.00  0.00     0.190 C 
BRANCH   5   6
ATOM      6  O   UNL     1     143.010 145.677 117.211  1.00  0.00    -0.394 OA
ATOM      7  H   UNL     1     143.806 146.222 116.972  1.00  0.00     0.210 HD
ENDBRANCH   5   6
ENDBRANCH   1   5
BRANCH   1   8
ATOM      8  O   UNL     1     145.336 145.269 116.036  1.00  0.00    -0.388 OA
ATOM      9  H   UNL     1     145.594 145.370 115.082  1.00  0.00     0.211 HD
ENDBRANCH   1   8
TORSDOF 5
ENDMDL
MODEL 2
REMARK VINA RESULT:    -2.665      0.815      2.441
REMARK INTER + INTRA:          -3.434
REMARK INTER:                  -3.216
REMARK INTRA:                  -0.218
REMARK UNBOUND:                -0.224
REMARK SMILES OCC(O)CO
REMARK SMILES IDX 3 1 5 2 6 3 2 5 1 6 4 8
REMARK H PARENT 6 4 1 7 4 9
REMARK Flexibility Score: inf
ROOT
ATOM      1  C   UNL     1     143.134 144.350 116.796  1.00  0.00     0.165 C 
ENDROOT
BRANCH   1   2
ATOM      2  C   UNL     1     144.306 144.320 115.799  1.00  0.00     0.190 C 
BRANCH   2   3
ATOM      3  O   UNL     1     145.288 145.256 116.153  1.00  0.00    -0.394 OA
ATOM      4  H   UNL     1     144.825 145.981 116.648  1.00  0.00     0.210 HD
ENDBRANCH   2   3
ENDBRANCH   1   2
BRANCH   1   5
ATOM      5  C   UNL     1     143.333 143.340 117.941  1.00  0.00     0.190 C 
BRANCH   5   6
ATOM      6  O   UNL     1     144.615 143.472 118.494  1.00  0.00    -0.394 OA
ATOM      7  H   UNL     1     144.575 144.240 119.121  1.00  0.00     0.210 HD
ENDBRANCH   5   6
ENDBRANCH   1   5
BRANCH   1   8
ATOM      8  O   UNL     1     142.962 145.648 117.308  1.00  0.00    -0.388 OA
ATOM      9  H   UNL     1     143.529 145.728 118.121  1.00  0.00     0.211 HD
ENDBRANCH   1   8
TORSDOF 5
ENDMDL
MODEL 3
REMARK VINA RESULT:    -2.664     14.027     15.153
REMARK INTER + INTRA:          -3.433
REMARK INTER:                  -3.209
REMARK INTRA:                  -0.224
REMARK UNBOUND:                -0.224
REMARK SMILES OCC(O)CO
REMARK SMILES IDX 3 1 5 2 6 3 2 5 1 6 4 8
REMARK H PARENT 6 4 1 7 4 9
REMARK Flexibility Score: inf
ROOT
ATOM      1  C   UNL     1     130.003 143.919 117.080  1.00  0.00     0.165 C 
ENDROOT
BRANCH   1   2
ATOM      2  C   UNL     1     128.993 143.850 118.240  1.00  0.00     0.190 C 
BRANCH   2   3
ATOM      3  O   UNL     1     128.304 145.064 118.376  1.00  0.00    -0.394 OA
ATOM      4  H   UNL     1     128.959 145.726 118.717  1.00  0.00     0.210 HD
ENDBRANCH   2   3
ENDBRANCH   1   2
BRANCH   1   5
ATOM      5  C   UNL     1     129.340 143.598 115.728  1.00  0.00     0.190 C 
BRANCH   5   6
ATOM      6  O   UNL     1     127.944 143.604 115.852  1.00  0.00    -0.394 OA
ATOM      7  H   UNL     1     127.678 144.547 116.017  1.00  0.00     0.210 HD
ENDBRANCH   5   6
ENDBRANCH   1   5
BRANCH   1   8
ATOM      8  O   UNL     1     130.615 145.184 117.042  1.00  0.00    -0.388 OA
ATOM      9  H   UNL     1     131.597 145.044 117.113  1.00  0.00     0.211 HD
ENDBRANCH   1   8
TORSDOF 5
ENDMDL
MODEL 4
REMARK VINA RESULT:    -2.636      1.225      3.174
REMARK INTER + INTRA:          -3.399
REMARK INTER:                  -3.388
REMARK INTRA:                  -0.011
REMARK UNBOUND:                -0.224
REMARK SMILES OCC(O)CO
REMARK SMILES IDX 3 1 5 2 6 3 2 5 1 6 4 8
REMARK H PARENT 6 4 1 7 4 9
REMARK Flexibility Score: inf
ROOT
ATOM      1  C   UNL     1     144.870 143.009 117.571  1.00  0.00     0.165 C 
ENDROOT
BRANCH   1   2
ATOM      2  C   UNL     1     144.535 143.951 116.401  1.00  0.00     0.190 C 
BRANCH   2   3
ATOM      3  O   UNL     1     143.869 145.098 116.858  1.00  0.00    -0.394 OA
ATOM      4  H   UNL     1     143.331 144.820 117.644  1.00  0.00     0.210 HD
ENDBRANCH   2   3
ENDBRANCH   1   2
BRANCH   1   5
ATOM      5  C   UNL     1     146.388 142.920 117.814  1.00  0.00     0.190 C 
BRANCH   5   6
ATOM      6  O   UNL     1     146.714 143.433 119.077  1.00  0.00    -0.394 OA
ATOM      7  H   UNL     1     147.340 142.785 119.494  1.00  0.00     0.210 HD
ENDBRANCH   5   6
ENDBRANCH   1   5
BRANCH   1   8
ATOM      8  O   UNL     1     144.207 143.425 118.739  1.00  0.00    -0.388 OA
ATOM      9  H   UNL     1     144.124 144.414 118.700  1.00  0.00     0.211 HD
ENDBRANCH   1   8
TORSDOF 5
ENDMDL
MODEL 5
REMARK VINA RESULT:    -2.630     13.846     15.083
REMARK INTER + INTRA:          -3.392
REMARK INTER:                  -3.176
REMARK INTRA:                  -0.215
REMARK UNBOUND:                -0.224
REMARK SMILES OCC(O)CO
REMARK SMILES IDX 3 1 5 2 6 3 2 5 1 6 4 8
REMARK H PARENT 6 4 1 7 4 9
REMARK Flexibility Score: inf
ROOT
ATOM      1  C   UNL     1     129.217 143.445 116.821  1.00  0.00     0.165 C 
ENDROOT
BRANCH   1   2
ATOM      2  C   UNL     1     130.451 144.168 116.254  1.00  0.00     0.190 C 
BRANCH   2   3
ATOM      3  O   UNL     1     130.798 145.267 117.052  1.00  0.00    -0.394 OA
ATOM      4  H   UNL     1     130.626 145.001 117.992  1.00  0.00     0.210 HD
ENDBRANCH   2   3
ENDBRANCH   1   2
BRANCH   1   5
ATOM      5  C   UNL     1     128.964 143.819 118.293  1.00  0.00     0.190 C 
BRANCH   5   6
ATOM      6  O   UNL     1     128.307 145.055 118.379  1.00  0.00    -0.394 OA
ATOM      7  H   UNL     1     128.829 145.609 119.018  1.00  0.00     0.210 HD
ENDBRANCH   5   6
ENDBRANCH   1   5
BRANCH   1   8
ATOM      8  O   UNL     1     128.083 143.727 116.039  1.00  0.00    -0.388 OA
ATOM      9  H   UNL     1     127.898 144.700 116.119  1.00  0.00     0.211 HD
ENDBRANCH   1   8
TORSDOF 5
ENDMDL
MODEL 6
REMARK VINA RESULT:    -2.598     13.826     15.115
REMARK INTER + INTRA:          -3.353
REMARK INTER:                  -3.351
REMARK INTRA:                  -0.002
REMARK UNBOUND:                -0.224
REMARK SMILES OCC(O)CO
REMARK SMILES IDX 3 1 5 2 6 3 2 5 1 6 4 8
REMARK H PARENT 6 4 1 7 4 9
REMARK Flexibility Score: inf
ROOT
ATOM      1  C   UNL     1     129.382 143.865 117.348  1.00  0.00     0.165 C 
ENDROOT
BRANCH   1   2
ATOM      2  C   UNL     1     128.693 143.442 116.038  1.00  0.00     0.190 C 
BRANCH   2   3
ATOM      3  O   UNL     1     127.510 142.737 116.300  1.00  0.00    -0.394 OA
ATOM      4  H   UNL     1     127.590 142.382 117.223  1.00  0.00     0.210 HD
ENDBRANCH   2   3
ENDBRANCH   1   2
BRANCH   1   5
ATOM      5  C   UNL     1     130.852 144.260 117.118  1.00  0.00     0.190 C 
BRANCH   5   6
ATOM      6  O   UNL     1     130.979 145.653 117.035  1.00  0.00    -0.394 OA
ATOM      7  H   UNL     1     131.914 145.869 117.290  1.00  0.00     0.210 HD
ENDBRANCH   5   6
ENDBRANCH   1   5
BRANCH   1   8
ATOM      8  O   UNL     1     128.676 144.922 117.951  1.00  0.00    -0.388 OA
ATOM      9  H   UNL     1     127.737 144.622 118.076  1.00  0.00     0.211 HD
ENDBRANCH   1   8
TORSDOF 5
ENDMDL
MODEL 7
REMARK VINA RESULT:    -2.584     19.660     20.674
REMARK INTER + INTRA:          -3.337
REMARK INTER:                  -3.115
REMARK INTRA:                  -0.222
REMARK UNBOUND:                -0.224
REMARK SMILES OCC(O)CO
REMARK SMILES IDX 3 1 5 2 6 3 2 5 1 6 4 8
REMARK H PARENT 6 4 1 7 4 9
REMARK Flexibility Score: inf
ROOT
ATOM      1  C   UNL     1     127.386 145.166 129.131  1.00  0.00     0.165 C 
ENDROOT
BRANCH   1   2
ATOM      2  C   UNL     1     126.985 146.542 129.692  1.00  0.00     0.190 C 
BRANCH   2   3
ATOM      3  O   UNL     1     128.019 147.087 130.466  1.00  0.00    -0.394 OA
ATOM      4  H   UNL     1     128.575 147.634 129.853  1.00  0.00     0.210 HD
ENDBRANCH   2   3
ENDBRANCH   1   2
BRANCH   1   5
ATOM      5  C   UNL     1     128.632 145.258 128.232  1.00  0.00     0.190 C 
BRANCH   5   6
ATOM      6  O   UNL     1     128.703 146.518 127.620  1.00  0.00    -0.394 OA
ATOM      7  H   UNL     1     127.954 146.559 126.969  1.00  0.00     0.210 HD
ENDBRANCH   5   6
ENDBRANCH   1   5
BRANCH   1   8
ATOM      8  O   UNL     1     127.600 144.254 130.179  1.00  0.00    -0.388 OA
ATOM      9  H   UNL     1     128.568 144.276 130.402  1.00  0.00     0.211 HD
ENDBRANCH   1   8
TORSDOF 5
ENDMDL
MODEL 8
REMARK VINA RESULT:    -2.579     20.041     21.032
REMARK INTER + INTRA:          -3.331
REMARK INTER:                  -3.328
REMARK INTRA:                  -0.002
REMARK UNBOUND:                -0.224
REMARK SMILES OCC(O)CO
REMARK SMILES IDX 3 1 5 2 6 3 2 5 1 6 4 8
REMARK H PARENT 6 4 1 7 4 9
REMARK Flexibility Score: inf
ROOT
ATOM      1  C   UNL     1     127.893 145.396 129.593  1.00  0.00     0.165 C 
ENDROOT
BRANCH   1   2
ATOM      2  C   UNL     1     127.686 145.698 128.098  1.00  0.00     0.190 C 
BRANCH   2   3
ATOM      3  O   UNL     1     128.769 146.423 127.580  1.00  0.00    -0.394 OA
ATOM      4  H   UNL     1     129.151 146.942 128.335  1.00  0.00     0.210 HD
ENDBRANCH   2   3
ENDBRANCH   1   2
BRANCH   1   5
ATOM      5  C   UNL     1     127.220 146.454 130.486  1.00  0.00     0.190 C 
BRANCH   5   6
ATOM      6  O   UNL     1     127.306 146.083 131.836  1.00  0.00    -0.394 OA
ATOM      7  H   UNL     1     128.223 146.318 132.136  1.00  0.00     0.210 HD
ENDBRANCH   5   6
ENDBRANCH   1   5
BRANCH   1   8
ATOM      8  O   UNL     1     127.412 144.111 129.902  1.00  0.00    -0.388 OA
ATOM      9  H   UNL     1     128.197 143.540 130.113  1.00  0.00     0.211 HD
ENDBRANCH   1   8
TORSDOF 5
ENDMDL
MODEL 9
REMARK VINA RESULT:    -2.571      1.582      2.183
REMARK INTER + INTRA:          -3.320
REMARK INTER:                  -3.101
REMARK INTRA:                  -0.219
REMARK UNBOUND:                -0.224
REMARK SMILES OCC(O)CO
REMARK SMILES IDX 3 1 5 2 6 3 2 5 1 6 4 8
REMARK H PARENT 6 4 1 7 4 9
REMARK Flexibility Score: inf
ROOT
ATOM      1  C   UNL     1     145.898 143.029 117.055  1.00  0.00     0.165 C 
ENDROOT
BRANCH   1   2
ATOM      2  C   UNL     1     144.461 142.736 117.522  1.00  0.00     0.190 C 
BRANCH   2   3
ATOM      3  O   UNL     1     144.098 143.582 118.580  1.00  0.00    -0.394 OA
ATOM      4  H   UNL     1     144.191 144.511 118.246  1.00  0.00     0.210 HD
ENDBRANCH   2   3
ENDBRANCH   1   2
BRANCH   1   5
ATOM      5  C   UNL     1     145.927 144.060 115.912  1.00  0.00     0.190 C 
BRANCH   5   6
ATOM      6  O   UNL     1     145.108 145.156 116.220  1.00  0.00    -0.394 OA
ATOM      7  H   UNL     1     144.276 145.045 115.689  1.00  0.00     0.210 HD
ENDBRANCH   5   6
ENDBRANCH   1   5
BRANCH   1   8
ATOM      8  O   UNL     1     146.683 143.467 118.136  1.00  0.00    -0.388 OA
ATOM      9  H   UNL     1     147.562 143.755 117.771  1.00  0.00     0.211 HD
ENDBRANCH   1   8
TORSDOF 5
ENDMDL
