MODEL 1
REMARK VINA RESULT:    -2.423      0.000      0.000
REMARK INTER + INTRA:          -5.315
REMARK INTER:                  -4.264
REMARK INTRA:                  -1.051
REMARK UNBOUND:                -1.051
REMARK SMILES CCCCCCCCCCCCCCC(=O)[O-]
REMARK SMILES IDX 9 1 10 2 11 3 12 4 13 5 14 6 15 7 16 8 17 9 8 10 7 11 6 12
REMARK SMILES IDX 5 13 4 14 3 15 2 16 1 17
REMARK H PARENT
REMARK Flexibility Score: inf
ROOT
ATOM      1  C   UNL     1       3.784 -33.835  20.942  1.00  0.00     0.000 C 
ENDROOT
BRANCH   1   2
ATOM      2  C   UNL     1       4.029 -34.096  22.436  1.00  0.00     0.000 C 
BRANCH   2   3
ATOM      3  C   UNL     1       5.400 -33.555  22.870  1.00  0.00     0.000 C 
BRANCH   3   4
ATOM      4  C   UNL     1       6.124 -34.483  23.864  1.00  0.00     0.000 C 
BRANCH   4   5
ATOM      5  C   UNL     1       5.448 -35.848  24.090  1.00  0.00     0.006 C 
BRANCH   5   6
ATOM      6  C   UNL     1       5.731 -36.432  25.479  1.00  0.00     0.053 C 
BRANCH   6   7
ATOM      7  C   UNL     1       4.777 -37.546  25.780  1.00  0.00     0.041 C 
ATOM      8  O   UNL     1       4.995 -38.704  25.337  1.00  0.00    -0.550 OA
ATOM      9  O   UNL     1       3.622 -37.293  26.509  1.00  0.00    -0.550 OA
ENDBRANCH   6   7
ENDBRANCH   5   6
ENDBRANCH   4   5
ENDBRANCH   3   4
ENDBRANCH   2   3
ENDBRANCH   1   2
BRANCH   1  10
ATOM     10  C   UNL     1       5.029 -34.107  20.083  1.00  0.00     0.000 C 
BRANCH  10  11
ATOM     11  C   UNL     1       4.690 -34.823  18.763  1.00  0.00    -0.000 C 
BRANCH  11  12
ATOM     12  C   UNL     1       4.628 -36.351  18.916  1.00  0.00    -0.000 C 
BRANCH  12  13
ATOM     13  C   UNL     1       5.217 -36.835  20.253  1.00  0.00    -0.000 C 
BRANCH  13  14
ATOM     14  C   UNL     1       4.807 -38.278  20.590  1.00  0.00    -0.000 C 
BRANCH  14  15
ATOM     15  C   UNL     1       5.829 -39.316  20.095  1.00  0.00    -0.000 C 
BRANCH  15  16
ATOM     16  C   UNL     1       6.030 -40.466  21.096  1.00  0.00    -0.003 C 
ATOM     17  C   UNL     1       5.189 -40.300  22.361  1.00  0.00     0.004 C 
ENDBRANCH  15  16
ENDBRANCH  14  15
ENDBRANCH  13  14
ENDBRANCH  12  13
ENDBRANCH  11  12
ENDBRANCH  10  11
ENDBRANCH   1  10
TORSDOF 13
ENDMDL
MODEL 2
REMARK VINA RESULT:    -1.186      2.717      4.465
REMARK INTER + INTRA:          -3.138
REMARK INTER:                  -2.027
REMARK INTRA:                  -1.111
REMARK UNBOUND:                -1.051
REMARK SMILES CCCCCCCCCCCCCCC(=O)[O-]
REMARK SMILES IDX 9 1 10 2 11 3 12 4 13 5 14 6 15 7 16 8 17 9 8 10 7 11 6 12
REMARK SMILES IDX 5 13 4 14 3 15 2 16 1 17
REMARK H PARENT
REMARK Flexibility Score: inf
ROOT
ATOM      1  C   UNL     1       4.260 -33.742  22.138  1.00  0.00     0.000 C 
ENDROOT
BRANCH   1   2
ATOM      2  C   UNL     1       5.745 -33.765  22.533  1.00  0.00     0.000 C 
BRANCH   2   3
ATOM      3  C   UNL     1       5.955 -34.561  23.830  1.00  0.00     0.000 C 
BRANCH   3   4
ATOM      4  C   UNL     1       5.269 -35.940  23.806  1.00  0.00     0.000 C 
BRANCH   4   5
ATOM      5  C   UNL     1       5.729 -36.874  22.671  1.00  0.00     0.006 C 
BRANCH   5   6
ATOM      6  C   UNL     1       4.565 -37.409  21.828  1.00  0.00     0.053 C 
BRANCH   6   7
ATOM      7  C   UNL     1       5.069 -38.345  20.775  1.00  0.00     0.041 C 
ATOM      8  O   UNL     1       4.925 -38.063  19.556  1.00  0.00    -0.550 OA
ATOM      9  O   UNL     1       5.653 -39.551  21.139  1.00  0.00    -0.550 OA
ENDBRANCH   6   7
ENDBRANCH   5   6
ENDBRANCH   4   5
ENDBRANCH   3   4
ENDBRANCH   2   3
ENDBRANCH   1   2
BRANCH   1  10
ATOM     10  C   UNL     1       4.036 -34.097  20.659  1.00  0.00     0.000 C 
BRANCH  10  11
ATOM     11  C   UNL     1       5.336 -34.521  19.951  1.00  0.00    -0.000 C 
BRANCH  11  12
ATOM     12  C   UNL     1       5.198 -34.538  18.420  1.00  0.00    -0.000 C 
BRANCH  12  13
ATOM     13  C   UNL     1       3.887 -35.194  17.953  1.00  0.00    -0.000 C 
BRANCH  13  14
ATOM     14  C   UNL     1       4.069 -36.028  16.674  1.00  0.00    -0.000 C 
BRANCH  14  15
ATOM     15  C   UNL     1       2.861 -35.931  15.725  1.00  0.00    -0.000 C 
BRANCH  15  16
ATOM     16  C   UNL     1       3.098 -36.666  14.396  1.00  0.00    -0.003 C 
ATOM     17  C   UNL     1       3.721 -38.048  14.590  1.00  0.00     0.004 C 
ENDBRANCH  15  16
ENDBRANCH  14  15
ENDBRANCH  13  14
ENDBRANCH  12  13
ENDBRANCH  11  12
ENDBRANCH  10  11
ENDBRANCH   1  10
TORSDOF 13
ENDMDL
MODEL 3
REMARK VINA RESULT:    -0.904      4.211      6.407
REMARK INTER + INTRA:          -2.642
REMARK INTER:                  -1.662
REMARK INTRA:                  -0.980
REMARK UNBOUND:                -1.051
REMARK SMILES CCCCCCCCCCCCCCC(=O)[O-]
REMARK SMILES IDX 9 1 10 2 11 3 12 4 13 5 14 6 15 7 16 8 17 9 8 10 7 11 6 12
REMARK SMILES IDX 5 13 4 14 3 15 2 16 1 17
REMARK H PARENT
REMARK Flexibility Score: inf
ROOT
ATOM      1  C   UNL     1       4.231 -34.157  20.632  1.00  0.00     0.000 C 
ENDROOT
BRANCH   1   2
ATOM      2  C   UNL     1       5.665 -34.420  20.145  1.00  0.00     0.000 C 
BRANCH   2   3
ATOM      3  C   UNL     1       5.675 -34.816  18.660  1.00  0.00     0.000 C 
BRANCH   3   4
ATOM      4  C   UNL     1       4.265 -34.875  18.045  1.00  0.00     0.000 C 
BRANCH   4   5
ATOM      5  C   UNL     1       4.082 -35.930  16.938  1.00  0.00     0.006 C 
BRANCH   5   6
ATOM      6  C   UNL     1       2.899 -35.626  16.011  1.00  0.00     0.053 C 
BRANCH   6   7
ATOM      7  C   UNL     1       2.862 -36.598  14.875  1.00  0.00     0.041 C 
ATOM      8  O   UNL     1       1.864 -36.638  14.107  1.00  0.00    -0.550 OA
ATOM      9  O   UNL     1       3.907 -37.495  14.694  1.00  0.00    -0.550 OA
ENDBRANCH   6   7
ENDBRANCH   5   6
ENDBRANCH   4   5
ENDBRANCH   3   4
ENDBRANCH   2   3
ENDBRANCH   1   2
BRANCH   1  10
ATOM     10  C   UNL     1       4.177 -33.731  22.108  1.00  0.00     0.000 C 
BRANCH  10  11
ATOM     11  C   UNL     1       5.569 -33.707  22.766  1.00  0.00    -0.000 C 
BRANCH  11  12
ATOM     12  C   UNL     1       5.731 -34.784  23.851  1.00  0.00    -0.000 C 
BRANCH  12  13
ATOM     13  C   UNL     1       4.996 -36.090  23.501  1.00  0.00    -0.000 C 
BRANCH  13  14
ATOM     14  C   UNL     1       5.741 -36.919  22.442  1.00  0.00    -0.000 C 
BRANCH  14  15
ATOM     15  C   UNL     1       4.796 -37.532  21.394  1.00  0.00    -0.000 C 
BRANCH  15  16
ATOM     16  C   UNL     1       5.347 -38.837  20.797  1.00  0.00    -0.003 C 
ATOM     17  C   UNL     1       5.437 -39.964  21.826  1.00  0.00     0.004 C 
ENDBRANCH  15  16
ENDBRANCH  14  15
ENDBRANCH  13  14
ENDBRANCH  12  13
ENDBRANCH  11  12
ENDBRANCH  10  11
ENDBRANCH   1  10
TORSDOF 13
ENDMDL
MODEL 4
REMARK VINA RESULT:    -0.867      2.233      4.759
REMARK INTER + INTRA:          -2.577
REMARK INTER:                  -1.546
REMARK INTRA:                  -1.031
REMARK UNBOUND:                -1.051
REMARK SMILES CCCCCCCCCCCCCCC(=O)[O-]
REMARK SMILES IDX 9 1 10 2 11 3 12 4 13 5 14 6 15 7 16 8 17 9 8 10 7 11 6 12
REMARK SMILES IDX 5 13 4 14 3 15 2 16 1 17
REMARK H PARENT
REMARK Flexibility Score: inf
ROOT
ATOM      1  C   UNL     1       4.987 -39.183  24.000  1.00  0.00     0.000 C 
ENDROOT
BRANCH   1   2
ATOM      2  C   UNL     1       5.428 -37.738  23.720  1.00  0.00     0.000 C 
BRANCH   2   3
ATOM      3  C   UNL     1       5.326 -36.877  24.989  1.00  0.00     0.000 C 
BRANCH   3   4
ATOM      4  C   UNL     1       5.791 -35.426  24.769  1.00  0.00     0.000 C 
BRANCH   4   5
ATOM      5  C   UNL     1       5.978 -35.020  23.296  1.00  0.00     0.006 C 
BRANCH   5   6
ATOM      6  C   UNL     1       5.270 -33.706  22.943  1.00  0.00     0.053 C 
BRANCH   6   7
ATOM      7  C   UNL     1       4.040 -33.976  22.134  1.00  0.00     0.041 C 
ATOM      8  O   UNL     1       3.512 -35.119  22.149  1.00  0.00    -0.550 OA
ATOM      9  O   UNL     1       3.508 -32.981  21.325  1.00  0.00    -0.550 OA
ENDBRANCH   6   7
ENDBRANCH   5   6
ENDBRANCH   4   5
ENDBRANCH   3   4
ENDBRANCH   2   3
ENDBRANCH   1   2
BRANCH   1  10
ATOM     10  C   UNL     1       4.756 -39.990  22.713  1.00  0.00     0.000 C 
BRANCH  10  11
ATOM     11  C   UNL     1       5.905 -39.828  21.701  1.00  0.00    -0.000 C 
BRANCH  11  12
ATOM     12  C   UNL     1       5.443 -39.194  20.378  1.00  0.00    -0.000 C 
BRANCH  12  13
ATOM     13  C   UNL     1       4.702 -37.862  20.589  1.00  0.00    -0.000 C 
BRANCH  13  14
ATOM     14  C   UNL     1       4.891 -36.890  19.413  1.00  0.00    -0.000 C 
BRANCH  14  15
ATOM     15  C   UNL     1       5.803 -35.701  19.765  1.00  0.00    -0.000 C 
BRANCH  15  16
ATOM     16  C   UNL     1       5.528 -34.470  18.887  1.00  0.00    -0.003 C 
ATOM     17  C   UNL     1       4.344 -34.672  17.942  1.00  0.00     0.004 C 
ENDBRANCH  15  16
ENDBRANCH  14  15
ENDBRANCH  13  14
ENDBRANCH  12  13
ENDBRANCH  11  12
ENDBRANCH  10  11
ENDBRANCH   1  10
TORSDOF 13
ENDMDL
MODEL 5
REMARK VINA RESULT:    -0.574      4.441      7.035
REMARK INTER + INTRA:          -2.062
REMARK INTER:                  -1.502
REMARK INTRA:                  -0.561
REMARK UNBOUND:                -1.051
REMARK SMILES CCCCCCCCCCCCCCC(=O)[O-]
REMARK SMILES IDX 9 1 10 2 11 3 12 4 13 5 14 6 15 7 16 8 17 9 8 10 7 11 6 12
REMARK SMILES IDX 5 13 4 14 3 15 2 16 1 17
REMARK H PARENT
REMARK Flexibility Score: inf
ROOT
ATOM      1  C   UNL     1       5.012 -36.586  20.652  1.00  0.00     0.000 C 
ENDROOT
BRANCH   1   2
ATOM      2  C   UNL     1       4.631 -36.917  19.201  1.00  0.00     0.000 C 
BRANCH   2   3
ATOM      3  C   UNL     1       4.980 -35.751  18.263  1.00  0.00     0.000 C 
BRANCH   3   4
ATOM      4  C   UNL     1       3.738 -34.997  17.753  1.00  0.00     0.000 C 
BRANCH   4   5
ATOM      5  C   UNL     1       3.139 -35.542  16.443  1.00  0.00     0.006 C 
BRANCH   5   6
ATOM      6  C   UNL     1       3.966 -36.682  15.836  1.00  0.00     0.053 C 
BRANCH   6   7
ATOM      7  C   UNL     1       3.303 -37.208  14.603  1.00  0.00     0.041 C 
ATOM      8  O   UNL     1       2.240 -36.681  14.181  1.00  0.00    -0.550 OA
ATOM      9  O   UNL     1       3.831 -38.313  13.947  1.00  0.00    -0.550 OA
ENDBRANCH   6   7
ENDBRANCH   5   6
ENDBRANCH   4   5
ENDBRANCH   3   4
ENDBRANCH   2   3
ENDBRANCH   1   2
BRANCH   1  10
ATOM     10  C   UNL     1       5.685 -35.211  20.788  1.00  0.00     0.000 C 
BRANCH  10  11
ATOM     11  C   UNL     1       4.677 -34.087  21.086  1.00  0.00    -0.000 C 
BRANCH  11  12
ATOM     12  C   UNL     1       4.642 -33.702  22.574  1.00  0.00    -0.000 C 
BRANCH  12  13
ATOM     13  C   UNL     1       6.040 -33.706  23.218  1.00  0.00    -0.000 C 
BRANCH  13  14
ATOM     14  C   UNL     1       6.103 -34.577  24.483  1.00  0.00    -0.000 C 
BRANCH  14  15
ATOM     15  C   UNL     1       5.412 -35.940  24.301  1.00  0.00    -0.000 C 
BRANCH  15  16
ATOM     16  C   UNL     1       5.648 -36.882  25.492  1.00  0.00    -0.003 C 
ATOM     17  C   UNL     1       4.356 -37.512  26.010  1.00  0.00     0.004 C 
ENDBRANCH  15  16
ENDBRANCH  14  15
ENDBRANCH  13  14
ENDBRANCH  12  13
ENDBRANCH  11  12
ENDBRANCH  10  11
ENDBRANCH   1  10
TORSDOF 13
ENDMDL
MODEL 6
REMARK VINA RESULT:    -0.528      2.367      3.746
REMARK INTER + INTRA:          -1.981
REMARK INTER:                  -1.135
REMARK INTRA:                  -0.846
REMARK UNBOUND:                -1.051
REMARK SMILES CCCCCCCCCCCCCCC(=O)[O-]
REMARK SMILES IDX 9 1 10 2 11 3 12 4 13 5 14 6 15 7 16 8 17 9 8 10 7 11 6 12
REMARK SMILES IDX 5 13 4 14 3 15 2 16 1 17
REMARK H PARENT
REMARK Flexibility Score: inf
ROOT
ATOM      1  C   UNL     1       4.322 -35.750  21.346  1.00  0.00     0.000 C 
ENDROOT
BRANCH   1   2
ATOM      2  C   UNL     1       4.161 -34.223  21.416  1.00  0.00     0.000 C 
BRANCH   2   3
ATOM      3  C   UNL     1       4.757 -33.668  22.718  1.00  0.00     0.000 C 
BRANCH   3   4
ATOM      4  C   UNL     1       6.059 -34.379  23.133  1.00  0.00     0.000 C 
BRANCH   4   5
ATOM      5  C   UNL     1       6.013 -35.064  24.512  1.00  0.00     0.006 C 
BRANCH   5   6
ATOM      6  C   UNL     1       6.092 -36.593  24.423  1.00  0.00     0.053 C 
BRANCH   6   7
ATOM      7  C   UNL     1       5.103 -37.221  25.354  1.00  0.00     0.041 C 
ATOM      8  O   UNL     1       5.001 -38.475  25.417  1.00  0.00    -0.550 OA
ATOM      9  O   UNL     1       4.259 -36.422  26.114  1.00  0.00    -0.550 OA
ENDBRANCH   6   7
ENDBRANCH   5   6
ENDBRANCH   4   5
ENDBRANCH   3   4
ENDBRANCH   2   3
ENDBRANCH   1   2
BRANCH   1  10
ATOM     10  C   UNL     1       4.801 -36.231  19.967  1.00  0.00     0.000 C 
BRANCH  10  11
ATOM     11  C   UNL     1       5.417 -35.097  19.128  1.00  0.00    -0.000 C 
BRANCH  11  12
ATOM     12  C   UNL     1       4.542 -34.708  17.925  1.00  0.00    -0.000 C 
BRANCH  12  13
ATOM     13  C   UNL     1       3.939 -35.932  17.214  1.00  0.00    -0.000 C 
BRANCH  13  14
ATOM     14  C   UNL     1       3.099 -35.544  15.985  1.00  0.00    -0.000 C 
BRANCH  14  15
ATOM     15  C   UNL     1       2.669 -36.764  15.151  1.00  0.00    -0.000 C 
BRANCH  15  16
ATOM     16  C   UNL     1       3.739 -37.184  14.131  1.00  0.00    -0.003 C 
ATOM     17  C   UNL     1       4.067 -38.675  14.200  1.00  0.00     0.004 C 
ENDBRANCH  15  16
ENDBRANCH  14  15
ENDBRANCH  13  14
ENDBRANCH  12  13
ENDBRANCH  11  12
ENDBRANCH  10  11
ENDBRANCH   1  10
TORSDOF 13
ENDMDL
MODEL 7
REMARK VINA RESULT:    -0.496      2.939      6.462
REMARK INTER + INTRA:          -1.923
REMARK INTER:                  -0.548
REMARK INTRA:                  -1.376
REMARK UNBOUND:                -1.051
REMARK SMILES CCCCCCCCCCCCCCC(=O)[O-]
REMARK SMILES IDX 9 1 10 2 11 3 12 4 13 5 14 6 15 7 16 8 17 9 8 10 7 11 6 12
REMARK SMILES IDX 5 13 4 14 3 15 2 16 1 17
REMARK H PARENT
REMARK Flexibility Score: inf
ROOT
ATOM      1  C   UNL     1       4.427 -39.645  23.119  1.00  0.00     0.000 C 
ENDROOT
BRANCH   1   2
ATOM      2  C   UNL     1       5.455 -40.242  22.146  1.00  0.00     0.000 C 
BRANCH   2   3
ATOM      3  C   UNL     1       5.672 -39.315  20.940  1.00  0.00     0.000 C 
BRANCH   3   4
ATOM      4  C   UNL     1       4.764 -38.072  20.968  1.00  0.00     0.000 C 
BRANCH   4   5
ATOM      5  C   UNL     1       5.348 -36.825  20.278  1.00  0.00     0.006 C 
BRANCH   5   6
ATOM      6  C   UNL     1       4.618 -36.464  18.978  1.00  0.00     0.053 C 
BRANCH   6   7
ATOM      7  C   UNL     1       4.952 -35.066  18.563  1.00  0.00     0.041 C 
ATOM      8  O   UNL     1       4.273 -34.490  17.673  1.00  0.00    -0.550 OA
ATOM      9  O   UNL     1       6.045 -34.416  19.124  1.00  0.00    -0.550 OA
ENDBRANCH   6   7
ENDBRANCH   5   6
ENDBRANCH   4   5
ENDBRANCH   3   4
ENDBRANCH   2   3
ENDBRANCH   1   2
BRANCH   1  10
ATOM     10  C   UNL     1       5.058 -39.206  24.450  1.00  0.00     0.000 C 
BRANCH  10  11
ATOM     11  C   UNL     1       4.633 -37.786  24.865  1.00  0.00    -0.000 C 
BRANCH  11  12
ATOM     12  C   UNL     1       5.761 -37.009  25.562  1.00  0.00    -0.000 C 
BRANCH  12  13
ATOM     13  C   UNL     1       5.947 -35.594  24.987  1.00  0.00    -0.000 C 
BRANCH  13  14
ATOM     14  C   UNL     1       5.787 -35.554  23.458  1.00  0.00    -0.000 C 
BRANCH  14  15
ATOM     15  C   UNL     1       5.159 -34.240  22.960  1.00  0.00    -0.000 C 
BRANCH  15  16
ATOM     16  C   UNL     1       3.904 -34.476  22.106  1.00  0.00    -0.003 C 
ATOM     17  C   UNL     1       3.461 -33.224  21.350  1.00  0.00     0.004 C 
ENDBRANCH  15  16
ENDBRANCH  14  15
ENDBRANCH  13  14
ENDBRANCH  12  13
ENDBRANCH  11  12
ENDBRANCH  10  11
ENDBRANCH   1  10
TORSDOF 13
ENDMDL
