MODEL 1
REMARK VINA RESULT:    30.546      0.000      0.000
REMARK INTER + INTRA:          36.419
REMARK INTER:                  35.903
REMARK INTRA:                   0.516
REMARK UNBOUND:                 0.516
REMARK SMILES O=c1c(O)c(-c2ccc(O)cc2)oc2cc(O)cc(O)c12
REMARK SMILES IDX 5 1 3 2 2 3 1 4 21 5 19 6 18 7 16 8 15 9 14 10 13 11 6 12
REMARK SMILES IDX 7 13 8 14 9 15 12 16 11 17 10 18 4 20 20 22 17 24
REMARK H PARENT 10 19 4 21 20 23 17 25
REMARK Flexibility Score: inf
ROOT
ATOM      1  C   UNL     1      10.892  12.043  29.736  1.00  0.00     0.180 A 
ATOM      2  C   UNL     1      12.183  12.357  30.194  1.00  0.00     0.208 A 
ATOM      3  C   UNL     1      12.990  13.212  29.425  1.00  0.00     0.238 A 
ATOM      4  O   UNL     1      14.163  13.447  29.813  1.00  0.00    -0.285 OA
ATOM      5  C   UNL     1      12.489  13.755  28.217  1.00  0.00     0.111 A 
ATOM      6  C   UNL     1      13.204  14.663  27.379  1.00  0.00     0.134 A 
ATOM      7  C   UNL     1      12.662  15.033  26.142  1.00  0.00     0.093 A 
ATOM      8  C   UNL     1      11.403  14.579  25.742  1.00  0.00     0.123 A 
ATOM      9  C   UNL     1      10.673  13.739  26.580  1.00  0.00     0.094 A 
ATOM     10  C   UNL     1      11.202  13.324  27.803  1.00  0.00     0.146 A 
ATOM     11  O   UNL     1      10.477  12.515  28.567  1.00  0.00    -0.452 OA
ENDROOT
BRANCH   1  12
ATOM     12  C   UNL     1       9.975  11.169  30.503  1.00  0.00     0.021 A 
ATOM     13  C   UNL     1      10.489  10.353  31.524  1.00  0.00     0.016 A 
ATOM     14  C   UNL     1       9.645   9.503  32.245  1.00  0.00     0.047 A 
ATOM     15  C   UNL     1       8.278   9.449  31.943  1.00  0.00     0.115 A 
ATOM     16  C   UNL     1       8.605  11.094  30.194  1.00  0.00     0.016 A 
ATOM     17  C   UNL     1       7.762  10.243  30.916  1.00  0.00     0.047 A 
BRANCH  15  18
ATOM     18  O   UNL     1       7.427   8.607  32.656  1.00  0.00    -0.508 OA
ATOM     19  H   UNL     1       6.901   7.872  32.195  1.00  0.00     0.293 HD
ENDBRANCH  15  18
ENDBRANCH   1  12
BRANCH   2  20
ATOM     20  O   UNL     1      12.666  11.794  31.378  1.00  0.00    -0.502 OA
ATOM     21  H   UNL     1      12.101  11.189  31.962  1.00  0.00     0.293 HD
ENDBRANCH   2  20
BRANCH   6  22
ATOM     22  O   UNL     1      14.425  15.248  27.726  1.00  0.00    -0.507 OA
ATOM     23  H   UNL     1      14.850  16.023  27.240  1.00  0.00     0.293 HD
ENDBRANCH   6  22
BRANCH   8  24
ATOM     24  O   UNL     1      10.865  14.963  24.516  1.00  0.00    -0.508 OA
ATOM     25  H   UNL     1      10.974  14.391  23.686  1.00  0.00     0.293 HD
ENDBRANCH   8  24
TORSDOF 5
ENDMDL
MODEL 2
REMARK VINA RESULT:    32.063      2.087      3.483
REMARK INTER + INTRA:          38.203
REMARK INTER:                  37.723
REMARK INTRA:                   0.480
REMARK UNBOUND:                 0.516
REMARK SMILES O=c1c(O)c(-c2ccc(O)cc2)oc2cc(O)cc(O)c12
REMARK SMILES IDX 5 1 3 2 2 3 1 4 21 5 19 6 18 7 16 8 15 9 14 10 13 11 6 12
REMARK SMILES IDX 7 13 8 14 9 15 12 16 11 17 10 18 4 20 20 22 17 24
REMARK H PARENT 10 19 4 21 20 23 17 25
REMARK Flexibility Score: inf
ROOT
ATOM      1  C   UNL     1      11.111  12.033  30.900  1.00  0.00     0.180 A 
ATOM      2  C   UNL     1      11.612  11.922  29.591  1.00  0.00     0.208 A 
ATOM      3  C   UNL     1      12.522  12.885  29.127  1.00  0.00     0.238 A 
ATOM      4  O   UNL     1      12.925  12.812  27.937  1.00  0.00    -0.285 OA
ATOM      5  C   UNL     1      12.933  13.936  29.982  1.00  0.00     0.111 A 
ATOM      6  C   UNL     1      13.882  14.943  29.630  1.00  0.00     0.134 A 
ATOM      7  C   UNL     1      14.115  16.009  30.508  1.00  0.00     0.093 A 
ATOM      8  C   UNL     1      13.483  16.069  31.752  1.00  0.00     0.123 A 
ATOM      9  C   UNL     1      12.601  15.059  32.128  1.00  0.00     0.094 A 
ATOM     10  C   UNL     1      12.320  14.002  31.260  1.00  0.00     0.146 A 
ATOM     11  O   UNL     1      11.465  13.066  31.654  1.00  0.00    -0.452 OA
ENDROOT
BRANCH   1  12
ATOM     12  C   UNL     1      10.168  11.043  31.469  1.00  0.00     0.021 A 
ATOM     13  C   UNL     1       9.416  10.228  30.606  1.00  0.00     0.016 A 
ATOM     14  C   UNL     1       8.502   9.304  31.121  1.00  0.00     0.047 A 
ATOM     15  C   UNL     1       8.318   9.193  32.505  1.00  0.00     0.115 A 
ATOM     16  C   UNL     1       9.962  10.940  32.857  1.00  0.00     0.016 A 
ATOM     17  C   UNL     1       9.047  10.015  33.369  1.00  0.00     0.047 A 
BRANCH  15  18
ATOM     18  O   UNL     1       7.412   8.275  33.030  1.00  0.00    -0.508 OA
ATOM     19  H   UNL     1       7.045   7.513  32.471  1.00  0.00     0.293 HD
ENDBRANCH  15  18
ENDBRANCH   1  12
BRANCH   2  20
ATOM     20  O   UNL     1      11.177  10.889  28.757  1.00  0.00    -0.502 OA
ATOM     21  H   UNL     1      11.643   9.991  28.714  1.00  0.00     0.293 HD
ENDBRANCH   2  20
BRANCH   6  22
ATOM     22  O   UNL     1      14.635  14.928  28.453  1.00  0.00    -0.507 OA
ATOM     23  H   UNL     1      15.642  14.975  28.413  1.00  0.00     0.293 HD
ENDBRANCH   6  22
BRANCH   8  24
ATOM     24  O   UNL     1      13.732  17.125  32.625  1.00  0.00    -0.508 OA
ATOM     25  H   UNL     1      13.273  18.022  32.516  1.00  0.00     0.293 HD
ENDBRANCH   8  24
TORSDOF 5
ENDMDL
