MODEL 1
REMARK VINA RESULT:    -5.598      0.000      0.000
REMARK INTER + INTRA:          -6.215
REMARK INTER:                  -6.089
REMARK INTRA:                  -0.126
REMARK UNBOUND:                -0.126
REMARK SMILES Cc1ccc(C(C)C)cc1O
REMARK SMILES IDX 1 1 2 2 10 3 9 4 5 5 4 6 3 7 11 8 6 10 7 11 8 12
REMARK H PARENT 11 9
REMARK Flexibility Score: inf
ROOT
ATOM      1  C   UNL     1     -13.239   6.304  34.395  1.00  0.00     0.048 C 
ATOM      2  C   UNL     1     -12.140   7.178  34.930  1.00  0.00    -0.009 A 
ATOM      3  C   UNL     1     -12.385   8.519  35.302  1.00  0.00     0.118 A 
ATOM      4  C   UNL     1     -11.339   9.306  35.796  1.00  0.00     0.050 A 
ATOM      5  C   UNL     1     -10.040   8.783  35.930  1.00  0.00    -0.042 A 
ATOM      6  C   UNL     1      -9.805   7.449  35.558  1.00  0.00     0.004 A 
ATOM      7  C   UNL     1     -10.843   6.656  35.063  1.00  0.00     0.007 A 
ENDROOT
BRANCH   3   8
ATOM      8  O   UNL     1     -13.651   9.095  35.193  1.00  0.00    -0.508 OA
ATOM      9  H   UNL     1     -14.072   9.646  35.930  1.00  0.00     0.293 HD
ENDBRANCH   3   8
BRANCH   5  10
ATOM     10  C   UNL     1      -8.903   9.632  36.466  1.00  0.00     0.013 C 
ATOM     11  C   UNL     1      -9.422  10.702  37.434  1.00  0.00     0.012 C 
ATOM     12  C   UNL     1      -7.829   8.762  37.130  1.00  0.00     0.012 C 
ENDBRANCH   5  10
TORSDOF 2
ENDMDL
MODEL 2
REMARK VINA RESULT:    -5.490      1.008      1.527
REMARK INTER + INTRA:          -6.098
REMARK INTER:                  -5.983
REMARK INTRA:                  -0.114
REMARK UNBOUND:                -0.126
REMARK SMILES Cc1ccc(C(C)C)cc1O
REMARK SMILES IDX 1 1 2 2 10 3 9 4 5 5 4 6 3 7 11 8 6 10 7 11 8 12
REMARK H PARENT 11 9
REMARK Flexibility Score: inf
ROOT
ATOM      1  C   UNL     1     -14.126   7.261  34.238  1.00  0.00     0.048 C 
ATOM      2  C   UNL     1     -12.742   7.514  34.769  1.00  0.00    -0.009 A 
ATOM      3  C   UNL     1     -12.350   8.797  35.210  1.00  0.00     0.118 A 
ATOM      4  C   UNL     1     -11.054   8.999  35.698  1.00  0.00     0.050 A 
ATOM      5  C   UNL     1     -10.131   7.940  35.758  1.00  0.00    -0.042 A 
ATOM      6  C   UNL     1     -10.528   6.668  35.317  1.00  0.00     0.004 A 
ATOM      7  C   UNL     1     -11.819   6.457  34.827  1.00  0.00     0.007 A 
ENDROOT
BRANCH   3   8
ATOM      8  O   UNL     1     -13.221   9.887  35.176  1.00  0.00    -0.508 OA
ATOM      9  H   UNL     1     -14.168   9.827  34.824  1.00  0.00     0.293 HD
ENDBRANCH   3   8
BRANCH   5  10
ATOM     10  C   UNL     1      -8.724   8.154  36.287  1.00  0.00     0.013 C 
ATOM     11  C   UNL     1      -7.679   7.911  35.191  1.00  0.00     0.012 C 
ATOM     12  C   UNL     1      -8.570   9.551  36.897  1.00  0.00     0.012 C 
ENDBRANCH   5  10
TORSDOF 2
ENDMDL
MODEL 3
REMARK VINA RESULT:    -5.461      1.746      2.802
REMARK INTER + INTRA:          -6.066
REMARK INTER:                  -5.939
REMARK INTRA:                  -0.128
REMARK UNBOUND:                -0.126
REMARK SMILES Cc1ccc(C(C)C)cc1O
REMARK SMILES IDX 1 1 2 2 10 3 9 4 5 5 4 6 3 7 11 8 6 10 7 11 8 12
REMARK H PARENT 11 9
REMARK Flexibility Score: inf
ROOT
ATOM      1  C   UNL     1     -14.737   7.254  33.899  1.00  0.00     0.048 C 
ATOM      2  C   UNL     1     -13.308   7.278  34.367  1.00  0.00    -0.009 A 
ATOM      3  C   UNL     1     -12.446   6.181  34.146  1.00  0.00     0.118 A 
ATOM      4  C   UNL     1     -11.122   6.236  34.595  1.00  0.00     0.050 A 
ATOM      5  C   UNL     1     -10.631   7.371  35.265  1.00  0.00    -0.042 A 
ATOM      6  C   UNL     1     -11.495   8.457  35.481  1.00  0.00     0.004 A 
ATOM      7  C   UNL     1     -12.818   8.411  35.037  1.00  0.00     0.007 A 
ENDROOT
BRANCH   3   8
ATOM      8  O   UNL     1     -12.874   5.028  33.487  1.00  0.00    -0.508 OA
ATOM      9  H   UNL     1     -12.785   4.899  32.487  1.00  0.00     0.293 HD
ENDBRANCH   3   8
BRANCH   5  10
ATOM     10  C   UNL     1      -9.196   7.435  35.753  1.00  0.00     0.013 C 
ATOM     11  C   UNL     1      -8.217   7.033  34.643  1.00  0.00     0.012 C 
ATOM     12  C   UNL     1      -8.862   8.826  36.306  1.00  0.00     0.012 C 
ENDBRANCH   5  10
TORSDOF 2
ENDMDL
MODEL 4
REMARK VINA RESULT:    -5.413      1.582      4.990
REMARK INTER + INTRA:          -6.014
REMARK INTER:                  -5.899
REMARK INTRA:                  -0.115
REMARK UNBOUND:                -0.126
REMARK SMILES Cc1ccc(C(C)C)cc1O
REMARK SMILES IDX 1 1 2 2 10 3 9 4 5 5 4 6 3 7 11 8 6 10 7 11 8 12
REMARK H PARENT 11 9
REMARK Flexibility Score: inf
ROOT
ATOM      1  C   UNL     1     -10.907   9.326  35.931  1.00  0.00     0.048 C 
ATOM      2  C   UNL     1     -11.693   8.166  35.387  1.00  0.00    -0.009 A 
ATOM      3  C   UNL     1     -13.064   8.293  35.074  1.00  0.00     0.118 A 
ATOM      4  C   UNL     1     -13.768   7.193  34.569  1.00  0.00     0.050 A 
ATOM      5  C   UNL     1     -13.129   5.957  34.368  1.00  0.00    -0.042 A 
ATOM      6  C   UNL     1     -11.766   5.839  34.682  1.00  0.00     0.004 A 
ATOM      7  C   UNL     1     -11.056   6.930  35.186  1.00  0.00     0.007 A 
ENDROOT
BRANCH   3   8
ATOM      8  O   UNL     1     -13.754   9.494  35.252  1.00  0.00    -0.508 OA
ATOM      9  H   UNL     1     -14.695   9.645  34.911  1.00  0.00     0.293 HD
ENDBRANCH   3   8
BRANCH   5  10
ATOM     10  C   UNL     1     -13.887   4.762  33.820  1.00  0.00     0.013 C 
ATOM     11  C   UNL     1     -13.930   3.619  34.843  1.00  0.00     0.012 C 
ATOM     12  C   UNL     1     -15.300   5.159  33.377  1.00  0.00     0.012 C 
ENDBRANCH   5  10
TORSDOF 2
ENDMDL
MODEL 5
REMARK VINA RESULT:    -5.379      2.103      5.042
REMARK INTER + INTRA:          -5.977
REMARK INTER:                  -5.849
REMARK INTRA:                  -0.128
REMARK UNBOUND:                -0.126
REMARK SMILES Cc1ccc(C(C)C)cc1O
REMARK SMILES IDX 1 1 2 2 10 3 9 4 5 5 4 6 3 7 11 8 6 10 7 11 8 12
REMARK H PARENT 11 9
REMARK Flexibility Score: inf
ROOT
ATOM      1  C   UNL     1     -10.868   9.808  36.114  1.00  0.00     0.048 C 
ATOM      2  C   UNL     1     -11.417   8.490  35.644  1.00  0.00    -0.009 A 
ATOM      3  C   UNL     1     -10.698   7.289  35.834  1.00  0.00     0.118 A 
ATOM      4  C   UNL     1     -11.237   6.077  35.385  1.00  0.00     0.050 A 
ATOM      5  C   UNL     1     -12.488   6.036  34.744  1.00  0.00    -0.042 A 
ATOM      6  C   UNL     1     -13.195   7.234  34.558  1.00  0.00     0.004 A 
ATOM      7  C   UNL     1     -12.665   8.447  35.003  1.00  0.00     0.007 A 
ENDROOT
BRANCH   3   8
ATOM      8  O   UNL     1      -9.453   7.265  36.463  1.00  0.00    -0.508 OA
ATOM      9  H   UNL     1      -8.579   7.341  35.959  1.00  0.00     0.293 HD
ENDBRANCH   3   8
BRANCH   5  10
ATOM     10  C   UNL     1     -13.077   4.725  34.255  1.00  0.00     0.013 C 
ATOM     11  C   UNL     1     -13.002   3.647  35.344  1.00  0.00     0.012 C 
ATOM     12  C   UNL     1     -14.517   4.915  33.765  1.00  0.00     0.012 C 
ENDBRANCH   5  10
TORSDOF 2
ENDMDL
MODEL 6
REMARK VINA RESULT:    -5.275      2.428      4.545
REMARK INTER + INTRA:          -5.863
REMARK INTER:                  -5.762
REMARK INTRA:                  -0.101
REMARK UNBOUND:                -0.126
REMARK SMILES Cc1ccc(C(C)C)cc1O
REMARK SMILES IDX 1 1 2 2 10 3 9 4 5 5 4 6 3 7 11 8 6 10 7 11 8 12
REMARK H PARENT 11 9
REMARK Flexibility Score: inf
ROOT
ATOM      1  C   UNL     1      -9.609  10.831  37.461  1.00  0.00     0.048 C 
ATOM      2  C   UNL     1      -9.645   9.551  36.673  1.00  0.00    -0.009 A 
ATOM      3  C   UNL     1      -8.476   8.786  36.464  1.00  0.00     0.118 A 
ATOM      4  C   UNL     1      -8.544   7.600  35.726  1.00  0.00     0.050 A 
ATOM      5  C   UNL     1      -9.763   7.153  35.184  1.00  0.00    -0.042 A 
ATOM      6  C   UNL     1     -10.920   7.919  35.396  1.00  0.00     0.004 A 
ATOM      7  C   UNL     1     -10.862   9.105  36.131  1.00  0.00     0.007 A 
ENDROOT
BRANCH   3   8
ATOM      8  O   UNL     1      -7.237   9.177  36.975  1.00  0.00    -0.508 OA
ATOM      9  H   UNL     1      -7.130   9.636  37.871  1.00  0.00     0.293 HD
ENDBRANCH   3   8
BRANCH   5  10
ATOM     10  C   UNL     1      -9.842   5.866  34.383  1.00  0.00     0.013 C 
ATOM     11  C   UNL     1      -8.624   5.713  33.464  1.00  0.00     0.012 C 
ATOM     12  C   UNL     1      -9.994   4.650  35.304  1.00  0.00     0.012 C 
ENDBRANCH   5  10
TORSDOF 2
ENDMDL
MODEL 7
REMARK VINA RESULT:    -5.231      3.896      4.931
REMARK INTER + INTRA:          -5.815
REMARK INTER:                  -5.710
REMARK INTRA:                  -0.105
REMARK UNBOUND:                -0.126
REMARK SMILES Cc1ccc(C(C)C)cc1O
REMARK SMILES IDX 1 1 2 2 10 3 9 4 5 5 4 6 3 7 11 8 6 10 7 11 8 12
REMARK H PARENT 11 9
REMARK Flexibility Score: inf
ROOT
ATOM      1  C   UNL     1     -16.124   6.945  32.931  1.00  0.00     0.048 C 
ATOM      2  C   UNL     1     -14.902   6.355  33.579  1.00  0.00    -0.009 A 
ATOM      3  C   UNL     1     -14.753   4.959  33.725  1.00  0.00     0.118 A 
ATOM      4  C   UNL     1     -13.603   4.442  34.333  1.00  0.00     0.050 A 
ATOM      5  C   UNL     1     -12.589   5.294  34.804  1.00  0.00    -0.042 A 
ATOM      6  C   UNL     1     -12.745   6.681  34.656  1.00  0.00     0.004 A 
ATOM      7  C   UNL     1     -13.889   7.206  34.051  1.00  0.00     0.007 A 
ENDROOT
BRANCH   3   8
ATOM      8  O   UNL     1     -15.724   4.062  33.278  1.00  0.00    -0.508 OA
ATOM      9  H   UNL     1     -16.445   4.314  32.614  1.00  0.00     0.293 HD
ENDBRANCH   3   8
BRANCH   5  10
ATOM     10  C   UNL     1     -11.340   4.738  35.464  1.00  0.00     0.013 C 
ATOM     11  C   UNL     1     -11.631   3.402  36.158  1.00  0.00     0.012 C 
ATOM     12  C   UNL     1     -10.197   4.597  34.452  1.00  0.00     0.012 C 
ENDBRANCH   5  10
TORSDOF 2
ENDMDL
MODEL 8
REMARK VINA RESULT:    -5.214      1.510      2.098
REMARK INTER + INTRA:          -5.798
REMARK INTER:                  -5.674
REMARK INTRA:                  -0.124
REMARK UNBOUND:                -0.126
REMARK SMILES Cc1ccc(C(C)C)cc1O
REMARK SMILES IDX 1 1 2 2 10 3 9 4 5 5 4 6 3 7 11 8 6 10 7 11 8 12
REMARK H PARENT 11 9
REMARK Flexibility Score: inf
ROOT
ATOM      1  C   UNL     1     -13.471   6.164  34.268  1.00  0.00     0.048 C 
ATOM      2  C   UNL     1     -12.352   7.015  34.802  1.00  0.00    -0.009 A 
ATOM      3  C   UNL     1     -11.083   6.463  35.084  1.00  0.00     0.118 A 
ATOM      4  C   UNL     1     -10.063   7.283  35.581  1.00  0.00     0.050 A 
ATOM      5  C   UNL     1     -10.282   8.654  35.805  1.00  0.00    -0.042 A 
ATOM      6  C   UNL     1     -11.546   9.194  35.522  1.00  0.00     0.004 A 
ATOM      7  C   UNL     1     -12.570   8.384  35.027  1.00  0.00     0.007 A 
ENDROOT
BRANCH   3   8
ATOM      8  O   UNL     1     -10.804   5.111  34.883  1.00  0.00    -0.508 OA
ATOM      9  H   UNL     1      -9.874   4.721  34.962  1.00  0.00     0.293 HD
ENDBRANCH   3   8
BRANCH   5  10
ATOM     10  C   UNL     1      -9.179   9.548  36.343  1.00  0.00     0.013 C 
ATOM     11  C   UNL     1      -9.735  10.571  37.341  1.00  0.00     0.012 C 
ATOM     12  C   UNL     1      -8.054   8.718  36.973  1.00  0.00     0.012 C 
ENDBRANCH   5  10
TORSDOF 2
ENDMDL
MODEL 9
REMARK VINA RESULT:    -5.177      1.534      4.352
REMARK INTER + INTRA:          -5.757
REMARK INTER:                  -5.637
REMARK INTRA:                  -0.120
REMARK UNBOUND:                -0.126
REMARK SMILES Cc1ccc(C(C)C)cc1O
REMARK SMILES IDX 1 1 2 2 10 3 9 4 5 5 4 6 3 7 11 8 6 10 7 11 8 12
REMARK H PARENT 11 9
REMARK Flexibility Score: inf
ROOT
ATOM      1  C   UNL     1      -7.884   8.845  36.773  1.00  0.00     0.048 C 
ATOM      2  C   UNL     1      -9.114   8.253  36.142  1.00  0.00    -0.009 A 
ATOM      3  C   UNL     1     -10.376   8.874  36.274  1.00  0.00     0.118 A 
ATOM      4  C   UNL     1     -11.501   8.296  35.674  1.00  0.00     0.050 A 
ATOM      5  C   UNL     1     -11.396   7.102  34.939  1.00  0.00    -0.042 A 
ATOM      6  C   UNL     1     -10.138   6.492  34.812  1.00  0.00     0.004 A 
ATOM      7  C   UNL     1      -9.010   7.061  35.408  1.00  0.00     0.007 A 
ENDROOT
BRANCH   3   8
ATOM      8  O   UNL     1     -10.544  10.059  36.991  1.00  0.00    -0.508 OA
ATOM      9  H   UNL     1     -10.049  10.914  36.768  1.00  0.00     0.293 HD
ENDBRANCH   3   8
BRANCH   5  10
ATOM     10  C   UNL     1     -12.613   6.473  34.286  1.00  0.00     0.013 C 
ATOM     11  C   UNL     1     -12.752   4.998  34.684  1.00  0.00     0.012 C 
ATOM     12  C   UNL     1     -13.887   7.257  34.620  1.00  0.00     0.012 C 
ENDBRANCH   5  10
TORSDOF 2
ENDMDL
