MODEL 1
REMARK VINA RESULT:    -3.890      0.000      0.000
REMARK INTER + INTRA:          -4.118
REMARK INTER:                  -4.118
REMARK INTRA:                   0.000
REMARK UNBOUND:                 0.000
REMARK SMILES O=c1ccc2cc(O)c(O)cc2o1
REMARK SMILES IDX 4 1 3 2 2 3 1 4 13 5 12 6 11 7 9 8 7 9 6 10 5 11 8 12 10 14
REMARK H PARENT 8 13 10 15
REMARK Flexibility Score: inf
ROOT
ATOM      1  C   UNL     1      97.067 109.831 108.016  1.00  0.00     0.019 A 
ATOM      2  C   UNL     1      97.682 108.780 108.696  1.00  0.00     0.094 A 
ATOM      3  C   UNL     1      99.051 108.859 108.972  1.00  0.00     0.336 A 
ATOM      4  O   UNL     1      99.624 107.921 109.584  1.00  0.00    -0.246 OA
ATOM      5  O   UNL     1      99.753 109.924 108.591  1.00  0.00    -0.423 OA
ATOM      6  C   UNL     1      99.206 110.948 107.940  1.00  0.00     0.142 A 
ATOM      7  C   UNL     1      99.995 112.039 107.565  1.00  0.00     0.098 A 
ATOM      8  C   UNL     1      99.427 113.120 106.880  1.00  0.00     0.161 A 
ATOM      9  C   UNL     1      98.055 113.111 106.568  1.00  0.00     0.158 A 
ATOM     10  C   UNL     1      97.260 112.018 106.942  1.00  0.00     0.062 A 
ATOM     11  C   UNL     1      97.830 110.936 107.627  1.00  0.00     0.022 A 
ENDROOT
BRANCH   9  12
ATOM     12  O   UNL     1      97.488 114.187 105.887  1.00  0.00    -0.504 OA
ATOM     13  H   UNL     1      97.826 114.476 104.977  1.00  0.00     0.293 HD
ENDBRANCH   9  12
BRANCH   8  14
ATOM     14  O   UNL     1     100.241 114.194 106.520  1.00  0.00    -0.504 OA
ATOM     15  H   UNL     1     101.156 114.336 106.930  1.00  0.00     0.293 HD
ENDBRANCH   8  14
TORSDOF 2
ENDMDL
MODEL 2
REMARK VINA RESULT:    -3.844     15.367     16.696
REMARK INTER + INTRA:          -4.069
REMARK INTER:                  -4.069
REMARK INTRA:                   0.000
REMARK UNBOUND:                 0.000
REMARK SMILES O=c1ccc2cc(O)c(O)cc2o1
REMARK SMILES IDX 4 1 3 2 2 3 1 4 13 5 12 6 11 7 9 8 7 9 6 10 5 11 8 12 10 14
REMARK H PARENT 8 13 10 15
REMARK Flexibility Score: inf
ROOT
ATOM      1  C   UNL     1     113.147 100.698 102.609  1.00  0.00     0.019 A 
ATOM      2  C   UNL     1     112.753  99.371 102.440  1.00  0.00     0.094 A 
ATOM      3  C   UNL     1     111.429  99.016 102.719  1.00  0.00     0.336 A 
ATOM      4  O   UNL     1     111.053  97.824 102.574  1.00  0.00    -0.246 OA
ATOM      5  O   UNL     1     110.561  99.934 103.139  1.00  0.00    -0.423 OA
ATOM      6  C   UNL     1     110.895 101.210 103.313  1.00  0.00     0.142 A 
ATOM      7  C   UNL     1     109.940 102.129 103.756  1.00  0.00     0.098 A 
ATOM      8  C   UNL     1     110.284 103.474 103.942  1.00  0.00     0.161 A 
ATOM      9  C   UNL     1     111.598 103.905 103.682  1.00  0.00     0.158 A 
ATOM     10  C   UNL     1     112.560 102.985 103.237  1.00  0.00     0.062 A 
ATOM     11  C   UNL     1     112.215 101.640 103.052  1.00  0.00     0.022 A 
ENDROOT
BRANCH   9  12
ATOM     12  O   UNL     1     111.943 105.243 103.866  1.00  0.00    -0.504 OA
ATOM     13  H   UNL     1     112.500 105.745 103.186  1.00  0.00     0.293 HD
ENDBRANCH   9  12
BRANCH   8  14
ATOM     14  O   UNL     1     109.309 104.366 104.386  1.00  0.00    -0.504 OA
ATOM     15  H   UNL     1     109.524 105.130 105.015  1.00  0.00     0.293 HD
ENDBRANCH   8  14
TORSDOF 2
ENDMDL
MODEL 3
REMARK VINA RESULT:    -3.825     15.461     16.661
REMARK INTER + INTRA:          -4.048
REMARK INTER:                  -4.048
REMARK INTRA:                   0.000
REMARK UNBOUND:                 0.000
REMARK SMILES O=c1ccc2cc(O)c(O)cc2o1
REMARK SMILES IDX 4 1 3 2 2 3 1 4 13 5 12 6 11 7 9 8 7 9 6 10 5 11 8 12 10 14
REMARK H PARENT 8 13 10 15
REMARK Flexibility Score: inf
ROOT
ATOM      1  C   UNL     1     110.554  99.924 103.066  1.00  0.00     0.019 A 
ATOM      2  C   UNL     1     111.561  99.066 102.624  1.00  0.00     0.094 A 
ATOM      3  C   UNL     1     112.848  99.575 102.427  1.00  0.00     0.336 A 
ATOM      4  O   UNL     1     113.770  98.818 102.028  1.00  0.00    -0.246 OA
ATOM      5  O   UNL     1     113.106 100.861 102.659  1.00  0.00    -0.423 OA
ATOM      6  C   UNL     1     112.175 101.713 103.081  1.00  0.00     0.142 A 
ATOM      7  C   UNL     1     112.505 103.052 103.308  1.00  0.00     0.098 A 
ATOM      8  C   UNL     1     111.531 103.955 103.753  1.00  0.00     0.161 A 
ATOM      9  C   UNL     1     110.213 103.515 103.972  1.00  0.00     0.158 A 
ATOM     10  C   UNL     1     109.878 102.172 103.746  1.00  0.00     0.062 A 
ATOM     11  C   UNL     1     110.853 101.269 103.301  1.00  0.00     0.022 A 
ENDROOT
BRANCH   9  12
ATOM     12  O   UNL     1     109.243 104.413 104.415  1.00  0.00    -0.504 OA
ATOM     13  H   UNL     1     109.493 105.275 104.885  1.00  0.00     0.293 HD
ENDBRANCH   9  12
BRANCH   8  14
ATOM     14  O   UNL     1     111.892 105.285 103.969  1.00  0.00    -0.504 OA
ATOM     15  H   UNL     1     112.660 105.721 103.473  1.00  0.00     0.293 HD
ENDBRANCH   8  14
TORSDOF 2
ENDMDL
MODEL 4
REMARK VINA RESULT:    -3.816     12.609     14.229
REMARK INTER + INTRA:          -4.039
REMARK INTER:                  -4.039
REMARK INTRA:                   0.000
REMARK UNBOUND:                 0.000
REMARK SMILES O=c1ccc2cc(O)c(O)cc2o1
REMARK SMILES IDX 4 1 3 2 2 3 1 4 13 5 12 6 11 7 9 8 7 9 6 10 5 11 8 12 10 14
REMARK H PARENT 8 13 10 15
REMARK Flexibility Score: inf
ROOT
ATOM      1  C   UNL     1     112.129 107.219 102.496  1.00  0.00     0.019 A 
ATOM      2  C   UNL     1     112.075 108.389 101.739  1.00  0.00     0.094 A 
ATOM      3  C   UNL     1     110.839 108.820 101.244  1.00  0.00     0.336 A 
ATOM      4  O   UNL     1     110.769 109.873 100.558  1.00  0.00    -0.246 OA
ATOM      5  O   UNL     1     109.734 108.122 101.495  1.00  0.00    -0.423 OA
ATOM      6  C   UNL     1     109.741 107.002 102.212  1.00  0.00     0.142 A 
ATOM      7  C   UNL     1     108.548 106.311 102.443  1.00  0.00     0.098 A 
ATOM      8  C   UNL     1     108.547 105.131 103.197  1.00  0.00     0.161 A 
ATOM      9  C   UNL     1     109.753 104.636 103.727  1.00  0.00     0.158 A 
ATOM     10  C   UNL     1     110.953 105.326 103.498  1.00  0.00     0.062 A 
ATOM     11  C   UNL     1     110.952 106.506 102.743  1.00  0.00     0.022 A 
ENDROOT
BRANCH   9  12
ATOM     12  O   UNL     1     109.754 103.462 104.478  1.00  0.00    -0.504 OA
ATOM     13  H   UNL     1     110.439 103.299 105.206  1.00  0.00     0.293 HD
ENDBRANCH   9  12
BRANCH   8  14
ATOM     14  O   UNL     1     107.340 104.466 103.408  1.00  0.00    -0.504 OA
ATOM     15  H   UNL     1     107.118 103.595 102.942  1.00  0.00     0.293 HD
ENDBRANCH   8  14
TORSDOF 2
ENDMDL
MODEL 5
REMARK VINA RESULT:    -3.808     16.864     18.505
REMARK INTER + INTRA:          -4.031
REMARK INTER:                  -4.031
REMARK INTRA:                   0.000
REMARK UNBOUND:                 0.000
REMARK SMILES O=c1ccc2cc(O)c(O)cc2o1
REMARK SMILES IDX 4 1 3 2 2 3 1 4 13 5 12 6 11 7 9 8 7 9 6 10 5 11 8 12 10 14
REMARK H PARENT 8 13 10 15
REMARK Flexibility Score: inf
ROOT
ATOM      1  C   UNL     1     110.764 100.949 110.559  1.00  0.00     0.019 A 
ATOM      2  C   UNL     1     111.314 101.687 111.607  1.00  0.00     0.094 A 
ATOM      3  C   UNL     1     112.586 101.348 112.080  1.00  0.00     0.336 A 
ATOM      4  O   UNL     1     113.100 102.002 113.025  1.00  0.00    -0.246 OA
ATOM      5  O   UNL     1     113.259 100.336 111.536  1.00  0.00    -0.423 OA
ATOM      6  C   UNL     1     112.771  99.607 110.536  1.00  0.00     0.142 A 
ATOM      7  C   UNL     1     113.524  98.556 110.006  1.00  0.00     0.098 A 
ATOM      8  C   UNL     1     113.018  97.783 108.953  1.00  0.00     0.161 A 
ATOM      9  C   UNL     1     111.745  98.065 108.425  1.00  0.00     0.158 A 
ATOM     10  C   UNL     1     110.985  99.119 108.955  1.00  0.00     0.062 A 
ATOM     11  C   UNL     1     111.493  99.891 110.008  1.00  0.00     0.022 A 
ENDROOT
BRANCH   9  12
ATOM     12  O   UNL     1     111.240  97.297 107.377  1.00  0.00    -0.504 OA
ATOM     13  H   UNL     1     110.633  97.697 106.670  1.00  0.00     0.293 HD
ENDBRANCH   9  12
BRANCH   8  14
ATOM     14  O   UNL     1     113.794  96.741 108.446  1.00  0.00    -0.504 OA
ATOM     15  H   UNL     1     114.243  96.797 107.540  1.00  0.00     0.293 HD
ENDBRANCH   8  14
TORSDOF 2
ENDMDL
MODEL 6
REMARK VINA RESULT:    -3.808      1.485      2.137
REMARK INTER + INTRA:          -4.030
REMARK INTER:                  -4.030
REMARK INTRA:                   0.000
REMARK UNBOUND:                 0.000
REMARK SMILES O=c1ccc2cc(O)c(O)cc2o1
REMARK SMILES IDX 4 1 3 2 2 3 1 4 13 5 12 6 11 7 9 8 7 9 6 10 5 11 8 12 10 14
REMARK H PARENT 8 13 10 15
REMARK Flexibility Score: inf
ROOT
ATOM      1  C   UNL     1      98.687 109.289 108.705  1.00  0.00     0.019 A 
ATOM      2  C   UNL     1     100.043 109.039 108.911  1.00  0.00     0.094 A 
ATOM      3  C   UNL     1     100.982 109.965 108.444  1.00  0.00     0.336 A 
ATOM      4  O   UNL     1     102.211 109.759 108.620  1.00  0.00    -0.246 OA
ATOM      5  O   UNL     1     100.583 111.068 107.813  1.00  0.00    -0.423 OA
ATOM      6  C   UNL     1      99.300 111.344 107.595  1.00  0.00     0.142 A 
ATOM      7  C   UNL     1      98.941 112.517 106.927  1.00  0.00     0.098 A 
ATOM      8  C   UNL     1      97.593 112.816 106.694  1.00  0.00     0.161 A 
ATOM      9  C   UNL     1      96.592 111.930 107.134  1.00  0.00     0.158 A 
ATOM     10  C   UNL     1      96.947 110.751 107.806  1.00  0.00     0.062 A 
ATOM     11  C   UNL     1      98.297 110.454 108.038  1.00  0.00     0.022 A 
ENDROOT
BRANCH   9  12
ATOM     12  O   UNL     1      95.249 112.226 106.903  1.00  0.00    -0.504 OA
ATOM     13  H   UNL     1      94.727 111.776 106.162  1.00  0.00     0.293 HD
ENDBRANCH   9  12
BRANCH   8  14
ATOM     14  O   UNL     1      97.268 113.994 106.023  1.00  0.00    -0.504 OA
ATOM     15  H   UNL     1      96.311 114.237 105.795  1.00  0.00     0.293 HD
ENDBRANCH   8  14
TORSDOF 2
ENDMDL
MODEL 7
REMARK VINA RESULT:    -3.805      9.740     10.985
REMARK INTER + INTRA:          -4.027
REMARK INTER:                  -4.027
REMARK INTRA:                   0.000
REMARK UNBOUND:                 0.000
REMARK SMILES O=c1ccc2cc(O)c(O)cc2o1
REMARK SMILES IDX 4 1 3 2 2 3 1 4 13 5 12 6 11 7 9 8 7 9 6 10 5 11 8 12 10 14
REMARK H PARENT 8 13 10 15
REMARK Flexibility Score: inf
ROOT
ATOM      1  C   UNL     1     109.856 107.905 109.938  1.00  0.00     0.019 A 
ATOM      2  C   UNL     1     108.721 107.232 110.389  1.00  0.00     0.094 A 
ATOM      3  C   UNL     1     107.507 107.923 110.461  1.00  0.00     0.336 A 
ATOM      4  O   UNL     1     106.471 107.334 110.866  1.00  0.00    -0.246 OA
ATOM      5  O   UNL     1     107.440 109.203 110.103  1.00  0.00    -0.423 OA
ATOM      6  C   UNL     1     108.498 109.882 109.668  1.00  0.00     0.142 A 
ATOM      7  C   UNL     1     108.366 111.225 109.306  1.00  0.00     0.098 A 
ATOM      8  C   UNL     1     109.475 111.947 108.847  1.00  0.00     0.161 A 
ATOM      9  C   UNL     1     110.730 111.318 108.748  1.00  0.00     0.158 A 
ATOM     10  C   UNL     1     110.867 109.970 109.110  1.00  0.00     0.062 A 
ATOM     11  C   UNL     1     109.756 109.249 109.570  1.00  0.00     0.022 A 
ENDROOT
BRANCH   9  12
ATOM     12  O   UNL     1     111.835 112.034 108.290  1.00  0.00    -0.504 OA
ATOM     13  H   UNL     1     112.762 111.627 108.275  1.00  0.00     0.293 HD
ENDBRANCH   9  12
BRANCH   8  14
ATOM     14  O   UNL     1     109.311 113.286 108.494  1.00  0.00    -0.504 OA
ATOM     15  H   UNL     1     108.774 113.566 107.682  1.00  0.00     0.293 HD
ENDBRANCH   8  14
TORSDOF 2
ENDMDL
MODEL 8
REMARK VINA RESULT:    -3.767     17.011     18.425
REMARK INTER + INTRA:          -3.988
REMARK INTER:                  -3.988
REMARK INTRA:                   0.000
REMARK UNBOUND:                 0.000
REMARK SMILES O=c1ccc2cc(O)c(O)cc2o1
REMARK SMILES IDX 4 1 3 2 2 3 1 4 13 5 12 6 11 7 9 8 7 9 6 10 5 11 8 12 10 14
REMARK H PARENT 8 13 10 15
REMARK Flexibility Score: inf
ROOT
ATOM      1  C   UNL     1     114.317  99.947 110.278  1.00  0.00     0.019 A 
ATOM      2  C   UNL     1     114.418 100.874 111.315  1.00  0.00     0.094 A 
ATOM      3  C   UNL     1     113.247 101.350 111.915  1.00  0.00     0.336 A 
ATOM      4  O   UNL     1     113.316 102.188 112.852  1.00  0.00    -0.246 OA
ATOM      5  O   UNL     1     112.057 100.921 111.501  1.00  0.00    -0.423 OA
ATOM      6  C   UNL     1     111.917 100.038 110.516  1.00  0.00     0.142 A 
ATOM      7  C   UNL     1     110.641  99.624 110.124  1.00  0.00     0.098 A 
ATOM      8  C   UNL     1     110.484  98.695 109.088  1.00  0.00     0.161 A 
ATOM      9  C   UNL     1     111.617  98.172 108.437  1.00  0.00     0.158 A 
ATOM     10  C   UNL     1     112.900  98.585 108.827  1.00  0.00     0.062 A 
ATOM     11  C   UNL     1     113.055  99.515 109.863  1.00  0.00     0.022 A 
ENDROOT
BRANCH   9  12
ATOM     12  O   UNL     1     111.463  97.247 107.406  1.00  0.00    -0.504 OA
ATOM     13  H   UNL     1     111.363  96.256 107.593  1.00  0.00     0.293 HD
ENDBRANCH   9  12
BRANCH   8  14
ATOM     14  O   UNL     1     109.197  98.303 108.720  1.00  0.00    -0.504 OA
ATOM     15  H   UNL     1     108.936  98.156 107.753  1.00  0.00     0.293 HD
ENDBRANCH   8  14
TORSDOF 2
ENDMDL
MODEL 9
REMARK VINA RESULT:    -3.712     11.993     13.521
REMARK INTER + INTRA:          -3.929
REMARK INTER:                  -3.929
REMARK INTRA:                   0.000
REMARK UNBOUND:                 0.000
REMARK SMILES O=c1ccc2cc(O)c(O)cc2o1
REMARK SMILES IDX 4 1 3 2 2 3 1 4 13 5 12 6 11 7 9 8 7 9 6 10 5 11 8 12 10 14
REMARK H PARENT 8 13 10 15
REMARK Flexibility Score: inf
ROOT
ATOM      1  C   UNL     1     109.731 108.198 101.517  1.00  0.00     0.019 A 
ATOM      2  C   UNL     1     108.485 108.724 101.174  1.00  0.00     0.094 A 
ATOM      3  C   UNL     1     107.330 108.057 101.593  1.00  0.00     0.336 A 
ATOM      4  O   UNL     1     106.196 108.515 101.295  1.00  0.00    -0.246 OA
ATOM      5  O   UNL     1     107.421 106.938 102.309  1.00  0.00    -0.423 OA
ATOM      6  C   UNL     1     108.588 106.403 102.657  1.00  0.00     0.142 A 
ATOM      7  C   UNL     1     108.621 105.226 103.410  1.00  0.00     0.098 A 
ATOM      8  C   UNL     1     109.846 104.657 103.780  1.00  0.00     0.161 A 
ATOM      9  C   UNL     1     111.051 105.271 103.394  1.00  0.00     0.158 A 
ATOM     10  C   UNL     1     111.023 106.453 102.639  1.00  0.00     0.062 A 
ATOM     11  C   UNL     1     109.796 107.022 102.268  1.00  0.00     0.022 A 
ENDROOT
BRANCH   9  12
ATOM     12  O   UNL     1     112.271 104.706 103.763  1.00  0.00    -0.504 OA
ATOM     13  H   UNL     1     112.619 104.768 104.712  1.00  0.00     0.293 HD
ENDBRANCH   9  12
BRANCH   8  14
ATOM     14  O   UNL     1     109.845 103.481 104.531  1.00  0.00    -0.504 OA
ATOM     15  H   UNL     1     110.254 103.434 105.456  1.00  0.00     0.293 HD
ENDBRANCH   8  14
TORSDOF 2
ENDMDL
