MODEL 1
REMARK VINA RESULT:    -2.928      0.000      0.000
REMARK INTER + INTRA:          -9.595
REMARK INTER:                  -6.351
REMARK INTRA:                  -3.243
REMARK UNBOUND:                -3.243
REMARK SMILES CCCCCCCCCCCCCCCCCCCCCC(=O)[O-]
REMARK SMILES IDX 12 1 11 2 10 3 9 4 8 5 7 6 6 7 5 8 4 9 3 10 2 11 1 12 13 13
REMARK SMILES IDX 14 14 15 15 16 16 17 17 18 18 19 19 20 20 21 21 22 22 23 23
REMARK SMILES IDX 24 24
REMARK H PARENT
REMARK Flexibility Score: inf
ROOT
ATOM      1  C   UNL     1      22.942  33.793  10.865  1.00  0.00     0.000 C 
ENDROOT
BRANCH   1   2
ATOM      2  C   UNL     1      24.194  32.996  10.454  1.00  0.00     0.000 C 
BRANCH   2   3
ATOM      3  C   UNL     1      25.001  32.398  11.623  1.00  0.00     0.000 C 
BRANCH   3   4
ATOM      4  C   UNL     1      24.389  31.135  12.255  1.00  0.00    -0.000 C 
BRANCH   4   5
ATOM      5  C   UNL     1      24.677  31.029  13.763  1.00  0.00    -0.000 C 
BRANCH   5   6
ATOM      6  C   UNL     1      26.174  30.876  14.075  1.00  0.00    -0.000 C 
BRANCH   6   7
ATOM      7  C   UNL     1      26.626  31.759  15.250  1.00  0.00    -0.000 C 
BRANCH   7   8
ATOM      8  C   UNL     1      25.464  32.610  15.779  1.00  0.00    -0.000 C 
BRANCH   8   9
ATOM      9  C   UNL     1      25.840  34.100  15.792  1.00  0.00    -0.000 C 
BRANCH   9  10
ATOM     10  C   UNL     1      27.041  34.415  14.887  1.00  0.00    -0.000 C 
BRANCH  10  11
ATOM     11  C   UNL     1      26.617  34.947  13.510  1.00  0.00    -0.003 C 
ATOM     12  C   UNL     1      27.355  34.219  12.389  1.00  0.00     0.004 C 
ENDBRANCH  10  11
ENDBRANCH   9  10
ENDBRANCH   8   9
ENDBRANCH   7   8
ENDBRANCH   6   7
ENDBRANCH   5   6
ENDBRANCH   4   5
ENDBRANCH   3   4
ENDBRANCH   2   3
ENDBRANCH   1   2
BRANCH   1  13
ATOM     13  C   UNL     1      23.219  35.067  11.689  1.00  0.00     0.000 C 
BRANCH  13  14
ATOM     14  C   UNL     1      23.163  34.880  13.216  1.00  0.00     0.000 C 
BRANCH  14  15
ATOM     15  C   UNL     1      21.973  34.048  13.730  1.00  0.00     0.000 C 
BRANCH  15  16
ATOM     16  C   UNL     1      22.087  33.640  15.215  1.00  0.00     0.000 C 
BRANCH  16  17
ATOM     17  C   UNL     1      22.476  34.818  16.125  1.00  0.00     0.000 C 
BRANCH  17  18
ATOM     18  C   UNL     1      21.564  36.041  15.927  1.00  0.00     0.000 C 
BRANCH  18  19
ATOM     19  C   UNL     1      22.358  37.351  15.780  1.00  0.00     0.000 C 
BRANCH  19  20
ATOM     20  C   UNL     1      23.876  37.118  15.737  1.00  0.00     0.006 C 
BRANCH  20  21
ATOM     21  C   UNL     1      24.524  37.697  14.474  1.00  0.00     0.053 C 
BRANCH  21  22
ATOM     22  C   UNL     1      24.386  39.188  14.451  1.00  0.00     0.041 C 
ATOM     23  O   UNL     1      25.005  39.896  15.287  1.00  0.00    -0.550 OA
ATOM     24  O   UNL     1      23.594  39.798  13.487  1.00  0.00    -0.550 OA
ENDBRANCH  21  22
ENDBRANCH  20  21
ENDBRANCH  19  20
ENDBRANCH  18  19
ENDBRANCH  17  18
ENDBRANCH  16  17
ENDBRANCH  15  16
ENDBRANCH  14  15
ENDBRANCH  13  14
ENDBRANCH   1  13
TORSDOF 20
ENDMDL
MODEL 2
REMARK VINA RESULT:    -2.384      3.076      5.767
REMARK INTER + INTRA:          -8.414
REMARK INTER:                  -6.015
REMARK INTRA:                  -2.399
REMARK UNBOUND:                -3.243
REMARK SMILES CCCCCCCCCCCCCCCCCCCCCC(=O)[O-]
REMARK SMILES IDX 12 1 11 2 10 3 9 4 8 5 7 6 6 7 5 8 4 9 3 10 2 11 1 12 13 13
REMARK SMILES IDX 14 14 15 15 16 16 17 17 18 18 19 19 20 20 21 21 22 22 23 23
REMARK SMILES IDX 24 24
REMARK H PARENT
REMARK Flexibility Score: inf
ROOT
ATOM      1  C   UNL     1      23.422  34.214  10.991  1.00  0.00     0.000 C 
ENDROOT
BRANCH   1   2
ATOM      2  C   UNL     1      22.412  34.166  12.152  1.00  0.00     0.000 C 
BRANCH   2   3
ATOM      3  C   UNL     1      22.686  33.082  13.212  1.00  0.00     0.000 C 
BRANCH   3   4
ATOM      4  C   UNL     1      22.426  33.514  14.666  1.00  0.00    -0.000 C 
BRANCH   4   5
ATOM      5  C   UNL     1      22.669  32.378  15.674  1.00  0.00    -0.000 C 
BRANCH   5   6
ATOM      6  C   UNL     1      21.912  31.090  15.314  1.00  0.00    -0.000 C 
BRANCH   6   7
ATOM      7  C   UNL     1      20.587  30.948  16.081  1.00  0.00    -0.000 C 
BRANCH   7   8
ATOM      8  C   UNL     1      19.471  31.758  15.407  1.00  0.00    -0.000 C 
BRANCH   8   9
ATOM      9  C   UNL     1      18.092  31.332  15.934  1.00  0.00    -0.000 C 
BRANCH   9  10
ATOM     10  C   UNL     1      16.958  31.652  14.948  1.00  0.00    -0.000 C 
BRANCH  10  11
ATOM     11  C   UNL     1      15.670  30.875  15.258  1.00  0.00    -0.003 C 
ATOM     12  C   UNL     1      14.590  31.800  15.813  1.00  0.00     0.004 C 
ENDBRANCH  10  11
ENDBRANCH   9  10
ENDBRANCH   8   9
ENDBRANCH   7   8
ENDBRANCH   6   7
ENDBRANCH   5   6
ENDBRANCH   4   5
ENDBRANCH   3   4
ENDBRANCH   2   3
ENDBRANCH   1   2
BRANCH   1  13
ATOM     13  C   UNL     1      24.127  32.877  10.682  1.00  0.00     0.000 C 
BRANCH  13  14
ATOM     14  C   UNL     1      25.626  32.835  11.029  1.00  0.00     0.000 C 
BRANCH  14  15
ATOM     15  C   UNL     1      26.047  31.692  11.974  1.00  0.00     0.000 C 
BRANCH  15  16
ATOM     16  C   UNL     1      26.687  32.173  13.294  1.00  0.00     0.000 C 
BRANCH  16  17
ATOM     17  C   UNL     1      26.491  33.680  13.533  1.00  0.00     0.000 C 
BRANCH  17  18
ATOM     18  C   UNL     1      26.035  33.995  14.967  1.00  0.00     0.000 C 
BRANCH  18  19
ATOM     19  C   UNL     1      25.318  35.353  15.074  1.00  0.00     0.000 C 
BRANCH  19  20
ATOM     20  C   UNL     1      25.060  35.992  13.700  1.00  0.00     0.006 C 
BRANCH  20  21
ATOM     21  C   UNL     1      24.084  37.171  13.774  1.00  0.00     0.053 C 
BRANCH  21  22
ATOM     22  C   UNL     1      23.773  37.504  15.200  1.00  0.00     0.041 C 
ATOM     23  O   UNL     1      24.429  38.393  15.803  1.00  0.00    -0.550 OA
ATOM     24  O   UNL     1      22.737  36.852  15.856  1.00  0.00    -0.550 OA
ENDBRANCH  21  22
ENDBRANCH  20  21
ENDBRANCH  19  20
ENDBRANCH  18  19
ENDBRANCH  17  18
ENDBRANCH  16  17
ENDBRANCH  15  16
ENDBRANCH  14  15
ENDBRANCH  13  14
ENDBRANCH   1  13
TORSDOF 20
ENDMDL
MODEL 3
REMARK VINA RESULT:    -2.371      2.877      6.487
REMARK INTER + INTRA:          -8.387
REMARK INTER:                  -5.791
REMARK INTRA:                  -2.596
REMARK UNBOUND:                -3.243
REMARK SMILES CCCCCCCCCCCCCCCCCCCCCC(=O)[O-]
REMARK SMILES IDX 12 1 11 2 10 3 9 4 8 5 7 6 6 7 5 8 4 9 3 10 2 11 1 12 13 13
REMARK SMILES IDX 14 14 15 15 16 16 17 17 18 18 19 19 20 20 21 21 22 22 23 23
REMARK SMILES IDX 24 24
REMARK H PARENT
REMARK Flexibility Score: inf
ROOT
ATOM      1  C   UNL     1      25.188  35.308  14.858  1.00  0.00     0.000 C 
ENDROOT
BRANCH   1   2
ATOM      2  C   UNL     1      24.294  36.557  14.750  1.00  0.00     0.000 C 
BRANCH   2   3
ATOM      3  C   UNL     1      23.040  36.542  15.647  1.00  0.00     0.000 C 
BRANCH   3   4
ATOM      4  C   UNL     1      21.792  35.908  15.006  1.00  0.00    -0.000 C 
BRANCH   4   5
ATOM      5  C   UNL     1      21.315  34.653  15.756  1.00  0.00    -0.000 C 
BRANCH   5   6
ATOM      6  C   UNL     1      21.726  33.348  15.056  1.00  0.00    -0.000 C 
BRANCH   6   7
ATOM      7  C   UNL     1      21.993  32.204  16.048  1.00  0.00    -0.000 C 
BRANCH   7   8
ATOM      8  C   UNL     1      20.935  31.101  15.916  1.00  0.00    -0.000 C 
BRANCH   8   9
ATOM      9  C   UNL     1      19.684  31.627  15.196  1.00  0.00    -0.000 C 
BRANCH   9  10
ATOM     10  C   UNL     1      18.392  30.961  15.694  1.00  0.00    -0.000 C 
BRANCH  10  11
ATOM     11  C   UNL     1      17.193  31.238  14.774  1.00  0.00    -0.003 C 
ATOM     12  C   UNL     1      15.924  31.486  15.585  1.00  0.00     0.004 C 
ENDBRANCH  10  11
ENDBRANCH   9  10
ENDBRANCH   8   9
ENDBRANCH   7   8
ENDBRANCH   6   7
ENDBRANCH   5   6
ENDBRANCH   4   5
ENDBRANCH   3   4
ENDBRANCH   2   3
ENDBRANCH   1   2
BRANCH   1  13
ATOM     13  C   UNL     1      24.971  34.456  16.125  1.00  0.00     0.000 C 
BRANCH  13  14
ATOM     14  C   UNL     1      25.556  33.033  16.061  1.00  0.00     0.000 C 
BRANCH  14  15
ATOM     15  C   UNL     1      26.710  32.844  15.058  1.00  0.00     0.000 C 
BRANCH  15  16
ATOM     16  C   UNL     1      26.542  31.620  14.131  1.00  0.00     0.000 C 
BRANCH  16  17
ATOM     17  C   UNL     1      25.125  31.024  14.190  1.00  0.00     0.000 C 
BRANCH  17  18
ATOM     18  C   UNL     1      24.401  31.093  12.835  1.00  0.00     0.000 C 
BRANCH  18  19
ATOM     19  C   UNL     1      25.353  31.429  11.673  1.00  0.00     0.000 C 
BRANCH  19  20
ATOM     20  C   UNL     1      25.282  32.908  11.264  1.00  0.00     0.006 C 
BRANCH  20  21
ATOM     21  C   UNL     1      24.322  33.717  12.144  1.00  0.00     0.053 C 
BRANCH  21  22
ATOM     22  C   UNL     1      23.335  34.459  11.297  1.00  0.00     0.041 C 
ATOM     23  O   UNL     1      22.580  35.325  11.812  1.00  0.00    -0.550 OA
ATOM     24  O   UNL     1      23.267  34.214   9.932  1.00  0.00    -0.550 OA
ENDBRANCH  21  22
ENDBRANCH  20  21
ENDBRANCH  19  20
ENDBRANCH  18  19
ENDBRANCH  17  18
ENDBRANCH  16  17
ENDBRANCH  15  16
ENDBRANCH  14  15
ENDBRANCH  13  14
ENDBRANCH   1  13
TORSDOF 20
ENDMDL
MODEL 4
REMARK VINA RESULT:    -2.019      1.204      4.699
REMARK INTER + INTRA:          -7.623
REMARK INTER:                  -5.312
REMARK INTRA:                  -2.311
REMARK UNBOUND:                -3.243
REMARK SMILES CCCCCCCCCCCCCCCCCCCCCC(=O)[O-]
REMARK SMILES IDX 12 1 11 2 10 3 9 4 8 5 7 6 6 7 5 8 4 9 3 10 2 11 1 12 13 13
REMARK SMILES IDX 14 14 15 15 16 16 17 17 18 18 19 19 20 20 21 21 22 22 23 23
REMARK SMILES IDX 24 24
REMARK H PARENT
REMARK Flexibility Score: inf
ROOT
ATOM      1  C   UNL     1      23.299  31.559  14.742  1.00  0.00     0.000 C 
ENDROOT
BRANCH   1   2
ATOM      2  C   UNL     1      22.229  31.471  15.846  1.00  0.00     0.000 C 
BRANCH   2   3
ATOM      3  C   UNL     1      20.885  32.145  15.507  1.00  0.00     0.000 C 
BRANCH   3   4
ATOM      4  C   UNL     1      20.691  33.547  16.111  1.00  0.00    -0.000 C 
BRANCH   4   5
ATOM      5  C   UNL     1      21.991  34.370  16.125  1.00  0.00    -0.000 C 
BRANCH   5   6
ATOM      6  C   UNL     1      21.980  35.520  15.106  1.00  0.00    -0.000 C 
BRANCH   6   7
ATOM      7  C   UNL     1      21.473  35.079  13.722  1.00  0.00    -0.000 C 
BRANCH   7   8
ATOM      8  C   UNL     1      22.547  34.281  12.971  1.00  0.00    -0.000 C 
BRANCH   8   9
ATOM      9  C   UNL     1      22.847  34.917  11.606  1.00  0.00    -0.000 C 
BRANCH   9  10
ATOM     10  C   UNL     1      23.429  33.912  10.600  1.00  0.00    -0.000 C 
BRANCH  10  11
ATOM     11  C   UNL     1      24.360  32.886  11.265  1.00  0.00    -0.003 C 
ATOM     12  C   UNL     1      24.976  31.950  10.227  1.00  0.00     0.004 C 
ENDBRANCH  10  11
ENDBRANCH   9  10
ENDBRANCH   8   9
ENDBRANCH   7   8
ENDBRANCH   6   7
ENDBRANCH   5   6
ENDBRANCH   4   5
ENDBRANCH   3   4
ENDBRANCH   2   3
ENDBRANCH   1   2
BRANCH   1  13
ATOM     13  C   UNL     1      24.695  31.040  15.142  1.00  0.00     0.000 C 
BRANCH  13  14
ATOM     14  C   UNL     1      25.847  31.495  14.227  1.00  0.00     0.000 C 
BRANCH  14  15
ATOM     15  C   UNL     1      27.147  31.887  14.955  1.00  0.00     0.000 C 
BRANCH  15  16
ATOM     16  C   UNL     1      26.939  32.878  16.120  1.00  0.00     0.000 C 
BRANCH  16  17
ATOM     17  C   UNL     1      27.178  34.339  15.705  1.00  0.00     0.000 C 
BRANCH  17  18
ATOM     18  C   UNL     1      26.876  34.586  14.218  1.00  0.00     0.000 C 
BRANCH  18  19
ATOM     19  C   UNL     1      25.446  35.105  13.984  1.00  0.00     0.000 C 
BRANCH  19  20
ATOM     20  C   UNL     1      25.161  36.409  14.745  1.00  0.00     0.006 C 
BRANCH  20  21
ATOM     21  C   UNL     1      24.646  37.524  13.828  1.00  0.00     0.053 C 
BRANCH  21  22
ATOM     22  C   UNL     1      24.319  38.749  14.625  1.00  0.00     0.041 C 
ATOM     23  O   UNL     1      23.984  39.814  14.045  1.00  0.00    -0.550 OA
ATOM     24  O   UNL     1      24.357  38.705  16.012  1.00  0.00    -0.550 OA
ENDBRANCH  21  22
ENDBRANCH  20  21
ENDBRANCH  19  20
ENDBRANCH  18  19
ENDBRANCH  17  18
ENDBRANCH  16  17
ENDBRANCH  15  16
ENDBRANCH  14  15
ENDBRANCH  13  14
ENDBRANCH   1  13
TORSDOF 20
ENDMDL
MODEL 5
REMARK VINA RESULT:    -1.780      2.020      4.945
REMARK INTER + INTRA:          -7.104
REMARK INTER:                  -5.199
REMARK INTRA:                  -1.905
REMARK UNBOUND:                -3.243
REMARK SMILES CCCCCCCCCCCCCCCCCCCCCC(=O)[O-]
REMARK SMILES IDX 12 1 11 2 10 3 9 4 8 5 7 6 6 7 5 8 4 9 3 10 2 11 1 12 13 13
REMARK SMILES IDX 14 14 15 15 16 16 17 17 18 18 19 19 20 20 21 21 22 22 23 23
REMARK SMILES IDX 24 24
REMARK H PARENT
REMARK Flexibility Score: inf
ROOT
ATOM      1  C   UNL     1      26.382  33.176  12.244  1.00  0.00     0.000 C 
ENDROOT
BRANCH   1   2
ATOM      2  C   UNL     1      25.102  33.710  11.575  1.00  0.00     0.000 C 
BRANCH   2   3
ATOM      3  C   UNL     1      24.101  34.390  12.530  1.00  0.00     0.000 C 
BRANCH   3   4
ATOM      4  C   UNL     1      22.858  33.549  12.874  1.00  0.00    -0.000 C 
BRANCH   4   5
ATOM      5  C   UNL     1      21.675  34.410  13.349  1.00  0.00    -0.000 C 
BRANCH   5   6
ATOM      6  C   UNL     1      21.777  34.796  14.833  1.00  0.00    -0.000 C 
BRANCH   6   7
ATOM      7  C   UNL     1      21.691  33.578  15.768  1.00  0.00    -0.000 C 
BRANCH   7   8
ATOM      8  C   UNL     1      21.064  32.376  15.051  1.00  0.00    -0.000 C 
BRANCH   8   9
ATOM      9  C   UNL     1      20.769  31.240  16.042  1.00  0.00    -0.000 C 
BRANCH   9  10
ATOM     10  C   UNL     1      19.273  30.901  16.124  1.00  0.00    -0.000 C 
BRANCH  10  11
ATOM     11  C   UNL     1      18.428  31.720  15.137  1.00  0.00    -0.003 C 
ATOM     12  C   UNL     1      17.042  31.106  14.959  1.00  0.00     0.004 C 
ENDBRANCH  10  11
ENDBRANCH   9  10
ENDBRANCH   8   9
ENDBRANCH   7   8
ENDBRANCH   6   7
ENDBRANCH   5   6
ENDBRANCH   4   5
ENDBRANCH   3   4
ENDBRANCH   2   3
ENDBRANCH   1   2
BRANCH   1  13
ATOM     13  C   UNL     1      26.478  31.640  12.340  1.00  0.00     0.000 C 
BRANCH  13  14
ATOM     14  C   UNL     1      26.891  31.098  13.721  1.00  0.00     0.000 C 
BRANCH  14  15
ATOM     15  C   UNL     1      26.630  32.052  14.903  1.00  0.00     0.000 C 
BRANCH  15  16
ATOM     16  C   UNL     1      25.135  32.345  15.156  1.00  0.00     0.000 C 
BRANCH  16  17
ATOM     17  C   UNL     1      24.917  33.521  16.122  1.00  0.00     0.000 C 
BRANCH  17  18
ATOM     18  C   UNL     1      25.920  34.664  15.894  1.00  0.00     0.000 C 
BRANCH  18  19
ATOM     19  C   UNL     1      25.283  36.054  16.078  1.00  0.00     0.000 C 
BRANCH  19  20
ATOM     20  C   UNL     1      24.740  36.631  14.761  1.00  0.00     0.006 C 
BRANCH  20  21
ATOM     21  C   UNL     1      23.729  37.761  14.987  1.00  0.00     0.053 C 
BRANCH  21  22
ATOM     22  C   UNL     1      24.261  39.054  14.450  1.00  0.00     0.041 C 
ATOM     23  O   UNL     1      24.074  39.367  13.246  1.00  0.00    -0.550 OA
ATOM     24  O   UNL     1      24.940  39.928  15.289  1.00  0.00    -0.550 OA
ENDBRANCH  21  22
ENDBRANCH  20  21
ENDBRANCH  19  20
ENDBRANCH  18  19
ENDBRANCH  17  18
ENDBRANCH  16  17
ENDBRANCH  15  16
ENDBRANCH  14  15
ENDBRANCH  13  14
ENDBRANCH   1  13
TORSDOF 20
ENDMDL
MODEL 6
REMARK VINA RESULT:    -1.660      3.894      6.171
REMARK INTER + INTRA:          -6.845
REMARK INTER:                  -4.711
REMARK INTRA:                  -2.134
REMARK UNBOUND:                -3.243
REMARK SMILES CCCCCCCCCCCCCCCCCCCCCC(=O)[O-]
REMARK SMILES IDX 12 1 11 2 10 3 9 4 8 5 7 6 6 7 5 8 4 9 3 10 2 11 1 12 13 13
REMARK SMILES IDX 14 14 15 15 16 16 17 17 18 18 19 19 20 20 21 21 22 22 23 23
REMARK SMILES IDX 24 24
REMARK H PARENT
REMARK Flexibility Score: inf
ROOT
ATOM      1  C   UNL     1      26.318  32.524  11.430  1.00  0.00     0.000 C 
ENDROOT
BRANCH   1   2
ATOM      2  C   UNL     1      25.423  33.764  11.607  1.00  0.00     0.000 C 
BRANCH   2   3
ATOM      3  C   UNL     1      24.137  33.767  10.756  1.00  0.00     0.000 C 
BRANCH   3   4
ATOM      4  C   UNL     1      22.843  34.063  11.536  1.00  0.00    -0.000 C 
BRANCH   4   5
ATOM      5  C   UNL     1      23.030  35.163  12.595  1.00  0.00    -0.000 C 
BRANCH   5   6
ATOM      6  C   UNL     1      22.708  34.681  14.019  1.00  0.00    -0.000 C 
BRANCH   6   7
ATOM      7  C   UNL     1      21.481  35.388  14.619  1.00  0.00    -0.000 C 
BRANCH   7   8
ATOM      8  C   UNL     1      21.899  36.396  15.698  1.00  0.00    -0.000 C 
BRANCH   8   9
ATOM      9  C   UNL     1      23.418  36.351  15.930  1.00  0.00    -0.000 C 
BRANCH   9  10
ATOM     10  C   UNL     1      24.163  37.461  15.172  1.00  0.00    -0.000 C 
BRANCH  10  11
ATOM     11  C   UNL     1      23.210  38.490  14.545  1.00  0.00    -0.003 C 
ATOM     12  C   UNL     1      23.938  39.368  13.531  1.00  0.00     0.004 C 
ENDBRANCH  10  11
ENDBRANCH   9  10
ENDBRANCH   8   9
ENDBRANCH   7   8
ENDBRANCH   6   7
ENDBRANCH   5   6
ENDBRANCH   4   5
ENDBRANCH   3   4
ENDBRANCH   2   3
ENDBRANCH   1   2
BRANCH   1  13
ATOM     13  C   UNL     1      26.839  31.902  12.741  1.00  0.00     0.000 C 
BRANCH  13  14
ATOM     14  C   UNL     1      25.953  32.147  13.976  1.00  0.00     0.000 C 
BRANCH  14  15
ATOM     15  C   UNL     1      25.139  30.928  14.450  1.00  0.00     0.000 C 
BRANCH  15  16
ATOM     16  C   UNL     1      23.617  31.062  14.224  1.00  0.00     0.000 C 
BRANCH  16  17
ATOM     17  C   UNL     1      22.836  31.231  15.538  1.00  0.00     0.000 C 
BRANCH  17  18
ATOM     18  C   UNL     1      21.347  30.876  15.387  1.00  0.00     0.000 C 
BRANCH  18  19
ATOM     19  C   UNL     1      20.423  31.907  16.061  1.00  0.00     0.000 C 
BRANCH  19  20
ATOM     20  C   UNL     1      19.059  32.020  15.363  1.00  0.00     0.006 C 
BRANCH  20  21
ATOM     21  C   UNL     1      17.954  31.261  16.106  1.00  0.00     0.053 C 
BRANCH  21  22
ATOM     22  C   UNL     1      16.605  31.683  15.609  1.00  0.00     0.041 C 
ATOM     23  O   UNL     1      16.504  32.553  14.706  1.00  0.00    -0.550 OA
ATOM     24  O   UNL     1      15.459  31.092  16.125  1.00  0.00    -0.550 OA
ENDBRANCH  21  22
ENDBRANCH  20  21
ENDBRANCH  19  20
ENDBRANCH  18  19
ENDBRANCH  17  18
ENDBRANCH  16  17
ENDBRANCH  15  16
ENDBRANCH  14  15
ENDBRANCH  13  14
ENDBRANCH   1  13
TORSDOF 20
ENDMDL
MODEL 7
REMARK VINA RESULT:    -1.658      3.421      6.574
REMARK INTER + INTRA:          -6.840
REMARK INTER:                  -5.033
REMARK INTRA:                  -1.806
REMARK UNBOUND:                -3.243
REMARK SMILES CCCCCCCCCCCCCCCCCCCCCC(=O)[O-]
REMARK SMILES IDX 12 1 11 2 10 3 9 4 8 5 7 6 6 7 5 8 4 9 3 10 2 11 1 12 13 13
REMARK SMILES IDX 14 14 15 15 16 16 17 17 18 18 19 19 20 20 21 21 22 22 23 23
REMARK SMILES IDX 24 24
REMARK H PARENT
REMARK Flexibility Score: inf
ROOT
ATOM      1  C   UNL     1      22.813  35.004  12.093  1.00  0.00     0.000 C 
ENDROOT
BRANCH   1   2
ATOM      2  C   UNL     1      22.245  34.540  13.446  1.00  0.00     0.000 C 
BRANCH   2   3
ATOM      3  C   UNL     1      22.124  33.012  13.615  1.00  0.00     0.000 C 
BRANCH   3   4
ATOM      4  C   UNL     1      22.539  32.476  14.997  1.00  0.00    -0.000 C 
BRANCH   4   5
ATOM      5  C   UNL     1      21.356  31.885  15.782  1.00  0.00    -0.000 C 
BRANCH   5   6
ATOM      6  C   UNL     1      20.285  32.933  16.125  1.00  0.00    -0.000 C 
BRANCH   6   7
ATOM      7  C   UNL     1      18.861  32.354  16.097  1.00  0.00    -0.000 C 
BRANCH   7   8
ATOM      8  C   UNL     1      18.577  31.649  14.764  1.00  0.00    -0.000 C 
BRANCH   8   9
ATOM      9  C   UNL     1      17.196  30.977  14.783  1.00  0.00    -0.000 C 
BRANCH   9  10
ATOM     10  C   UNL     1      16.409  31.281  16.067  1.00  0.00    -0.000 C 
BRANCH  10  11
ATOM     11  C   UNL     1      14.898  31.056  15.900  1.00  0.00    -0.003 C 
ATOM     12  C   UNL     1      14.252  32.207  15.135  1.00  0.00     0.004 C 
ENDBRANCH  10  11
ENDBRANCH   9  10
ENDBRANCH   8   9
ENDBRANCH   7   8
ENDBRANCH   6   7
ENDBRANCH   5   6
ENDBRANCH   4   5
ENDBRANCH   3   4
ENDBRANCH   2   3
ENDBRANCH   1   2
BRANCH   1  13
ATOM     13  C   UNL     1      23.057  33.879  11.066  1.00  0.00     0.000 C 
BRANCH  13  14
ATOM     14  C   UNL     1      24.532  33.482  10.872  1.00  0.00     0.000 C 
BRANCH  14  15
ATOM     15  C   UNL     1      25.339  33.304  12.173  1.00  0.00     0.000 C 
BRANCH  15  16
ATOM     16  C   UNL     1      25.063  31.973  12.905  1.00  0.00     0.000 C 
BRANCH  16  17
ATOM     17  C   UNL     1      26.353  31.268  13.358  1.00  0.00     0.000 C 
BRANCH  17  18
ATOM     18  C   UNL     1      26.404  31.055  14.881  1.00  0.00     0.000 C 
BRANCH  18  19
ATOM     19  C   UNL     1      27.305  32.082  15.590  1.00  0.00     0.000 C 
BRANCH  19  20
ATOM     20  C   UNL     1      26.517  33.292  16.117  1.00  0.00     0.006 C 
BRANCH  20  21
ATOM     21  C   UNL     1      26.722  34.545  15.259  1.00  0.00     0.053 C 
BRANCH  21  22
ATOM     22  C   UNL     1      25.433  35.294  15.111  1.00  0.00     0.041 C 
ATOM     23  O   UNL     1      24.475  35.071  15.896  1.00  0.00    -0.550 OA
ATOM     24  O   UNL     1      25.300  36.260  14.122  1.00  0.00    -0.550 OA
ENDBRANCH  21  22
ENDBRANCH  20  21
ENDBRANCH  19  20
ENDBRANCH  18  19
ENDBRANCH  17  18
ENDBRANCH  16  17
ENDBRANCH  15  16
ENDBRANCH  14  15
ENDBRANCH  13  14
ENDBRANCH   1  13
TORSDOF 20
ENDMDL
MODEL 8
REMARK VINA RESULT:    -1.595      3.332      6.774
REMARK INTER + INTRA:          -6.702
REMARK INTER:                  -3.995
REMARK INTRA:                  -2.708
REMARK UNBOUND:                -3.243
REMARK SMILES CCCCCCCCCCCCCCCCCCCCCC(=O)[O-]
REMARK SMILES IDX 12 1 11 2 10 3 9 4 8 5 7 6 6 7 5 8 4 9 3 10 2 11 1 12 13 13
REMARK SMILES IDX 14 14 15 15 16 16 17 17 18 18 19 19 20 20 21 21 22 22 23 23
REMARK SMILES IDX 24 24
REMARK H PARENT
REMARK Flexibility Score: inf
ROOT
ATOM      1  C   UNL     1      25.008  36.951  13.201  1.00  0.00     0.000 C 
ENDROOT
BRANCH   1   2
ATOM      2  C   UNL     1      24.281  37.895  14.175  1.00  0.00     0.000 C 
BRANCH   2   3
ATOM      3  C   UNL     1      22.795  37.564  14.419  1.00  0.00     0.000 C 
BRANCH   3   4
ATOM      4  C   UNL     1      22.424  37.286  15.886  1.00  0.00    -0.000 C 
BRANCH   4   5
ATOM      5  C   UNL     1      21.999  35.826  16.123  1.00  0.00    -0.000 C 
BRANCH   5   6
ATOM      6  C   UNL     1      21.421  35.162  14.863  1.00  0.00    -0.000 C 
BRANCH   6   7
ATOM      7  C   UNL     1      21.720  33.655  14.798  1.00  0.00    -0.000 C 
BRANCH   7   8
ATOM      8  C   UNL     1      21.374  32.967  16.125  1.00  0.00    -0.000 C 
BRANCH   8   9
ATOM      9  C   UNL     1      20.838  31.547  15.881  1.00  0.00    -0.000 C 
BRANCH   9  10
ATOM     10  C   UNL     1      19.577  31.534  15.004  1.00  0.00    -0.000 C 
BRANCH  10  11
ATOM     11  C   UNL     1      18.297  31.285  15.817  1.00  0.00    -0.003 C 
ATOM     12  C   UNL     1      17.053  31.616  14.997  1.00  0.00     0.004 C 
ENDBRANCH  10  11
ENDBRANCH   9  10
ENDBRANCH   8   9
ENDBRANCH   7   8
ENDBRANCH   6   7
ENDBRANCH   5   6
ENDBRANCH   4   5
ENDBRANCH   3   4
ENDBRANCH   2   3
ENDBRANCH   1   2
BRANCH   1  13
ATOM     13  C   UNL     1      25.113  35.485  13.667  1.00  0.00     0.000 C 
BRANCH  13  14
ATOM     14  C   UNL     1      25.480  35.297  15.150  1.00  0.00     0.000 C 
BRANCH  14  15
ATOM     15  C   UNL     1      26.793  34.534  15.409  1.00  0.00     0.000 C 
BRANCH  15  16
ATOM     16  C   UNL     1      26.801  33.093  14.854  1.00  0.00     0.000 C 
BRANCH  16  17
ATOM     17  C   UNL     1      26.617  32.033  15.954  1.00  0.00     0.000 C 
BRANCH  17  18
ATOM     18  C   UNL     1      25.597  30.951  15.564  1.00  0.00     0.000 C 
BRANCH  18  19
ATOM     19  C   UNL     1      24.422  31.516  14.745  1.00  0.00     0.000 C 
BRANCH  19  20
ATOM     20  C   UNL     1      24.361  30.932  13.325  1.00  0.00     0.006 C 
BRANCH  20  21
ATOM     21  C   UNL     1      24.595  31.992  12.242  1.00  0.00     0.053 C 
BRANCH  21  22
ATOM     22  C   UNL     1      24.656  31.354  10.889  1.00  0.00     0.041 C 
ATOM     23  O   UNL     1      23.615  30.884  10.361  1.00  0.00    -0.550 OA
ATOM     24  O   UNL     1      25.859  31.303  10.198  1.00  0.00    -0.550 OA
ENDBRANCH  21  22
ENDBRANCH  20  21
ENDBRANCH  19  20
ENDBRANCH  18  19
ENDBRANCH  17  18
ENDBRANCH  16  17
ENDBRANCH  15  16
ENDBRANCH  14  15
ENDBRANCH  13  14
ENDBRANCH   1  13
TORSDOF 20
ENDMDL
