MODEL 1
REMARK VINA RESULT:    -4.542      0.000      0.000
REMARK INTER + INTRA:          -7.032
REMARK INTER:                  -6.931
REMARK INTRA:                  -0.101
REMARK UNBOUND:                -0.101
REMARK SMILES CC1=CCC[C@H](C)C(=O)C[C@@H](C(C)C)C(=O)C1
REMARK SMILES IDX 8 1 9 2 6 3 7 4 5 5 4 6 3 7 2 8 1 9 10 11 11 12 15 13 16 14
REMARK SMILES IDX 17 15 12 17 13 18 14 19
REMARK H PARENT
REMARK Flexibility Score: 70.00
ROOT
ATOM      1  C   UNL     1      99.929 117.782 124.392  1.00  0.00     0.136 C 
ATOM      2  O   UNL     1     100.128 118.894 123.926  1.00  0.00    -0.299 OA
ENDROOT
BRANCH   1   3
ATOM      3  C   UNL     1     100.370 117.518 125.838  1.00  0.00     0.053 C 
ATOM      4  C   UNL     1      99.664 118.475 126.800  1.00  0.00     0.016 C 
BRANCH   3   5
ATOM      5  C   UNL     1     100.045 116.074 126.143  1.00  0.00     0.015 C 
BRANCH   5   6
ATOM      6  C   UNL     1     101.016 115.082 126.731  1.00  0.00     0.028 C 
BRANCH   6   7
ATOM      7  C   UNL     1     100.962 113.799 125.903  1.00  0.00    -0.028 C 
ATOM      8  C   UNL     1     101.213 113.636 124.561  1.00  0.00    -0.070 CG0
ATOM      9  C   UNL     1     100.960 112.261 123.991  1.00  0.00     0.039 C 
ATOM     10  G   UNL     1     101.746 114.713 123.592  1.00  0.00     0.000 G0
ENDBRANCH   6   7
ENDBRANCH   5   6
ENDBRANCH   3   5
ENDBRANCH   1   3
BRANCH   1  11
ATOM     11  C   UNL     1      99.209 116.740 123.512  1.00  0.00     0.087 C 
BRANCH  11  12
ATOM     12  C   UNL     1      99.879 116.193 122.184  1.00  0.00     0.066 C 
BRANCH  12  13
ATOM     13  C   UNL     1     100.849 114.988 122.365  1.00  0.00     0.140 C 
ATOM     14  O   UNL     1     100.917 114.190 121.440  1.00  0.00    -0.299 OA
BRANCH  13  15
ATOM     15  C   UNL     1     101.749 114.713 123.578  1.00  0.00     0.106 CG0
ATOM     16  G   UNL     1     101.194 113.646 124.546  1.00  0.00     0.000 G0
ENDBRANCH  13  15
ENDBRANCH  12  13
BRANCH  12  17
ATOM     17  C   UNL     1     100.173 117.265 121.074  1.00  0.00    -0.006 C 
ATOM     18  C   UNL     1     101.645 117.609 120.776  1.00  0.00     0.008 C 
ATOM     19  C   UNL     1      99.431 116.952 119.762  1.00  0.00     0.008 C 
ENDBRANCH  12  17
ENDBRANCH  11  12
ENDBRANCH   1  11
TORSDOF 1
ENDMDL
MODEL 2
REMARK VINA RESULT:    -4.315      1.984      4.354
REMARK INTER + INTRA:          -6.686
REMARK INTER:                  -6.211
REMARK INTRA:                  -0.475
REMARK UNBOUND:                -0.101
REMARK SMILES CC1=CCC[C@H](C)C(=O)C[C@@H](C(C)C)C(=O)C1
REMARK SMILES IDX 8 1 9 2 6 3 7 4 5 5 4 6 3 7 2 8 1 9 10 11 11 12 15 13 16 14
REMARK SMILES IDX 17 15 12 17 13 18 14 19
REMARK H PARENT
REMARK Flexibility Score: 70.00
ROOT
ATOM      1  C   UNL     1     100.754 113.353 126.332  1.00  0.00     0.136 C 
ATOM      2  O   UNL     1     100.938 112.437 127.118  1.00  0.00    -0.299 OA
ENDROOT
BRANCH   1   3
ATOM      3  C   UNL     1     100.807 114.788 126.875  1.00  0.00     0.053 C 
ATOM      4  C   UNL     1     102.237 115.330 126.830  1.00  0.00     0.016 C 
BRANCH   3   5
ATOM      5  C   UNL     1      99.866 115.615 126.030  1.00  0.00     0.015 C 
BRANCH   5   6
ATOM      6  C   UNL     1     100.282 116.791 125.182  1.00  0.00     0.028 C 
BRANCH   6   7
ATOM      7  C   UNL     1      99.564 116.696 123.836  1.00  0.00    -0.028 C 
ATOM      8  C   UNL     1     100.052 116.232 122.638  1.00  0.00    -0.070 CG0
ATOM      9  C   UNL     1      99.142 116.373 121.441  1.00  0.00     0.039 C 
ATOM     10  G   UNL     1     101.424 115.566 122.404  1.00  0.00     0.000 G0
ENDBRANCH   6   7
ENDBRANCH   5   6
ENDBRANCH   3   5
ENDBRANCH   1   3
BRANCH   1  11
ATOM     11  C   UNL     1     100.530 113.008 124.846  1.00  0.00     0.087 C 
BRANCH  11  12
ATOM     12  C   UNL     1     101.701 113.162 123.789  1.00  0.00     0.066 C 
BRANCH  12  13
ATOM     13  C   UNL     1     101.359 113.999 122.521  1.00  0.00     0.140 C 
ATOM     14  O   UNL     1     100.988 113.380 121.534  1.00  0.00    -0.299 OA
BRANCH  13  15
ATOM     15  C   UNL     1     101.417 115.529 122.393  1.00  0.00     0.106 CG0
ATOM     16  G   UNL     1     100.061 116.231 122.619  1.00  0.00     0.000 G0
ENDBRANCH  13  15
ENDBRANCH  12  13
BRANCH  12  17
ATOM     17  C   UNL     1     102.682 111.941 123.671  1.00  0.00    -0.006 C 
ATOM     18  C   UNL     1     102.073 110.551 123.407  1.00  0.00     0.008 C 
ATOM     19  C   UNL     1     103.821 112.214 122.672  1.00  0.00     0.008 C 
ENDBRANCH  12  17
ENDBRANCH  11  12
ENDBRANCH   1  11
TORSDOF 1
ENDMDL
MODEL 3
REMARK VINA RESULT:    -4.197      1.471      2.008
REMARK INTER + INTRA:          -6.505
REMARK INTER:                  -6.256
REMARK INTRA:                  -0.249
REMARK UNBOUND:                -0.101
REMARK SMILES CC1=CCC[C@H](C)C(=O)C[C@@H](C(C)C)C(=O)C1
REMARK SMILES IDX 8 1 9 2 6 3 7 4 5 5 4 6 3 7 2 8 1 9 10 11 11 12 15 13 16 14
REMARK SMILES IDX 17 15 12 17 13 18 14 19
REMARK H PARENT
REMARK Flexibility Score: 70.00
ROOT
ATOM      1  C   UNL     1     100.347 116.107 124.483  1.00  0.00     0.136 C 
ATOM      2  O   UNL     1      99.182 116.351 124.210  1.00  0.00    -0.299 OA
ENDROOT
BRANCH   1   3
ATOM      3  C   UNL     1     100.780 116.214 125.951  1.00  0.00     0.053 C 
ATOM      4  C   UNL     1     100.067 117.378 126.641  1.00  0.00     0.016 C 
BRANCH   3   5
ATOM      5  C   UNL     1     100.456 114.890 126.605  1.00  0.00     0.015 C 
BRANCH   5   6
ATOM      6  C   UNL     1     100.032 113.647 125.864  1.00  0.00     0.028 C 
BRANCH   6   7
ATOM      7  C   UNL     1     101.274 112.805 125.577  1.00  0.00    -0.028 C 
ATOM      8  C   UNL     1     101.598 112.121 124.430  1.00  0.00    -0.070 CG0
ATOM      9  C   UNL     1     102.846 111.272 124.482  1.00  0.00     0.039 C 
ATOM     10  G   UNL     1     100.825 112.156 123.095  1.00  0.00     0.000 G0
ENDBRANCH   6   7
ENDBRANCH   5   6
ENDBRANCH   3   5
ENDBRANCH   1   3
BRANCH   1  11
ATOM     11  C   UNL     1     101.287 115.665 123.343  1.00  0.00     0.087 C 
BRANCH  11  12
ATOM     12  C   UNL     1     100.754 114.765 122.152  1.00  0.00     0.066 C 
BRANCH  12  13
ATOM     13  C   UNL     1     101.268 113.295 122.135  1.00  0.00     0.140 C 
ATOM     14  O   UNL     1     102.111 113.014 121.294  1.00  0.00    -0.299 OA
BRANCH  13  15
ATOM     15  C   UNL     1     100.842 112.167 123.086  1.00  0.00     0.106 CG0
ATOM     16  G   UNL     1     101.600 112.157 124.430  1.00  0.00     0.000 G0
ENDBRANCH  13  15
ENDBRANCH  12  13
BRANCH  12  17
ATOM     17  C   UNL     1     100.493 115.511 120.794  1.00  0.00    -0.006 C 
ATOM     18  C   UNL     1      99.131 116.205 120.605  1.00  0.00     0.008 C 
ATOM     19  C   UNL     1     101.632 116.485 120.445  1.00  0.00     0.008 C 
ENDBRANCH  12  17
ENDBRANCH  11  12
ENDBRANCH   1  11
TORSDOF 1
ENDMDL
MODEL 4
REMARK VINA RESULT:    -4.160      2.026      4.240
REMARK INTER + INTRA:          -6.450
REMARK INTER:                  -6.029
REMARK INTRA:                  -0.421
REMARK UNBOUND:                -0.101
REMARK SMILES CC1=CCC[C@H](C)C(=O)C[C@@H](C(C)C)C(=O)C1
REMARK SMILES IDX 8 1 9 2 6 3 7 4 5 5 4 6 3 7 2 8 1 9 10 11 11 12 15 13 16 14
REMARK SMILES IDX 17 15 12 17 13 18 14 19
REMARK H PARENT
REMARK Flexibility Score: 70.00
ROOT
ATOM      1  C   UNL     1     101.257 113.618 122.564  1.00  0.00     0.136 C 
ATOM      2  O   UNL     1     100.882 113.713 121.406  1.00  0.00    -0.299 OA
ENDROOT
BRANCH   1   3
ATOM      3  C   UNL     1     101.107 112.258 123.259  1.00  0.00     0.053 C 
ATOM      4  C   UNL     1     101.411 111.118 122.286  1.00  0.00     0.016 C 
BRANCH   3   5
ATOM      5  C   UNL     1     102.053 112.257 124.438  1.00  0.00     0.015 C 
BRANCH   5   6
ATOM      6  C   UNL     1     101.623 112.310 125.883  1.00  0.00     0.028 C 
BRANCH   6   7
ATOM      7  C   UNL     1     102.468 113.360 126.603  1.00  0.00    -0.028 C 
ATOM      8  C   UNL     1     102.141 114.660 126.906  1.00  0.00    -0.070 CG0
ATOM      9  C   UNL     1     103.232 115.504 127.520  1.00  0.00     0.039 C 
ATOM     10  G   UNL     1     100.765 115.329 126.700  1.00  0.00     0.000 G0
ENDBRANCH   6   7
ENDBRANCH   5   6
ENDBRANCH   3   5
ENDBRANCH   1   3
BRANCH   1  11
ATOM     11  C   UNL     1     101.897 114.854 123.229  1.00  0.00     0.087 C 
BRANCH  11  12
ATOM     12  C   UNL     1     101.009 115.904 124.018  1.00  0.00     0.066 C 
BRANCH  12  13
ATOM     13  C   UNL     1     100.255 115.351 125.263  1.00  0.00     0.140 C 
ATOM     14  O   UNL     1      99.162 114.838 125.064  1.00  0.00    -0.299 OA
BRANCH  13  15
ATOM     15  C   UNL     1     100.757 115.360 126.714  1.00  0.00     0.106 CG0
ATOM     16  G   UNL     1     102.128 114.677 126.911  1.00  0.00     0.000 G0
ENDBRANCH  13  15
ENDBRANCH  12  13
BRANCH  12  17
ATOM     17  C   UNL     1     100.346 117.031 123.147  1.00  0.00    -0.006 C 
ATOM     18  C   UNL     1      99.184 116.632 122.217  1.00  0.00     0.008 C 
ATOM     19  C   UNL     1      99.945 118.251 123.994  1.00  0.00     0.008 C 
ENDBRANCH  12  17
ENDBRANCH  11  12
ENDBRANCH   1  11
TORSDOF 1
ENDMDL
MODEL 5
REMARK VINA RESULT:    -4.116      1.726      3.930
REMARK INTER + INTRA:          -6.383
REMARK INTER:                  -6.080
REMARK INTRA:                  -0.303
REMARK UNBOUND:                -0.101
REMARK SMILES CC1=CCC[C@H](C)C(=O)C[C@@H](C(C)C)C(=O)C1
REMARK SMILES IDX 8 1 9 2 6 3 7 4 5 5 4 6 3 7 2 8 1 9 10 11 11 12 15 13 16 14
REMARK SMILES IDX 17 15 12 17 13 18 14 19
REMARK H PARENT
REMARK Flexibility Score: 70.00
ROOT
ATOM      1  C   UNL     1     100.465 115.326 126.240  1.00  0.00     0.136 C 
ATOM      2  O   UNL     1      99.451 115.545 126.885  1.00  0.00    -0.299 OA
ENDROOT
BRANCH   1   3
ATOM      3  C   UNL     1     101.075 113.920 126.316  1.00  0.00     0.053 C 
ATOM      4  C   UNL     1      99.978 112.862 126.452  1.00  0.00     0.016 C 
BRANCH   3   5
ATOM      5  C   UNL     1     101.892 113.723 125.060  1.00  0.00     0.015 C 
BRANCH   5   6
ATOM      6  C   UNL     1     101.352 113.181 123.760  1.00  0.00     0.028 C 
BRANCH   6   7
ATOM      7  C   UNL     1     101.934 114.003 122.612  1.00  0.00    -0.028 C 
ATOM      8  C   UNL     1     101.354 115.043 121.925  1.00  0.00    -0.070 CG0
ATOM      9  C   UNL     1     102.130 115.589 120.750  1.00  0.00     0.039 C 
ATOM     10  G   UNL     1     100.004 115.716 122.251  1.00  0.00     0.000 G0
ENDBRANCH   6   7
ENDBRANCH   5   6
ENDBRANCH   3   5
ENDBRANCH   1   3
BRANCH   1  11
ATOM     11  C   UNL     1     101.032 116.459 125.361  1.00  0.00     0.087 C 
BRANCH  11  12
ATOM     12  C   UNL     1     100.073 117.366 124.484  1.00  0.00     0.066 C 
BRANCH  12  13
ATOM     13  C   UNL     1     100.094 117.086 122.952  1.00  0.00     0.140 C 
ATOM     14  O   UNL     1     100.230 118.053 122.216  1.00  0.00    -0.299 OA
BRANCH  13  15
ATOM     15  C   UNL     1      99.987 115.713 122.272  1.00  0.00     0.106 CG0
ATOM     16  G   UNL     1     101.348 115.062 121.950  1.00  0.00     0.000 G0
ENDBRANCH  13  15
ENDBRANCH  12  13
BRANCH  12  17
ATOM     17  C   UNL     1      99.855 118.833 125.001  1.00  0.00    -0.006 C 
ATOM     18  C   UNL     1      98.540 119.542 124.625  1.00  0.00     0.008 C 
ATOM     19  C   UNL     1     100.100 118.950 126.516  1.00  0.00     0.008 C 
ENDBRANCH  12  17
ENDBRANCH  11  12
ENDBRANCH   1  11
TORSDOF 1
ENDMDL
MODEL 6
REMARK VINA RESULT:    -4.107      1.544      3.984
REMARK INTER + INTRA:          -6.369
REMARK INTER:                  -5.970
REMARK INTRA:                  -0.400
REMARK UNBOUND:                -0.101
REMARK SMILES CC1=CCC[C@H](C)C(=O)C[C@@H](C(C)C)C(=O)C1
REMARK SMILES IDX 8 1 9 2 6 3 7 4 5 5 4 6 3 7 2 8 1 9 10 11 11 12 15 13 16 14
REMARK SMILES IDX 17 15 12 17 13 18 14 19
REMARK H PARENT
REMARK Flexibility Score: 70.00
ROOT
ATOM      1  C   UNL     1     100.147 117.358 122.443  1.00  0.00     0.136 C 
ATOM      2  O   UNL     1     100.901 118.313 122.336  1.00  0.00    -0.299 OA
ENDROOT
BRANCH   1   3
ATOM      3  C   UNL     1     100.125 116.330 121.303  1.00  0.00     0.053 C 
ATOM      4  C   UNL     1     101.056 116.762 120.168  1.00  0.00     0.016 C 
BRANCH   3   5
ATOM      5  C   UNL     1     100.540 115.003 121.896  1.00  0.00     0.015 C 
BRANCH   5   6
ATOM      6  C   UNL     1     101.756 114.793 122.763  1.00  0.00     0.028 C 
BRANCH   6   7
ATOM      7  C   UNL     1     101.372 113.876 123.923  1.00  0.00    -0.028 C 
ATOM      8  C   UNL     1     101.352 114.162 125.268  1.00  0.00    -0.070 CG0
ATOM      9  C   UNL     1     101.043 113.011 126.196  1.00  0.00     0.039 C 
ATOM     10  G   UNL     1     101.593 115.542 125.914  1.00  0.00     0.000 G0
ENDBRANCH   6   7
ENDBRANCH   5   6
ENDBRANCH   3   5
ENDBRANCH   1   3
BRANCH   1  11
ATOM     11  C   UNL     1      99.310 117.227 123.731  1.00  0.00     0.087 C 
BRANCH  11  12
ATOM     12  C   UNL     1      99.922 117.611 125.141  1.00  0.00     0.066 C 
BRANCH  12  13
ATOM     13  C   UNL     1     100.327 116.413 126.050  1.00  0.00     0.140 C 
ATOM     14  O   UNL     1      99.548 116.108 126.942  1.00  0.00    -0.299 OA
BRANCH  13  15
ATOM     15  C   UNL     1     101.597 115.559 125.923  1.00  0.00     0.106 CG0
ATOM     16  G   UNL     1     101.365 114.181 125.267  1.00  0.00     0.000 G0
ENDBRANCH  13  15
ENDBRANCH  12  13
BRANCH  12  17
ATOM     17  C   UNL     1      99.363 118.926 125.795  1.00  0.00    -0.006 C 
ATOM     18  C   UNL     1     100.302 119.729 126.715  1.00  0.00     0.008 C 
ATOM     19  C   UNL     1      98.725 119.860 124.751  1.00  0.00     0.008 C 
ENDBRANCH  12  17
ENDBRANCH  11  12
ENDBRANCH   1  11
TORSDOF 1
ENDMDL
MODEL 7
REMARK VINA RESULT:    -4.014      1.670      4.142
REMARK INTER + INTRA:          -6.227
REMARK INTER:                  -5.789
REMARK INTRA:                  -0.438
REMARK UNBOUND:                -0.101
REMARK SMILES CC1=CCC[C@H](C)C(=O)C[C@@H](C(C)C)C(=O)C1
REMARK SMILES IDX 8 1 9 2 6 3 7 4 5 5 4 6 3 7 2 8 1 9 10 11 11 12 15 13 16 14
REMARK SMILES IDX 17 15 12 17 13 18 14 19
REMARK H PARENT
REMARK Flexibility Score: 70.00
ROOT
ATOM      1  C   UNL     1      99.704 117.546 124.791  1.00  0.00     0.136 C 
ATOM      2  O   UNL     1     100.069 117.887 125.906  1.00  0.00    -0.299 OA
ENDROOT
BRANCH   1   3
ATOM      3  C   UNL     1      99.305 118.645 123.797  1.00  0.00     0.053 C 
ATOM      4  C   UNL     1     100.201 119.874 123.962  1.00  0.00     0.016 C 
BRANCH   3   5
ATOM      5  C   UNL     1      99.416 118.050 122.412  1.00  0.00     0.015 C 
BRANCH   5   6
ATOM      6  C   UNL     1     100.644 118.127 121.541  1.00  0.00     0.028 C 
BRANCH   6   7
ATOM      7  C   UNL     1     100.681 116.892 120.643  1.00  0.00    -0.028 C 
ATOM      8  C   UNL     1     101.418 115.742 120.800  1.00  0.00    -0.070 CG0
ATOM      9  C   UNL     1     101.338 114.733 119.679  1.00  0.00     0.039 C 
ATOM     10  G   UNL     1     102.297 115.377 122.015  1.00  0.00     0.000 G0
ENDBRANCH   6   7
ENDBRANCH   5   6
ENDBRANCH   3   5
ENDBRANCH   1   3
BRANCH   1  11
ATOM     11  C   UNL     1      99.715 116.043 124.447  1.00  0.00     0.087 C 
BRANCH  11  12
ATOM     12  C   UNL     1     101.063 115.209 124.488  1.00  0.00     0.066 C 
BRANCH  12  13
ATOM     13  C   UNL     1     101.528 114.611 123.128  1.00  0.00     0.140 C 
ATOM     14  O   UNL     1     101.242 113.442 122.911  1.00  0.00    -0.299 OA
BRANCH  13  15
ATOM     15  C   UNL     1     102.289 115.350 122.017  1.00  0.00     0.106 CG0
ATOM     16  G   UNL     1     101.414 115.747 120.810  1.00  0.00     0.000 G0
ENDBRANCH  13  15
ENDBRANCH  12  13
BRANCH  12  17
ATOM     17  C   UNL     1     101.338 114.418 125.818  1.00  0.00    -0.006 C 
ATOM     18  C   UNL     1     102.259 115.071 126.866  1.00  0.00     0.008 C 
ATOM     19  C   UNL     1     100.035 113.945 126.485  1.00  0.00     0.008 C 
ENDBRANCH  12  17
ENDBRANCH  11  12
ENDBRANCH   1  11
TORSDOF 1
ENDMDL
MODEL 8
REMARK VINA RESULT:    -3.898      8.375     10.874
REMARK INTER + INTRA:          -6.049
REMARK INTER:                  -5.564
REMARK INTRA:                  -0.485
REMARK UNBOUND:                -0.101
REMARK SMILES CC1=CCC[C@H](C)C(=O)C[C@@H](C(C)C)C(=O)C1
REMARK SMILES IDX 8 1 9 2 6 3 7 4 5 5 4 6 3 7 2 8 1 9 10 11 11 12 15 13 16 14
REMARK SMILES IDX 17 15 12 17 13 18 14 19
REMARK H PARENT
REMARK Flexibility Score: 70.00
ROOT
ATOM      1  C   UNL     1     101.023 105.178 118.085  1.00  0.00     0.136 C 
ATOM      2  O   UNL     1     101.496 104.219 117.493  1.00  0.00    -0.299 OA
ENDROOT
BRANCH   1   3
ATOM      3  C   UNL     1     101.429 105.390 119.549  1.00  0.00     0.053 C 
ATOM      4  C   UNL     1     101.411 104.064 120.313  1.00  0.00     0.016 C 
BRANCH   3   5
ATOM      5  C   UNL     1     102.805 106.016 119.541  1.00  0.00     0.015 C 
BRANCH   5   6
ATOM      6  C   UNL     1     103.100 107.447 119.915  1.00  0.00     0.028 C 
BRANCH   6   7
ATOM      7  C   UNL     1     101.775 108.195 120.055  1.00  0.00    -0.028 C 
ATOM      8  C   UNL     1     101.169 109.036 119.152  1.00  0.00    -0.070 CG0
ATOM      9  C   UNL     1      99.912 109.731 119.619  1.00  0.00     0.039 C 
ATOM     10  G   UNL     1     101.635 109.318 117.708  1.00  0.00     0.000 G0
ENDBRANCH   6   7
ENDBRANCH   5   6
ENDBRANCH   3   5
ENDBRANCH   1   3
BRANCH   1  11
ATOM     11  C   UNL     1     100.093 106.130 117.307  1.00  0.00     0.087 C 
BRANCH  11  12
ATOM     12  C   UNL     1     100.681 107.175 116.270  1.00  0.00     0.066 C 
BRANCH  12  13
ATOM     13  C   UNL     1     101.811 108.100 116.811  1.00  0.00     0.140 C 
ATOM     14  O   UNL     1     102.956 107.826 116.480  1.00  0.00    -0.299 OA
BRANCH  13  15
ATOM     15  C   UNL     1     101.630 109.340 117.700  1.00  0.00     0.106 CG0
ATOM     16  G   UNL     1     101.174 109.022 119.139  1.00  0.00     0.000 G0
ENDBRANCH  13  15
ENDBRANCH  12  13
BRANCH  12  17
ATOM     17  C   UNL     1      99.667 107.730 115.207  1.00  0.00    -0.006 C 
ATOM     18  C   UNL     1      98.377 108.398 115.722  1.00  0.00     0.008 C 
ATOM     19  C   UNL     1     100.355 108.643 114.177  1.00  0.00     0.008 C 
ENDBRANCH  12  17
ENDBRANCH  11  12
ENDBRANCH   1  11
TORSDOF 1
ENDMDL
MODEL 9
REMARK VINA RESULT:    -3.882      2.768      5.965
REMARK INTER + INTRA:          -6.026
REMARK INTER:                  -5.570
REMARK INTRA:                  -0.455
REMARK UNBOUND:                -0.101
REMARK SMILES CC1=CCC[C@H](C)C(=O)C[C@@H](C(C)C)C(=O)C1
REMARK SMILES IDX 8 1 9 2 6 3 7 4 5 5 4 6 3 7 2 8 1 9 10 11 11 12 15 13 16 14
REMARK SMILES IDX 17 15 12 17 13 18 14 19
REMARK H PARENT
REMARK Flexibility Score: 70.00
ROOT
ATOM      1  C   UNL     1     103.109 110.926 124.958  1.00  0.00     0.136 C 
ATOM      2  O   UNL     1     103.252 109.845 125.508  1.00  0.00    -0.299 OA
ENDROOT
BRANCH   1   3
ATOM      3  C   UNL     1     103.174 110.967 123.425  1.00  0.00     0.053 C 
ATOM      4  C   UNL     1     104.111 109.880 122.895  1.00  0.00     0.016 C 
BRANCH   3   5
ATOM      5  C   UNL     1     101.762 110.789 122.917  1.00  0.00     0.015 C 
BRANCH   5   6
ATOM      6  C   UNL     1     100.955 111.862 122.231  1.00  0.00     0.028 C 
BRANCH   6   7
ATOM      7  C   UNL     1     101.915 112.810 121.515  1.00  0.00    -0.028 C 
ATOM      8  C   UNL     1     102.239 114.105 121.840  1.00  0.00    -0.070 CG0
ATOM      9  C   UNL     1     103.134 114.839 120.871  1.00  0.00     0.039 C 
ATOM     10  G   UNL     1     101.795 114.870 123.105  1.00  0.00     0.000 G0
ENDBRANCH   6   7
ENDBRANCH   5   6
ENDBRANCH   3   5
ENDBRANCH   1   3
BRANCH   1  11
ATOM     11  C   UNL     1     102.824 112.161 125.836  1.00  0.00     0.087 C 
BRANCH  11  12
ATOM     12  C   UNL     1     101.813 113.285 125.358  1.00  0.00     0.066 C 
BRANCH  12  13
ATOM     13  C   UNL     1     102.410 114.373 124.417  1.00  0.00     0.140 C 
ATOM     14  O   UNL     1     103.484 114.858 124.744  1.00  0.00    -0.299 OA
BRANCH  13  15
ATOM     15  C   UNL     1     101.797 114.880 123.103  1.00  0.00     0.106 CG0
ATOM     16  G   UNL     1     102.253 114.099 121.852  1.00  0.00     0.000 G0
ENDBRANCH  13  15
ENDBRANCH  12  13
BRANCH  12  17
ATOM     17  C   UNL     1     100.691 113.678 126.385  1.00  0.00    -0.006 C 
ATOM     18  C   UNL     1     100.311 115.166 126.502  1.00  0.00     0.008 C 
ATOM     19  C   UNL     1      99.423 112.825 126.204  1.00  0.00     0.008 C 
ENDBRANCH  12  17
ENDBRANCH  11  12
ENDBRANCH   1  11
TORSDOF 1
ENDMDL
