MODEL 1
REMARK VINA RESULT:    -9.325      0.000      0.000
REMARK INTER + INTRA:         -13.673
REMARK INTER:                 -12.869
REMARK INTRA:                  -0.804
REMARK UNBOUND:                -0.804
REMARK SMILES O=C([O-])[C@@H]1O[C@@H](Oc2cc3oc(-c4ccccc4)cc(=O)c3c(O)c2O)[C@H](O)[C@@H](O)[C@@H]1O
REMARK SMILES IDX 7 1 6 2 4 3 31 4 5 5 29 6 27 7 2 8 1 9 3 10 32 11 30 13
REMARK SMILES IDX 28 15 8 17 25 18 9 19 23 20 10 21 22 22 11 23 20 24 12 25
REMARK SMILES IDX 19 26 21 27 26 28 24 30 13 32 14 33 18 34 15 35 17 36 16 37
REMARK H PARENT 32 12 30 14 28 16 26 29 24 31
REMARK Flexibility Score: inf
ROOT
ATOM      1  O   UNL     1      55.971 -19.745   3.556  1.00  0.00    -0.458 OA
ENDROOT
BRANCH   1   2
ATOM      2  C   UNL     1      55.280 -20.627   4.451  1.00  0.00     0.339 C 
ATOM      3  C   UNL     1      53.612 -21.084   2.862  1.00  0.00     0.199 C 
ATOM      4  C   UNL     1      52.479 -20.438   3.687  1.00  0.00     0.180 C 
ATOM      5  O   UNL     1      54.604 -21.636   3.715  1.00  0.00    -0.328 OA
ATOM      6  C   UNL     1      53.058 -19.349   4.611  1.00  0.00     0.181 C 
ATOM      7  C   UNL     1      54.297 -19.861   5.381  1.00  0.00     0.214 C 
BRANCH   3   8
ATOM      8  C   UNL     1      53.063 -22.164   1.972  1.00  0.00     0.073 C 
ATOM      9  O   UNL     1      53.829 -23.040   1.494  1.00  0.00    -0.547 OA
ATOM     10  O   UNL     1      51.704 -22.203   1.666  1.00  0.00    -0.547 OA
ENDBRANCH   3   8
BRANCH   4  11
ATOM     11  O   UNL     1      51.811 -21.421   4.439  1.00  0.00    -0.387 OA
ATOM     12  H   UNL     1      51.040 -20.976   4.876  1.00  0.00     0.211 HD
ENDBRANCH   4  11
BRANCH   6  13
ATOM     13  O   UNL     1      53.409 -18.231   3.832  1.00  0.00    -0.387 OA
ATOM     14  H   UNL     1      54.229 -18.474   3.327  1.00  0.00     0.211 HD
ENDBRANCH   6  13
BRANCH   7  15
ATOM     15  O   UNL     1      53.913 -20.653   6.480  1.00  0.00    -0.384 OA
ATOM     16  H   UNL     1      54.008 -20.112   7.306  1.00  0.00     0.211 HD
ENDBRANCH   7  15
ENDBRANCH   1   2
BRANCH   1  17
ATOM     17  C   UNL     1      57.312 -19.810   3.129  1.00  0.00     0.172 A 
ATOM     18  C   UNL     1      58.142 -20.951   3.262  1.00  0.00     0.201 A 
ATOM     19  C   UNL     1      57.816 -18.662   2.518  1.00  0.00     0.098 A 
ATOM     20  C   UNL     1      59.498 -20.886   2.845  1.00  0.00     0.176 A 
ATOM     21  C   UNL     1      59.129 -18.605   2.059  1.00  0.00     0.146 A 
ATOM     22  C   UNL     1      59.987 -19.713   2.221  1.00  0.00     0.111 A 
ATOM     23  O   UNL     1      59.557 -17.492   1.471  1.00  0.00    -0.456 OA
ATOM     24  C   UNL     1      61.311 -19.583   1.745  1.00  0.00     0.197 A 
ATOM     25  C   UNL     1      60.792 -17.342   0.998  1.00  0.00     0.138 A 
ATOM     26  C   UNL     1      61.712 -18.394   1.133  1.00  0.00     0.100 A 
ATOM     27  O   UNL     1      62.147 -20.520   1.857  1.00  0.00    -0.289 OA
BRANCH  18  28
ATOM     28  O   UNL     1      57.604 -22.133   3.772  1.00  0.00    -0.502 OA
ATOM     29  H   UNL     1      56.844 -22.178   4.436  1.00  0.00     0.293 HD
ENDBRANCH  18  28
BRANCH  20  30
ATOM     30  O   UNL     1      60.373 -21.960   3.050  1.00  0.00    -0.504 OA
ATOM     31  H   UNL     1      61.028 -22.303   2.363  1.00  0.00     0.293 HD
ENDBRANCH  20  30
BRANCH  25  32
ATOM     32  C   UNL     1      61.156 -16.055   0.353  1.00  0.00     0.017 A 
ATOM     33  C   UNL     1      60.519 -14.845   0.698  1.00  0.00     0.012 A 
ATOM     34  C   UNL     1      62.191 -16.028  -0.601  1.00  0.00     0.012 A 
ATOM     35  C   UNL     1      60.897 -13.645   0.085  1.00  0.00     0.001 A 
ATOM     36  C   UNL     1      62.564 -14.826  -1.210  1.00  0.00     0.001 A 
ATOM     37  C   UNL     1      61.917 -13.636  -0.870  1.00  0.00     0.000 A 
ENDBRANCH  25  32
ENDBRANCH   1  17
TORSDOF 9
ENDMDL
MODEL 2
REMARK VINA RESULT:    -8.994      1.024      2.319
REMARK INTER + INTRA:         -13.216
REMARK INTER:                 -12.139
REMARK INTRA:                  -1.076
REMARK UNBOUND:                -0.804
REMARK SMILES O=C([O-])[C@@H]1O[C@@H](Oc2cc3oc(-c4ccccc4)cc(=O)c3c(O)c2O)[C@H](O)[C@@H](O)[C@@H]1O
REMARK SMILES IDX 7 1 6 2 4 3 31 4 5 5 29 6 27 7 2 8 1 9 3 10 32 11 30 13
REMARK SMILES IDX 28 15 8 17 25 18 9 19 23 20 10 21 22 22 11 23 20 24 12 25
REMARK SMILES IDX 19 26 21 27 26 28 24 30 13 32 14 33 18 34 15 35 17 36 16 37
REMARK H PARENT 32 12 30 14 28 16 26 29 24 31
REMARK Flexibility Score: inf
ROOT
ATOM      1  O   UNL     1      56.199 -19.784   3.589  1.00  0.00    -0.458 OA
ENDROOT
BRANCH   1   2
ATOM      2  C   UNL     1      55.046 -20.393   2.993  1.00  0.00     0.339 C 
ATOM      3  C   UNL     1      53.671 -18.582   3.583  1.00  0.00     0.199 C 
ATOM      4  C   UNL     1      52.787 -19.409   4.541  1.00  0.00     0.180 C 
ATOM      5  O   UNL     1      54.156 -19.391   2.522  1.00  0.00    -0.328 OA
ATOM      6  C   UNL     1      53.590 -20.601   5.098  1.00  0.00     0.181 C 
ATOM      7  C   UNL     1      54.327 -21.363   3.973  1.00  0.00     0.214 C 
BRANCH   3   8
ATOM      8  C   UNL     1      52.892 -17.428   3.015  1.00  0.00     0.073 C 
ATOM      9  O   UNL     1      52.131 -17.604   2.028  1.00  0.00    -0.547 OA
ATOM     10  O   UNL     1      53.006 -16.157   3.574  1.00  0.00    -0.547 OA
ENDBRANCH   3   8
BRANCH   4  11
ATOM     11  O   UNL     1      51.638 -19.859   3.867  1.00  0.00    -0.387 OA
ATOM     12  H   UNL     1      51.948 -20.343   3.059  1.00  0.00     0.211 HD
ENDBRANCH   4  11
BRANCH   6  13
ATOM     13  O   UNL     1      54.521 -20.122   6.038  1.00  0.00    -0.387 OA
ATOM     14  H   UNL     1      55.415 -20.449   5.755  1.00  0.00     0.211 HD
ENDBRANCH   6  13
BRANCH   7  15
ATOM     15  O   UNL     1      53.445 -22.219   3.287  1.00  0.00    -0.384 OA
ATOM     16  H   UNL     1      52.654 -22.382   3.861  1.00  0.00     0.211 HD
ENDBRANCH   7  15
ENDBRANCH   1   2
BRANCH   1  17
ATOM     17  C   UNL     1      57.540 -19.849   3.161  1.00  0.00     0.172 A 
ATOM     18  C   UNL     1      58.385 -20.974   3.340  1.00  0.00     0.201 A 
ATOM     19  C   UNL     1      58.028 -18.722   2.501  1.00  0.00     0.098 A 
ATOM     20  C   UNL     1      59.739 -20.910   2.916  1.00  0.00     0.176 A 
ATOM     21  C   UNL     1      59.339 -18.669   2.035  1.00  0.00     0.146 A 
ATOM     22  C   UNL     1      60.212 -19.758   2.241  1.00  0.00     0.111 A 
ATOM     23  O   UNL     1      59.752 -17.576   1.399  1.00  0.00    -0.456 OA
ATOM     24  C   UNL     1      61.532 -19.632   1.756  1.00  0.00     0.197 A 
ATOM     25  C   UNL     1      60.983 -17.432   0.917  1.00  0.00     0.138 A 
ATOM     26  C   UNL     1      61.917 -18.465   1.093  1.00  0.00     0.100 A 
ATOM     27  O   UNL     1      62.380 -20.553   1.905  1.00  0.00    -0.289 OA
BRANCH  18  28
ATOM     28  O   UNL     1      57.863 -22.140   3.900  1.00  0.00    -0.502 OA
ATOM     29  H   UNL     1      56.945 -22.512   3.700  1.00  0.00     0.293 HD
ENDBRANCH  18  28
BRANCH  20  30
ATOM     30  O   UNL     1      60.628 -21.963   3.163  1.00  0.00    -0.504 OA
ATOM     31  H   UNL     1      61.121 -22.475   2.447  1.00  0.00     0.293 HD
ENDBRANCH  20  30
BRANCH  25  32
ATOM     32  C   UNL     1      61.330 -16.169   0.217  1.00  0.00     0.017 A 
ATOM     33  C   UNL     1      62.298 -16.130  -0.810  1.00  0.00     0.012 A 
ATOM     34  C   UNL     1      60.652 -14.981   0.553  1.00  0.00     0.012 A 
ATOM     35  C   UNL     1      62.590 -14.928  -1.463  1.00  0.00     0.001 A 
ATOM     36  C   UNL     1      60.949 -13.783  -0.103  1.00  0.00     0.001 A 
ATOM     37  C   UNL     1      61.918 -13.755  -1.108  1.00  0.00     0.000 A 
ENDBRANCH  25  32
ENDBRANCH   1  17
TORSDOF 9
ENDMDL
MODEL 3
REMARK VINA RESULT:    -8.883      2.670      9.007
REMARK INTER + INTRA:         -13.063
REMARK INTER:                 -11.990
REMARK INTRA:                  -1.073
REMARK UNBOUND:                -0.804
REMARK SMILES O=C([O-])[C@@H]1O[C@@H](Oc2cc3oc(-c4ccccc4)cc(=O)c3c(O)c2O)[C@H](O)[C@@H](O)[C@@H]1O
REMARK SMILES IDX 7 1 6 2 4 3 31 4 5 5 29 6 27 7 2 8 1 9 3 10 32 11 30 13
REMARK SMILES IDX 28 15 8 17 25 18 9 19 23 20 10 21 22 22 11 23 20 24 12 25
REMARK SMILES IDX 19 26 21 27 26 28 24 30 13 32 14 33 18 34 15 35 17 36 16 37
REMARK H PARENT 32 12 30 14 28 16 26 29 24 31
REMARK Flexibility Score: inf
ROOT
ATOM      1  O   UNL     1      58.211 -20.318   3.168  1.00  0.00    -0.458 OA
ENDROOT
BRANCH   1   2
ATOM      2  C   UNL     1      59.422 -19.869   3.793  1.00  0.00     0.339 C 
ATOM      3  C   UNL     1      60.634 -20.058   1.789  1.00  0.00     0.199 C 
ATOM      4  C   UNL     1      61.563 -21.173   2.315  1.00  0.00     0.180 C 
ATOM      5  O   UNL     1      60.236 -19.195   2.844  1.00  0.00    -0.328 OA
ATOM      6  C   UNL     1      60.848 -21.972   3.422  1.00  0.00     0.181 C 
ATOM      7  C   UNL     1      60.198 -21.036   4.466  1.00  0.00     0.214 C 
BRANCH   3   8
ATOM      8  C   UNL     1      61.327 -19.256   0.723  1.00  0.00     0.073 C 
ATOM      9  O   UNL     1      61.990 -18.232   1.033  1.00  0.00    -0.547 OA
ATOM     10  O   UNL     1      61.242 -19.637  -0.614  1.00  0.00    -0.547 OA
ENDBRANCH   3   8
BRANCH   4  11
ATOM     11  O   UNL     1      62.757 -20.613   2.801  1.00  0.00    -0.387 OA
ATOM     12  H   UNL     1      62.514 -20.038   3.572  1.00  0.00     0.211 HD
ENDBRANCH   4  11
BRANCH   6  13
ATOM     13  O   UNL     1      59.863 -22.785   2.832  1.00  0.00    -0.387 OA
ATOM     14  H   UNL     1      60.170 -22.990   1.909  1.00  0.00     0.211 HD
ENDBRANCH   6  13
BRANCH   7  15
ATOM     15  O   UNL     1      61.159 -20.552   5.373  1.00  0.00    -0.384 OA
ATOM     16  H   UNL     1      61.448 -19.651   5.075  1.00  0.00     0.211 HD
ENDBRANCH   7  15
ENDBRANCH   1   2
BRANCH   1  17
ATOM     17  C   UNL     1      57.004 -19.612   2.996  1.00  0.00     0.172 A 
ATOM     18  C   UNL     1      56.918 -18.255   2.594  1.00  0.00     0.201 A 
ATOM     19  C   UNL     1      55.834 -20.335   3.224  1.00  0.00     0.098 A 
ATOM     20  C   UNL     1      55.648 -17.628   2.504  1.00  0.00     0.176 A 
ATOM     21  C   UNL     1      54.581 -19.744   3.089  1.00  0.00     0.146 A 
ATOM     22  C   UNL     1      54.472 -18.383   2.734  1.00  0.00     0.111 A 
ATOM     23  O   UNL     1      53.495 -20.481   3.304  1.00  0.00    -0.456 OA
ATOM     24  C   UNL     1      53.171 -17.843   2.628  1.00  0.00     0.197 A 
ATOM     25  C   UNL     1      52.256 -20.008   3.198  1.00  0.00     0.138 A 
ATOM     26  C   UNL     1      52.062 -18.658   2.862  1.00  0.00     0.100 A 
ATOM     27  O   UNL     1      52.982 -16.634   2.324  1.00  0.00    -0.289 OA
BRANCH  18  28
ATOM     28  O   UNL     1      58.084 -17.566   2.259  1.00  0.00    -0.502 OA
ATOM     29  H   UNL     1      58.143 -16.846   1.554  1.00  0.00     0.293 HD
ENDBRANCH  18  28
BRANCH  20  30
ATOM     30  O   UNL     1      55.529 -16.265   2.205  1.00  0.00    -0.504 OA
ATOM     31  H   UNL     1      56.100 -15.539   2.612  1.00  0.00     0.293 HD
ENDBRANCH  20  30
BRANCH  25  32
ATOM     32  C   UNL     1      51.118 -20.926   3.454  1.00  0.00     0.017 A 
ATOM     33  C   UNL     1      49.778 -20.501   3.334  1.00  0.00     0.012 A 
ATOM     34  C   UNL     1      51.374 -22.270   3.788  1.00  0.00     0.012 A 
ATOM     35  C   UNL     1      48.727 -21.395   3.564  1.00  0.00     0.001 A 
ATOM     36  C   UNL     1      50.319 -23.158   4.017  1.00  0.00     0.001 A 
ATOM     37  C   UNL     1      48.998 -22.722   3.908  1.00  0.00     0.000 A 
ENDBRANCH  25  32
ENDBRANCH   1  17
TORSDOF 9
ENDMDL
MODEL 4
REMARK VINA RESULT:    -8.756      3.001      9.142
REMARK INTER + INTRA:         -12.888
REMARK INTER:                 -11.702
REMARK INTRA:                  -1.185
REMARK UNBOUND:                -0.804
REMARK SMILES O=C([O-])[C@@H]1O[C@@H](Oc2cc3oc(-c4ccccc4)cc(=O)c3c(O)c2O)[C@H](O)[C@@H](O)[C@@H]1O
REMARK SMILES IDX 7 1 6 2 4 3 31 4 5 5 29 6 27 7 2 8 1 9 3 10 32 11 30 13
REMARK SMILES IDX 28 15 8 17 25 18 9 19 23 20 10 21 22 22 11 23 20 24 12 25
REMARK SMILES IDX 19 26 21 27 26 28 24 30 13 32 14 33 18 34 15 35 17 36 16 37
REMARK H PARENT 32 12 30 14 28 16 26 29 24 31
REMARK Flexibility Score: inf
ROOT
ATOM      1  O   UNL     1      60.342 -15.906  -0.445  1.00  0.00    -0.458 OA
ENDROOT
BRANCH   1   2
ATOM      2  C   UNL     1      60.616 -14.541  -0.103  1.00  0.00     0.339 C 
ATOM      3  C   UNL     1      60.834 -13.922  -2.359  1.00  0.00     0.199 C 
ATOM      4  C   UNL     1      62.328 -13.555  -2.240  1.00  0.00     0.180 C 
ATOM      5  O   UNL     1      60.157 -13.679  -1.134  1.00  0.00    -0.328 OA
ATOM      6  C   UNL     1      62.977 -14.362  -1.098  1.00  0.00     0.181 C 
ATOM      7  C   UNL     1      62.125 -14.305   0.191  1.00  0.00     0.214 C 
BRANCH   3   8
ATOM      8  C   UNL     1      60.183 -13.125  -3.455  1.00  0.00     0.073 C 
ATOM      9  O   UNL     1      58.937 -13.179  -3.622  1.00  0.00    -0.547 OA
ATOM     10  O   UNL     1      60.952 -12.322  -4.295  1.00  0.00    -0.547 OA
ENDBRANCH   3   8
BRANCH   4  11
ATOM     11  O   UNL     1      62.467 -12.175  -2.011  1.00  0.00    -0.387 OA
ATOM     12  H   UNL     1      61.965 -11.711  -2.729  1.00  0.00     0.211 HD
ENDBRANCH   4  11
BRANCH   6  13
ATOM     13  O   UNL     1      63.125 -15.698  -1.513  1.00  0.00    -0.387 OA
ATOM     14  H   UNL     1      63.903 -15.726  -2.130  1.00  0.00     0.211 HD
ENDBRANCH   6  13
BRANCH   7  15
ATOM     15  O   UNL     1      62.328 -13.091   0.873  1.00  0.00    -0.384 OA
ATOM     16  H   UNL     1      62.232 -12.346   0.225  1.00  0.00     0.211 HD
ENDBRANCH   7  15
ENDBRANCH   1   2
BRANCH   1  17
ATOM     17  C   UNL     1      60.244 -17.018   0.413  1.00  0.00     0.172 A 
ATOM     18  C   UNL     1      61.333 -17.850   0.777  1.00  0.00     0.201 A 
ATOM     19  C   UNL     1      58.978 -17.275   0.941  1.00  0.00     0.098 A 
ATOM     20  C   UNL     1      61.109 -18.978   1.609  1.00  0.00     0.176 A 
ATOM     21  C   UNL     1      58.758 -18.350   1.798  1.00  0.00     0.146 A 
ATOM     22  C   UNL     1      59.817 -19.217   2.139  1.00  0.00     0.111 A 
ATOM     23  O   UNL     1      57.536 -18.543   2.285  1.00  0.00    -0.456 OA
ATOM     24  C   UNL     1      59.521 -20.295   3.002  1.00  0.00     0.197 A 
ATOM     25  C   UNL     1      57.226 -19.539   3.112  1.00  0.00     0.138 A 
ATOM     26  C   UNL     1      58.221 -20.455   3.488  1.00  0.00     0.100 A 
ATOM     27  O   UNL     1      60.405 -21.123   3.350  1.00  0.00    -0.289 OA
BRANCH  18  28
ATOM     28  O   UNL     1      62.617 -17.525   0.338  1.00  0.00    -0.502 OA
ATOM     29  H   UNL     1      63.450 -17.589   0.905  1.00  0.00     0.293 HD
ENDBRANCH  18  28
BRANCH  20  30
ATOM     30  O   UNL     1      62.140 -19.876   1.909  1.00  0.00    -0.504 OA
ATOM     31  H   UNL     1      62.810 -19.750   2.653  1.00  0.00     0.293 HD
ENDBRANCH  20  30
BRANCH  25  32
ATOM     32  C   UNL     1      55.828 -19.652   3.599  1.00  0.00     0.017 A 
ATOM     33  C   UNL     1      55.451 -20.619   4.555  1.00  0.00     0.012 A 
ATOM     34  C   UNL     1      54.855 -18.750   3.128  1.00  0.00     0.012 A 
ATOM     35  C   UNL     1      54.129 -20.690   5.007  1.00  0.00     0.001 A 
ATOM     36  C   UNL     1      53.536 -18.826   3.584  1.00  0.00     0.001 A 
ATOM     37  C   UNL     1      53.172 -19.796   4.521  1.00  0.00     0.000 A 
ENDBRANCH  25  32
ENDBRANCH   1  17
TORSDOF 9
ENDMDL
MODEL 5
REMARK VINA RESULT:    -8.692      2.067      3.917
REMARK INTER + INTRA:         -12.799
REMARK INTER:                 -11.459
REMARK INTRA:                  -1.339
REMARK UNBOUND:                -0.804
REMARK SMILES O=C([O-])[C@@H]1O[C@@H](Oc2cc3oc(-c4ccccc4)cc(=O)c3c(O)c2O)[C@H](O)[C@@H](O)[C@@H]1O
REMARK SMILES IDX 7 1 6 2 4 3 31 4 5 5 29 6 27 7 2 8 1 9 3 10 32 11 30 13
REMARK SMILES IDX 28 15 8 17 25 18 9 19 23 20 10 21 22 22 11 23 20 24 12 25
REMARK SMILES IDX 19 26 21 27 26 28 24 30 13 32 14 33 18 34 15 35 17 36 16 37
REMARK H PARENT 32 12 30 14 28 16 26 29 24 31
REMARK Flexibility Score: inf
ROOT
ATOM      1  O   UNL     1      53.187 -20.257   3.324  1.00  0.00    -0.458 OA
ENDROOT
BRANCH   1   2
ATOM      2  C   UNL     1      52.486 -20.911   2.258  1.00  0.00     0.339 C 
ATOM      3  C   UNL     1      50.485 -19.787   2.760  1.00  0.00     0.199 C 
ATOM      4  C   UNL     1      49.722 -21.069   3.156  1.00  0.00     0.180 C 
ATOM      5  O   UNL     1      51.457 -20.067   1.763  1.00  0.00    -0.328 OA
ATOM      6  C   UNL     1      50.715 -22.136   3.657  1.00  0.00     0.181 C 
ATOM      7  C   UNL     1      51.915 -22.290   2.695  1.00  0.00     0.214 C 
BRANCH   3   8
ATOM      8  C   UNL     1      49.531 -18.745   2.248  1.00  0.00     0.073 C 
ATOM      9  O   UNL     1      48.321 -18.770   2.595  1.00  0.00    -0.547 OA
ATOM     10  O   UNL     1      49.974 -17.745   1.384  1.00  0.00    -0.547 OA
ENDBRANCH   3   8
BRANCH   4  11
ATOM     11  O   UNL     1      48.991 -21.551   2.056  1.00  0.00    -0.387 OA
ATOM     12  H   UNL     1      48.644 -22.445   2.310  1.00  0.00     0.211 HD
ENDBRANCH   4  11
BRANCH   6  13
ATOM     13  O   UNL     1      51.172 -21.766   4.935  1.00  0.00    -0.387 OA
ATOM     14  H   UNL     1      52.120 -22.056   5.000  1.00  0.00     0.211 HD
ENDBRANCH   6  13
BRANCH   7  15
ATOM     15  O   UNL     1      51.565 -23.074   1.579  1.00  0.00    -0.384 OA
ATOM     16  H   UNL     1      50.586 -23.005   1.440  1.00  0.00     0.211 HD
ENDBRANCH   7  15
ENDBRANCH   1   2
BRANCH   1  17
ATOM     17  C   UNL     1      54.523 -20.439   3.731  1.00  0.00     0.172 A 
ATOM     18  C   UNL     1      54.938 -21.341   4.743  1.00  0.00     0.201 A 
ATOM     19  C   UNL     1      55.479 -19.681   3.055  1.00  0.00     0.098 A 
ATOM     20  C   UNL     1      56.308 -21.405   5.110  1.00  0.00     0.176 A 
ATOM     21  C   UNL     1      56.831 -19.773   3.372  1.00  0.00     0.146 A 
ATOM     22  C   UNL     1      57.262 -20.631   4.405  1.00  0.00     0.111 A 
ATOM     23  O   UNL     1      57.703 -19.039   2.687  1.00  0.00    -0.456 OA
ATOM     24  C   UNL     1      58.646 -20.665   4.685  1.00  0.00     0.197 A 
ATOM     25  C   UNL     1      59.014 -19.060   2.914  1.00  0.00     0.138 A 
ATOM     26  C   UNL     1      59.523 -19.876   3.937  1.00  0.00     0.100 A 
ATOM     27  O   UNL     1      59.117 -21.396   5.597  1.00  0.00    -0.289 OA
BRANCH  18  28
ATOM     28  O   UNL     1      53.995 -22.179   5.341  1.00  0.00    -0.502 OA
ATOM     29  H   UNL     1      53.127 -21.865   5.752  1.00  0.00     0.293 HD
ENDBRANCH  18  28
BRANCH  20  30
ATOM     30  O   UNL     1      56.740 -22.211   6.170  1.00  0.00    -0.504 OA
ATOM     31  H   UNL     1      56.590 -22.001   7.146  1.00  0.00     0.293 HD
ENDBRANCH  20  30
BRANCH  25  32
ATOM     32  C   UNL     1      59.895 -18.202   2.081  1.00  0.00     0.017 A 
ATOM     33  C   UNL     1      59.733 -16.801   2.028  1.00  0.00     0.012 A 
ATOM     34  C   UNL     1      60.947 -18.790   1.353  1.00  0.00     0.012 A 
ATOM     35  C   UNL     1      60.590 -16.018   1.248  1.00  0.00     0.001 A 
ATOM     36  C   UNL     1      61.800 -18.002   0.575  1.00  0.00     0.001 A 
ATOM     37  C   UNL     1      61.621 -16.618   0.520  1.00  0.00     0.000 A 
ENDBRANCH  25  32
ENDBRANCH   1  17
TORSDOF 9
ENDMDL
MODEL 6
REMARK VINA RESULT:    -8.524      1.786      2.872
REMARK INTER + INTRA:         -12.567
REMARK INTER:                 -11.509
REMARK INTRA:                  -1.058
REMARK UNBOUND:                -0.804
REMARK SMILES O=C([O-])[C@@H]1O[C@@H](Oc2cc3oc(-c4ccccc4)cc(=O)c3c(O)c2O)[C@H](O)[C@@H](O)[C@@H]1O
REMARK SMILES IDX 7 1 6 2 4 3 31 4 5 5 29 6 27 7 2 8 1 9 3 10 32 11 30 13
REMARK SMILES IDX 28 15 8 17 25 18 9 19 23 20 10 21 22 22 11 23 20 24 12 25
REMARK SMILES IDX 19 26 21 27 26 28 24 30 13 32 14 33 18 34 15 35 17 36 16 37
REMARK H PARENT 32 12 30 14 28 16 26 29 24 31
REMARK Flexibility Score: inf
ROOT
ATOM      1  O   UNL     1      54.860 -20.780   4.181  1.00  0.00    -0.458 OA
ENDROOT
BRANCH   1   2
ATOM      2  C   UNL     1      53.989 -21.215   3.128  1.00  0.00     0.339 C 
ATOM      3  C   UNL     1      52.669 -19.278   3.296  1.00  0.00     0.199 C 
ATOM      4  C   UNL     1      51.403 -20.034   3.751  1.00  0.00     0.180 C 
ATOM      5  O   UNL     1      53.459 -20.090   2.440  1.00  0.00    -0.328 OA
ATOM      6  C   UNL     1      51.801 -21.340   4.467  1.00  0.00     0.181 C 
ATOM      7  C   UNL     1      52.850 -22.133   3.655  1.00  0.00     0.214 C 
BRANCH   3   8
ATOM      8  C   UNL     1      52.294 -18.013   2.576  1.00  0.00     0.073 C 
ATOM      9  O   UNL     1      51.617 -18.064   1.517  1.00  0.00    -0.547 OA
ATOM     10  O   UNL     1      52.694 -16.773   3.073  1.00  0.00    -0.547 OA
ENDBRANCH   3   8
BRANCH   4  11
ATOM     11  O   UNL     1      50.582 -20.308   2.643  1.00  0.00    -0.387 OA
ATOM     12  H   UNL     1      49.990 -19.522   2.521  1.00  0.00     0.211 HD
ENDBRANCH   4  11
BRANCH   6  13
ATOM     13  O   UNL     1      52.319 -21.023   5.736  1.00  0.00    -0.387 OA
ATOM     14  H   UNL     1      52.840 -20.183   5.636  1.00  0.00     0.211 HD
ENDBRANCH   6  13
BRANCH   7  15
ATOM     15  O   UNL     1      52.240 -22.842   2.603  1.00  0.00    -0.384 OA
ATOM     16  H   UNL     1      52.838 -23.587   2.337  1.00  0.00     0.211 HD
ENDBRANCH   7  15
ENDBRANCH   1   2
BRANCH   1  17
ATOM     17  C   UNL     1      56.265 -20.686   4.168  1.00  0.00     0.172 A 
ATOM     18  C   UNL     1      57.120 -21.305   5.115  1.00  0.00     0.201 A 
ATOM     19  C   UNL     1      56.820 -19.945   3.125  1.00  0.00     0.098 A 
ATOM     20  C   UNL     1      58.522 -21.099   5.037  1.00  0.00     0.176 A 
ATOM     21  C   UNL     1      58.198 -19.779   3.010  1.00  0.00     0.146 A 
ATOM     22  C   UNL     1      59.065 -20.348   3.966  1.00  0.00     0.111 A 
ATOM     23  O   UNL     1      58.677 -19.075   1.989  1.00  0.00    -0.456 OA
ATOM     24  C   UNL     1      60.450 -20.129   3.797  1.00  0.00     0.197 A 
ATOM     25  C   UNL     1      59.976 -18.863   1.792  1.00  0.00     0.138 A 
ATOM     26  C   UNL     1      60.905 -19.384   2.707  1.00  0.00     0.100 A 
ATOM     27  O   UNL     1      61.295 -20.594   4.609  1.00  0.00    -0.289 OA
BRANCH  18  28
ATOM     28  O   UNL     1      56.569 -22.136   6.092  1.00  0.00    -0.502 OA
ATOM     29  H   UNL     1      56.917 -23.055   6.326  1.00  0.00     0.293 HD
ENDBRANCH  18  28
BRANCH  20  30
ATOM     30  O   UNL     1      59.388 -21.613   6.011  1.00  0.00    -0.504 OA
ATOM     31  H   UNL     1      59.611 -21.151   6.879  1.00  0.00     0.293 HD
ENDBRANCH  20  30
BRANCH  25  32
ATOM     32  C   UNL     1      60.397 -18.067   0.612  1.00  0.00     0.017 A 
ATOM     33  C   UNL     1      59.480 -17.287  -0.124  1.00  0.00     0.012 A 
ATOM     34  C   UNL     1      61.753 -18.053   0.233  1.00  0.00     0.012 A 
ATOM     35  C   UNL     1      59.910 -16.533  -1.221  1.00  0.00     0.001 A 
ATOM     36  C   UNL     1      62.177 -17.298  -0.865  1.00  0.00     0.001 A 
ATOM     37  C   UNL     1      61.257 -16.541  -1.592  1.00  0.00     0.000 A 
ENDBRANCH  25  32
ENDBRANCH   1  17
TORSDOF 9
ENDMDL
MODEL 7
REMARK VINA RESULT:    -8.475      1.605      2.340
REMARK INTER + INTRA:         -12.500
REMARK INTER:                 -11.146
REMARK INTRA:                  -1.353
REMARK UNBOUND:                -0.804
REMARK SMILES O=C([O-])[C@@H]1O[C@@H](Oc2cc3oc(-c4ccccc4)cc(=O)c3c(O)c2O)[C@H](O)[C@@H](O)[C@@H]1O
REMARK SMILES IDX 7 1 6 2 4 3 31 4 5 5 29 6 27 7 2 8 1 9 3 10 32 11 30 13
REMARK SMILES IDX 28 15 8 17 25 18 9 19 23 20 10 21 22 22 11 23 20 24 12 25
REMARK SMILES IDX 19 26 21 27 26 28 24 30 13 32 14 33 18 34 15 35 17 36 16 37
REMARK H PARENT 32 12 30 14 28 16 26 29 24 31
REMARK Flexibility Score: inf
ROOT
ATOM      1  O   UNL     1      55.361 -17.954   2.173  1.00  0.00    -0.458 OA
ENDROOT
BRANCH   1   2
ATOM      2  C   UNL     1      54.477 -17.814   3.294  1.00  0.00     0.339 C 
ATOM      3  C   UNL     1      53.317 -19.781   2.741  1.00  0.00     0.199 C 
ATOM      4  C   UNL     1      51.985 -19.057   2.451  1.00  0.00     0.180 C 
ATOM      5  O   UNL     1      54.055 -19.094   3.742  1.00  0.00    -0.328 OA
ATOM      6  C   UNL     1      52.262 -17.606   2.013  1.00  0.00     0.181 C 
ATOM      7  C   UNL     1      53.258 -16.907   2.966  1.00  0.00     0.214 C 
BRANCH   3   8
ATOM      8  C   UNL     1      53.061 -21.192   3.191  1.00  0.00     0.073 C 
ATOM      9  O   UNL     1      51.904 -21.681   3.110  1.00  0.00    -0.547 OA
ATOM     10  O   UNL     1      54.098 -21.970   3.702  1.00  0.00    -0.547 OA
ENDBRANCH   3   8
BRANCH   4  11
ATOM     11  O   UNL     1      51.166 -19.082   3.593  1.00  0.00    -0.387 OA
ATOM     12  H   UNL     1      50.271 -18.759   3.314  1.00  0.00     0.211 HD
ENDBRANCH   4  11
BRANCH   6  13
ATOM     13  O   UNL     1      52.780 -17.616   0.705  1.00  0.00    -0.387 OA
ATOM     14  H   UNL     1      53.320 -18.444   0.613  1.00  0.00     0.211 HD
ENDBRANCH   6  13
BRANCH   7  15
ATOM     15  O   UNL     1      52.612 -16.478   4.141  1.00  0.00    -0.384 OA
ATOM     16  H   UNL     1      53.303 -16.224   4.805  1.00  0.00     0.211 HD
ENDBRANCH   7  15
ENDBRANCH   1   2
BRANCH   1  17
ATOM     17  C   UNL     1      56.748 -18.201   2.180  1.00  0.00     0.172 A 
ATOM     18  C   UNL     1      57.358 -19.331   2.780  1.00  0.00     0.201 A 
ATOM     19  C   UNL     1      57.541 -17.261   1.524  1.00  0.00     0.098 A 
ATOM     20  C   UNL     1      58.773 -19.452   2.773  1.00  0.00     0.176 A 
ATOM     21  C   UNL     1      58.926 -17.396   1.467  1.00  0.00     0.146 A 
ATOM     22  C   UNL     1      59.559 -18.489   2.095  1.00  0.00     0.111 A 
ATOM     23  O   UNL     1      59.635 -16.479   0.817  1.00  0.00    -0.456 OA
ATOM     24  C   UNL     1      60.967 -18.558   2.011  1.00  0.00     0.197 A 
ATOM     25  C   UNL     1      60.961 -16.523   0.706  1.00  0.00     0.138 A 
ATOM     26  C   UNL     1      61.668 -17.571   1.315  1.00  0.00     0.100 A 
ATOM     27  O   UNL     1      61.615 -19.495   2.551  1.00  0.00    -0.289 OA
BRANCH  18  28
ATOM     28  O   UNL     1      56.555 -20.326   3.339  1.00  0.00    -0.502 OA
ATOM     29  H   UNL     1      55.545 -20.308   3.354  1.00  0.00     0.293 HD
ENDBRANCH  18  28
BRANCH  20  30
ATOM     30  O   UNL     1      59.416 -20.503   3.440  1.00  0.00    -0.504 OA
ATOM     31  H   UNL     1      59.355 -21.473   3.169  1.00  0.00     0.293 HD
ENDBRANCH  20  30
BRANCH  25  32
ATOM     32  C   UNL     1      61.648 -15.446  -0.052  1.00  0.00     0.017 A 
ATOM     33  C   UNL     1      62.494 -15.731  -1.145  1.00  0.00     0.012 A 
ATOM     34  C   UNL     1      61.424 -14.101   0.298  1.00  0.00     0.012 A 
ATOM     35  C   UNL     1      63.113 -14.694  -1.851  1.00  0.00     0.001 A 
ATOM     36  C   UNL     1      62.047 -13.069  -0.411  1.00  0.00     0.001 A 
ATOM     37  C   UNL     1      62.892 -13.365  -1.482  1.00  0.00     0.000 A 
ENDBRANCH  25  32
ENDBRANCH   1  17
TORSDOF 9
ENDMDL
MODEL 8
REMARK VINA RESULT:    -8.416      2.599      7.974
REMARK INTER + INTRA:         -12.418
REMARK INTER:                 -11.525
REMARK INTRA:                  -0.892
REMARK UNBOUND:                -0.804
REMARK SMILES O=C([O-])[C@@H]1O[C@@H](Oc2cc3oc(-c4ccccc4)cc(=O)c3c(O)c2O)[C@H](O)[C@@H](O)[C@@H]1O
REMARK SMILES IDX 7 1 6 2 4 3 31 4 5 5 29 6 27 7 2 8 1 9 3 10 32 11 30 13
REMARK SMILES IDX 28 15 8 17 25 18 9 19 23 20 10 21 22 22 11 23 20 24 12 25
REMARK SMILES IDX 19 26 21 27 26 28 24 30 13 32 14 33 18 34 15 35 17 36 16 37
REMARK H PARENT 32 12 30 14 28 16 26 29 24 31
REMARK Flexibility Score: inf
ROOT
ATOM      1  O   UNL     1      58.783 -21.471   3.813  1.00  0.00    -0.458 OA
ENDROOT
BRANCH   1   2
ATOM      2  C   UNL     1      59.940 -20.639   3.967  1.00  0.00     0.339 C 
ATOM      3  C   UNL     1      59.141 -19.078   2.404  1.00  0.00     0.199 C 
ATOM      4  C   UNL     1      60.278 -19.328   1.391  1.00  0.00     0.180 C 
ATOM      5  O   UNL     1      59.597 -19.281   3.734  1.00  0.00    -0.328 OA
ATOM      6  C   UNL     1      60.824 -20.759   1.559  1.00  0.00     0.181 C 
ATOM      7  C   UNL     1      61.108 -21.087   3.043  1.00  0.00     0.214 C 
BRANCH   3   8
ATOM      8  C   UNL     1      58.614 -17.677   2.266  1.00  0.00     0.073 C 
ATOM      9  O   UNL     1      59.349 -16.694   2.544  1.00  0.00    -0.547 OA
ATOM     10  O   UNL     1      57.308 -17.453   1.832  1.00  0.00    -0.547 OA
ENDBRANCH   3   8
BRANCH   4  11
ATOM     11  O   UNL     1      61.303 -18.383   1.576  1.00  0.00    -0.387 OA
ATOM     12  H   UNL     1      62.123 -18.888   1.812  1.00  0.00     0.211 HD
ENDBRANCH   4  11
BRANCH   6  13
ATOM     13  O   UNL     1      59.884 -21.668   1.041  1.00  0.00    -0.387 OA
ATOM     14  H   UNL     1      60.395 -22.404   0.613  1.00  0.00     0.211 HD
ENDBRANCH   6  13
BRANCH   7  15
ATOM     15  O   UNL     1      62.330 -20.523   3.457  1.00  0.00    -0.384 OA
ATOM     16  H   UNL     1      63.069 -21.095   3.124  1.00  0.00     0.211 HD
ENDBRANCH   7  15
ENDBRANCH   1   2
BRANCH   1  17
ATOM     17  C   UNL     1      57.477 -21.246   4.290  1.00  0.00     0.172 A 
ATOM     18  C   UNL     1      57.105 -21.284   5.658  1.00  0.00     0.201 A 
ATOM     19  C   UNL     1      56.514 -20.947   3.326  1.00  0.00     0.098 A 
ATOM     20  C   UNL     1      55.746 -21.095   6.022  1.00  0.00     0.176 A 
ATOM     21  C   UNL     1      55.189 -20.710   3.678  1.00  0.00     0.146 A 
ATOM     22  C   UNL     1      54.786 -20.786   5.027  1.00  0.00     0.111 A 
ATOM     23  O   UNL     1      54.313 -20.415   2.721  1.00  0.00    -0.456 OA
ATOM     24  C   UNL     1      53.424 -20.547   5.312  1.00  0.00     0.197 A 
ATOM     25  C   UNL     1      53.027 -20.170   2.957  1.00  0.00     0.138 A 
ATOM     26  C   UNL     1      52.543 -20.240   4.274  1.00  0.00     0.100 A 
ATOM     27  O   UNL     1      52.977 -20.604   6.490  1.00  0.00    -0.289 OA
BRANCH  18  28
ATOM     28  O   UNL     1      58.089 -21.473   6.629  1.00  0.00    -0.502 OA
ATOM     29  H   UNL     1      58.268 -20.840   7.395  1.00  0.00     0.293 HD
ENDBRANCH  18  28
BRANCH  20  30
ATOM     30  O   UNL     1      55.325 -21.222   7.352  1.00  0.00    -0.504 OA
ATOM     31  H   UNL     1      54.370 -21.120   7.662  1.00  0.00     0.293 HD
ENDBRANCH  20  30
BRANCH  25  32
ATOM     32  C   UNL     1      52.141 -19.843   1.811  1.00  0.00     0.017 A 
ATOM     33  C   UNL     1      51.550 -18.570   1.668  1.00  0.00     0.012 A 
ATOM     34  C   UNL     1      51.913 -20.811   0.814  1.00  0.00     0.012 A 
ATOM     35  C   UNL     1      50.735 -18.286   0.567  1.00  0.00     0.001 A 
ATOM     36  C   UNL     1      51.097 -20.521  -0.284  1.00  0.00     0.001 A 
ATOM     37  C   UNL     1      50.507 -19.262  -0.407  1.00  0.00     0.000 A 
ENDBRANCH  25  32
ENDBRANCH   1  17
TORSDOF 9
ENDMDL
MODEL 9
REMARK VINA RESULT:    -8.234      1.933      2.947
REMARK INTER + INTRA:         -12.167
REMARK INTER:                 -11.551
REMARK INTRA:                  -0.616
REMARK UNBOUND:                -0.804
REMARK SMILES O=C([O-])[C@@H]1O[C@@H](Oc2cc3oc(-c4ccccc4)cc(=O)c3c(O)c2O)[C@H](O)[C@@H](O)[C@@H]1O
REMARK SMILES IDX 7 1 6 2 4 3 31 4 5 5 29 6 27 7 2 8 1 9 3 10 32 11 30 13
REMARK SMILES IDX 28 15 8 17 25 18 9 19 23 20 10 21 22 22 11 23 20 24 12 25
REMARK SMILES IDX 19 26 21 27 26 28 24 30 13 32 14 33 18 34 15 35 17 36 16 37
REMARK H PARENT 32 12 30 14 28 16 26 29 24 31
REMARK Flexibility Score: inf
ROOT
ATOM      1  O   UNL     1      54.796 -21.997   3.821  1.00  0.00    -0.458 OA
ENDROOT
BRANCH   1   2
ATOM      2  C   UNL     1      53.633 -21.979   4.659  1.00  0.00     0.339 C 
ATOM      3  C   UNL     1      52.231 -21.428   2.856  1.00  0.00     0.199 C 
ATOM      4  C   UNL     1      51.842 -20.046   3.424  1.00  0.00     0.180 C 
ATOM      5  O   UNL     1      52.487 -22.350   3.906  1.00  0.00    -0.328 OA
ATOM      6  C   UNL     1      52.965 -19.521   4.339  1.00  0.00     0.181 C 
ATOM      7  C   UNL     1      53.428 -20.599   5.345  1.00  0.00     0.214 C 
BRANCH   3   8
ATOM      8  C   UNL     1      51.133 -21.963   1.979  1.00  0.00     0.073 C 
ATOM      9  O   UNL     1      50.886 -23.197   1.956  1.00  0.00    -0.547 OA
ATOM     10  O   UNL     1      50.382 -21.100   1.184  1.00  0.00    -0.547 OA
ENDBRANCH   3   8
BRANCH   4  11
ATOM     11  O   UNL     1      50.631 -20.142   4.133  1.00  0.00    -0.387 OA
ATOM     12  H   UNL     1      50.766 -20.819   4.844  1.00  0.00     0.211 HD
ENDBRANCH   4  11
BRANCH   6  13
ATOM     13  O   UNL     1      54.050 -19.117   3.539  1.00  0.00    -0.387 OA
ATOM     14  H   UNL     1      53.685 -18.525   2.830  1.00  0.00     0.211 HD
ENDBRANCH   6  13
BRANCH   7  15
ATOM     15  O   UNL     1      52.531 -20.695   6.425  1.00  0.00    -0.384 OA
ATOM     16  H   UNL     1      51.921 -21.460   6.261  1.00  0.00     0.211 HD
ENDBRANCH   7  15
ENDBRANCH   1   2
BRANCH   1  17
ATOM     17  C   UNL     1      56.112 -21.613   4.147  1.00  0.00     0.172 A 
ATOM     18  C   UNL     1      56.702 -21.775   5.426  1.00  0.00     0.201 A 
ATOM     19  C   UNL     1      56.864 -21.061   3.111  1.00  0.00     0.098 A 
ATOM     20  C   UNL     1      58.021 -21.303   5.658  1.00  0.00     0.176 A 
ATOM     21  C   UNL     1      58.176 -20.642   3.314  1.00  0.00     0.146 A 
ATOM     22  C   UNL     1      58.768 -20.752   4.589  1.00  0.00     0.111 A 
ATOM     23  O   UNL     1      58.855 -20.135   2.289  1.00  0.00    -0.456 OA
ATOM     24  C   UNL     1      60.097 -20.294   4.728  1.00  0.00     0.197 A 
ATOM     25  C   UNL     1      60.112 -19.709   2.382  1.00  0.00     0.138 A 
ATOM     26  C   UNL     1      60.769 -19.771   3.621  1.00  0.00     0.100 A 
ATOM     27  O   UNL     1      60.700 -20.347   5.834  1.00  0.00    -0.289 OA
BRANCH  18  28
ATOM     28  O   UNL     1      55.987 -22.428   6.431  1.00  0.00    -0.502 OA
ATOM     29  H   UNL     1      55.069 -22.834   6.312  1.00  0.00     0.293 HD
ENDBRANCH  18  28
BRANCH  20  30
ATOM     30  O   UNL     1      58.599 -21.357   6.932  1.00  0.00    -0.504 OA
ATOM     31  H   UNL     1      58.975 -22.193   7.354  1.00  0.00     0.293 HD
ENDBRANCH  20  30
BRANCH  25  32
ATOM     32  C   UNL     1      60.773 -19.169   1.167  1.00  0.00     0.017 A 
ATOM     33  C   UNL     1      61.020 -19.974   0.035  1.00  0.00     0.012 A 
ATOM     34  C   UNL     1      61.132 -17.808   1.122  1.00  0.00     0.012 A 
ATOM     35  C   UNL     1      61.629 -19.430  -1.101  1.00  0.00     0.001 A 
ATOM     36  C   UNL     1      61.741 -17.272  -0.017  1.00  0.00     0.001 A 
ATOM     37  C   UNL     1      61.991 -18.081  -1.126  1.00  0.00     0.000 A 
ENDBRANCH  25  32
ENDBRANCH   1  17
TORSDOF 9
ENDMDL
