MODEL 1
REMARK VINA RESULT:    -4.501      0.000      0.000
REMARK INTER + INTRA:          -6.087
REMARK INTER:                  -6.343
REMARK INTRA:                   0.256
REMARK UNBOUND:                 0.256
REMARK SMILES CC1=CCC(=C(C)C)C(=O)CC(C)=CCC1
REMARK SMILES IDX 12 1 14 2 13 3 15 4 16 5 2 6 1 7 3 8 11 10 9 11 10 12 5 13
REMARK SMILES IDX 6 14 7 15 8 16 4 17
REMARK H PARENT
REMARK Flexibility Score: 60.00
ROOT
ATOM      1  C   UNL     1      54.377 -31.613  -8.282  1.00  0.00    -0.070 C 
ATOM      2  C   UNL     1      53.527 -32.017  -9.257  1.00  0.00    -0.027 C 
ATOM      3  C   UNL     1      55.808 -32.085  -8.357  1.00  0.00     0.039 C 
ENDROOT
BRANCH   2   4
ATOM      4  C   UNL     1      52.074 -31.627  -9.356  1.00  0.00     0.032 C 
BRANCH   4   5
ATOM      5  C   UNL     1      51.157 -32.853  -9.204  1.00  0.00     0.034 C 
BRANCH   5   6
ATOM      6  C   UNL     1      50.401 -32.879  -7.890  1.00  0.00    -0.077 C 
ATOM      7  C   UNL     1      48.985 -32.359  -7.860  1.00  0.00     0.039 C 
ATOM      8  C   UNL     1      50.951 -33.269  -6.713  1.00  0.00    -0.023 CG0
ATOM      9  G   UNL     1      52.303 -33.919  -6.511  1.00  0.00     0.000 G0
ENDBRANCH   5   6
ENDBRANCH   4   5
ENDBRANCH   2   4
BRANCH   1  10
ATOM     10  C   UNL     1      53.955 -30.721  -7.122  1.00  0.00     0.111 C 
BRANCH  10  11
ATOM     11  C   UNL     1      53.216 -31.503  -6.061  1.00  0.00     0.163 C 
ATOM     12  O   UNL     1      52.441 -30.846  -5.313  1.00  0.00    -0.294 OA
BRANCH  11  13
ATOM     13  C   UNL     1      53.345 -32.992  -5.869  1.00  0.00    -0.002 C 
ATOM     14  C   UNL     1      54.365 -33.526  -5.124  1.00  0.00    -0.069 C 
ATOM     15  C   UNL     1      55.481 -32.672  -4.563  1.00  0.00     0.039 C 
ATOM     16  C   UNL     1      54.462 -35.014  -4.866  1.00  0.00     0.039 C 
BRANCH  13  17
ATOM     17  C   UNL     1      52.312 -33.916  -6.511  1.00  0.00     0.066 CG0
ATOM     18  G   UNL     1      50.949 -33.289  -6.713  1.00  0.00     0.000 G0
ENDBRANCH  13  17
ENDBRANCH  11  13
ENDBRANCH  10  11
ENDBRANCH   1  10
TORSDOF 0
ENDMDL
MODEL 2
REMARK VINA RESULT:    -4.355     10.723     12.005
REMARK INTER + INTRA:          -5.881
REMARK INTER:                  -6.091
REMARK INTRA:                   0.210
REMARK UNBOUND:                 0.256
REMARK SMILES CC1=CCC(=C(C)C)C(=O)CC(C)=CCC1
REMARK SMILES IDX 12 1 14 2 13 3 15 4 16 5 2 6 1 7 3 8 11 10 9 11 10 12 5 13
REMARK SMILES IDX 6 14 7 15 8 16 4 17
REMARK H PARENT
REMARK Flexibility Score: 60.00
ROOT
ATOM      1  C   UNL     1      49.037 -25.622   2.619  1.00  0.00    -0.070 C 
ATOM      2  C   UNL     1      49.169 -26.029   1.333  1.00  0.00    -0.027 C 
ATOM      3  C   UNL     1      48.780 -24.157   2.869  1.00  0.00     0.039 C 
ENDROOT
BRANCH   2   4
ATOM      4  C   UNL     1      49.404 -27.453   0.895  1.00  0.00     0.032 C 
BRANCH   4   5
ATOM      5  C   UNL     1      50.907 -27.752   0.762  1.00  0.00     0.034 C 
BRANCH   5   6
ATOM      6  C   UNL     1      51.327 -29.042   1.439  1.00  0.00    -0.077 C 
ATOM      7  C   UNL     1      51.016 -30.351   0.755  1.00  0.00     0.039 C 
ATOM      8  C   UNL     1      51.894 -29.097   2.670  1.00  0.00    -0.023 CG0
ATOM      9  G   UNL     1      52.390 -27.929   3.496  1.00  0.00     0.000 G0
ENDBRANCH   5   6
ENDBRANCH   4   5
ENDBRANCH   2   4
BRANCH   1  10
ATOM     10  C   UNL     1      49.145 -26.564   3.809  1.00  0.00     0.111 C 
BRANCH  10  11
ATOM     11  C   UNL     1      50.476 -26.423   4.510  1.00  0.00     0.163 C 
ATOM     12  O   UNL     1      50.747 -25.286   4.985  1.00  0.00    -0.294 OA
BRANCH  11  13
ATOM     13  C   UNL     1      51.462 -27.550   4.680  1.00  0.00    -0.002 C 
ATOM     14  C   UNL     1      51.542 -28.252   5.854  1.00  0.00    -0.069 C 
ATOM     15  C   UNL     1      50.745 -27.861   7.079  1.00  0.00     0.039 C 
ATOM     16  C   UNL     1      52.479 -29.432   6.011  1.00  0.00     0.039 C 
BRANCH  13  17
ATOM     17  C   UNL     1      52.379 -27.917   3.514  1.00  0.00     0.066 CG0
ATOM     18  G   UNL     1      51.893 -29.079   2.675  1.00  0.00     0.000 G0
ENDBRANCH  13  17
ENDBRANCH  11  13
ENDBRANCH  10  11
ENDBRANCH   1  10
TORSDOF 0
ENDMDL
MODEL 3
REMARK VINA RESULT:    -4.251      2.552      4.362
REMARK INTER + INTRA:          -5.735
REMARK INTER:                  -5.874
REMARK INTRA:                   0.139
REMARK UNBOUND:                 0.256
REMARK SMILES CC1=CCC(=C(C)C)C(=O)CC(C)=CCC1
REMARK SMILES IDX 12 1 14 2 13 3 15 4 16 5 2 6 1 7 3 8 11 10 9 11 10 12 5 13
REMARK SMILES IDX 6 14 7 15 8 16 4 17
REMARK H PARENT
REMARK Flexibility Score: 60.00
ROOT
ATOM      1  C   UNL     1      50.481 -33.217  -7.314  1.00  0.00    -0.070 C 
ATOM      2  C   UNL     1      50.625 -32.540  -8.479  1.00  0.00    -0.027 C 
ATOM      3  C   UNL     1      49.123 -33.794  -6.999  1.00  0.00     0.039 C 
ENDROOT
BRANCH   2   4
ATOM      4  C   UNL     1      51.909 -31.919  -8.967  1.00  0.00     0.032 C 
BRANCH   4   5
ATOM      5  C   UNL     1      52.526 -32.744 -10.109  1.00  0.00     0.034 C 
BRANCH   5   6
ATOM      6  C   UNL     1      53.674 -33.627  -9.662  1.00  0.00    -0.077 C 
ATOM      7  C   UNL     1      55.080 -33.089  -9.758  1.00  0.00     0.039 C 
ATOM      8  C   UNL     1      53.521 -34.912  -9.255  1.00  0.00    -0.023 CG0
ATOM      9  G   UNL     1      52.217 -35.631  -8.981  1.00  0.00     0.000 G0
ENDBRANCH   5   6
ENDBRANCH   4   5
ENDBRANCH   2   4
BRANCH   1  10
ATOM     10  C   UNL     1      51.613 -33.414  -6.316  1.00  0.00     0.111 C 
BRANCH  10  11
ATOM     11  C   UNL     1      52.323 -34.730  -6.535  1.00  0.00     0.163 C 
ATOM     12  O   UNL     1      53.355 -34.937  -5.838  1.00  0.00    -0.294 OA
BRANCH  11  13
ATOM     13  C   UNL     1      51.861 -35.785  -7.506  1.00  0.00    -0.002 C 
ATOM     14  C   UNL     1      51.121 -36.860  -7.087  1.00  0.00    -0.069 C 
ATOM     15  C   UNL     1      50.834 -37.115  -5.623  1.00  0.00     0.039 C 
ATOM     16  C   UNL     1      50.591 -37.887  -8.065  1.00  0.00     0.039 C 
BRANCH  13  17
ATOM     17  C   UNL     1      52.220 -35.643  -8.984  1.00  0.00     0.066 CG0
ATOM     18  G   UNL     1      53.520 -34.913  -9.247  1.00  0.00     0.000 G0
ENDBRANCH  13  17
ENDBRANCH  11  13
ENDBRANCH  10  11
ENDBRANCH   1  10
TORSDOF 0
ENDMDL
MODEL 4
REMARK VINA RESULT:    -4.221     11.105     12.819
REMARK INTER + INTRA:          -5.692
REMARK INTER:                  -5.832
REMARK INTRA:                   0.140
REMARK UNBOUND:                 0.256
REMARK SMILES CC1=CCC(=C(C)C)C(=O)CC(C)=CCC1
REMARK SMILES IDX 12 1 14 2 13 3 15 4 16 5 2 6 1 7 3 8 11 10 9 11 10 12 5 13
REMARK SMILES IDX 6 14 7 15 8 16 4 17
REMARK H PARENT
REMARK Flexibility Score: 60.00
ROOT
ATOM      1  C   UNL     1      52.095 -29.578   3.358  1.00  0.00    -0.070 C 
ATOM      2  C   UNL     1      51.638 -30.128   4.509  1.00  0.00    -0.027 C 
ATOM      3  C   UNL     1      51.761 -30.276   2.063  1.00  0.00     0.039 C 
ENDROOT
BRANCH   2   4
ATOM      4  C   UNL     1      51.854 -29.558   5.888  1.00  0.00     0.032 C 
BRANCH   4   5
ATOM      5  C   UNL     1      50.567 -28.915   6.431  1.00  0.00     0.034 C 
BRANCH   5   6
ATOM      6  C   UNL     1      50.605 -27.399   6.431  1.00  0.00    -0.077 C 
ATOM      7  C   UNL     1      51.157 -26.690   7.644  1.00  0.00     0.039 C 
ATOM      8  C   UNL     1      50.094 -26.633   5.436  1.00  0.00    -0.023 CG0
ATOM      9  G   UNL     1      49.589 -27.107   4.090  1.00  0.00     0.000 G0
ENDBRANCH   5   6
ENDBRANCH   4   5
ENDBRANCH   2   4
BRANCH   1  10
ATOM     10  C   UNL     1      52.928 -28.305   3.314  1.00  0.00     0.111 C 
BRANCH  10  11
ATOM     11  C   UNL     1      52.057 -27.071   3.285  1.00  0.00     0.163 C 
ATOM     12  O   UNL     1      52.621 -25.974   3.546  1.00  0.00    -0.294 OA
BRANCH  11  13
ATOM     13  C   UNL     1      50.587 -27.087   2.951  1.00  0.00    -0.002 C 
ATOM     14  C   UNL     1      50.155 -27.091   1.650  1.00  0.00    -0.069 C 
ATOM     15  C   UNL     1      51.112 -26.955   0.486  1.00  0.00     0.039 C 
ATOM     16  C   UNL     1      48.684 -27.179   1.304  1.00  0.00     0.039 C 
BRANCH  13  17
ATOM     17  C   UNL     1      49.567 -27.107   4.088  1.00  0.00     0.066 CG0
ATOM     18  G   UNL     1      50.104 -26.633   5.422  1.00  0.00     0.000 G0
ENDBRANCH  13  17
ENDBRANCH  11  13
ENDBRANCH  10  11
ENDBRANCH   1  10
TORSDOF 0
ENDMDL
MODEL 5
REMARK VINA RESULT:    -4.191      2.610      5.492
REMARK INTER + INTRA:          -5.651
REMARK INTER:                  -5.876
REMARK INTRA:                   0.225
REMARK UNBOUND:                 0.256
REMARK SMILES CC1=CCC(=C(C)C)C(=O)CC(C)=CCC1
REMARK SMILES IDX 12 1 14 2 13 3 15 4 16 5 2 6 1 7 3 8 11 10 9 11 10 12 5 13
REMARK SMILES IDX 6 14 7 15 8 16 4 17
REMARK H PARENT
REMARK Flexibility Score: 60.00
ROOT
ATOM      1  C   UNL     1      51.390 -36.673  -4.909  1.00  0.00    -0.070 C 
ATOM      2  C   UNL     1      52.724 -36.638  -4.673  1.00  0.00    -0.027 C 
ATOM      3  C   UNL     1      50.662 -37.967  -4.641  1.00  0.00     0.039 C 
ENDROOT
BRANCH   2   4
ATOM      4  C   UNL     1      53.606 -35.430  -4.861  1.00  0.00     0.032 C 
BRANCH   4   5
ATOM      5  C   UNL     1      54.349 -35.488  -6.207  1.00  0.00     0.034 C 
BRANCH   5   6
ATOM      6  C   UNL     1      54.425 -34.147  -6.911  1.00  0.00    -0.077 C 
ATOM      7  C   UNL     1      55.504 -33.176  -6.500  1.00  0.00     0.039 C 
ATOM      8  C   UNL     1      53.525 -33.731  -7.836  1.00  0.00    -0.023 CG0
ATOM      9  G   UNL     1      52.430 -34.557  -8.477  1.00  0.00     0.000 G0
ENDBRANCH   5   6
ENDBRANCH   4   5
ENDBRANCH   2   4
BRANCH   1  10
ATOM     10  C   UNL     1      50.603 -35.481  -5.435  1.00  0.00     0.111 C 
BRANCH  10  11
ATOM     11  C   UNL     1      50.528 -35.487  -6.944  1.00  0.00     0.163 C 
ATOM     12  O   UNL     1      49.968 -36.483  -7.478  1.00  0.00    -0.294 OA
BRANCH  11  13
ATOM     13  C   UNL     1      51.061 -34.381  -7.817  1.00  0.00    -0.002 C 
ATOM     14  C   UNL     1      50.344 -33.232  -8.024  1.00  0.00    -0.069 C 
ATOM     15  C   UNL     1      48.936 -33.059  -7.498  1.00  0.00     0.039 C 
ATOM     16  C   UNL     1      50.901 -32.085  -8.841  1.00  0.00     0.039 C 
BRANCH  13  17
ATOM     17  C   UNL     1      52.431 -34.547  -8.473  1.00  0.00     0.066 CG0
ATOM     18  G   UNL     1      53.538 -33.741  -7.826  1.00  0.00     0.000 G0
ENDBRANCH  13  17
ENDBRANCH  11  13
ENDBRANCH  10  11
ENDBRANCH   1  10
TORSDOF 0
ENDMDL
MODEL 6
REMARK VINA RESULT:    -4.180     15.990     18.045
REMARK INTER + INTRA:          -5.635
REMARK INTER:                  -5.909
REMARK INTRA:                   0.274
REMARK UNBOUND:                 0.256
REMARK SMILES CC1=CCC(=C(C)C)C(=O)CC(C)=CCC1
REMARK SMILES IDX 12 1 14 2 13 3 15 4 16 5 2 6 1 7 3 8 11 10 9 11 10 12 5 13
REMARK SMILES IDX 6 14 7 15 8 16 4 17
REMARK H PARENT
REMARK Flexibility Score: 60.00
ROOT
ATOM      1  C   UNL     1      39.253 -24.392  -2.970  1.00  0.00    -0.070 C 
ATOM      2  C   UNL     1      39.933 -24.791  -4.072  1.00  0.00    -0.027 C 
ATOM      3  C   UNL     1      40.035 -23.741  -1.857  1.00  0.00     0.039 C 
ENDROOT
BRANCH   2   4
ATOM      4  C   UNL     1      39.315 -25.435  -5.287  1.00  0.00     0.032 C 
BRANCH   4   5
ATOM      5  C   UNL     1      39.575 -24.599  -6.552  1.00  0.00     0.034 C 
BRANCH   5   6
ATOM      6  C   UNL     1      38.322 -23.965  -7.123  1.00  0.00    -0.077 C 
ATOM      7  C   UNL     1      37.686 -24.590  -8.340  1.00  0.00     0.039 C 
ATOM      8  C   UNL     1      37.780 -22.814  -6.653  1.00  0.00    -0.023 CG0
ATOM      9  G   UNL     1      38.173 -22.069  -5.396  1.00  0.00     0.000 G0
ENDBRANCH   5   6
ENDBRANCH   4   5
ENDBRANCH   2   4
BRANCH   1  10
ATOM     10  C   UNL     1      37.751 -24.577  -2.804  1.00  0.00     0.111 C 
BRANCH  10  11
ATOM     11  C   UNL     1      36.976 -23.754  -3.807  1.00  0.00     0.163 C 
ATOM     12  O   UNL     1      35.985 -24.314  -4.352  1.00  0.00    -0.294 OA
BRANCH  11  13
ATOM     13  C   UNL     1      37.310 -22.329  -4.165  1.00  0.00    -0.002 C 
ATOM     14  C   UNL     1      36.851 -21.281  -3.410  1.00  0.00    -0.069 C 
ATOM     15  C   UNL     1      35.888 -21.481  -2.260  1.00  0.00     0.039 C 
ATOM     16  C   UNL     1      37.240 -19.851  -3.719  1.00  0.00     0.039 C 
BRANCH  13  17
ATOM     17  C   UNL     1      38.185 -22.056  -5.387  1.00  0.00     0.066 CG0
ATOM     18  G   UNL     1      37.784 -22.821  -6.630  1.00  0.00     0.000 G0
ENDBRANCH  13  17
ENDBRANCH  11  13
ENDBRANCH  10  11
ENDBRANCH   1  10
TORSDOF 0
ENDMDL
MODEL 7
REMARK VINA RESULT:    -4.166     15.808     17.864
REMARK INTER + INTRA:          -5.616
REMARK INTER:                  -5.812
REMARK INTRA:                   0.196
REMARK UNBOUND:                 0.256
REMARK SMILES CC1=CCC(=C(C)C)C(=O)CC(C)=CCC1
REMARK SMILES IDX 12 1 14 2 13 3 15 4 16 5 2 6 1 7 3 8 11 10 9 11 10 12 5 13
REMARK SMILES IDX 6 14 7 15 8 16 4 17
REMARK H PARENT
REMARK Flexibility Score: 60.00
ROOT
ATOM      1  C   UNL     1      39.279 -24.492  -6.815  1.00  0.00    -0.070 C 
ATOM      2  C   UNL     1      40.050 -24.844  -5.757  1.00  0.00    -0.027 C 
ATOM      3  C   UNL     1      39.967 -23.913  -8.025  1.00  0.00     0.039 C 
ENDROOT
BRANCH   2   4
ATOM      4  C   UNL     1      39.539 -25.458  -4.478  1.00  0.00     0.032 C 
BRANCH   4   5
ATOM      5  C   UNL     1      39.726 -24.501  -3.289  1.00  0.00     0.034 C 
BRANCH   5   6
ATOM      6  C   UNL     1      38.425 -23.908  -2.784  1.00  0.00    -0.077 C 
ATOM      7  C   UNL     1      37.724 -24.580  -1.630  1.00  0.00     0.039 C 
ATOM      8  C   UNL     1      37.805 -22.849  -3.364  1.00  0.00    -0.023 CG0
ATOM      9  G   UNL     1      38.357 -21.957  -4.454  1.00  0.00     0.000 G0
ENDBRANCH   5   6
ENDBRANCH   4   5
ENDBRANCH   2   4
BRANCH   1  10
ATOM     10  C   UNL     1      37.764 -24.645  -6.832  1.00  0.00     0.111 C 
BRANCH  10  11
ATOM     11  C   UNL     1      37.081 -23.490  -6.138  1.00  0.00     0.163 C 
ATOM     12  O   UNL     1      35.884 -23.672  -5.783  1.00  0.00    -0.294 OA
BRANCH  11  13
ATOM     13  C   UNL     1      37.749 -22.171  -5.844  1.00  0.00    -0.002 C 
ATOM     14  C   UNL     1      37.808 -21.179  -6.788  1.00  0.00    -0.069 C 
ATOM     15  C   UNL     1      37.325 -21.392  -8.207  1.00  0.00     0.039 C 
ATOM     16  C   UNL     1      38.412 -19.826  -6.479  1.00  0.00     0.039 C 
BRANCH  13  17
ATOM     17  C   UNL     1      38.359 -21.940  -4.463  1.00  0.00     0.066 CG0
ATOM     18  G   UNL     1      37.814 -22.841  -3.376  1.00  0.00     0.000 G0
ENDBRANCH  13  17
ENDBRANCH  11  13
ENDBRANCH  10  11
ENDBRANCH   1  10
TORSDOF 0
ENDMDL
MODEL 8
REMARK VINA RESULT:    -4.100     15.157     17.848
REMARK INTER + INTRA:          -5.523
REMARK INTER:                  -5.748
REMARK INTRA:                   0.226
REMARK UNBOUND:                 0.256
REMARK SMILES CC1=CCC(=C(C)C)C(=O)CC(C)=CCC1
REMARK SMILES IDX 12 1 14 2 13 3 15 4 16 5 2 6 1 7 3 8 11 10 9 11 10 12 5 13
REMARK SMILES IDX 6 14 7 15 8 16 4 17
REMARK H PARENT
REMARK Flexibility Score: 60.00
ROOT
ATOM      1  C   UNL     1      39.606 -25.233  -4.970  1.00  0.00    -0.070 C 
ATOM      2  C   UNL     1      40.077 -24.711  -3.812  1.00  0.00    -0.027 C 
ATOM      3  C   UNL     1      40.588 -25.456  -6.093  1.00  0.00     0.039 C 
ENDROOT
BRANCH   2   4
ATOM      4  C   UNL     1      39.249 -24.444  -2.581  1.00  0.00     0.032 C 
BRANCH   4   5
ATOM      5  C   UNL     1      39.165 -22.937  -2.284  1.00  0.00     0.034 C 
BRANCH   5   6
ATOM      6  C   UNL     1      37.792 -22.347  -2.546  1.00  0.00    -0.077 C 
ATOM      7  C   UNL     1      36.827 -22.224  -1.393  1.00  0.00     0.039 C 
ATOM      8  C   UNL     1      37.346 -21.999  -3.778  1.00  0.00    -0.023 CG0
ATOM      9  G   UNL     1      38.155 -21.936  -5.056  1.00  0.00     0.000 G0
ENDBRANCH   5   6
ENDBRANCH   4   5
ENDBRANCH   2   4
BRANCH   1  10
ATOM     10  C   UNL     1      38.143 -25.592  -5.190  1.00  0.00     0.111 C 
BRANCH  10  11
ATOM     11  C   UNL     1      37.313 -24.371  -5.513  1.00  0.00     0.163 C 
ATOM     12  O   UNL     1      36.072 -24.460  -5.305  1.00  0.00    -0.294 OA
BRANCH  11  13
ATOM     13  C   UNL     1      37.885 -23.081  -6.042  1.00  0.00    -0.002 C 
ATOM     14  C   UNL     1      38.155 -22.919  -7.376  1.00  0.00    -0.069 C 
ATOM     15  C   UNL     1      38.016 -24.053  -8.367  1.00  0.00     0.039 C 
ATOM     16  C   UNL     1      38.661 -21.603  -7.928  1.00  0.00     0.039 C 
BRANCH  13  17
ATOM     17  C   UNL     1      38.157 -21.935  -5.069  1.00  0.00     0.066 CG0
ATOM     18  G   UNL     1      37.354 -21.996  -3.787  1.00  0.00     0.000 G0
ENDBRANCH  13  17
ENDBRANCH  11  13
ENDBRANCH  10  11
ENDBRANCH   1  10
TORSDOF 0
ENDMDL
MODEL 9
REMARK VINA RESULT:    -4.098      2.460      5.037
REMARK INTER + INTRA:          -5.519
REMARK INTER:                  -5.579
REMARK INTRA:                   0.060
REMARK UNBOUND:                 0.256
REMARK SMILES CC1=CCC(=C(C)C)C(=O)CC(C)=CCC1
REMARK SMILES IDX 12 1 14 2 13 3 15 4 16 5 2 6 1 7 3 8 11 10 9 11 10 12 5 13
REMARK SMILES IDX 6 14 7 15 8 16 4 17
REMARK H PARENT
REMARK Flexibility Score: 60.00
ROOT
ATOM      1  C   UNL     1      51.979 -36.397  -7.577  1.00  0.00    -0.070 C 
ATOM      2  C   UNL     1      52.383 -36.877  -6.376  1.00  0.00    -0.027 C 
ATOM      3  C   UNL     1      51.672 -37.395  -8.666  1.00  0.00     0.039 C 
ENDROOT
BRANCH   2   4
ATOM      4  C   UNL     1      52.708 -36.032  -5.170  1.00  0.00     0.032 C 
BRANCH   4   5
ATOM      5  C   UNL     1      54.199 -35.654  -5.142  1.00  0.00     0.034 C 
BRANCH   5   6
ATOM      6  C   UNL     1      54.450 -34.232  -4.678  1.00  0.00    -0.077 C 
ATOM      7  C   UNL     1      54.309 -33.916  -3.209  1.00  0.00     0.039 C 
ATOM      8  C   UNL     1      54.715 -33.202  -5.519  1.00  0.00    -0.023 CG0
ATOM      9  G   UNL     1      55.003 -33.289  -7.002  1.00  0.00     0.000 G0
ENDBRANCH   5   6
ENDBRANCH   4   5
ENDBRANCH   2   4
BRANCH   1  10
ATOM     10  C   UNL     1      51.829 -34.912  -7.876  1.00  0.00     0.111 C 
BRANCH  10  11
ATOM     11  C   UNL     1      53.096 -34.333  -8.460  1.00  0.00     0.163 C 
ATOM     12  O   UNL     1      53.576 -34.924  -9.467  1.00  0.00    -0.294 OA
BRANCH  11  13
ATOM     13  C   UNL     1      53.787 -33.107  -7.923  1.00  0.00    -0.002 C 
ATOM     14  C   UNL     1      53.340 -31.848  -8.231  1.00  0.00    -0.069 C 
ATOM     15  C   UNL     1      52.218 -31.614  -9.218  1.00  0.00     0.039 C 
ATOM     16  C   UNL     1      53.983 -30.611  -7.638  1.00  0.00     0.039 C 
BRANCH  13  17
ATOM     17  C   UNL     1      55.002 -33.277  -7.012  1.00  0.00     0.066 CG0
ATOM     18  G   UNL     1      54.693 -33.196  -5.532  1.00  0.00     0.000 G0
ENDBRANCH  13  17
ENDBRANCH  11  13
ENDBRANCH  10  11
ENDBRANCH   1  10
TORSDOF 0
ENDMDL
