MODEL 1
REMARK VINA RESULT:    -7.352      0.000      0.000
REMARK INTER + INTRA:         -12.638
REMARK INTER:                 -11.220
REMARK INTRA:                  -1.418
REMARK UNBOUND:                -1.418
REMARK SMILES CC(=O)CCC=C(C)CCC=C(C)CCC=C(C)C
REMARK SMILES IDX 10 1 11 2 12 3 13 4 14 5 15 6 16 7 18 8 17 9 19 10 9 11 7 12
REMARK SMILES IDX 6 13 8 14 5 15 4 16 2 17 3 18 1 19
REMARK H PARENT
REMARK Flexibility Score: inf
ROOT
ATOM      1  C   UNL     1      -6.080  29.497  29.160  1.00  0.00     0.032 C 
ENDROOT
BRANCH   1   2
ATOM      2  C   UNL     1      -5.544  30.825  28.684  1.00  0.00    -0.028 C 
ATOM      3  C   UNL     1      -4.510  30.937  27.821  1.00  0.00    -0.077 C 
ATOM      4  C   UNL     1      -3.800  29.716  27.283  1.00  0.00     0.039 C 
BRANCH   3   5
ATOM      5  C   UNL     1      -4.051  32.314  27.393  1.00  0.00     0.034 C 
BRANCH   5   6
ATOM      6  C   UNL     1      -5.202  33.094  26.747  1.00  0.00     0.032 C 
BRANCH   6   7
ATOM      7  C   UNL     1      -5.238  32.861  25.257  1.00  0.00    -0.028 C 
ATOM      8  C   UNL     1      -5.549  35.290  24.725  1.00  0.00     0.039 C 
ATOM      9  C   UNL     1      -5.374  33.840  24.336  1.00  0.00    -0.080 C 
ATOM     10  C   UNL     1      -5.359  33.460  22.877  1.00  0.00     0.039 C 
ENDBRANCH   6   7
ENDBRANCH   5   6
ENDBRANCH   3   5
ENDBRANCH   1   2
BRANCH   1  11
ATOM     11  C   UNL     1      -5.465  29.099  30.506  1.00  0.00     0.034 C 
BRANCH  11  12
ATOM     12  C   UNL     1      -4.307  28.143  30.310  1.00  0.00    -0.077 C 
ATOM     13  C   UNL     1      -3.055  28.561  30.607  1.00  0.00    -0.028 C 
ATOM     14  C   UNL     1      -4.578  26.762  29.760  1.00  0.00     0.039 C 
BRANCH  13  15
ATOM     15  C   UNL     1      -1.821  27.700  30.505  1.00  0.00     0.035 C 
BRANCH  15  16
ATOM     16  C   UNL     1      -1.067  27.990  29.197  1.00  0.00     0.079 C 
BRANCH  16  17
ATOM     17  C   UNL     1      -0.981  26.813  28.251  1.00  0.00     0.130 C 
ATOM     18  O   UNL     1      -1.914  26.616  27.485  1.00  0.00    -0.300 OA
ATOM     19  C   UNL     1       0.198  25.878  28.211  1.00  0.00     0.087 C 
ENDBRANCH  16  17
ENDBRANCH  15  16
ENDBRANCH  13  15
ENDBRANCH  11  12
ENDBRANCH   1  11
TORSDOF 9
ENDMDL
MODEL 2
REMARK VINA RESULT:    -7.172      2.255      7.102
REMARK INTER + INTRA:         -12.364
REMARK INTER:                 -11.468
REMARK INTRA:                  -0.896
REMARK UNBOUND:                -1.418
REMARK SMILES CC(=O)CCC=C(C)CCC=C(C)CCC=C(C)C
REMARK SMILES IDX 10 1 11 2 12 3 13 4 14 5 15 6 16 7 18 8 17 9 19 10 9 11 7 12
REMARK SMILES IDX 6 13 8 14 5 15 4 16 2 17 3 18 1 19
REMARK H PARENT
REMARK Flexibility Score: inf
ROOT
ATOM      1  C   UNL     1      -5.739  29.723  30.497  1.00  0.00     0.032 C 
ENDROOT
BRANCH   1   2
ATOM      2  C   UNL     1      -4.285  29.393  30.734  1.00  0.00    -0.028 C 
ATOM      3  C   UNL     1      -3.763  28.165  30.518  1.00  0.00    -0.077 C 
ATOM      4  C   UNL     1      -4.623  27.020  30.035  1.00  0.00     0.039 C 
BRANCH   3   5
ATOM      5  C   UNL     1      -2.290  27.934  30.774  1.00  0.00     0.034 C 
BRANCH   5   6
ATOM      6  C   UNL     1      -1.459  28.310  29.541  1.00  0.00     0.032 C 
BRANCH   6   7
ATOM      7  C   UNL     1      -0.413  27.261  29.259  1.00  0.00    -0.028 C 
ATOM      8  C   UNL     1      -1.691  26.278  27.340  1.00  0.00     0.039 C 
ATOM      9  C   UNL     1      -0.494  26.354  28.262  1.00  0.00    -0.080 C 
ATOM     10  C   UNL     1       0.646  25.385  28.078  1.00  0.00     0.039 C 
ENDBRANCH   6   7
ENDBRANCH   5   6
ENDBRANCH   3   5
ENDBRANCH   1   2
BRANCH   1  11
ATOM     11  C   UNL     1      -6.120  29.527  29.025  1.00  0.00     0.034 C 
BRANCH  11  12
ATOM     12  C   UNL     1      -5.262  30.391  28.125  1.00  0.00    -0.077 C 
ATOM     13  C   UNL     1      -5.537  31.713  28.029  1.00  0.00    -0.028 C 
ATOM     14  C   UNL     1      -4.144  29.750  27.337  1.00  0.00     0.039 C 
BRANCH  13  15
ATOM     15  C   UNL     1      -4.737  32.694  27.210  1.00  0.00     0.035 C 
BRANCH  15  16
ATOM     16  C   UNL     1      -5.306  32.801  25.787  1.00  0.00     0.079 C 
BRANCH  16  17
ATOM     17  C   UNL     1      -5.291  34.200  25.210  1.00  0.00     0.130 C 
ATOM     18  O   UNL     1      -5.152  35.142  25.977  1.00  0.00    -0.300 OA
ATOM     19  C   UNL     1      -5.439  34.480  23.739  1.00  0.00     0.087 C 
ENDBRANCH  16  17
ENDBRANCH  15  16
ENDBRANCH  13  15
ENDBRANCH  11  12
ENDBRANCH   1  11
TORSDOF 9
ENDMDL
MODEL 3
REMARK VINA RESULT:    -6.650      1.112      1.825
REMARK INTER + INTRA:         -11.567
REMARK INTER:                 -10.635
REMARK INTRA:                  -0.932
REMARK UNBOUND:                -1.418
REMARK SMILES CC(=O)CCC=C(C)CCC=C(C)CCC=C(C)C
REMARK SMILES IDX 10 1 11 2 12 3 13 4 14 5 15 6 16 7 18 8 17 9 19 10 9 11 7 12
REMARK SMILES IDX 6 13 8 14 5 15 4 16 2 17 3 18 1 19
REMARK H PARENT
REMARK Flexibility Score: inf
ROOT
ATOM      1  C   UNL     1      -4.371  30.501  28.941  1.00  0.00     0.032 C 
ENDROOT
BRANCH   1   2
ATOM      2  C   UNL     1      -5.236  31.186  27.911  1.00  0.00    -0.028 C 
ATOM      3  C   UNL     1      -4.827  32.263  27.204  1.00  0.00    -0.077 C 
ATOM      4  C   UNL     1      -3.461  32.871  27.418  1.00  0.00     0.039 C 
BRANCH   3   5
ATOM      5  C   UNL     1      -5.762  32.874  26.183  1.00  0.00     0.034 C 
BRANCH   5   6
ATOM      6  C   UNL     1      -5.266  32.599  24.758  1.00  0.00     0.032 C 
BRANCH   6   7
ATOM      7  C   UNL     1      -5.017  33.889  24.019  1.00  0.00    -0.028 C 
ATOM      8  C   UNL     1      -6.120  33.081  21.918  1.00  0.00     0.039 C 
ATOM      9  C   UNL     1      -5.412  34.128  22.748  1.00  0.00    -0.080 C 
ATOM     10  C   UNL     1      -5.123  35.480  22.149  1.00  0.00     0.039 C 
ENDBRANCH   6   7
ENDBRANCH   5   6
ENDBRANCH   3   5
ENDBRANCH   1   2
BRANCH   1  11
ATOM     11  C   UNL     1      -5.080  29.279  29.537  1.00  0.00     0.034 C 
BRANCH  11  12
ATOM     12  C   UNL     1      -4.101  28.149  29.775  1.00  0.00    -0.077 C 
ATOM     13  C   UNL     1      -2.799  28.446  29.993  1.00  0.00    -0.028 C 
ATOM     14  C   UNL     1      -4.598  26.723  29.733  1.00  0.00     0.039 C 
BRANCH  13  15
ATOM     15  C   UNL     1      -1.729  27.425  30.290  1.00  0.00     0.035 C 
BRANCH  15  16
ATOM     16  C   UNL     1      -0.572  27.547  29.286  1.00  0.00     0.079 C 
BRANCH  16  17
ATOM     17  C   UNL     1      -0.476  26.404  28.300  1.00  0.00     0.130 C 
ATOM     18  O   UNL     1       0.592  25.816  28.196  1.00  0.00    -0.300 OA
ATOM     19  C   UNL     1      -1.632  25.961  27.445  1.00  0.00     0.087 C 
ENDBRANCH  16  17
ENDBRANCH  15  16
ENDBRANCH  13  15
ENDBRANCH  11  12
ENDBRANCH   1  11
TORSDOF 9
ENDMDL
MODEL 4
REMARK VINA RESULT:    -6.363      2.062      7.060
REMARK INTER + INTRA:         -11.128
REMARK INTER:                  -9.896
REMARK INTRA:                  -1.232
REMARK UNBOUND:                -1.418
REMARK SMILES CC(=O)CCC=C(C)CCC=C(C)CCC=C(C)C
REMARK SMILES IDX 10 1 11 2 12 3 13 4 14 5 15 6 16 7 18 8 17 9 19 10 9 11 7 12
REMARK SMILES IDX 6 13 8 14 5 15 4 16 2 17 3 18 1 19
REMARK H PARENT
REMARK Flexibility Score: inf
ROOT
ATOM      1  C   UNL     1      -5.568  30.027  29.246  1.00  0.00     0.032 C 
ENDROOT
BRANCH   1   2
ATOM      2  C   UNL     1      -4.405  29.627  30.120  1.00  0.00    -0.028 C 
ATOM      3  C   UNL     1      -4.084  28.340  30.379  1.00  0.00    -0.077 C 
ATOM      4  C   UNL     1      -4.898  27.199  29.814  1.00  0.00     0.039 C 
BRANCH   3   5
ATOM      5  C   UNL     1      -2.891  28.039  31.258  1.00  0.00     0.034 C 
BRANCH   5   6
ATOM      6  C   UNL     1      -1.582  28.358  30.526  1.00  0.00     0.032 C 
BRANCH   6   7
ATOM      7  C   UNL     1      -1.157  27.200  29.658  1.00  0.00    -0.028 C 
ATOM      8  C   UNL     1      -2.112  28.209  27.572  1.00  0.00     0.039 C 
ATOM      9  C   UNL     1      -1.371  27.127  28.326  1.00  0.00    -0.080 C 
ATOM     10  C   UNL     1      -0.860  25.921  27.581  1.00  0.00     0.039 C 
ENDBRANCH   6   7
ENDBRANCH   5   6
ENDBRANCH   3   5
ENDBRANCH   1   2
BRANCH   1  11
ATOM     11  C   UNL     1      -5.154  30.107  27.772  1.00  0.00     0.034 C 
BRANCH  11  12
ATOM     12  C   UNL     1      -4.732  31.514  27.405  1.00  0.00    -0.077 C 
ATOM     13  C   UNL     1      -5.526  32.245  26.589  1.00  0.00    -0.028 C 
ATOM     14  C   UNL     1      -3.424  32.053  27.936  1.00  0.00     0.039 C 
BRANCH  13  15
ATOM     15  C   UNL     1      -5.251  33.671  26.182  1.00  0.00     0.035 C 
BRANCH  15  16
ATOM     16  C   UNL     1      -5.930  33.992  24.842  1.00  0.00     0.079 C 
BRANCH  16  17
ATOM     17  C   UNL     1      -5.153  33.543  23.624  1.00  0.00     0.130 C 
ATOM     18  O   UNL     1      -3.939  33.436  23.718  1.00  0.00    -0.300 OA
ATOM     19  C   UNL     1      -5.808  33.226  22.307  1.00  0.00     0.087 C 
ENDBRANCH  16  17
ENDBRANCH  15  16
ENDBRANCH  13  15
ENDBRANCH  11  12
ENDBRANCH   1  11
TORSDOF 9
ENDMDL
MODEL 5
REMARK VINA RESULT:    -5.312      2.490      7.129
REMARK INTER + INTRA:          -9.524
REMARK INTER:                  -8.643
REMARK INTRA:                  -0.881
REMARK UNBOUND:                -1.418
REMARK SMILES CC(=O)CCC=C(C)CCC=C(C)CCC=C(C)C
REMARK SMILES IDX 10 1 11 2 12 3 13 4 14 5 15 6 16 7 18 8 17 9 19 10 9 11 7 12
REMARK SMILES IDX 6 13 8 14 5 15 4 16 2 17 3 18 1 19
REMARK H PARENT
REMARK Flexibility Score: inf
ROOT
ATOM      1  C   UNL     1      -3.065  29.021  27.114  1.00  0.00     0.032 C 
ENDROOT
BRANCH   1   2
ATOM      2  C   UNL     1      -1.937  28.682  28.058  1.00  0.00    -0.028 C 
ATOM      3  C   UNL     1      -1.397  27.447  28.148  1.00  0.00    -0.077 C 
ATOM      4  C   UNL     1      -1.910  26.301  27.308  1.00  0.00     0.039 C 
BRANCH   3   5
ATOM      5  C   UNL     1      -0.260  27.208  29.118  1.00  0.00     0.034 C 
BRANCH   5   6
ATOM      6  C   UNL     1      -0.790  27.046  30.548  1.00  0.00     0.032 C 
BRANCH   6   7
ATOM      7  C   UNL     1      -1.570  28.265  30.972  1.00  0.00    -0.028 C 
ATOM      8  C   UNL     1      -3.789  27.126  30.720  1.00  0.00     0.039 C 
ATOM      9  C   UNL     1      -2.917  28.310  31.072  1.00  0.00    -0.080 C 
ATOM     10  C   UNL     1      -3.559  29.590  31.542  1.00  0.00     0.039 C 
ENDBRANCH   6   7
ENDBRANCH   5   6
ENDBRANCH   3   5
ENDBRANCH   1   2
BRANCH   1  11
ATOM     11  C   UNL     1      -4.411  29.062  27.847  1.00  0.00     0.034 C 
BRANCH  11  12
ATOM     12  C   UNL     1      -4.925  30.482  27.954  1.00  0.00    -0.077 C 
ATOM     13  C   UNL     1      -4.279  31.464  27.285  1.00  0.00    -0.028 C 
ATOM     14  C   UNL     1      -6.124  30.766  28.828  1.00  0.00     0.039 C 
BRANCH  13  15
ATOM     15  C   UNL     1      -4.711  32.910  27.265  1.00  0.00     0.035 C 
BRANCH  15  16
ATOM     16  C   UNL     1      -4.186  33.613  26.004  1.00  0.00     0.079 C 
BRANCH  16  17
ATOM     17  C   UNL     1      -5.254  33.961  24.991  1.00  0.00     0.130 C 
ATOM     18  O   UNL     1      -5.413  35.138  24.697  1.00  0.00    -0.300 OA
ATOM     19  C   UNL     1      -6.125  32.926  24.332  1.00  0.00     0.087 C 
ENDBRANCH  16  17
ENDBRANCH  15  16
ENDBRANCH  13  15
ENDBRANCH  11  12
ENDBRANCH   1  11
TORSDOF 9
ENDMDL
MODEL 6
REMARK VINA RESULT:    -4.866      2.440      7.380
REMARK INTER + INTRA:          -8.845
REMARK INTER:                  -8.589
REMARK INTRA:                  -0.256
REMARK UNBOUND:                -1.418
REMARK SMILES CC(=O)CCC=C(C)CCC=C(C)CCC=C(C)C
REMARK SMILES IDX 10 1 11 2 12 3 13 4 14 5 15 6 16 7 18 8 17 9 19 10 9 11 7 12
REMARK SMILES IDX 6 13 8 14 5 15 4 16 2 17 3 18 1 19
REMARK H PARENT
REMARK Flexibility Score: inf
ROOT
ATOM      1  C   UNL     1      -3.215  29.365  27.113  1.00  0.00     0.032 C 
ENDROOT
BRANCH   1   2
ATOM      2  C   UNL     1      -2.221  29.042  28.202  1.00  0.00    -0.028 C 
ATOM      3  C   UNL     1      -1.611  27.841  28.311  1.00  0.00    -0.077 C 
ATOM      4  C   UNL     1      -1.906  26.719  27.343  1.00  0.00     0.039 C 
BRANCH   3   5
ATOM      5  C   UNL     1      -0.619  27.616  29.431  1.00  0.00     0.034 C 
BRANCH   5   6
ATOM      6  C   UNL     1      -1.329  27.602  30.791  1.00  0.00     0.032 C 
BRANCH   6   7
ATOM      7  C   UNL     1      -2.808  27.846  30.626  1.00  0.00    -0.028 C 
ATOM      8  C   UNL     1      -2.783  29.918  32.036  1.00  0.00     0.039 C 
ATOM      9  C   UNL     1      -3.472  28.893  31.164  1.00  0.00    -0.080 C 
ATOM     10  C   UNL     1      -4.947  29.027  30.887  1.00  0.00     0.039 C 
ENDBRANCH   6   7
ENDBRANCH   5   6
ENDBRANCH   3   5
ENDBRANCH   1   2
BRANCH   1  11
ATOM     11  C   UNL     1      -4.420  30.133  27.670  1.00  0.00     0.034 C 
BRANCH  11  12
ATOM     12  C   UNL     1      -4.434  31.559  27.162  1.00  0.00    -0.077 C 
ATOM     13  C   UNL     1      -5.266  31.884  26.146  1.00  0.00    -0.028 C 
ATOM     14  C   UNL     1      -3.498  32.571  27.782  1.00  0.00     0.039 C 
BRANCH  13  15
ATOM     15  C   UNL     1      -5.416  33.273  25.577  1.00  0.00     0.035 C 
BRANCH  15  16
ATOM     16  C   UNL     1      -4.548  33.438  24.320  1.00  0.00     0.079 C 
BRANCH  16  17
ATOM     17  C   UNL     1      -5.310  33.869  23.085  1.00  0.00     0.130 C 
ATOM     18  O   UNL     1      -5.855  33.007  22.410  1.00  0.00    -0.300 OA
ATOM     19  C   UNL     1      -5.423  35.307  22.655  1.00  0.00     0.087 C 
ENDBRANCH  16  17
ENDBRANCH  15  16
ENDBRANCH  13  15
ENDBRANCH  11  12
ENDBRANCH   1  11
TORSDOF 9
ENDMDL
MODEL 7
REMARK VINA RESULT:    -4.690      1.651      2.791
REMARK INTER + INTRA:          -8.576
REMARK INTER:                  -7.818
REMARK INTRA:                  -0.758
REMARK UNBOUND:                -1.418
REMARK SMILES CC(=O)CCC=C(C)CCC=C(C)CCC=C(C)C
REMARK SMILES IDX 10 1 11 2 12 3 13 4 14 5 15 6 16 7 18 8 17 9 19 10 9 11 7 12
REMARK SMILES IDX 6 13 8 14 5 15 4 16 2 17 3 18 1 19
REMARK H PARENT
REMARK Flexibility Score: inf
ROOT
ATOM      1  C   UNL     1      -3.855  29.367  27.766  1.00  0.00     0.032 C 
ENDROOT
BRANCH   1   2
ATOM      2  C   UNL     1      -4.293  30.598  27.012  1.00  0.00    -0.028 C 
ATOM      3  C   UNL     1      -5.262  31.429  27.456  1.00  0.00    -0.077 C 
ATOM      4  C   UNL     1      -5.994  31.162  28.750  1.00  0.00     0.039 C 
BRANCH   3   5
ATOM      5  C   UNL     1      -5.623  32.647  26.633  1.00  0.00     0.034 C 
BRANCH   5   6
ATOM      6  C   UNL     1      -4.376  33.246  25.972  1.00  0.00     0.032 C 
BRANCH   6   7
ATOM      7  C   UNL     1      -4.588  33.425  24.490  1.00  0.00    -0.028 C 
ATOM      8  C   UNL     1      -5.677  35.666  24.756  1.00  0.00     0.039 C 
ATOM      9  C   UNL     1      -5.154  34.515  23.927  1.00  0.00    -0.080 C 
ATOM     10  C   UNL     1      -5.271  34.569  22.425  1.00  0.00     0.039 C 
ENDBRANCH   6   7
ENDBRANCH   5   6
ENDBRANCH   3   5
ENDBRANCH   1   2
BRANCH   1  11
ATOM     11  C   UNL     1      -2.906  28.506  26.922  1.00  0.00     0.034 C 
BRANCH  11  12
ATOM     12  C   UNL     1      -2.029  27.645  27.805  1.00  0.00    -0.077 C 
ATOM     13  C   UNL     1      -1.433  28.206  28.883  1.00  0.00    -0.028 C 
ATOM     14  C   UNL     1      -1.819  26.193  27.443  1.00  0.00     0.039 C 
BRANCH  13  15
ATOM     15  C   UNL     1      -0.574  27.455  29.871  1.00  0.00     0.035 C 
BRANCH  15  16
ATOM     16  C   UNL     1      -1.295  27.321  31.221  1.00  0.00     0.079 C 
BRANCH  16  17
ATOM     17  C   UNL     1      -2.705  27.869  31.234  1.00  0.00     0.130 C 
ATOM     18  O   UNL     1      -3.617  27.130  30.890  1.00  0.00    -0.300 OA
ATOM     19  C   UNL     1      -3.033  29.277  31.651  1.00  0.00     0.087 C 
ENDBRANCH  16  17
ENDBRANCH  15  16
ENDBRANCH  13  15
ENDBRANCH  11  12
ENDBRANCH   1  11
TORSDOF 9
ENDMDL
MODEL 8
REMARK VINA RESULT:    -4.388      2.623      7.755
REMARK INTER + INTRA:          -8.116
REMARK INTER:                  -7.516
REMARK INTRA:                  -0.600
REMARK UNBOUND:                -1.418
REMARK SMILES CC(=O)CCC=C(C)CCC=C(C)CCC=C(C)C
REMARK SMILES IDX 10 1 11 2 12 3 13 4 14 5 15 6 16 7 18 8 17 9 19 10 9 11 7 12
REMARK SMILES IDX 6 13 8 14 5 15 4 16 2 17 3 18 1 19
REMARK H PARENT
REMARK Flexibility Score: inf
ROOT
ATOM      1  C   UNL     1      -3.440  32.372  27.491  1.00  0.00     0.032 C 
ENDROOT
BRANCH   1   2
ATOM      2  C   UNL     1      -4.589  31.766  28.259  1.00  0.00    -0.028 C 
ATOM      3  C   UNL     1      -4.939  30.465  28.158  1.00  0.00    -0.077 C 
ATOM      4  C   UNL     1      -4.201  29.522  27.237  1.00  0.00     0.039 C 
BRANCH   3   5
ATOM      5  C   UNL     1      -6.100  29.947  28.978  1.00  0.00     0.034 C 
BRANCH   5   6
ATOM      6  C   UNL     1      -5.616  29.424  30.336  1.00  0.00     0.032 C 
BRANCH   6   7
ATOM      7  C   UNL     1      -4.420  28.520  30.167  1.00  0.00    -0.028 C 
ATOM      8  C   UNL     1      -3.050  29.753  31.865  1.00  0.00     0.039 C 
ATOM      9  C   UNL     1      -3.267  28.644  30.861  1.00  0.00    -0.080 C 
ATOM     10  C   UNL     1      -2.168  27.644  30.610  1.00  0.00     0.039 C 
ENDBRANCH   6   7
ENDBRANCH   5   6
ENDBRANCH   3   5
ENDBRANCH   1   2
BRANCH   1  11
ATOM     11  C   UNL     1      -3.723  33.835  27.129  1.00  0.00     0.034 C 
BRANCH  11  12
ATOM     12  C   UNL     1      -4.810  33.932  26.080  1.00  0.00    -0.077 C 
ATOM     13  C   UNL     1      -5.043  32.867  25.278  1.00  0.00    -0.028 C 
ATOM     14  C   UNL     1      -5.582  35.223  25.936  1.00  0.00     0.039 C 
BRANCH  13  15
ATOM     15  C   UNL     1      -6.123  32.811  24.226  1.00  0.00     0.035 C 
BRANCH  15  16
ATOM     16  C   UNL     1      -5.537  33.095  22.835  1.00  0.00     0.079 C 
BRANCH  16  17
ATOM     17  C   UNL     1      -5.188  34.546  22.587  1.00  0.00     0.130 C 
ATOM     18  O   UNL     1      -4.106  34.957  22.984  1.00  0.00    -0.300 OA
ATOM     19  C   UNL     1      -6.109  35.500  21.877  1.00  0.00     0.087 C 
ENDBRANCH  16  17
ENDBRANCH  15  16
ENDBRANCH  13  15
ENDBRANCH  11  12
ENDBRANCH   1  11
TORSDOF 9
ENDMDL
