MODEL 1
REMARK VINA RESULT:    -3.469      0.000      0.000
REMARK INTER + INTRA:         -11.981
REMARK INTER:                  -7.931
REMARK INTRA:                  -4.050
REMARK UNBOUND:                -4.050
REMARK SMILES CCCCCCCCCCCCCCCCCCCCCCCC(=O)[O-]
REMARK SMILES IDX 13 1 14 2 15 3 16 4 17 5 18 6 19 7 20 8 21 9 22 10 23 11
REMARK SMILES IDX 24 12 25 13 26 14 12 15 11 16 10 17 9 18 8 19 7 20 6 21 5 22
REMARK SMILES IDX 4 23 3 24 2 25 1 26
REMARK H PARENT
REMARK Flexibility Score: inf
ROOT
ATOM      1  C   UNL     1     -16.877  25.648  44.789  1.00  0.00     0.000 C 
ENDROOT
BRANCH   1   2
ATOM      2  C   UNL     1     -16.842  25.570  43.255  1.00  0.00     0.000 C 
BRANCH   2   3
ATOM      3  C   UNL     1     -17.662  24.419  42.640  1.00  0.00     0.000 C 
BRANCH   3   4
ATOM      4  C   UNL     1     -19.048  24.847  42.114  1.00  0.00     0.000 C 
BRANCH   4   5
ATOM      5  C   UNL     1     -19.175  26.371  41.962  1.00  0.00     0.000 C 
BRANCH   5   6
ATOM      6  C   UNL     1     -20.468  26.885  42.608  1.00  0.00     0.000 C 
BRANCH   6   7
ATOM      7  C   UNL     1     -20.326  26.953  44.136  1.00  0.00     0.000 C 
BRANCH   7   8
ATOM      8  C   UNL     1     -21.581  26.451  44.873  1.00  0.00     0.000 C 
BRANCH   8   9
ATOM      9  C   UNL     1     -22.333  25.302  44.169  1.00  0.00     0.000 C 
BRANCH   9  10
ATOM     10  C   UNL     1     -22.922  24.228  45.107  1.00  0.00     0.006 C 
BRANCH  10  11
ATOM     11  C   UNL     1     -24.192  23.545  44.575  1.00  0.00     0.053 C 
BRANCH  11  12
ATOM     12  C   UNL     1     -25.042  23.005  45.685  1.00  0.00     0.041 C 
ATOM     13  O   UNL     1     -25.441  21.812  45.654  1.00  0.00    -0.550 OA
ATOM     14  O   UNL     1     -25.351  23.808  46.775  1.00  0.00    -0.550 OA
ENDBRANCH  11  12
ENDBRANCH  10  11
ENDBRANCH   9  10
ENDBRANCH   8   9
ENDBRANCH   7   8
ENDBRANCH   6   7
ENDBRANCH   5   6
ENDBRANCH   4   5
ENDBRANCH   3   4
ENDBRANCH   2   3
ENDBRANCH   1   2
BRANCH   1  15
ATOM     15  C   UNL     1     -17.283  24.319  45.445  1.00  0.00     0.000 C 
BRANCH  15  16
ATOM     16  C   UNL     1     -18.322  24.546  46.553  1.00  0.00     0.000 C 
BRANCH  16  17
ATOM     17  C   UNL     1     -19.611  23.740  46.327  1.00  0.00     0.000 C 
BRANCH  17  18
ATOM     18  C   UNL     1     -19.418  22.578  45.337  1.00  0.00    -0.000 C 
BRANCH  18  19
ATOM     19  C   UNL     1     -19.042  21.263  46.036  1.00  0.00    -0.000 C 
BRANCH  19  20
ATOM     20  C   UNL     1     -18.406  20.243  45.074  1.00  0.00    -0.000 C 
BRANCH  20  21
ATOM     21  C   UNL     1     -17.557  20.912  43.984  1.00  0.00    -0.000 C 
BRANCH  21  22
ATOM     22  C   UNL     1     -16.069  20.995  44.363  1.00  0.00    -0.000 C 
BRANCH  22  23
ATOM     23  C   UNL     1     -15.229  21.739  43.311  1.00  0.00    -0.000 C 
BRANCH  23  24
ATOM     24  C   UNL     1     -13.839  22.196  43.796  1.00  0.00    -0.000 C 
BRANCH  24  25
ATOM     25  C   UNL     1     -13.283  23.420  43.039  1.00  0.00    -0.003 C 
ATOM     26  C   UNL     1     -13.296  24.693  43.887  1.00  0.00     0.004 C 
ENDBRANCH  24  25
ENDBRANCH  23  24
ENDBRANCH  22  23
ENDBRANCH  21  22
ENDBRANCH  20  21
ENDBRANCH  19  20
ENDBRANCH  18  19
ENDBRANCH  17  18
ENDBRANCH  16  17
ENDBRANCH  15  16
ENDBRANCH   1  15
TORSDOF 22
ENDMDL
MODEL 2
REMARK VINA RESULT:    -3.416      3.017      5.289
REMARK INTER + INTRA:         -11.860
REMARK INTER:                  -8.524
REMARK INTRA:                  -3.336
REMARK UNBOUND:                -4.050
REMARK SMILES CCCCCCCCCCCCCCCCCCCCCCCC(=O)[O-]
REMARK SMILES IDX 13 1 14 2 15 3 16 4 17 5 18 6 19 7 20 8 21 9 22 10 23 11
REMARK SMILES IDX 24 12 25 13 26 14 12 15 11 16 10 17 9 18 8 19 7 20 6 21 5 22
REMARK SMILES IDX 4 23 3 24 2 25 1 26
REMARK H PARENT
REMARK Flexibility Score: inf
ROOT
ATOM      1  C   UNL     1     -19.174  20.457  45.559  1.00  0.00     0.000 C 
ENDROOT
BRANCH   1   2
ATOM      2  C   UNL     1     -19.323  21.823  46.247  1.00  0.00     0.000 C 
BRANCH   2   3
ATOM      3  C   UNL     1     -20.188  22.847  45.488  1.00  0.00     0.000 C 
BRANCH   3   4
ATOM      4  C   UNL     1     -19.799  24.317  45.754  1.00  0.00     0.000 C 
BRANCH   4   5
ATOM      5  C   UNL     1     -18.855  24.879  44.679  1.00  0.00     0.000 C 
BRANCH   5   6
ATOM      6  C   UNL     1     -19.043  24.150  43.343  1.00  0.00     0.000 C 
BRANCH   6   7
ATOM      7  C   UNL     1     -18.774  25.095  42.161  1.00  0.00     0.000 C 
BRANCH   7   8
ATOM      8  C   UNL     1     -19.763  26.272  42.102  1.00  0.00     0.000 C 
BRANCH   8   9
ATOM      9  C   UNL     1     -19.111  27.671  42.092  1.00  0.00     0.000 C 
BRANCH   9  10
ATOM     10  C   UNL     1     -19.863  28.754  42.892  1.00  0.00     0.006 C 
BRANCH  10  11
ATOM     11  C   UNL     1     -20.169  30.035  42.099  1.00  0.00     0.053 C 
BRANCH  11  12
ATOM     12  C   UNL     1     -21.596  30.081  41.643  1.00  0.00     0.041 C 
ATOM     13  O   UNL     1     -22.065  31.133  41.136  1.00  0.00    -0.550 OA
ATOM     14  O   UNL     1     -22.390  28.945  41.733  1.00  0.00    -0.550 OA
ENDBRANCH  11  12
ENDBRANCH  10  11
ENDBRANCH   9  10
ENDBRANCH   8   9
ENDBRANCH   7   8
ENDBRANCH   6   7
ENDBRANCH   5   6
ENDBRANCH   4   5
ENDBRANCH   3   4
ENDBRANCH   2   3
ENDBRANCH   1   2
BRANCH   1  15
ATOM     15  C   UNL     1     -17.778  20.242  44.955  1.00  0.00     0.000 C 
BRANCH  15  16
ATOM     16  C   UNL     1     -17.637  20.982  43.617  1.00  0.00     0.000 C 
BRANCH  16  17
ATOM     17  C   UNL     1     -16.336  21.794  43.526  1.00  0.00     0.000 C 
BRANCH  17  18
ATOM     18  C   UNL     1     -15.853  22.297  44.897  1.00  0.00    -0.000 C 
BRANCH  18  19
ATOM     19  C   UNL     1     -14.397  21.904  45.191  1.00  0.00    -0.000 C 
BRANCH  19  20
ATOM     20  C   UNL     1     -13.620  21.523  43.917  1.00  0.00    -0.000 C 
BRANCH  20  21
ATOM     21  C   UNL     1     -12.755  22.676  43.388  1.00  0.00    -0.000 C 
BRANCH  21  22
ATOM     22  C   UNL     1     -13.304  23.274  42.081  1.00  0.00    -0.000 C 
BRANCH  22  23
ATOM     23  C   UNL     1     -12.804  24.706  41.826  1.00  0.00    -0.000 C 
BRANCH  23  24
ATOM     24  C   UNL     1     -13.867  25.806  42.009  1.00  0.00    -0.000 C 
BRANCH  24  25
ATOM     25  C   UNL     1     -15.075  25.374  42.867  1.00  0.00    -0.003 C 
ATOM     26  C   UNL     1     -15.701  26.541  43.632  1.00  0.00     0.004 C 
ENDBRANCH  24  25
ENDBRANCH  23  24
ENDBRANCH  22  23
ENDBRANCH  21  22
ENDBRANCH  20  21
ENDBRANCH  19  20
ENDBRANCH  18  19
ENDBRANCH  17  18
ENDBRANCH  16  17
ENDBRANCH  15  16
ENDBRANCH   1  15
TORSDOF 22
ENDMDL
MODEL 3
REMARK VINA RESULT:    -3.366      1.345      3.488
REMARK INTER + INTRA:         -11.745
REMARK INTER:                  -8.292
REMARK INTRA:                  -3.453
REMARK UNBOUND:                -4.050
REMARK SMILES CCCCCCCCCCCCCCCCCCCCCCCC(=O)[O-]
REMARK SMILES IDX 13 1 14 2 15 3 16 4 17 5 18 6 19 7 20 8 21 9 22 10 23 11
REMARK SMILES IDX 24 12 25 13 26 14 12 15 11 16 10 17 9 18 8 19 7 20 6 21 5 22
REMARK SMILES IDX 4 23 3 24 2 25 1 26
REMARK H PARENT
REMARK Flexibility Score: inf
ROOT
ATOM      1  C   UNL     1     -18.803  21.264  45.142  1.00  0.00     0.000 C 
ENDROOT
BRANCH   1   2
ATOM      2  C   UNL     1     -18.723  22.593  44.376  1.00  0.00     0.000 C 
BRANCH   2   3
ATOM      3  C   UNL     1     -17.966  22.531  43.035  1.00  0.00     0.000 C 
BRANCH   3   4
ATOM      4  C   UNL     1     -17.996  23.850  42.235  1.00  0.00     0.000 C 
BRANCH   4   5
ATOM      5  C   UNL     1     -19.119  24.792  42.697  1.00  0.00     0.000 C 
BRANCH   5   6
ATOM      6  C   UNL     1     -19.111  26.098  41.891  1.00  0.00     0.000 C 
BRANCH   6   7
ATOM      7  C   UNL     1     -20.082  27.121  42.499  1.00  0.00     0.000 C 
BRANCH   7   8
ATOM      8  C   UNL     1     -20.314  26.901  44.005  1.00  0.00     0.000 C 
BRANCH   8   9
ATOM      9  C   UNL     1     -21.788  26.688  44.412  1.00  0.00     0.000 C 
BRANCH   9  10
ATOM     10  C   UNL     1     -22.103  25.322  45.054  1.00  0.00     0.006 C 
BRANCH  10  11
ATOM     11  C   UNL     1     -23.351  24.625  44.489  1.00  0.00     0.053 C 
BRANCH  11  12
ATOM     12  C   UNL     1     -23.647  23.343  45.205  1.00  0.00     0.041 C 
ATOM     13  O   UNL     1     -22.775  22.811  45.940  1.00  0.00    -0.550 OA
ATOM     14  O   UNL     1     -24.906  22.764  45.100  1.00  0.00    -0.550 OA
ENDBRANCH  11  12
ENDBRANCH  10  11
ENDBRANCH   9  10
ENDBRANCH   8   9
ENDBRANCH   7   8
ENDBRANCH   6   7
ENDBRANCH   5   6
ENDBRANCH   4   5
ENDBRANCH   3   4
ENDBRANCH   2   3
ENDBRANCH   1   2
BRANCH   1  15
ATOM     15  C   UNL     1     -17.830  20.204  44.602  1.00  0.00     0.000 C 
BRANCH  15  16
ATOM     16  C   UNL     1     -16.805  19.802  45.673  1.00  0.00     0.000 C 
BRANCH  16  17
ATOM     17  C   UNL     1     -15.412  20.394  45.409  1.00  0.00     0.000 C 
BRANCH  17  18
ATOM     18  C   UNL     1     -15.259  21.822  45.961  1.00  0.00    -0.000 C 
BRANCH  18  19
ATOM     19  C   UNL     1     -14.594  22.775  44.956  1.00  0.00    -0.000 C 
BRANCH  19  20
ATOM     20  C   UNL     1     -14.393  22.129  43.573  1.00  0.00    -0.000 C 
BRANCH  20  21
ATOM     21  C   UNL     1     -13.285  22.813  42.759  1.00  0.00    -0.000 C 
BRANCH  21  22
ATOM     22  C   UNL     1     -13.828  23.913  41.831  1.00  0.00    -0.000 C 
BRANCH  22  23
ATOM     23  C   UNL     1     -13.761  25.312  42.466  1.00  0.00    -0.000 C 
BRANCH  23  24
ATOM     24  C   UNL     1     -15.126  25.917  42.846  1.00  0.00    -0.000 C 
BRANCH  24  25
ATOM     25  C   UNL     1     -15.273  26.237  44.349  1.00  0.00    -0.003 C 
ATOM     26  C   UNL     1     -16.673  26.738  44.710  1.00  0.00     0.004 C 
ENDBRANCH  24  25
ENDBRANCH  23  24
ENDBRANCH  22  23
ENDBRANCH  21  22
ENDBRANCH  20  21
ENDBRANCH  19  20
ENDBRANCH  18  19
ENDBRANCH  17  18
ENDBRANCH  16  17
ENDBRANCH  15  16
ENDBRANCH   1  15
TORSDOF 22
ENDMDL
MODEL 4
REMARK VINA RESULT:    -3.328      1.777      3.787
REMARK INTER + INTRA:         -11.659
REMARK INTER:                  -6.908
REMARK INTRA:                  -4.750
REMARK UNBOUND:                -4.050
REMARK SMILES CCCCCCCCCCCCCCCCCCCCCCCC(=O)[O-]
REMARK SMILES IDX 13 1 14 2 15 3 16 4 17 5 18 6 19 7 20 8 21 9 22 10 23 11
REMARK SMILES IDX 24 12 25 13 26 14 12 15 11 16 10 17 9 18 8 19 7 20 6 21 5 22
REMARK SMILES IDX 4 23 3 24 2 25 1 26
REMARK H PARENT
REMARK Flexibility Score: inf
ROOT
ATOM      1  C   UNL     1     -18.859  20.709  45.071  1.00  0.00     0.000 C 
ENDROOT
BRANCH   1   2
ATOM      2  C   UNL     1     -17.371  20.547  44.724  1.00  0.00     0.000 C 
BRANCH   2   3
ATOM      3  C   UNL     1     -16.836  21.529  43.664  1.00  0.00     0.000 C 
BRANCH   3   4
ATOM      4  C   UNL     1     -17.922  22.082  42.716  1.00  0.00     0.000 C 
BRANCH   4   5
ATOM      5  C   UNL     1     -17.951  23.618  42.688  1.00  0.00     0.000 C 
BRANCH   5   6
ATOM      6  C   UNL     1     -16.607  24.205  43.136  1.00  0.00     0.000 C 
BRANCH   6   7
ATOM      7  C   UNL     1     -16.602  25.734  42.989  1.00  0.00     0.000 C 
BRANCH   7   8
ATOM      8  C   UNL     1     -17.484  26.436  44.036  1.00  0.00     0.000 C 
BRANCH   8   9
ATOM      9  C   UNL     1     -18.799  27.030  43.488  1.00  0.00     0.000 C 
BRANCH   9  10
ATOM     10  C   UNL     1     -20.067  26.674  44.290  1.00  0.00     0.006 C 
BRANCH  10  11
ATOM     11  C   UNL     1     -20.986  25.649  43.607  1.00  0.00     0.053 C 
BRANCH  11  12
ATOM     12  C   UNL     1     -22.213  25.369  44.420  1.00  0.00     0.041 C 
ATOM     13  O   UNL     1     -23.186  24.757  43.909  1.00  0.00    -0.550 OA
ATOM     14  O   UNL     1     -22.258  25.742  45.757  1.00  0.00    -0.550 OA
ENDBRANCH  11  12
ENDBRANCH  10  11
ENDBRANCH   9  10
ENDBRANCH   8   9
ENDBRANCH   7   8
ENDBRANCH   6   7
ENDBRANCH   5   6
ENDBRANCH   4   5
ENDBRANCH   3   4
ENDBRANCH   2   3
ENDBRANCH   1   2
BRANCH   1  15
ATOM     15  C   UNL     1     -19.088  21.537  46.346  1.00  0.00     0.000 C 
BRANCH  15  16
ATOM     16  C   UNL     1     -19.635  22.931  46.006  1.00  0.00     0.000 C 
BRANCH  16  17
ATOM     17  C   UNL     1     -18.666  24.057  46.398  1.00  0.00     0.000 C 
BRANCH  17  18
ATOM     18  C   UNL     1     -17.368  23.528  47.033  1.00  0.00    -0.000 C 
BRANCH  18  19
ATOM     19  C   UNL     1     -16.157  24.426  46.735  1.00  0.00    -0.000 C 
BRANCH  19  20
ATOM     20  C   UNL     1     -14.922  23.623  46.289  1.00  0.00    -0.000 C 
BRANCH  20  21
ATOM     21  C   UNL     1     -13.747  24.526  45.882  1.00  0.00    -0.000 C 
BRANCH  21  22
ATOM     22  C   UNL     1     -12.733  23.804  44.979  1.00  0.00    -0.000 C 
BRANCH  22  23
ATOM     23  C   UNL     1     -13.355  22.625  44.211  1.00  0.00    -0.000 C 
BRANCH  23  24
ATOM     24  C   UNL     1     -13.307  22.754  42.677  1.00  0.00    -0.000 C 
BRANCH  24  25
ATOM     25  C   UNL     1     -13.074  24.195  42.175  1.00  0.00    -0.003 C 
ATOM     26  C   UNL     1     -13.348  24.349  40.679  1.00  0.00     0.004 C 
ENDBRANCH  24  25
ENDBRANCH  23  24
ENDBRANCH  22  23
ENDBRANCH  21  22
ENDBRANCH  20  21
ENDBRANCH  19  20
ENDBRANCH  18  19
ENDBRANCH  17  18
ENDBRANCH  16  17
ENDBRANCH  15  16
ENDBRANCH   1  15
TORSDOF 22
ENDMDL
MODEL 5
REMARK VINA RESULT:    -3.310      3.029      5.032
REMARK INTER + INTRA:         -11.618
REMARK INTER:                  -7.688
REMARK INTRA:                  -3.930
REMARK UNBOUND:                -4.050
REMARK SMILES CCCCCCCCCCCCCCCCCCCCCCCC(=O)[O-]
REMARK SMILES IDX 13 1 14 2 15 3 16 4 17 5 18 6 19 7 20 8 21 9 22 10 23 11
REMARK SMILES IDX 24 12 25 13 26 14 12 15 11 16 10 17 9 18 8 19 7 20 6 21 5 22
REMARK SMILES IDX 4 23 3 24 2 25 1 26
REMARK H PARENT
REMARK Flexibility Score: inf
ROOT
ATOM      1  C   UNL     1     -22.666  23.936  46.095  1.00  0.00     0.000 C 
ENDROOT
BRANCH   1   2
ATOM      2  C   UNL     1     -23.034  24.473  44.703  1.00  0.00     0.000 C 
BRANCH   2   3
ATOM      3  C   UNL     1     -22.046  25.499  44.116  1.00  0.00     0.000 C 
BRANCH   3   4
ATOM      4  C   UNL     1     -20.954  25.957  45.106  1.00  0.00     0.000 C 
BRANCH   4   5
ATOM      5  C   UNL     1     -19.544  25.534  44.663  1.00  0.00     0.000 C 
BRANCH   5   6
ATOM      6  C   UNL     1     -19.588  24.776  43.330  1.00  0.00     0.000 C 
BRANCH   6   7
ATOM      7  C   UNL     1     -18.781  25.517  42.253  1.00  0.00     0.000 C 
BRANCH   7   8
ATOM      8  C   UNL     1     -19.524  26.741  41.690  1.00  0.00     0.000 C 
BRANCH   8   9
ATOM      9  C   UNL     1     -18.884  28.104  42.030  1.00  0.00     0.000 C 
BRANCH   9  10
ATOM     10  C   UNL     1     -19.551  28.874  43.189  1.00  0.00     0.006 C 
BRANCH  10  11
ATOM     11  C   UNL     1     -20.102  30.255  42.801  1.00  0.00     0.053 C 
BRANCH  11  12
ATOM     12  C   UNL     1     -21.021  30.178  41.620  1.00  0.00     0.041 C 
ATOM     13  O   UNL     1     -20.716  30.752  40.542  1.00  0.00    -0.550 OA
ATOM     14  O   UNL     1     -22.189  29.431  41.697  1.00  0.00    -0.550 OA
ENDBRANCH  11  12
ENDBRANCH  10  11
ENDBRANCH   9  10
ENDBRANCH   8   9
ENDBRANCH   7   8
ENDBRANCH   6   7
ENDBRANCH   5   6
ENDBRANCH   4   5
ENDBRANCH   3   4
ENDBRANCH   2   3
ENDBRANCH   1   2
BRANCH   1  15
ATOM     15  C   UNL     1     -22.103  22.507  46.053  1.00  0.00     0.000 C 
BRANCH  15  16
ATOM     16  C   UNL     1     -20.659  22.467  46.574  1.00  0.00     0.000 C 
BRANCH  16  17
ATOM     17  C   UNL     1     -19.653  22.041  45.495  1.00  0.00     0.000 C 
BRANCH  17  18
ATOM     18  C   UNL     1     -19.154  20.598  45.685  1.00  0.00    -0.000 C 
BRANCH  18  19
ATOM     19  C   UNL     1     -18.000  20.242  44.735  1.00  0.00    -0.000 C 
BRANCH  19  20
ATOM     20  C   UNL     1     -17.730  21.345  43.695  1.00  0.00    -0.000 C 
BRANCH  20  21
ATOM     21  C   UNL     1     -16.258  21.780  43.667  1.00  0.00    -0.000 C 
BRANCH  21  22
ATOM     22  C   UNL     1     -15.857  22.585  44.915  1.00  0.00    -0.000 C 
BRANCH  22  23
ATOM     23  C   UNL     1     -16.103  24.095  44.753  1.00  0.00    -0.000 C 
BRANCH  23  24
ATOM     24  C   UNL     1     -15.585  24.698  43.433  1.00  0.00    -0.000 C 
BRANCH  24  25
ATOM     25  C   UNL     1     -15.175  26.182  43.540  1.00  0.00    -0.003 C 
ATOM     26  C   UNL     1     -16.147  27.002  44.389  1.00  0.00     0.004 C 
ENDBRANCH  24  25
ENDBRANCH  23  24
ENDBRANCH  22  23
ENDBRANCH  21  22
ENDBRANCH  20  21
ENDBRANCH  19  20
ENDBRANCH  18  19
ENDBRANCH  17  18
ENDBRANCH  16  17
ENDBRANCH  15  16
ENDBRANCH   1  15
TORSDOF 22
ENDMDL
MODEL 6
REMARK VINA RESULT:    -3.308      1.424      2.411
REMARK INTER + INTRA:         -11.613
REMARK INTER:                  -7.490
REMARK INTRA:                  -4.123
REMARK UNBOUND:                -4.050
REMARK SMILES CCCCCCCCCCCCCCCCCCCCCCCC(=O)[O-]
REMARK SMILES IDX 13 1 14 2 15 3 16 4 17 5 18 6 19 7 20 8 21 9 22 10 23 11
REMARK SMILES IDX 24 12 25 13 26 14 12 15 11 16 10 17 9 18 8 19 7 20 6 21 5 22
REMARK SMILES IDX 4 23 3 24 2 25 1 26
REMARK H PARENT
REMARK Flexibility Score: inf
ROOT
ATOM      1  C   UNL     1     -16.408  24.483  45.431  1.00  0.00     0.000 C 
ENDROOT
BRANCH   1   2
ATOM      2  C   UNL     1     -15.559  25.375  44.511  1.00  0.00     0.000 C 
BRANCH   2   3
ATOM      3  C   UNL     1     -16.226  25.763  43.178  1.00  0.00     0.000 C 
BRANCH   3   4
ATOM      4  C   UNL     1     -16.182  27.275  42.871  1.00  0.00     0.000 C 
BRANCH   4   5
ATOM      5  C   UNL     1     -17.583  27.875  42.674  1.00  0.00     0.000 C 
BRANCH   5   6
ATOM      6  C   UNL     1     -18.602  26.791  42.302  1.00  0.00     0.000 C 
BRANCH   6   7
ATOM      7  C   UNL     1     -20.019  27.202  42.727  1.00  0.00     0.000 C 
BRANCH   7   8
ATOM      8  C   UNL     1     -20.828  26.032  43.315  1.00  0.00     0.000 C 
BRANCH   8   9
ATOM      9  C   UNL     1     -21.711  26.396  44.528  1.00  0.00     0.000 C 
BRANCH   9  10
ATOM     10  C   UNL     1     -21.347  25.681  45.845  1.00  0.00     0.006 C 
BRANCH  10  11
ATOM     11  C   UNL     1     -22.554  25.146  46.633  1.00  0.00     0.053 C 
BRANCH  11  12
ATOM     12  C   UNL     1     -23.566  24.502  45.736  1.00  0.00     0.041 C 
ATOM     13  O   UNL     1     -23.316  23.395  45.191  1.00  0.00    -0.550 OA
ATOM     14  O   UNL     1     -24.803  25.102  45.542  1.00  0.00    -0.550 OA
ENDBRANCH  11  12
ENDBRANCH  10  11
ENDBRANCH   9  10
ENDBRANCH   8   9
ENDBRANCH   7   8
ENDBRANCH   6   7
ENDBRANCH   5   6
ENDBRANCH   4   5
ENDBRANCH   3   4
ENDBRANCH   2   3
ENDBRANCH   1   2
BRANCH   1  15
ATOM     15  C   UNL     1     -17.918  24.687  45.229  1.00  0.00     0.000 C 
BRANCH  15  16
ATOM     16  C   UNL     1     -18.599  23.376  44.809  1.00  0.00     0.000 C 
BRANCH  16  17
ATOM     17  C   UNL     1     -18.553  23.146  43.291  1.00  0.00     0.000 C 
BRANCH  17  18
ATOM     18  C   UNL     1     -17.581  22.023  42.890  1.00  0.00    -0.000 C 
BRANCH  18  19
ATOM     19  C   UNL     1     -17.299  21.047  44.043  1.00  0.00    -0.000 C 
BRANCH  19  20
ATOM     20  C   UNL     1     -15.810  21.001  44.428  1.00  0.00    -0.000 C 
BRANCH  20  21
ATOM     21  C   UNL     1     -14.915  21.723  43.409  1.00  0.00    -0.000 C 
BRANCH  21  22
ATOM     22  C   UNL     1     -13.636  22.292  44.046  1.00  0.00    -0.000 C 
BRANCH  22  23
ATOM     23  C   UNL     1     -12.856  23.212  43.091  1.00  0.00    -0.000 C 
BRANCH  23  24
ATOM     24  C   UNL     1     -13.447  23.324  41.672  1.00  0.00    -0.000 C 
BRANCH  24  25
ATOM     25  C   UNL     1     -13.361  24.742  41.069  1.00  0.00    -0.003 C 
ATOM     26  C   UNL     1     -12.361  25.636  41.803  1.00  0.00     0.004 C 
ENDBRANCH  24  25
ENDBRANCH  23  24
ENDBRANCH  22  23
ENDBRANCH  21  22
ENDBRANCH  20  21
ENDBRANCH  19  20
ENDBRANCH  18  19
ENDBRANCH  17  18
ENDBRANCH  16  17
ENDBRANCH  15  16
ENDBRANCH   1  15
TORSDOF 22
ENDMDL
MODEL 7
REMARK VINA RESULT:    -3.307      4.033      5.993
REMARK INTER + INTRA:         -11.611
REMARK INTER:                  -7.244
REMARK INTRA:                  -4.368
REMARK UNBOUND:                -4.050
REMARK SMILES CCCCCCCCCCCCCCCCCCCCCCCC(=O)[O-]
REMARK SMILES IDX 13 1 14 2 15 3 16 4 17 5 18 6 19 7 20 8 21 9 22 10 23 11
REMARK SMILES IDX 24 12 25 13 26 14 12 15 11 16 10 17 9 18 8 19 7 20 6 21 5 22
REMARK SMILES IDX 4 23 3 24 2 25 1 26
REMARK H PARENT
REMARK Flexibility Score: inf
ROOT
ATOM      1  C   UNL     1     -17.911  20.241  44.730  1.00  0.00     0.000 C 
ENDROOT
BRANCH   1   2
ATOM      2  C   UNL     1     -16.637  21.080  44.546  1.00  0.00     0.000 C 
BRANCH   2   3
ATOM      3  C   UNL     1     -16.587  21.920  43.255  1.00  0.00     0.000 C 
BRANCH   3   4
ATOM      4  C   UNL     1     -17.967  22.419  42.777  1.00  0.00     0.000 C 
BRANCH   4   5
ATOM      5  C   UNL     1     -17.901  23.819  42.149  1.00  0.00     0.000 C 
BRANCH   5   6
ATOM      6  C   UNL     1     -19.252  24.537  42.253  1.00  0.00     0.000 C 
BRANCH   6   7
ATOM      7  C   UNL     1     -19.112  26.023  41.889  1.00  0.00     0.000 C 
BRANCH   7   8
ATOM      8  C   UNL     1     -19.894  26.945  42.842  1.00  0.00     0.000 C 
BRANCH   8   9
ATOM      9  C   UNL     1     -19.462  28.427  42.813  1.00  0.00     0.000 C 
BRANCH   9  10
ATOM     10  C   UNL     1     -18.209  28.732  41.967  1.00  0.00     0.006 C 
BRANCH  10  11
ATOM     11  C   UNL     1     -18.026  30.217  41.613  1.00  0.00     0.053 C 
BRANCH  11  12
ATOM     12  C   UNL     1     -16.590  30.555  41.352  1.00  0.00     0.041 C 
ATOM     13  O   UNL     1     -15.715  29.649  41.350  1.00  0.00    -0.550 OA
ATOM     14  O   UNL     1     -16.227  31.863  41.060  1.00  0.00    -0.550 OA
ENDBRANCH  11  12
ENDBRANCH  10  11
ENDBRANCH   9  10
ENDBRANCH   8   9
ENDBRANCH   7   8
ENDBRANCH   6   7
ENDBRANCH   5   6
ENDBRANCH   4   5
ENDBRANCH   3   4
ENDBRANCH   2   3
ENDBRANCH   1   2
BRANCH   1  15
ATOM     15  C   UNL     1     -18.426  20.250  46.178  1.00  0.00     0.000 C 
BRANCH  15  16
ATOM     16  C   UNL     1     -19.923  20.588  46.228  1.00  0.00     0.000 C 
BRANCH  16  17
ATOM     17  C   UNL     1     -20.187  22.034  46.674  1.00  0.00     0.000 C 
BRANCH  17  18
ATOM     18  C   UNL     1     -20.294  23.011  45.490  1.00  0.00    -0.000 C 
BRANCH  18  19
ATOM     19  C   UNL     1     -19.473  24.292  45.706  1.00  0.00    -0.000 C 
BRANCH  19  20
ATOM     20  C   UNL     1     -18.109  24.016  46.364  1.00  0.00    -0.000 C 
BRANCH  20  21
ATOM     21  C   UNL     1     -16.947  24.680  45.611  1.00  0.00    -0.000 C 
BRANCH  21  22
ATOM     22  C   UNL     1     -17.232  26.151  45.264  1.00  0.00    -0.000 C 
BRANCH  22  23
ATOM     23  C   UNL     1     -16.055  26.831  44.545  1.00  0.00    -0.000 C 
BRANCH  23  24
ATOM     24  C   UNL     1     -15.683  26.213  43.184  1.00  0.00    -0.000 C 
BRANCH  24  25
ATOM     25  C   UNL     1     -14.390  25.370  43.211  1.00  0.00    -0.003 C 
ATOM     26  C   UNL     1     -13.989  24.864  41.825  1.00  0.00     0.004 C 
ENDBRANCH  24  25
ENDBRANCH  23  24
ENDBRANCH  22  23
ENDBRANCH  21  22
ENDBRANCH  20  21
ENDBRANCH  19  20
ENDBRANCH  18  19
ENDBRANCH  17  18
ENDBRANCH  16  17
ENDBRANCH  15  16
ENDBRANCH   1  15
TORSDOF 22
ENDMDL
MODEL 8
REMARK VINA RESULT:    -3.285      2.422      5.122
REMARK INTER + INTRA:         -11.560
REMARK INTER:                  -7.330
REMARK INTRA:                  -4.230
REMARK UNBOUND:                -4.050
REMARK SMILES CCCCCCCCCCCCCCCCCCCCCCCC(=O)[O-]
REMARK SMILES IDX 13 1 14 2 15 3 16 4 17 5 18 6 19 7 20 8 21 9 22 10 23 11
REMARK SMILES IDX 24 12 25 13 26 14 12 15 11 16 10 17 9 18 8 19 7 20 6 21 5 22
REMARK SMILES IDX 4 23 3 24 2 25 1 26
REMARK H PARENT
REMARK Flexibility Score: inf
ROOT
ATOM      1  C   UNL     1     -16.227  25.726  43.848  1.00  0.00     0.000 C 
ENDROOT
BRANCH   1   2
ATOM      2  C   UNL     1     -16.806  24.303  43.866  1.00  0.00     0.000 C 
BRANCH   2   3
ATOM      3  C   UNL     1     -17.430  23.834  42.537  1.00  0.00     0.000 C 
BRANCH   3   4
ATOM      4  C   UNL     1     -17.841  22.346  42.528  1.00  0.00     0.000 C 
BRANCH   4   5
ATOM      5  C   UNL     1     -17.002  21.498  43.496  1.00  0.00     0.000 C 
BRANCH   5   6
ATOM      6  C   UNL     1     -17.896  20.598  44.359  1.00  0.00     0.000 C 
BRANCH   6   7
ATOM      7  C   UNL     1     -18.284  21.305  45.667  1.00  0.00     0.000 C 
BRANCH   7   8
ATOM      8  C   UNL     1     -19.797  21.261  45.942  1.00  0.00     0.000 C 
BRANCH   8   9
ATOM      9  C   UNL     1     -20.481  22.641  46.044  1.00  0.00     0.000 C 
BRANCH   9  10
ATOM     10  C   UNL     1     -20.277  23.569  44.829  1.00  0.00     0.006 C 
BRANCH  10  11
ATOM     11  C   UNL     1     -20.313  25.069  45.162  1.00  0.00     0.053 C 
BRANCH  11  12
ATOM     12  C   UNL     1     -20.736  25.892  43.983  1.00  0.00     0.041 C 
ATOM     13  O   UNL     1     -21.956  26.012  43.700  1.00  0.00    -0.550 OA
ATOM     14  O   UNL     1     -19.783  26.566  43.230  1.00  0.00    -0.550 OA
ENDBRANCH  11  12
ENDBRANCH  10  11
ENDBRANCH   9  10
ENDBRANCH   8   9
ENDBRANCH   7   8
ENDBRANCH   6   7
ENDBRANCH   5   6
ENDBRANCH   4   5
ENDBRANCH   3   4
ENDBRANCH   2   3
ENDBRANCH   1   2
BRANCH   1  15
ATOM     15  C   UNL     1     -14.951  25.861  44.694  1.00  0.00     0.000 C 
BRANCH  15  16
ATOM     16  C   UNL     1     -13.745  26.231  43.818  1.00  0.00     0.000 C 
BRANCH  16  17
ATOM     17  C   UNL     1     -14.114  26.368  42.333  1.00  0.00     0.000 C 
BRANCH  17  18
ATOM     18  C   UNL     1     -13.458  25.288  41.456  1.00  0.00    -0.000 C 
BRANCH  18  19
ATOM     19  C   UNL     1     -12.786  24.183  42.286  1.00  0.00    -0.000 C 
BRANCH  19  20
ATOM     20  C   UNL     1     -13.664  22.924  42.414  1.00  0.00    -0.000 C 
BRANCH  20  21
ATOM     21  C   UNL     1     -13.170  21.970  43.511  1.00  0.00    -0.000 C 
BRANCH  21  22
ATOM     22  C   UNL     1     -13.820  22.252  44.876  1.00  0.00    -0.000 C 
BRANCH  22  23
ATOM     23  C   UNL     1     -13.563  21.133  45.899  1.00  0.00    -0.000 C 
BRANCH  23  24
ATOM     24  C   UNL     1     -14.535  19.940  45.813  1.00  0.00    -0.000 C 
BRANCH  24  25
ATOM     25  C   UNL     1     -15.288  19.650  47.129  1.00  0.00    -0.003 C 
ATOM     26  C   UNL     1     -15.453  20.895  48.001  1.00  0.00     0.004 C 
ENDBRANCH  24  25
ENDBRANCH  23  24
ENDBRANCH  22  23
ENDBRANCH  21  22
ENDBRANCH  20  21
ENDBRANCH  19  20
ENDBRANCH  18  19
ENDBRANCH  17  18
ENDBRANCH  16  17
ENDBRANCH  15  16
ENDBRANCH   1  15
TORSDOF 22
ENDMDL
MODEL 9
REMARK VINA RESULT:    -3.285      2.659      5.792
REMARK INTER + INTRA:         -11.560
REMARK INTER:                  -7.848
REMARK INTRA:                  -3.711
REMARK UNBOUND:                -4.050
REMARK SMILES CCCCCCCCCCCCCCCCCCCCCCCC(=O)[O-]
REMARK SMILES IDX 13 1 14 2 15 3 16 4 17 5 18 6 19 7 20 8 21 9 22 10 23 11
REMARK SMILES IDX 24 12 25 13 26 14 12 15 11 16 10 17 9 18 8 19 7 20 6 21 5 22
REMARK SMILES IDX 4 23 3 24 2 25 1 26
REMARK H PARENT
REMARK Flexibility Score: inf
ROOT
ATOM      1  C   UNL     1     -13.042  23.591  42.776  1.00  0.00     0.000 C 
ENDROOT
BRANCH   1   2
ATOM      2  C   UNL     1     -14.212  24.320  42.096  1.00  0.00     0.000 C 
BRANCH   2   3
ATOM      3  C   UNL     1     -14.406  25.788  42.525  1.00  0.00     0.000 C 
BRANCH   3   4
ATOM      4  C   UNL     1     -15.803  26.093  43.105  1.00  0.00     0.000 C 
BRANCH   4   5
ATOM      5  C   UNL     1     -16.076  25.331  44.412  1.00  0.00     0.000 C 
BRANCH   5   6
ATOM      6  C   UNL     1     -17.511  24.791  44.446  1.00  0.00     0.000 C 
BRANCH   6   7
ATOM      7  C   UNL     1     -17.812  23.957  43.192  1.00  0.00     0.000 C 
BRANCH   7   8
ATOM      8  C   UNL     1     -19.105  24.395  42.481  1.00  0.00     0.000 C 
BRANCH   8   9
ATOM      9  C   UNL     1     -19.673  25.754  42.943  1.00  0.00     0.000 C 
BRANCH   9  10
ATOM     10  C   UNL     1     -19.305  26.958  42.052  1.00  0.00     0.006 C 
BRANCH  10  11
ATOM     11  C   UNL     1     -19.303  28.312  42.781  1.00  0.00     0.053 C 
BRANCH  11  12
ATOM     12  C   UNL     1     -20.487  29.150  42.405  1.00  0.00     0.041 C 
ATOM     13  O   UNL     1     -20.389  30.016  41.498  1.00  0.00    -0.550 OA
ATOM     14  O   UNL     1     -21.712  28.937  43.025  1.00  0.00    -0.550 OA
ENDBRANCH  11  12
ENDBRANCH  10  11
ENDBRANCH   9  10
ENDBRANCH   8   9
ENDBRANCH   7   8
ENDBRANCH   6   7
ENDBRANCH   5   6
ENDBRANCH   4   5
ENDBRANCH   3   4
ENDBRANCH   2   3
ENDBRANCH   1   2
BRANCH   1  15
ATOM     15  C   UNL     1     -13.403  22.161  43.209  1.00  0.00     0.000 C 
BRANCH  15  16
ATOM     16  C   UNL     1     -14.925  21.971  43.271  1.00  0.00     0.000 C 
BRANCH  16  17
ATOM     17  C   UNL     1     -15.359  21.049  44.421  1.00  0.00     0.000 C 
BRANCH  17  18
ATOM     18  C   UNL     1     -15.643  21.818  45.723  1.00  0.00    -0.000 C 
BRANCH  18  19
ATOM     19  C   UNL     1     -17.083  21.622  46.222  1.00  0.00    -0.000 C 
BRANCH  19  20
ATOM     20  C   UNL     1     -17.844  20.549  45.423  1.00  0.00    -0.000 C 
BRANCH  20  21
ATOM     21  C   UNL     1     -19.368  20.684  45.558  1.00  0.00    -0.000 C 
BRANCH  21  22
ATOM     22  C   UNL     1     -19.838  22.147  45.498  1.00  0.00    -0.000 C 
BRANCH  22  23
ATOM     23  C   UNL     1     -20.956  22.453  46.509  1.00  0.00    -0.000 C 
BRANCH  23  24
ATOM     24  C   UNL     1     -22.260  22.993  45.889  1.00  0.00    -0.000 C 
BRANCH  24  25
ATOM     25  C   UNL     1     -22.156  24.447  45.381  1.00  0.00    -0.003 C 
ATOM     26  C   UNL     1     -23.158  24.753  44.266  1.00  0.00     0.004 C 
ENDBRANCH  24  25
ENDBRANCH  23  24
ENDBRANCH  22  23
ENDBRANCH  21  22
ENDBRANCH  20  21
ENDBRANCH  19  20
ENDBRANCH  18  19
ENDBRANCH  17  18
ENDBRANCH  16  17
ENDBRANCH  15  16
ENDBRANCH   1  15
TORSDOF 22
ENDMDL
