MODEL 1
REMARK VINA RESULT:    -3.084      0.000      0.000
REMARK INTER + INTRA:          -7.337
REMARK INTER:                  -5.428
REMARK INTRA:                  -1.909
REMARK UNBOUND:                -1.909
REMARK SMILES CCCCCCCCCCCCCCC(=O)[O-]
REMARK SMILES IDX 9 1 10 2 11 3 12 4 13 5 14 6 15 7 16 8 17 9 8 10 7 11 6 12
REMARK SMILES IDX 5 13 4 14 3 15 2 16 1 17
REMARK H PARENT
REMARK Flexibility Score: inf
ROOT
ATOM      1  C   UNL     1     -26.825   4.524 -33.815  1.00  0.00     0.000 C 
ENDROOT
BRANCH   1   2
ATOM      2  C   UNL     1     -25.968   4.772 -32.561  1.00  0.00     0.000 C 
BRANCH   2   3
ATOM      3  C   UNL     1     -24.640   5.476 -32.884  1.00  0.00     0.000 C 
BRANCH   3   4
ATOM      4  C   UNL     1     -23.847   5.853 -31.621  1.00  0.00     0.000 C 
BRANCH   4   5
ATOM      5  C   UNL     1     -24.755   6.097 -30.405  1.00  0.00     0.006 C 
BRANCH   5   6
ATOM      6  C   UNL     1     -24.091   5.695 -29.081  1.00  0.00     0.053 C 
BRANCH   6   7
ATOM      7  C   UNL     1     -24.042   6.862 -28.147  1.00  0.00     0.041 C 
ATOM      8  O   UNL     1     -23.704   6.700 -26.946  1.00  0.00    -0.550 OA
ATOM      9  O   UNL     1     -24.420   8.125 -28.592  1.00  0.00    -0.550 OA
ENDBRANCH   6   7
ENDBRANCH   5   6
ENDBRANCH   4   5
ENDBRANCH   3   4
ENDBRANCH   2   3
ENDBRANCH   1   2
BRANCH   1  10
ATOM     10  C   UNL     1     -26.449   5.456 -34.979  1.00  0.00     0.000 C 
BRANCH  10  11
ATOM     11  C   UNL     1     -26.554   4.767 -36.350  1.00  0.00    -0.000 C 
BRANCH  11  12
ATOM     12  C   UNL     1     -26.027   3.323 -36.326  1.00  0.00    -0.000 C 
BRANCH  12  13
ATOM     13  C   UNL     1     -24.500   3.251 -36.497  1.00  0.00    -0.000 C 
BRANCH  13  14
ATOM     14  C   UNL     1     -23.781   2.780 -35.222  1.00  0.00    -0.000 C 
BRANCH  14  15
ATOM     15  C   UNL     1     -24.572   1.699 -34.465  1.00  0.00    -0.000 C 
BRANCH  15  16
ATOM     16  C   UNL     1     -24.162   1.597 -32.988  1.00  0.00    -0.003 C 
ATOM     17  C   UNL     1     -22.799   2.229 -32.705  1.00  0.00     0.004 C 
ENDBRANCH  15  16
ENDBRANCH  14  15
ENDBRANCH  13  14
ENDBRANCH  12  13
ENDBRANCH  11  12
ENDBRANCH  10  11
ENDBRANCH   1  10
TORSDOF 13
ENDMDL
MODEL 2
REMARK VINA RESULT:    -3.063     12.939     14.476
REMARK INTER + INTRA:          -7.301
REMARK INTER:                  -5.153
REMARK INTRA:                  -2.148
REMARK UNBOUND:                -1.909
REMARK SMILES CCCCCCCCCCCCCCC(=O)[O-]
REMARK SMILES IDX 9 1 10 2 11 3 12 4 13 5 14 6 15 7 16 8 17 9 8 10 7 11 6 12
REMARK SMILES IDX 5 13 4 14 3 15 2 16 1 17
REMARK H PARENT
REMARK Flexibility Score: inf
ROOT
ATOM      1  C   UNL     1     -31.521  -3.634 -32.241  1.00  0.00     0.000 C 
ENDROOT
BRANCH   1   2
ATOM      2  C   UNL     1     -30.765  -4.637 -31.352  1.00  0.00     0.000 C 
BRANCH   2   3
ATOM      3  C   UNL     1     -30.879  -6.082 -31.864  1.00  0.00     0.000 C 
BRANCH   3   4
ATOM      4  C   UNL     1     -30.750  -7.121 -30.737  1.00  0.00     0.000 C 
BRANCH   4   5
ATOM      5  C   UNL     1     -31.979  -8.038 -30.636  1.00  0.00     0.006 C 
BRANCH   5   6
ATOM      6  C   UNL     1     -32.495  -8.181 -29.197  1.00  0.00     0.053 C 
BRANCH   6   7
ATOM      7  C   UNL     1     -32.053  -9.484 -28.612  1.00  0.00     0.041 C 
ATOM      8  O   UNL     1     -30.957  -9.996 -28.958  1.00  0.00    -0.550 OA
ATOM      9  O   UNL     1     -32.877 -10.160 -27.719  1.00  0.00    -0.550 OA
ENDBRANCH   6   7
ENDBRANCH   5   6
ENDBRANCH   4   5
ENDBRANCH   3   4
ENDBRANCH   2   3
ENDBRANCH   1   2
BRANCH   1  10
ATOM     10  C   UNL     1     -32.294  -4.321 -33.378  1.00  0.00     0.000 C 
BRANCH  10  11
ATOM     11  C   UNL     1     -33.769  -3.887 -33.442  1.00  0.00    -0.000 C 
BRANCH  11  12
ATOM     12  C   UNL     1     -34.733  -5.081 -33.513  1.00  0.00    -0.000 C 
BRANCH  12  13
ATOM     13  C   UNL     1     -34.478  -6.111 -32.398  1.00  0.00    -0.000 C 
BRANCH  13  14
ATOM     14  C   UNL     1     -35.646  -6.212 -31.404  1.00  0.00    -0.000 C 
BRANCH  14  15
ATOM     15  C   UNL     1     -35.238  -5.818 -29.974  1.00  0.00    -0.000 C 
BRANCH  15  16
ATOM     16  C   UNL     1     -34.642  -4.403 -29.900  1.00  0.00    -0.003 C 
ATOM     17  C   UNL     1     -33.471  -4.303 -28.922  1.00  0.00     0.004 C 
ENDBRANCH  15  16
ENDBRANCH  14  15
ENDBRANCH  13  14
ENDBRANCH  12  13
ENDBRANCH  11  12
ENDBRANCH  10  11
ENDBRANCH   1  10
TORSDOF 13
ENDMDL
MODEL 3
REMARK VINA RESULT:    -3.041     12.548     14.184
REMARK INTER + INTRA:          -7.262
REMARK INTER:                  -5.113
REMARK INTRA:                  -2.149
REMARK UNBOUND:                -1.909
REMARK SMILES CCCCCCCCCCCCCCC(=O)[O-]
REMARK SMILES IDX 9 1 10 2 11 3 12 4 13 5 14 6 15 7 16 8 17 9 8 10 7 11 6 12
REMARK SMILES IDX 5 13 4 14 3 15 2 16 1 17
REMARK H PARENT
REMARK Flexibility Score: inf
ROOT
ATOM      1  C   UNL     1     -34.356  -5.232 -33.408  1.00  0.00     0.000 C 
ENDROOT
BRANCH   1   2
ATOM      2  C   UNL     1     -35.080  -5.508 -32.078  1.00  0.00     0.000 C 
BRANCH   2   3
ATOM      3  C   UNL     1     -34.811  -6.924 -31.542  1.00  0.00     0.000 C 
BRANCH   3   4
ATOM      4  C   UNL     1     -33.677  -6.959 -30.503  1.00  0.00     0.000 C 
BRANCH   4   5
ATOM      5  C   UNL     1     -32.500  -7.844 -30.943  1.00  0.00     0.006 C 
BRANCH   5   6
ATOM      6  C   UNL     1     -32.627  -9.290 -30.443  1.00  0.00     0.053 C 
BRANCH   6   7
ATOM      7  C   UNL     1     -31.705  -9.525 -29.289  1.00  0.00     0.041 C 
ATOM      8  O   UNL     1     -32.160  -9.918 -28.183  1.00  0.00    -0.550 OA
ATOM      9  O   UNL     1     -30.346  -9.262 -29.420  1.00  0.00    -0.550 OA
ENDBRANCH   6   7
ENDBRANCH   5   6
ENDBRANCH   4   5
ENDBRANCH   3   4
ENDBRANCH   2   3
ENDBRANCH   1   2
BRANCH   1  10
ATOM     10  C   UNL     1     -33.943  -3.759 -33.559  1.00  0.00     0.000 C 
BRANCH  10  11
ATOM     11  C   UNL     1     -32.417  -3.564 -33.527  1.00  0.00    -0.000 C 
BRANCH  11  12
ATOM     12  C   UNL     1     -31.686  -4.748 -32.875  1.00  0.00    -0.000 C 
BRANCH  12  13
ATOM     13  C   UNL     1     -31.014  -4.365 -31.545  1.00  0.00    -0.000 C 
BRANCH  13  14
ATOM     14  C   UNL     1     -31.688  -3.162 -30.864  1.00  0.00    -0.000 C 
BRANCH  14  15
ATOM     15  C   UNL     1     -32.710  -3.586 -29.796  1.00  0.00    -0.000 C 
BRANCH  15  16
ATOM     16  C   UNL     1     -34.023  -2.793 -29.890  1.00  0.00    -0.003 C 
ATOM     17  C   UNL     1     -33.867  -1.475 -30.648  1.00  0.00     0.004 C 
ENDBRANCH  15  16
ENDBRANCH  14  15
ENDBRANCH  13  14
ENDBRANCH  12  13
ENDBRANCH  11  12
ENDBRANCH  10  11
ENDBRANCH   1  10
TORSDOF 13
ENDMDL
MODEL 4
REMARK VINA RESULT:    -3.023      4.803      6.693
REMARK INTER + INTRA:          -7.229
REMARK INTER:                  -5.904
REMARK INTRA:                  -1.325
REMARK UNBOUND:                -1.909
REMARK SMILES CCCCCCCCCCCCCCC(=O)[O-]
REMARK SMILES IDX 9 1 10 2 11 3 12 4 13 5 14 6 15 7 16 8 17 9 8 10 7 11 6 12
REMARK SMILES IDX 5 13 4 14 3 15 2 16 1 17
REMARK H PARENT
REMARK Flexibility Score: inf
ROOT
ATOM      1  C   UNL     1     -29.180   3.981 -37.061  1.00  0.00     0.000 C 
ENDROOT
BRANCH   1   2
ATOM      2  C   UNL     1     -27.877   3.829 -37.866  1.00  0.00     0.000 C 
BRANCH   2   3
ATOM      3  C   UNL     1     -26.639   4.286 -37.077  1.00  0.00     0.000 C 
BRANCH   3   4
ATOM      4  C   UNL     1     -26.901   5.555 -36.248  1.00  0.00     0.000 C 
BRANCH   4   5
ATOM      5  C   UNL     1     -26.423   5.420 -34.794  1.00  0.00     0.006 C 
BRANCH   5   6
ATOM      6  C   UNL     1     -25.381   4.308 -34.614  1.00  0.00     0.053 C 
BRANCH   6   7
ATOM      7  C   UNL     1     -24.288   4.761 -33.699  1.00  0.00     0.041 C 
ATOM      8  O   UNL     1     -23.132   4.273 -33.801  1.00  0.00    -0.550 OA
ATOM      9  O   UNL     1     -24.558   5.688 -32.699  1.00  0.00    -0.550 OA
ENDBRANCH   6   7
ENDBRANCH   5   6
ENDBRANCH   4   5
ENDBRANCH   3   4
ENDBRANCH   2   3
ENDBRANCH   1   2
BRANCH   1  10
ATOM     10  C   UNL     1     -30.421   4.082 -37.963  1.00  0.00     0.000 C 
BRANCH  10  11
ATOM     11  C   UNL     1     -31.665   3.427 -37.337  1.00  0.00    -0.000 C 
BRANCH  11  12
ATOM     12  C   UNL     1     -32.795   3.216 -38.357  1.00  0.00    -0.000 C 
BRANCH  12  13
ATOM     13  C   UNL     1     -32.560   1.985 -39.250  1.00  0.00    -0.000 C 
BRANCH  13  14
ATOM     14  C   UNL     1     -32.695   0.660 -38.482  1.00  0.00    -0.000 C 
BRANCH  14  15
ATOM     15  C   UNL     1     -31.592  -0.348 -38.846  1.00  0.00    -0.000 C 
BRANCH  15  16
ATOM     16  C   UNL     1     -30.190   0.280 -38.820  1.00  0.00    -0.003 C 
ATOM     17  C   UNL     1     -29.576   0.301 -37.420  1.00  0.00     0.004 C 
ENDBRANCH  15  16
ENDBRANCH  14  15
ENDBRANCH  13  14
ENDBRANCH  12  13
ENDBRANCH  11  12
ENDBRANCH  10  11
ENDBRANCH   1  10
TORSDOF 13
ENDMDL
MODEL 5
REMARK VINA RESULT:    -3.019      4.911      6.856
REMARK INTER + INTRA:          -7.222
REMARK INTER:                  -5.885
REMARK INTRA:                  -1.337
REMARK UNBOUND:                -1.909
REMARK SMILES CCCCCCCCCCCCCCC(=O)[O-]
REMARK SMILES IDX 9 1 10 2 11 3 12 4 13 5 14 6 15 7 16 8 17 9 8 10 7 11 6 12
REMARK SMILES IDX 5 13 4 14 3 15 2 16 1 17
REMARK H PARENT
REMARK Flexibility Score: inf
ROOT
ATOM      1  C   UNL     1     -29.236   3.885 -37.296  1.00  0.00     0.000 C 
ENDROOT
BRANCH   1   2
ATOM      2  C   UNL     1     -27.950   4.229 -38.068  1.00  0.00     0.000 C 
BRANCH   2   3
ATOM      3  C   UNL     1     -26.725   4.355 -37.147  1.00  0.00     0.000 C 
BRANCH   3   4
ATOM      4  C   UNL     1     -26.670   5.707 -36.416  1.00  0.00     0.000 C 
BRANCH   4   5
ATOM      5  C   UNL     1     -26.515   5.551 -34.895  1.00  0.00     0.006 C 
BRANCH   5   6
ATOM      6  C   UNL     1     -25.905   4.200 -34.498  1.00  0.00     0.053 C 
BRANCH   6   7
ATOM      7  C   UNL     1     -24.484   4.378 -34.065  1.00  0.00     0.041 C 
ATOM      8  O   UNL     1     -23.556   3.786 -34.676  1.00  0.00    -0.550 OA
ATOM      9  O   UNL     1     -24.188   5.159 -32.954  1.00  0.00    -0.550 OA
ENDBRANCH   6   7
ENDBRANCH   5   6
ENDBRANCH   4   5
ENDBRANCH   3   4
ENDBRANCH   2   3
ENDBRANCH   1   2
BRANCH   1  10
ATOM     10  C   UNL     1     -30.186   2.988 -38.106  1.00  0.00     0.000 C 
BRANCH  10  11
ATOM     11  C   UNL     1     -29.721   2.788 -39.559  1.00  0.00    -0.000 C 
BRANCH  11  12
ATOM     12  C   UNL     1     -29.513   1.307 -39.913  1.00  0.00    -0.000 C 
BRANCH  12  13
ATOM     13  C   UNL     1     -29.207   0.443 -38.677  1.00  0.00    -0.000 C 
BRANCH  13  14
ATOM     14  C   UNL     1     -29.910  -0.923 -38.719  1.00  0.00    -0.000 C 
BRANCH  14  15
ATOM     15  C   UNL     1     -31.393  -0.811 -39.111  1.00  0.00    -0.000 C 
BRANCH  15  16
ATOM     16  C   UNL     1     -32.232  -0.090 -38.043  1.00  0.00    -0.003 C 
ATOM     17  C   UNL     1     -33.244   0.885 -38.643  1.00  0.00     0.004 C 
ENDBRANCH  15  16
ENDBRANCH  14  15
ENDBRANCH  13  14
ENDBRANCH  12  13
ENDBRANCH  11  12
ENDBRANCH  10  11
ENDBRANCH   1  10
TORSDOF 13
ENDMDL
MODEL 6
REMARK VINA RESULT:    -3.016      5.360      7.685
REMARK INTER + INTRA:          -7.218
REMARK INTER:                  -5.381
REMARK INTRA:                  -1.837
REMARK UNBOUND:                -1.909
REMARK SMILES CCCCCCCCCCCCCCC(=O)[O-]
REMARK SMILES IDX 9 1 10 2 11 3 12 4 13 5 14 6 15 7 16 8 17 9 8 10 7 11 6 12
REMARK SMILES IDX 5 13 4 14 3 15 2 16 1 17
REMARK H PARENT
REMARK Flexibility Score: inf
ROOT
ATOM      1  C   UNL     1     -30.723   3.661 -37.070  1.00  0.00     0.000 C 
ENDROOT
BRANCH   1   2
ATOM      2  C   UNL     1     -30.779   4.638 -38.258  1.00  0.00     0.000 C 
BRANCH   2   3
ATOM      3  C   UNL     1     -29.421   5.304 -38.538  1.00  0.00     0.000 C 
BRANCH   3   4
ATOM      4  C   UNL     1     -28.233   4.431 -38.099  1.00  0.00     0.000 C 
BRANCH   4   5
ATOM      5  C   UNL     1     -27.187   5.219 -37.295  1.00  0.00     0.006 C 
BRANCH   5   6
ATOM      6  C   UNL     1     -26.112   4.316 -36.676  1.00  0.00     0.053 C 
BRANCH   6   7
ATOM      7  C   UNL     1     -26.174   4.379 -35.183  1.00  0.00     0.041 C 
ATOM      8  O   UNL     1     -26.642   5.397 -34.610  1.00  0.00    -0.550 OA
ATOM      9  O   UNL     1     -25.668   3.331 -34.422  1.00  0.00    -0.550 OA
ENDBRANCH   6   7
ENDBRANCH   5   6
ENDBRANCH   4   5
ENDBRANCH   3   4
ENDBRANCH   2   3
ENDBRANCH   1   2
BRANCH   1  10
ATOM     10  C   UNL     1     -31.920   2.695 -37.046  1.00  0.00     0.000 C 
BRANCH  10  11
ATOM     11  C   UNL     1     -32.728   2.717 -38.355  1.00  0.00    -0.000 C 
BRANCH  11  12
ATOM     12  C   UNL     1     -32.973   1.309 -38.920  1.00  0.00    -0.000 C 
BRANCH  12  13
ATOM     13  C   UNL     1     -32.264   0.215 -38.102  1.00  0.00    -0.000 C 
BRANCH  13  14
ATOM     14  C   UNL     1     -31.105  -0.442 -38.870  1.00  0.00    -0.000 C 
BRANCH  14  15
ATOM     15  C   UNL     1     -29.752  -0.265 -38.159  1.00  0.00    -0.000 C 
BRANCH  15  16
ATOM     16  C   UNL     1     -28.875   0.809 -38.822  1.00  0.00    -0.003 C 
ATOM     17  C   UNL     1     -29.474   1.344 -40.123  1.00  0.00     0.004 C 
ENDBRANCH  15  16
ENDBRANCH  14  15
ENDBRANCH  13  14
ENDBRANCH  12  13
ENDBRANCH  11  12
ENDBRANCH  10  11
ENDBRANCH   1  10
TORSDOF 13
ENDMDL
MODEL 7
REMARK VINA RESULT:    -3.007     14.449     16.216
REMARK INTER + INTRA:          -7.202
REMARK INTER:                  -5.575
REMARK INTRA:                  -1.626
REMARK UNBOUND:                -1.909
REMARK SMILES CCCCCCCCCCCCCCC(=O)[O-]
REMARK SMILES IDX 9 1 10 2 11 3 12 4 13 5 14 6 15 7 16 8 17 9 8 10 7 11 6 12
REMARK SMILES IDX 5 13 4 14 3 15 2 16 1 17
REMARK H PARENT
REMARK Flexibility Score: inf
ROOT
ATOM      1  C   UNL     1     -32.219  -6.943 -28.478  1.00  0.00     0.000 C 
ENDROOT
BRANCH   1   2
ATOM      2  C   UNL     1     -33.358  -5.920 -28.315  1.00  0.00     0.000 C 
BRANCH   2   3
ATOM      3  C   UNL     1     -33.552  -5.049 -29.567  1.00  0.00     0.000 C 
BRANCH   3   4
ATOM      4  C   UNL     1     -35.028  -4.941 -29.989  1.00  0.00     0.000 C 
BRANCH   4   5
ATOM      5  C   UNL     1     -35.437  -6.034 -30.989  1.00  0.00     0.006 C 
BRANCH   5   6
ATOM      6  C   UNL     1     -34.412  -6.219 -32.117  1.00  0.00     0.053 C 
BRANCH   6   7
ATOM      7  C   UNL     1     -34.681  -5.255 -33.228  1.00  0.00     0.041 C 
ATOM      8  O   UNL     1     -35.594  -5.486 -34.063  1.00  0.00    -0.550 OA
ATOM      9  O   UNL     1     -33.887  -4.122 -33.373  1.00  0.00    -0.550 OA
ENDBRANCH   6   7
ENDBRANCH   5   6
ENDBRANCH   4   5
ENDBRANCH   3   4
ENDBRANCH   2   3
ENDBRANCH   1   2
BRANCH   1  10
ATOM     10  C   UNL     1     -32.514  -7.983 -29.571  1.00  0.00     0.000 C 
BRANCH  10  11
ATOM     11  C   UNL     1     -32.516  -9.425 -29.033  1.00  0.00    -0.000 C 
BRANCH  11  12
ATOM     12  C   UNL     1     -31.326  -9.708 -28.103  1.00  0.00    -0.000 C 
BRANCH  12  13
ATOM     13  C   UNL     1     -31.682 -10.694 -26.975  1.00  0.00    -0.000 C 
BRANCH  13  14
ATOM     14  C   UNL     1     -33.006 -10.343 -26.277  1.00  0.00    -0.000 C 
BRANCH  14  15
ATOM     15  C   UNL     1     -32.792  -9.712 -24.891  1.00  0.00    -0.000 C 
BRANCH  15  16
ATOM     16  C   UNL     1     -33.025  -8.193 -24.894  1.00  0.00    -0.003 C 
ATOM     17  C   UNL     1     -31.725  -7.394 -24.796  1.00  0.00     0.004 C 
ENDBRANCH  15  16
ENDBRANCH  14  15
ENDBRANCH  13  14
ENDBRANCH  12  13
ENDBRANCH  11  12
ENDBRANCH  10  11
ENDBRANCH   1  10
TORSDOF 13
ENDMDL
MODEL 8
REMARK VINA RESULT:    -2.997      5.100      7.499
REMARK INTER + INTRA:          -7.183
REMARK INTER:                  -5.319
REMARK INTRA:                  -1.864
REMARK UNBOUND:                -1.909
REMARK SMILES CCCCCCCCCCCCCCC(=O)[O-]
REMARK SMILES IDX 9 1 10 2 11 3 12 4 13 5 14 6 15 7 16 8 17 9 8 10 7 11 6 12
REMARK SMILES IDX 5 13 4 14 3 15 2 16 1 17
REMARK H PARENT
REMARK Flexibility Score: inf
ROOT
ATOM      1  C   UNL     1     -28.919   2.489 -39.010  1.00  0.00     0.000 C 
ENDROOT
BRANCH   1   2
ATOM      2  C   UNL     1     -29.099   3.953 -39.449  1.00  0.00     0.000 C 
BRANCH   2   3
ATOM      3  C   UNL     1     -28.665   4.952 -38.363  1.00  0.00     0.000 C 
BRANCH   3   4
ATOM      4  C   UNL     1     -27.856   4.287 -37.236  1.00  0.00     0.000 C 
BRANCH   4   5
ATOM      5  C   UNL     1     -26.653   5.135 -36.794  1.00  0.00     0.006 C 
BRANCH   5   6
ATOM      6  C   UNL     1     -26.706   5.506 -35.306  1.00  0.00     0.053 C 
BRANCH   6   7
ATOM      7  C   UNL     1     -25.637   4.782 -34.550  1.00  0.00     0.041 C 
ATOM      8  O   UNL     1     -24.912   3.933 -35.132  1.00  0.00    -0.550 OA
ATOM      9  O   UNL     1     -25.473   5.009 -33.188  1.00  0.00    -0.550 OA
ENDBRANCH   6   7
ENDBRANCH   5   6
ENDBRANCH   4   5
ENDBRANCH   3   4
ENDBRANCH   2   3
ENDBRANCH   1   2
BRANCH   1  10
ATOM     10  C   UNL     1     -29.896   1.537 -39.719  1.00  0.00     0.000 C 
BRANCH  10  11
ATOM     11  C   UNL     1     -30.237   0.298 -38.874  1.00  0.00    -0.000 C 
BRANCH  11  12
ATOM     12  C   UNL     1     -31.728   0.227 -38.508  1.00  0.00    -0.000 C 
BRANCH  12  13
ATOM     13  C   UNL     1     -32.523   1.432 -39.040  1.00  0.00    -0.000 C 
BRANCH  13  14
ATOM     14  C   UNL     1     -33.145   2.277 -37.915  1.00  0.00    -0.000 C 
BRANCH  14  15
ATOM     15  C   UNL     1     -32.232   3.434 -37.474  1.00  0.00    -0.000 C 
BRANCH  15  16
ATOM     16  C   UNL     1     -31.864   3.357 -35.984  1.00  0.00    -0.003 C 
ATOM     17  C   UNL     1     -30.690   2.417 -35.711  1.00  0.00     0.004 C 
ENDBRANCH  15  16
ENDBRANCH  14  15
ENDBRANCH  13  14
ENDBRANCH  12  13
ENDBRANCH  11  12
ENDBRANCH  10  11
ENDBRANCH   1  10
TORSDOF 13
ENDMDL
MODEL 9
REMARK VINA RESULT:    -2.952     15.182     17.217
REMARK INTER + INTRA:          -7.106
REMARK INTER:                  -5.305
REMARK INTRA:                  -1.801
REMARK UNBOUND:                -1.909
REMARK SMILES CCCCCCCCCCCCCCC(=O)[O-]
REMARK SMILES IDX 9 1 10 2 11 3 12 4 13 5 14 6 15 7 16 8 17 9 8 10 7 11 6 12
REMARK SMILES IDX 5 13 4 14 3 15 2 16 1 17
REMARK H PARENT
REMARK Flexibility Score: inf
ROOT
ATOM      1  C   UNL     1     -31.346  -9.991 -27.916  1.00  0.00     0.000 C 
ENDROOT
BRANCH   1   2
ATOM      2  C   UNL     1     -31.055  -8.633 -28.578  1.00  0.00     0.000 C 
BRANCH   2   3
ATOM      3  C   UNL     1     -32.337  -7.891 -28.991  1.00  0.00     0.000 C 
BRANCH   3   4
ATOM      4  C   UNL     1     -32.360  -7.535 -30.488  1.00  0.00     0.000 C 
BRANCH   4   5
ATOM      5  C   UNL     1     -33.733  -7.780 -31.133  1.00  0.00     0.006 C 
BRANCH   5   6
ATOM      6  C   UNL     1     -34.266  -6.548 -31.876  1.00  0.00     0.053 C 
BRANCH   6   7
ATOM      7  C   UNL     1     -34.707  -5.502 -30.902  1.00  0.00     0.041 C 
ATOM      8  O   UNL     1     -35.453  -5.809 -29.935  1.00  0.00    -0.550 OA
ATOM      9  O   UNL     1     -34.335  -4.175 -31.090  1.00  0.00    -0.550 OA
ENDBRANCH   6   7
ENDBRANCH   5   6
ENDBRANCH   4   5
ENDBRANCH   3   4
ENDBRANCH   2   3
ENDBRANCH   1   2
BRANCH   1  10
ATOM     10  C   UNL     1     -32.853 -10.269 -27.781  1.00  0.00     0.000 C 
BRANCH  10  11
ATOM     11  C   UNL     1     -33.168 -11.320 -26.703  1.00  0.00    -0.000 C 
BRANCH  11  12
ATOM     12  C   UNL     1     -31.902 -11.864 -26.022  1.00  0.00    -0.000 C 
BRANCH  12  13
ATOM     13  C   UNL     1     -32.020 -11.882 -24.487  1.00  0.00    -0.000 C 
BRANCH  13  14
ATOM     14  C   UNL     1     -32.206 -10.477 -23.890  1.00  0.00    -0.000 C 
BRANCH  14  15
ATOM     15  C   UNL     1     -31.072  -9.515 -24.285  1.00  0.00    -0.000 C 
BRANCH  15  16
ATOM     16  C   UNL     1     -31.595  -8.137 -24.720  1.00  0.00    -0.003 C 
ATOM     17  C   UNL     1     -33.122  -8.073 -24.775  1.00  0.00     0.004 C 
ENDBRANCH  15  16
ENDBRANCH  14  15
ENDBRANCH  13  14
ENDBRANCH  12  13
ENDBRANCH  11  12
ENDBRANCH  10  11
ENDBRANCH   1  10
TORSDOF 13
ENDMDL
