MODEL 1
REMARK VINA RESULT:    -4.979      0.000      0.000
REMARK INTER + INTRA:          -5.601
REMARK INTER:                  -5.416
REMARK INTRA:                  -0.185
REMARK UNBOUND:                -0.185
REMARK SMILES Cc1ccc(C(C)C)c(O)c1
REMARK SMILES IDX 1 1 2 2 11 3 9 4 5 5 4 6 3 7 10 8 6 10 7 11 8 12
REMARK H PARENT 10 9
REMARK Flexibility Score: inf
ROOT
ATOM      1  C   UNL     1      18.787  28.493  34.748  1.00  0.00     0.044 C 
ATOM      2  C   UNL     1      18.737  28.377  33.253  1.00  0.00    -0.047 A 
ATOM      3  C   UNL     1      19.501  27.408  32.595  1.00  0.00     0.049 A 
ATOM      4  C   UNL     1      19.496  27.306  31.198  1.00  0.00     0.119 A 
ATOM      5  C   UNL     1      18.710  28.211  30.425  1.00  0.00    -0.004 A 
ATOM      6  C   UNL     1      17.962  29.193  31.110  1.00  0.00     0.008 A 
ATOM      7  C   UNL     1      17.981  29.279  32.501  1.00  0.00     0.004 A 
ENDROOT
BRANCH   4   8
ATOM      8  O   UNL     1      20.289  26.299  30.645  1.00  0.00    -0.508 OA
ATOM      9  H   UNL     1      21.258  26.396  30.398  1.00  0.00     0.293 HD
ENDBRANCH   4   8
BRANCH   5  10
ATOM     10  C   UNL     1      18.617  28.197  28.899  1.00  0.00     0.017 C 
ATOM     11  C   UNL     1      18.318  29.579  28.304  1.00  0.00     0.012 C 
ATOM     12  C   UNL     1      17.686  27.098  28.368  1.00  0.00     0.012 C 
ENDBRANCH   5  10
TORSDOF 2
ENDMDL
MODEL 2
REMARK VINA RESULT:    -4.975      2.445      3.309
REMARK INTER + INTRA:          -5.597
REMARK INTER:                  -5.413
REMARK INTRA:                  -0.184
REMARK UNBOUND:                -0.185
REMARK SMILES Cc1ccc(C(C)C)c(O)c1
REMARK SMILES IDX 1 1 2 2 11 3 9 4 5 5 4 6 3 7 10 8 6 10 7 11 8 12
REMARK H PARENT 10 9
REMARK Flexibility Score: inf
ROOT
ATOM      1  C   UNL     1      17.971  30.363  32.512  1.00  0.00     0.044 C 
ATOM      2  C   UNL     1      18.138  29.855  31.110  1.00  0.00    -0.047 A 
ATOM      3  C   UNL     1      18.365  30.748  30.058  1.00  0.00     0.049 A 
ATOM      4  C   UNL     1      18.488  30.297  28.737  1.00  0.00     0.119 A 
ATOM      5  C   UNL     1      18.370  28.905  28.451  1.00  0.00    -0.004 A 
ATOM      6  C   UNL     1      18.121  28.024  29.526  1.00  0.00     0.008 A 
ATOM      7  C   UNL     1      18.000  28.493  30.833  1.00  0.00     0.004 A 
ENDROOT
BRANCH   4   8
ATOM      8  O   UNL     1      18.721  31.272  27.767  1.00  0.00    -0.508 OA
ATOM      9  H   UNL     1      18.216  31.361  26.902  1.00  0.00     0.293 HD
ENDBRANCH   4   8
BRANCH   5  10
ATOM     10  C   UNL     1      18.491  28.291  27.056  1.00  0.00     0.017 C 
ATOM     11  C   UNL     1      17.699  26.985  26.905  1.00  0.00     0.012 C 
ATOM     12  C   UNL     1      19.945  28.172  26.581  1.00  0.00     0.012 C 
ENDBRANCH   5  10
TORSDOF 2
ENDMDL
MODEL 3
REMARK VINA RESULT:    -4.912      2.419      3.704
REMARK INTER + INTRA:          -5.528
REMARK INTER:                  -5.370
REMARK INTRA:                  -0.158
REMARK UNBOUND:                -0.185
REMARK SMILES Cc1ccc(C(C)C)c(O)c1
REMARK SMILES IDX 1 1 2 2 11 3 9 4 5 5 4 6 3 7 10 8 6 10 7 11 8 12
REMARK H PARENT 10 9
REMARK Flexibility Score: inf
ROOT
ATOM      1  C   UNL     1      18.687  33.072  29.828  1.00  0.00     0.044 C 
ATOM      2  C   UNL     1      18.484  31.612  29.549  1.00  0.00    -0.047 A 
ATOM      3  C   UNL     1      18.339  30.706  30.604  1.00  0.00     0.049 A 
ATOM      4  C   UNL     1      18.184  29.334  30.365  1.00  0.00     0.119 A 
ATOM      5  C   UNL     1      18.184  28.844  29.026  1.00  0.00    -0.004 A 
ATOM      6  C   UNL     1      18.352  29.775  27.978  1.00  0.00     0.008 A 
ATOM      7  C   UNL     1      18.506  31.136  28.236  1.00  0.00     0.004 A 
ENDROOT
BRANCH   4   8
ATOM      8  O   UNL     1      18.040  28.520  31.490  1.00  0.00    -0.508 OA
ATOM      9  H   UNL     1      17.172  28.330  31.958  1.00  0.00     0.293 HD
ENDBRANCH   4   8
BRANCH   5  10
ATOM     10  C   UNL     1      18.018  27.375  28.638  1.00  0.00     0.017 C 
ATOM     11  C   UNL     1      19.246  26.521  28.982  1.00  0.00     0.012 C 
ATOM     12  C   UNL     1      17.542  27.190  27.190  1.00  0.00     0.012 C 
ENDBRANCH   5  10
TORSDOF 2
ENDMDL
MODEL 4
REMARK VINA RESULT:    -4.834      2.436      4.769
REMARK INTER + INTRA:          -5.443
REMARK INTER:                  -5.256
REMARK INTRA:                  -0.187
REMARK UNBOUND:                -0.185
REMARK SMILES Cc1ccc(C(C)C)c(O)c1
REMARK SMILES IDX 1 1 2 2 11 3 9 4 5 5 4 6 3 7 10 8 6 10 7 11 8 12
REMARK H PARENT 10 9
REMARK Flexibility Score: inf
ROOT
ATOM      1  C   UNL     1      17.910  26.663  26.564  1.00  0.00     0.044 C 
ATOM      2  C   UNL     1      18.012  27.640  27.698  1.00  0.00    -0.047 A 
ATOM      3  C   UNL     1      18.204  29.001  27.442  1.00  0.00     0.049 A 
ATOM      4  C   UNL     1      18.338  29.925  28.487  1.00  0.00     0.119 A 
ATOM      5  C   UNL     1      18.290  29.474  29.839  1.00  0.00    -0.004 A 
ATOM      6  C   UNL     1      18.116  28.093  30.074  1.00  0.00     0.008 A 
ATOM      7  C   UNL     1      17.986  27.190  29.020  1.00  0.00     0.004 A 
ENDROOT
BRANCH   4   8
ATOM      8  O   UNL     1      18.517  31.259  28.118  1.00  0.00    -0.508 OA
ATOM      9  H   UNL     1      18.448  32.045  28.741  1.00  0.00     0.293 HD
ENDBRANCH   4   8
BRANCH   5  10
ATOM     10  C   UNL     1      18.418  30.383  31.063  1.00  0.00     0.017 C 
ATOM     11  C   UNL     1      19.873  30.728  31.404  1.00  0.00     0.012 C 
ATOM     12  C   UNL     1      17.620  29.871  32.270  1.00  0.00     0.012 C 
ENDBRANCH   5  10
TORSDOF 2
ENDMDL
MODEL 5
REMARK VINA RESULT:    -4.832      2.406      4.944
REMARK INTER + INTRA:          -5.441
REMARK INTER:                  -5.259
REMARK INTRA:                  -0.182
REMARK UNBOUND:                -0.185
REMARK SMILES Cc1ccc(C(C)C)c(O)c1
REMARK SMILES IDX 1 1 2 2 11 3 9 4 5 5 4 6 3 7 10 8 6 10 7 11 8 12
REMARK H PARENT 10 9
REMARK Flexibility Score: inf
ROOT
ATOM      1  C   UNL     1      18.422  30.028  28.293  1.00  0.00     0.044 C 
ATOM      2  C   UNL     1      18.329  29.928  29.787  1.00  0.00    -0.047 A 
ATOM      3  C   UNL     1      18.323  31.085  30.573  1.00  0.00     0.049 A 
ATOM      4  C   UNL     1      18.274  31.012  31.971  1.00  0.00     0.119 A 
ATOM      5  C   UNL     1      18.239  29.739  32.612  1.00  0.00    -0.004 A 
ATOM      6  C   UNL     1      18.266  28.584  31.800  1.00  0.00     0.008 A 
ATOM      7  C   UNL     1      18.317  28.678  30.410  1.00  0.00     0.004 A 
ENDROOT
BRANCH   4   8
ATOM      8  O   UNL     1      18.264  32.228  32.657  1.00  0.00    -0.508 OA
ATOM      9  H   UNL     1      17.937  32.358  33.598  1.00  0.00     0.293 HD
ENDBRANCH   4   8
BRANCH   5  10
ATOM     10  C   UNL     1      18.178  29.529  34.126  1.00  0.00     0.017 C 
ATOM     11  C   UNL     1      18.787  28.193  34.571  1.00  0.00     0.012 C 
ATOM     12  C   UNL     1      16.779  29.777  34.706  1.00  0.00     0.012 C 
ENDBRANCH   5  10
TORSDOF 2
ENDMDL
MODEL 6
REMARK VINA RESULT:    -4.802      2.276      3.301
REMARK INTER + INTRA:          -5.408
REMARK INTER:                  -5.270
REMARK INTRA:                  -0.139
REMARK UNBOUND:                -0.185
REMARK SMILES Cc1ccc(C(C)C)c(O)c1
REMARK SMILES IDX 1 1 2 2 11 3 9 4 5 5 4 6 3 7 10 8 6 10 7 11 8 12
REMARK H PARENT 10 9
REMARK Flexibility Score: inf
ROOT
ATOM      1  C   UNL     1      20.728  25.943  35.119  1.00  0.00     0.044 C 
ATOM      2  C   UNL     1      19.892  26.962  34.403  1.00  0.00    -0.047 A 
ATOM      3  C   UNL     1      19.800  26.944  33.007  1.00  0.00     0.049 A 
ATOM      4  C   UNL     1      19.054  27.909  32.317  1.00  0.00     0.119 A 
ATOM      5  C   UNL     1      18.383  28.937  33.042  1.00  0.00    -0.004 A 
ATOM      6  C   UNL     1      18.507  28.948  34.448  1.00  0.00     0.008 A 
ATOM      7  C   UNL     1      19.255  27.979  35.117  1.00  0.00     0.004 A 
ENDROOT
BRANCH   4   8
ATOM      8  O   UNL     1      19.023  27.792  30.926  1.00  0.00    -0.508 OA
ATOM      9  H   UNL     1      18.330  28.206  30.327  1.00  0.00     0.293 HD
ENDBRANCH   4   8
BRANCH   5  10
ATOM     10  C   UNL     1      17.536  30.039  32.405  1.00  0.00     0.017 C 
ATOM     11  C   UNL     1      18.368  31.038  31.589  1.00  0.00     0.012 C 
ATOM     12  C   UNL     1      16.591  30.718  33.406  1.00  0.00     0.012 C 
ENDBRANCH   5  10
TORSDOF 2
ENDMDL
MODEL 7
REMARK VINA RESULT:    -4.732      1.864      2.707
REMARK INTER + INTRA:          -5.333
REMARK INTER:                  -5.145
REMARK INTRA:                  -0.188
REMARK UNBOUND:                -0.185
REMARK SMILES Cc1ccc(C(C)C)c(O)c1
REMARK SMILES IDX 1 1 2 2 11 3 9 4 5 5 4 6 3 7 10 8 6 10 7 11 8 12
REMARK H PARENT 10 9
REMARK Flexibility Score: inf
ROOT
ATOM      1  C   UNL     1      18.097  30.641  31.717  1.00  0.00     0.044 C 
ATOM      2  C   UNL     1      18.315  29.795  30.497  1.00  0.00    -0.047 A 
ATOM      3  C   UNL     1      18.592  28.430  30.626  1.00  0.00     0.049 A 
ATOM      4  C   UNL     1      18.834  27.629  29.501  1.00  0.00     0.119 A 
ATOM      5  C   UNL     1      18.811  28.212  28.200  1.00  0.00    -0.004 A 
ATOM      6  C   UNL     1      18.549  29.595  28.095  1.00  0.00     0.008 A 
ATOM      7  C   UNL     1      18.312  30.375  29.227  1.00  0.00     0.004 A 
ENDROOT
BRANCH   4   8
ATOM      8  O   UNL     1      19.092  26.279  29.744  1.00  0.00    -0.508 OA
ATOM      9  H   UNL     1      18.452  25.526  29.560  1.00  0.00     0.293 HD
ENDBRANCH   4   8
BRANCH   5  10
ATOM     10  C   UNL     1      19.052  27.444  26.900  1.00  0.00     0.017 C 
ATOM     11  C   UNL     1      19.697  28.306  25.806  1.00  0.00     0.012 C 
ATOM     12  C   UNL     1      17.809  26.686  26.415  1.00  0.00     0.012 C 
ENDBRANCH   5  10
TORSDOF 2
ENDMDL
MODEL 8
REMARK VINA RESULT:    -4.723      1.851      2.619
REMARK INTER + INTRA:          -5.322
REMARK INTER:                  -5.144
REMARK INTRA:                  -0.178
REMARK UNBOUND:                -0.185
REMARK SMILES Cc1ccc(C(C)C)c(O)c1
REMARK SMILES IDX 1 1 2 2 11 3 9 4 5 5 4 6 3 7 10 8 6 10 7 11 8 12
REMARK H PARENT 10 9
REMARK Flexibility Score: inf
ROOT
ATOM      1  C   UNL     1      20.027  27.220  35.131  1.00  0.00     0.044 C 
ATOM      2  C   UNL     1      19.524  27.671  33.791  1.00  0.00    -0.047 A 
ATOM      3  C   UNL     1      18.633  28.745  33.698  1.00  0.00     0.049 A 
ATOM      4  C   UNL     1      18.123  29.159  32.460  1.00  0.00     0.119 A 
ATOM      5  C   UNL     1      18.507  28.472  31.271  1.00  0.00    -0.004 A 
ATOM      6  C   UNL     1      19.392  27.379  31.391  1.00  0.00     0.008 A 
ATOM      7  C   UNL     1      19.887  26.981  32.633  1.00  0.00     0.004 A 
ENDROOT
BRANCH   4   8
ATOM      8  O   UNL     1      17.247  30.245  32.481  1.00  0.00    -0.508 OA
ATOM      9  H   UNL     1      16.995  30.769  33.301  1.00  0.00     0.293 HD
ENDBRANCH   4   8
BRANCH   5  10
ATOM     10  C   UNL     1      18.026  28.832  29.865  1.00  0.00     0.017 C 
ATOM     11  C   UNL     1      18.057  27.641  28.897  1.00  0.00     0.012 C 
ATOM     12  C   UNL     1      18.712  30.084  29.302  1.00  0.00     0.012 C 
ENDBRANCH   5  10
TORSDOF 2
ENDMDL
MODEL 9
REMARK VINA RESULT:    -4.712      2.346      4.505
REMARK INTER + INTRA:          -5.310
REMARK INTER:                  -5.129
REMARK INTRA:                  -0.182
REMARK UNBOUND:                -0.185
REMARK SMILES Cc1ccc(C(C)C)c(O)c1
REMARK SMILES IDX 1 1 2 2 11 3 9 4 5 5 4 6 3 7 10 8 6 10 7 11 8 12
REMARK H PARENT 10 9
REMARK Flexibility Score: inf
ROOT
ATOM      1  C   UNL     1      19.429  23.660  27.987  1.00  0.00     0.044 C 
ATOM      2  C   UNL     1      19.056  25.056  28.390  1.00  0.00    -0.047 A 
ATOM      3  C   UNL     1      18.218  25.825  27.576  1.00  0.00     0.049 A 
ATOM      4  C   UNL     1      17.886  27.143  27.916  1.00  0.00     0.119 A 
ATOM      5  C   UNL     1      18.418  27.722  29.105  1.00  0.00    -0.004 A 
ATOM      6  C   UNL     1      19.278  26.935  29.901  1.00  0.00     0.008 A 
ATOM      7  C   UNL     1      19.597  25.625  29.545  1.00  0.00     0.004 A 
ENDROOT
BRANCH   4   8
ATOM      8  O   UNL     1      17.036  27.816  27.037  1.00  0.00    -0.508 OA
ATOM      9  H   UNL     1      16.407  27.374  26.389  1.00  0.00     0.293 HD
ENDBRANCH   4   8
BRANCH   5  10
ATOM     10  C   UNL     1      18.126  29.144  29.585  1.00  0.00     0.017 C 
ATOM     11  C   UNL     1      18.914  30.211  28.812  1.00  0.00     0.012 C 
ATOM     12  C   UNL     1      18.242  29.295  31.108  1.00  0.00     0.012 C 
ENDBRANCH   5  10
TORSDOF 2
ENDMDL
