MODEL 1
REMARK VINA RESULT:    -3.377      0.000      0.000
REMARK INTER + INTRA:          -4.802
REMARK INTER:                  -4.561
REMARK INTRA:                  -0.241
REMARK UNBOUND:                -0.241
REMARK SMILES C=CC(C)=CCC=C(C)CCC=C(C)C
REMARK SMILES IDX 8 1 7 2 9 3 10 4 11 5 12 6 14 7 13 8 15 9 6 10 5 11 3 12
REMARK SMILES IDX 4 13 2 14 1 15
REMARK H PARENT
REMARK Flexibility Score: inf
ROOT
ATOM      1  C   UNL     1     136.007 152.996 121.831  1.00  0.00    -0.077 C 
ATOM      2  C   UNL     1     135.388 153.808 122.719  1.00  0.00    -0.024 C 
ATOM      3  C   UNL     1     137.335 153.363 121.211  1.00  0.00     0.039 C 
ENDROOT
BRANCH   1   4
ATOM      4  C   UNL     1     135.388 151.657 121.491  1.00  0.00     0.034 C 
BRANCH   4   5
ATOM      5  C   UNL     1     134.926 150.911 122.751  1.00  0.00     0.032 C 
BRANCH   5   6
ATOM      6  C   UNL     1     136.062 150.184 123.431  1.00  0.00    -0.028 C 
ATOM      7  C   UNL     1     135.569 151.159 125.684  1.00  0.00     0.039 C 
ATOM      8  C   UNL     1     136.382 150.309 124.737  1.00  0.00    -0.080 C 
ATOM      9  C   UNL     1     137.579 149.555 125.257  1.00  0.00     0.039 C 
ENDBRANCH   5   6
ENDBRANCH   4   5
ENDBRANCH   1   4
BRANCH   2  10
ATOM     10  C   UNL     1     135.948 155.125 123.191  1.00  0.00     0.055 C 
BRANCH  10  11
ATOM     11  C   UNL     1     137.386 154.980 123.617  1.00  0.00    -0.020 C 
ATOM     12  C   UNL     1     137.768 154.424 124.782  1.00  0.00    -0.055 C 
ATOM     13  C   UNL     1     136.759 153.893 125.775  1.00  0.00     0.044 C 
BRANCH  12  14
ATOM     14  C   UNL     1     139.219 154.409 125.104  1.00  0.00    -0.005 C 
ATOM     15  C   UNL     1     140.130 155.117 124.439  1.00  0.00     0.009 C 
ENDBRANCH  12  14
ENDBRANCH  10  11
ENDBRANCH   2  10
TORSDOF 6
ENDMDL
MODEL 2
REMARK VINA RESULT:    -3.242      1.146      4.341
REMARK INTER + INTRA:          -4.621
REMARK INTER:                  -3.611
REMARK INTRA:                  -1.009
REMARK UNBOUND:                -0.241
REMARK SMILES C=CC(C)=CCC=C(C)CCC=C(C)C
REMARK SMILES IDX 8 1 7 2 9 3 10 4 11 5 12 6 14 7 13 8 15 9 6 10 5 11 3 12
REMARK SMILES IDX 4 13 2 14 1 15
REMARK H PARENT
REMARK Flexibility Score: inf
ROOT
ATOM      1  C   UNL     1     135.430 151.375 124.679  1.00  0.00    -0.077 C 
ATOM      2  C   UNL     1     134.945 151.689 123.455  1.00  0.00    -0.024 C 
ATOM      3  C   UNL     1     136.491 150.317 124.865  1.00  0.00     0.039 C 
ENDROOT
BRANCH   1   4
ATOM      4  C   UNL     1     134.943 152.143 125.889  1.00  0.00     0.034 C 
BRANCH   4   5
ATOM      5  C   UNL     1     135.170 153.653 125.730  1.00  0.00     0.032 C 
BRANCH   5   6
ATOM      6  C   UNL     1     136.635 153.999 125.612  1.00  0.00    -0.028 C 
ATOM      7  C   UNL     1     136.370 155.125 123.391  1.00  0.00     0.039 C 
ATOM      8  C   UNL     1     137.194 154.630 124.556  1.00  0.00    -0.080 C 
ATOM      9  C   UNL     1     138.683 154.858 124.564  1.00  0.00     0.039 C 
ENDBRANCH   5   6
ENDBRANCH   4   5
ENDBRANCH   1   4
BRANCH   2  10
ATOM     10  C   UNL     1     135.411 151.047 122.173  1.00  0.00     0.055 C 
BRANCH  10  11
ATOM     11  C   UNL     1     136.103 152.050 121.286  1.00  0.00    -0.020 C 
ATOM     12  C   UNL     1     137.351 152.505 121.506  1.00  0.00    -0.055 C 
ATOM     13  C   UNL     1     138.170 152.036 122.687  1.00  0.00     0.044 C 
BRANCH  12  14
ATOM     14  C   UNL     1     137.884 153.546 120.588  1.00  0.00    -0.005 C 
ATOM     15  C   UNL     1     138.594 153.271 119.494  1.00  0.00     0.009 C 
ENDBRANCH  12  14
ENDBRANCH  10  11
ENDBRANCH   2  10
TORSDOF 6
ENDMDL
MODEL 3
REMARK VINA RESULT:    -3.138     14.257     16.638
REMARK INTER + INTRA:          -4.480
REMARK INTER:                  -3.213
REMARK INTRA:                  -1.267
REMARK UNBOUND:                -0.241
REMARK SMILES C=CC(C)=CCC=C(C)CCC=C(C)C
REMARK SMILES IDX 8 1 7 2 9 3 10 4 11 5 12 6 14 7 13 8 15 9 6 10 5 11 3 12
REMARK SMILES IDX 4 13 2 14 1 15
REMARK H PARENT
REMARK Flexibility Score: inf
ROOT
ATOM      1  C   UNL     1     139.285 135.432 124.520  1.00  0.00    -0.077 C 
ATOM      2  C   UNL     1     138.925 135.089 123.262  1.00  0.00    -0.024 C 
ATOM      3  C   UNL     1     140.435 136.374 124.789  1.00  0.00     0.039 C 
ENDROOT
BRANCH   1   4
ATOM      4  C   UNL     1     138.481 134.909 125.691  1.00  0.00     0.034 C 
BRANCH   4   5
ATOM      5  C   UNL     1     136.988 135.234 125.543  1.00  0.00     0.032 C 
BRANCH   5   6
ATOM      6  C   UNL     1     136.733 136.722 125.486  1.00  0.00    -0.028 C 
ATOM      7  C   UNL     1     135.474 136.600 123.325  1.00  0.00     0.039 C 
ATOM      8  C   UNL     1     136.084 137.353 124.484  1.00  0.00    -0.080 C 
ATOM      9  C   UNL     1     135.955 138.853 124.546  1.00  0.00     0.039 C 
ENDBRANCH   5   6
ENDBRANCH   4   5
ENDBRANCH   1   4
BRANCH   2  10
ATOM     10  C   UNL     1     139.601 135.610 122.020  1.00  0.00     0.055 C 
BRANCH  10  11
ATOM     11  C   UNL     1     138.621 136.332 121.132  1.00  0.00    -0.020 C 
ATOM     12  C   UNL     1     138.172 137.579 121.373  1.00  0.00    -0.055 C 
ATOM     13  C   UNL     1     138.628 138.365 122.582  1.00  0.00     0.044 C 
BRANCH  12  14
ATOM     14  C   UNL     1     137.153 138.144 120.450  1.00  0.00    -0.005 C 
ATOM     15  C   UNL     1     137.444 138.651 119.252  1.00  0.00     0.009 C 
ENDBRANCH  12  14
ENDBRANCH  10  11
ENDBRANCH   2  10
TORSDOF 6
ENDMDL
MODEL 4
REMARK VINA RESULT:    -2.566     21.186     22.940
REMARK INTER + INTRA:          -3.708
REMARK INTER:                  -2.648
REMARK INTRA:                  -1.060
REMARK UNBOUND:                -0.241
REMARK SMILES C=CC(C)=CCC=C(C)CCC=C(C)C
REMARK SMILES IDX 8 1 7 2 9 3 10 4 11 5 12 6 14 7 13 8 15 9 6 10 5 11 3 12
REMARK SMILES IDX 4 13 2 14 1 15
REMARK H PARENT
REMARK Flexibility Score: inf
ROOT
ATOM      1  C   UNL     1     154.815 139.243 124.595  1.00  0.00    -0.077 C 
ATOM      2  C   UNL     1     155.125 138.663 123.412  1.00  0.00    -0.024 C 
ATOM      3  C   UNL     1     154.294 140.659 124.673  1.00  0.00     0.039 C 
ENDROOT
BRANCH   1   4
ATOM      4  C   UNL     1     154.935 138.437 125.871  1.00  0.00     0.034 C 
BRANCH   4   5
ATOM      5  C   UNL     1     154.763 136.934 125.609  1.00  0.00     0.032 C 
BRANCH   5   6
ATOM      6  C   UNL     1     153.310 136.541 125.483  1.00  0.00    -0.028 C 
ATOM      7  C   UNL     1     153.658 135.267 123.355  1.00  0.00     0.039 C 
ATOM      8  C   UNL     1     152.794 135.821 124.463  1.00  0.00    -0.080 C 
ATOM      9  C   UNL     1     151.311 135.554 124.454  1.00  0.00     0.039 C 
ENDBRANCH   5   6
ENDBRANCH   4   5
ENDBRANCH   1   4
BRANCH   2  10
ATOM     10  C   UNL     1     154.971 139.341 122.075  1.00  0.00     0.055 C 
BRANCH  10  11
ATOM     11  C   UNL     1     154.229 138.460 121.103  1.00  0.00    -0.020 C 
ATOM     12  C   UNL     1     152.959 138.051 121.286  1.00  0.00    -0.055 C 
ATOM     13  C   UNL     1     152.165 138.453 122.508  1.00  0.00     0.044 C 
BRANCH  12  14
ATOM     14  C   UNL     1     152.373 137.127 120.279  1.00  0.00    -0.005 C 
ATOM     15  C   UNL     1     152.109 137.477 119.021  1.00  0.00     0.009 C 
ENDBRANCH  12  14
ENDBRANCH  10  11
ENDBRANCH   2  10
TORSDOF 6
ENDMDL
MODEL 5
REMARK VINA RESULT:    -2.431      1.217      3.590
REMARK INTER + INTRA:          -3.526
REMARK INTER:                  -3.270
REMARK INTRA:                  -0.256
REMARK UNBOUND:                -0.241
REMARK SMILES C=CC(C)=CCC=C(C)CCC=C(C)C
REMARK SMILES IDX 8 1 7 2 9 3 10 4 11 5 12 6 14 7 13 8 15 9 6 10 5 11 3 12
REMARK SMILES IDX 4 13 2 14 1 15
REMARK H PARENT
REMARK Flexibility Score: inf
ROOT
ATOM      1  C   UNL     1     136.119 153.784 125.272  1.00  0.00    -0.077 C 
ATOM      2  C   UNL     1     137.353 154.045 124.782  1.00  0.00    -0.024 C 
ATOM      3  C   UNL     1     134.877 154.389 124.661  1.00  0.00     0.039 C 
ENDROOT
BRANCH   1   4
ATOM      4  C   UNL     1     135.968 152.814 126.425  1.00  0.00     0.034 C 
BRANCH   4   5
ATOM      5  C   UNL     1     134.983 151.685 126.090  1.00  0.00     0.032 C 
BRANCH   5   6
ATOM      6  C   UNL     1     134.876 151.445 124.602  1.00  0.00    -0.028 C 
ATOM      7  C   UNL     1     136.893 149.962 124.520  1.00  0.00     0.039 C 
ATOM      8  C   UNL     1     135.742 150.702 123.879  1.00  0.00    -0.080 C 
ATOM      9  C   UNL     1     135.530 150.601 122.391  1.00  0.00     0.039 C 
ENDBRANCH   5   6
ENDBRANCH   4   5
ENDBRANCH   1   4
BRANCH   2  10
ATOM     10  C   UNL     1     137.617 154.930 123.591  1.00  0.00     0.055 C 
BRANCH  10  11
ATOM     11  C   UNL     1     138.090 154.122 122.410  1.00  0.00    -0.020 C 
ATOM     12  C   UNL     1     137.261 153.526 121.533  1.00  0.00    -0.055 C 
ATOM     13  C   UNL     1     135.758 153.622 121.672  1.00  0.00     0.044 C 
BRANCH  12  14
ATOM     14  C   UNL     1     137.864 152.702 120.453  1.00  0.00    -0.005 C 
ATOM     15  C   UNL     1     138.617 153.205 119.475  1.00  0.00     0.009 C 
ENDBRANCH  12  14
ENDBRANCH  10  11
ENDBRANCH   2  10
TORSDOF 6
ENDMDL
MODEL 6
REMARK VINA RESULT:    -1.713      0.692      4.263
REMARK INTER + INTRA:          -2.555
REMARK INTER:                  -1.904
REMARK INTRA:                  -0.651
REMARK UNBOUND:                -0.241
REMARK SMILES C=CC(C)=CCC=C(C)CCC=C(C)C
REMARK SMILES IDX 8 1 7 2 9 3 10 4 11 5 12 6 14 7 13 8 15 9 6 10 5 11 3 12
REMARK SMILES IDX 4 13 2 14 1 15
REMARK H PARENT
REMARK Flexibility Score: inf
ROOT
ATOM      1  C   UNL     1     135.759 153.112 121.879  1.00  0.00    -0.077 C 
ATOM      2  C   UNL     1     134.906 152.324 122.575  1.00  0.00    -0.024 C 
ATOM      3  C   UNL     1     136.785 152.532 120.935  1.00  0.00     0.039 C 
ENDROOT
BRANCH   1   4
ATOM      4  C   UNL     1     135.645 154.617 121.999  1.00  0.00     0.034 C 
BRANCH   4   5
ATOM      5  C   UNL     1     136.076 155.108 123.388  1.00  0.00     0.032 C 
BRANCH   5   6
ATOM      6  C   UNL     1     137.579 155.125 123.545  1.00  0.00    -0.028 C 
ATOM      7  C   UNL     1     137.537 153.951 125.756  1.00  0.00     0.039 C 
ATOM      8  C   UNL     1     138.246 154.639 124.614  1.00  0.00    -0.080 C 
ATOM      9  C   UNL     1     139.746 154.777 124.646  1.00  0.00     0.039 C 
ENDBRANCH   5   6
ENDBRANCH   4   5
ENDBRANCH   1   4
BRANCH   2  10
ATOM     10  C   UNL     1     134.875 150.821 122.475  1.00  0.00     0.055 C 
BRANCH  10  11
ATOM     11  C   UNL     1     136.025 150.204 123.228  1.00  0.00    -0.020 C 
ATOM     12  C   UNL     1     136.256 150.411 124.539  1.00  0.00    -0.055 C 
ATOM     13  C   UNL     1     135.360 151.300 125.371  1.00  0.00     0.044 C 
BRANCH  12  14
ATOM     14  C   UNL     1     137.468 149.794 125.138  1.00  0.00    -0.005 C 
ATOM     15  C   UNL     1     137.645 148.478 125.255  1.00  0.00     0.009 C 
ENDBRANCH  12  14
ENDBRANCH  10  11
ENDBRANCH   2  10
TORSDOF 6
ENDMDL
MODEL 7
REMARK VINA RESULT:    -1.678     21.118     23.061
REMARK INTER + INTRA:          -2.507
REMARK INTER:                  -2.664
REMARK INTRA:                   0.157
REMARK UNBOUND:                -0.241
REMARK SMILES C=CC(C)=CCC=C(C)CCC=C(C)C
REMARK SMILES IDX 8 1 7 2 9 3 10 4 11 5 12 6 14 7 13 8 15 9 6 10 5 11 3 12
REMARK SMILES IDX 4 13 2 14 1 15
REMARK H PARENT
REMARK Flexibility Score: inf
ROOT
ATOM      1  C   UNL     1     154.646 139.793 123.930  1.00  0.00    -0.077 C 
ATOM      2  C   UNL     1     155.020 138.541 124.282  1.00  0.00    -0.024 C 
ATOM      3  C   UNL     1     153.810 140.658 124.843  1.00  0.00     0.039 C 
ENDROOT
BRANCH   1   4
ATOM      4  C   UNL     1     155.125 140.368 122.615  1.00  0.00     0.034 C 
BRANCH   4   5
ATOM      5  C   UNL     1     154.990 139.355 121.470  1.00  0.00     0.032 C 
BRANCH   5   6
ATOM      6  C   UNL     1     154.011 138.252 121.798  1.00  0.00    -0.028 C 
ATOM      7  C   UNL     1     152.900 138.331 119.555  1.00  0.00     0.039 C 
ATOM      8  C   UNL     1     153.049 137.804 120.963  1.00  0.00    -0.080 C 
ATOM      9  C   UNL     1     152.114 136.731 121.457  1.00  0.00     0.039 C 
ENDBRANCH   5   6
ENDBRANCH   4   5
ENDBRANCH   1   4
BRANCH   2  10
ATOM     10  C   UNL     1     154.670 137.894 125.597  1.00  0.00     0.055 C 
BRANCH  10  11
ATOM     11  C   UNL     1     153.482 136.978 125.451  1.00  0.00    -0.020 C 
ATOM     12  C   UNL     1     153.442 135.938 124.596  1.00  0.00    -0.055 C 
ATOM     13  C   UNL     1     154.611 135.604 123.698  1.00  0.00     0.044 C 
BRANCH  12  14
ATOM     14  C   UNL     1     152.179 135.159 124.506  1.00  0.00    -0.005 C 
ATOM     15  C   UNL     1     150.981 135.658 124.808  1.00  0.00     0.009 C 
ENDBRANCH  12  14
ENDBRANCH  10  11
ENDBRANCH   2  10
TORSDOF 6
ENDMDL
MODEL 8
REMARK VINA RESULT:    -1.190      1.300      2.529
REMARK INTER + INTRA:          -1.849
REMARK INTER:                  -1.651
REMARK INTRA:                  -0.198
REMARK UNBOUND:                -0.241
REMARK SMILES C=CC(C)=CCC=C(C)CCC=C(C)C
REMARK SMILES IDX 8 1 7 2 9 3 10 4 11 5 12 6 14 7 13 8 15 9 6 10 5 11 3 12
REMARK SMILES IDX 4 13 2 14 1 15
REMARK H PARENT
REMARK Flexibility Score: inf
ROOT
ATOM      1  C   UNL     1     135.459 152.891 125.220  1.00  0.00    -0.077 C 
ATOM      2  C   UNL     1     135.235 153.340 123.963  1.00  0.00    -0.024 C 
ATOM      3  C   UNL     1     136.034 153.785 126.292  1.00  0.00     0.039 C 
ENDROOT
BRANCH   1   4
ATOM      4  C   UNL     1     135.068 151.474 125.582  1.00  0.00     0.034 C 
BRANCH   4   5
ATOM      5  C   UNL     1     135.314 150.503 124.419  1.00  0.00     0.032 C 
BRANCH   5   6
ATOM      6  C   UNL     1     136.785 150.341 124.114  1.00  0.00    -0.028 C 
ATOM      7  C   UNL     1     137.158 148.667 125.940  1.00  0.00     0.039 C 
ATOM      8  C   UNL     1     137.630 149.546 124.806  1.00  0.00    -0.080 C 
ATOM      9  C   UNL     1     139.084 149.532 124.411  1.00  0.00     0.039 C 
ENDBRANCH   5   6
ENDBRANCH   4   5
ENDBRANCH   1   4
BRANCH   2  10
ATOM     10  C   UNL     1     135.510 154.751 123.510  1.00  0.00     0.055 C 
BRANCH  10  11
ATOM     11  C   UNL     1     136.950 155.125 123.751  1.00  0.00    -0.020 C 
ATOM     12  C   UNL     1     137.993 154.476 123.200  1.00  0.00    -0.055 C 
ATOM     13  C   UNL     1     137.793 153.293 122.278  1.00  0.00     0.044 C 
BRANCH  12  14
ATOM     14  C   UNL     1     139.363 154.910 123.579  1.00  0.00    -0.005 C 
ATOM     15  C   UNL     1     139.758 155.088 124.839  1.00  0.00     0.009 C 
ENDBRANCH  12  14
ENDBRANCH  10  11
ENDBRANCH   2  10
TORSDOF 6
ENDMDL
MODEL 9
REMARK VINA RESULT:    -1.023     19.786     22.837
REMARK INTER + INTRA:          -1.623
REMARK INTER:                  -2.021
REMARK INTRA:                   0.399
REMARK UNBOUND:                -0.241
REMARK SMILES C=CC(C)=CCC=C(C)CCC=C(C)C
REMARK SMILES IDX 8 1 7 2 9 3 10 4 11 5 12 6 14 7 13 8 15 9 6 10 5 11 3 12
REMARK SMILES IDX 4 13 2 14 1 15
REMARK H PARENT
REMARK Flexibility Score: inf
ROOT
ATOM      1  C   UNL     1     155.071 137.935 124.970  1.00  0.00    -0.077 C 
ATOM      2  C   UNL     1     155.095 137.551 123.672  1.00  0.00    -0.024 C 
ATOM      3  C   UNL     1     155.053 136.928 126.096  1.00  0.00     0.039 C 
ENDROOT
BRANCH   1   4
ATOM      4  C   UNL     1     155.124 139.409 125.309  1.00  0.00     0.034 C 
BRANCH   4   5
ATOM      5  C   UNL     1     154.814 140.283 124.086  1.00  0.00     0.032 C 
BRANCH   5   6
ATOM      6  C   UNL     1     153.408 140.835 124.123  1.00  0.00    -0.028 C 
ATOM      7  C   UNL     1     153.697 141.898 126.372  1.00  0.00     0.039 C 
ATOM      8  C   UNL     1     152.883 141.533 125.153  1.00  0.00    -0.080 C 
ATOM      9  C   UNL     1     151.444 141.971 125.062  1.00  0.00     0.039 C 
ENDBRANCH   5   6
ENDBRANCH   4   5
ENDBRANCH   1   4
BRANCH   2  10
ATOM     10  C   UNL     1     155.125 136.114 123.218  1.00  0.00     0.055 C 
BRANCH  10  11
ATOM     11  C   UNL     1     153.846 135.405 123.583  1.00  0.00    -0.020 C 
ATOM     12  C   UNL     1     152.620 135.912 123.355  1.00  0.00    -0.055 C 
ATOM     13  C   UNL     1     152.429 137.264 122.704  1.00  0.00     0.044 C 
BRANCH  12  14
ATOM     14  C   UNL     1     151.445 135.134 123.829  1.00  0.00    -0.005 C 
ATOM     15  C   UNL     1     150.585 135.581 124.744  1.00  0.00     0.009 C 
ENDBRANCH  12  14
ENDBRANCH  10  11
ENDBRANCH   2  10
TORSDOF 6
ENDMDL
