MODEL 1
REMARK VINA RESULT:    -3.898      0.000      0.000
REMARK INTER + INTRA:          -3.898
REMARK INTER:                  -3.898
REMARK INTRA:                   0.000
REMARK UNBOUND:                 0.000
REMARK SMILES CC1=CC[C@H]2C[C@@H]1C2(C)C
REMARK SMILES IDX 1 1 2 2 3 3 4 4 5 5 6 6 7 7 8 8 9 9 10 10
REMARK H PARENT
REMARK Flexibility Score: inf
ROOT
ATOM      1  C   UNL     1      43.892  16.966  -3.009  1.00  0.00     0.039 C 
ATOM      2  C   UNL     1      43.213  18.284  -3.230  1.00  0.00    -0.074 C 
ATOM      3  C   UNL     1      43.619  19.137  -4.216  1.00  0.00    -0.027 C 
ATOM      4  C   UNL     1      42.896  20.490  -4.370  1.00  0.00     0.031 C 
ATOM      5  C   UNL     1      41.737  20.603  -3.320  1.00  0.00    -0.000 C 
ATOM      6  C   UNL     1      40.982  19.260  -3.384  1.00  0.00     0.013 C 
ATOM      7  C   UNL     1      42.021  18.735  -2.374  1.00  0.00     0.021 C 
ATOM      8  C   UNL     1      42.246  20.197  -1.909  1.00  0.00    -0.026 C 
ATOM      9  C   UNL     1      41.261  20.616  -0.788  1.00  0.00     0.012 C 
ATOM     10  C   UNL     1      43.678  20.624  -1.483  1.00  0.00     0.012 C 
ENDROOT
TORSDOF 0
ENDMDL
MODEL 2
REMARK VINA RESULT:    -3.802      1.121      3.304
REMARK INTER + INTRA:          -3.802
REMARK INTER:                  -3.802
REMARK INTRA:                   0.000
REMARK UNBOUND:                 0.000
REMARK SMILES CC1=CC[C@H]2C[C@@H]1C2(C)C
REMARK SMILES IDX 1 1 2 2 3 3 4 4 5 5 6 6 7 7 8 8 9 9 10 10
REMARK H PARENT
REMARK Flexibility Score: inf
ROOT
ATOM      1  C   UNL     1      39.979  20.297  -0.540  1.00  0.00     0.039 C 
ATOM      2  C   UNL     1      41.201  19.966  -1.343  1.00  0.00    -0.074 C 
ATOM      3  C   UNL     1      42.402  20.563  -1.089  1.00  0.00    -0.027 C 
ATOM      4  C   UNL     1      43.613  20.198  -1.971  1.00  0.00     0.031 C 
ATOM      5  C   UNL     1      43.202  19.112  -3.025  1.00  0.00    -0.000 C 
ATOM      6  C   UNL     1      42.410  18.046  -2.241  1.00  0.00     0.013 C 
ATOM      7  C   UNL     1      41.170  18.929  -2.475  1.00  0.00     0.021 C 
ATOM      8  C   UNL     1      41.875  19.514  -3.726  1.00  0.00    -0.026 C 
ATOM      9  C   UNL     1      41.607  18.673  -5.000  1.00  0.00     0.012 C 
ATOM     10  C   UNL     1      41.641  21.011  -4.073  1.00  0.00     0.012 C 
ENDROOT
TORSDOF 0
ENDMDL
MODEL 3
REMARK VINA RESULT:    -3.701      1.021      2.884
REMARK INTER + INTRA:          -3.701
REMARK INTER:                  -3.701
REMARK INTRA:                   0.000
REMARK UNBOUND:                 0.000
REMARK SMILES CC1=CC[C@H]2C[C@@H]1C2(C)C
REMARK SMILES IDX 1 1 2 2 3 3 4 4 5 5 6 6 7 7 8 8 9 9 10 10
REMARK H PARENT
REMARK Flexibility Score: inf
ROOT
ATOM      1  C   UNL     1      41.729  21.636  -5.542  1.00  0.00     0.039 C 
ATOM      2  C   UNL     1      42.143  20.673  -4.471  1.00  0.00    -0.074 C 
ATOM      3  C   UNL     1      42.601  19.423  -4.776  1.00  0.00    -0.027 C 
ATOM      4  C   UNL     1      42.983  18.472  -3.624  1.00  0.00     0.031 C 
ATOM      5  C   UNL     1      42.794  19.195  -2.245  1.00  0.00    -0.000 C 
ATOM      6  C   UNL     1      43.445  20.584  -2.408  1.00  0.00     0.013 C 
ATOM      7  C   UNL     1      42.091  21.046  -2.982  1.00  0.00     0.021 C 
ATOM      8  C   UNL     1      41.411  19.900  -2.189  1.00  0.00    -0.026 C 
ATOM      9  C   UNL     1      41.029  20.327  -0.749  1.00  0.00     0.012 C 
ATOM     10  C   UNL     1      40.186  19.186  -2.827  1.00  0.00     0.012 C 
ENDROOT
TORSDOF 0
ENDMDL
MODEL 4
REMARK VINA RESULT:    -3.674      1.059      2.920
REMARK INTER + INTRA:          -3.674
REMARK INTER:                  -3.674
REMARK INTRA:                   0.000
REMARK UNBOUND:                 0.000
REMARK SMILES CC1=CC[C@H]2C[C@@H]1C2(C)C
REMARK SMILES IDX 1 1 2 2 3 3 4 4 5 5 6 6 7 7 8 8 9 9 10 10
REMARK H PARENT
REMARK Flexibility Score: inf
ROOT
ATOM      1  C   UNL     1      42.137  16.886  -1.989  1.00  0.00     0.039 C 
ATOM      2  C   UNL     1      42.130  18.384  -2.057  1.00  0.00    -0.074 C 
ATOM      3  C   UNL     1      41.320  19.129  -1.250  1.00  0.00    -0.027 C 
ATOM      4  C   UNL     1      41.341  20.664  -1.392  1.00  0.00     0.031 C 
ATOM      5  C   UNL     1      42.388  21.089  -2.479  1.00  0.00    -0.000 C 
ATOM      6  C   UNL     1      43.663  20.279  -2.170  1.00  0.00     0.013 C 
ATOM      7  C   UNL     1      43.042  19.155  -3.022  1.00  0.00     0.021 C 
ATOM      8  C   UNL     1      42.211  20.233  -3.764  1.00  0.00    -0.026 C 
ATOM      9  C   UNL     1      42.970  20.832  -4.975  1.00  0.00     0.012 C 
ATOM     10  C   UNL     1      40.771  19.870  -4.222  1.00  0.00     0.012 C 
ENDROOT
TORSDOF 0
ENDMDL
MODEL 5
REMARK VINA RESULT:    -3.535      1.232      3.212
REMARK INTER + INTRA:          -3.535
REMARK INTER:                  -3.535
REMARK INTRA:                   0.000
REMARK UNBOUND:                 0.000
REMARK SMILES CC1=CC[C@H]2C[C@@H]1C2(C)C
REMARK SMILES IDX 1 1 2 2 3 3 4 4 5 5 6 6 7 7 8 8 9 9 10 10
REMARK H PARENT
REMARK Flexibility Score: inf
ROOT
ATOM      1  C   UNL     1      40.048  17.938  -3.907  1.00  0.00     0.039 C 
ATOM      2  C   UNL     1      41.098  18.909  -3.454  1.00  0.00    -0.074 C 
ATOM      3  C   UNL     1      40.886  19.741  -2.393  1.00  0.00    -0.027 C 
ATOM      4  C   UNL     1      41.996  20.736  -1.999  1.00  0.00     0.031 C 
ATOM      5  C   UNL     1      43.242  20.549  -2.933  1.00  0.00    -0.000 C 
ATOM      6  C   UNL     1      43.492  19.028  -2.998  1.00  0.00     0.013 C 
ATOM      7  C   UNL     1      42.465  19.004  -4.146  1.00  0.00     0.021 C 
ATOM      8  C   UNL     1      42.799  20.493  -4.421  1.00  0.00    -0.026 C 
ATOM      9  C   UNL     1      43.993  20.659  -5.394  1.00  0.00     0.012 C 
ATOM     10  C   UNL     1      41.653  21.433  -4.891  1.00  0.00     0.012 C 
ENDROOT
TORSDOF 0
ENDMDL
MODEL 6
REMARK VINA RESULT:    -3.521      0.973      3.193
REMARK INTER + INTRA:          -3.521
REMARK INTER:                  -3.521
REMARK INTRA:                   0.000
REMARK UNBOUND:                 0.000
REMARK SMILES CC1=CC[C@H]2C[C@@H]1C2(C)C
REMARK SMILES IDX 1 1 2 2 3 3 4 4 5 5 6 6 7 7 8 8 9 9 10 10
REMARK H PARENT
REMARK Flexibility Score: inf
ROOT
ATOM      1  C   UNL     1      44.324  20.630  -0.804  1.00  0.00     0.039 C 
ATOM      2  C   UNL     1      43.178  20.286  -1.706  1.00  0.00    -0.074 C 
ATOM      3  C   UNL     1      41.955  19.943  -1.204  1.00  0.00    -0.027 C 
ATOM      4  C   UNL     1      40.828  19.572  -2.188  1.00  0.00     0.031 C 
ATOM      5  C   UNL     1      41.335  19.713  -3.665  1.00  0.00    -0.000 C 
ATOM      6  C   UNL     1      42.062  21.071  -3.730  1.00  0.00     0.013 C 
ATOM      7  C   UNL     1      43.313  20.318  -3.235  1.00  0.00     0.021 C 
ATOM      8  C   UNL     1      42.714  19.018  -3.831  1.00  0.00    -0.026 C 
ATOM      9  C   UNL     1      43.096  18.823  -5.321  1.00  0.00     0.012 C 
ATOM     10  C   UNL     1      42.968  17.678  -3.085  1.00  0.00     0.012 C 
ENDROOT
TORSDOF 0
ENDMDL
MODEL 7
REMARK VINA RESULT:    -3.507      1.180      2.849
REMARK INTER + INTRA:          -3.507
REMARK INTER:                  -3.507
REMARK INTRA:                   0.000
REMARK UNBOUND:                 0.000
REMARK SMILES CC1=CC[C@H]2C[C@@H]1C2(C)C
REMARK SMILES IDX 1 1 2 2 3 3 4 4 5 5 6 6 7 7 8 8 9 9 10 10
REMARK H PARENT
REMARK Flexibility Score: inf
ROOT
ATOM      1  C   UNL     1      43.996  20.700  -5.365  1.00  0.00     0.039 C 
ATOM      2  C   UNL     1      43.229  20.238  -4.162  1.00  0.00    -0.074 C 
ATOM      3  C   UNL     1      43.531  20.690  -2.910  1.00  0.00    -0.027 C 
ATOM      4  C   UNL     1      42.722  20.152  -1.713  1.00  0.00     0.031 C 
ATOM      5  C   UNL     1      41.616  19.160  -2.214  1.00  0.00    -0.000 C 
ATOM      6  C   UNL     1      40.939  19.858  -3.411  1.00  0.00     0.013 C 
ATOM      7  C   UNL     1      42.059  19.251  -4.278  1.00  0.00     0.021 C 
ATOM      8  C   UNL     1      42.221  18.135  -3.213  1.00  0.00    -0.026 C 
ATOM      9  C   UNL     1      41.273  16.936  -3.468  1.00  0.00     0.012 C 
ATOM     10  C   UNL     1      43.646  17.579  -2.937  1.00  0.00     0.012 C 
ENDROOT
TORSDOF 0
ENDMDL
MODEL 8
REMARK VINA RESULT:    -3.255      1.280      3.070
REMARK INTER + INTRA:          -3.255
REMARK INTER:                  -3.255
REMARK INTRA:                   0.000
REMARK UNBOUND:                 0.000
REMARK SMILES CC1=CC[C@H]2C[C@@H]1C2(C)C
REMARK SMILES IDX 1 1 2 2 3 3 4 4 5 5 6 6 7 7 8 8 9 9 10 10
REMARK H PARENT
REMARK Flexibility Score: inf
ROOT
ATOM      1  C   UNL     1      39.884  19.099  -2.367  1.00  0.00     0.039 C 
ATOM      2  C   UNL     1      41.231  18.753  -2.929  1.00  0.00    -0.074 C 
ATOM      3  C   UNL     1      42.037  17.831  -2.327  1.00  0.00    -0.027 C 
ATOM      4  C   UNL     1      43.422  17.544  -2.940  1.00  0.00     0.031 C 
ATOM      5  C   UNL     1      43.620  18.396  -4.242  1.00  0.00    -0.000 C 
ATOM      6  C   UNL     1      42.318  18.234  -5.051  1.00  0.00     0.013 C 
ATOM      7  C   UNL     1      41.763  19.403  -4.214  1.00  0.00     0.021 C 
ATOM      8  C   UNL     1      43.222  19.876  -3.984  1.00  0.00    -0.026 C 
ATOM      9  C   UNL     1      43.719  20.820  -5.108  1.00  0.00     0.012 C 
ATOM     10  C   UNL     1      43.584  20.516  -2.615  1.00  0.00     0.012 C 
ENDROOT
TORSDOF 0
ENDMDL
MODEL 9
REMARK VINA RESULT:    -3.224      1.602      3.739
REMARK INTER + INTRA:          -3.224
REMARK INTER:                  -3.224
REMARK INTRA:                   0.000
REMARK UNBOUND:                 0.000
REMARK SMILES CC1=CC[C@H]2C[C@@H]1C2(C)C
REMARK SMILES IDX 1 1 2 2 3 3 4 4 5 5 6 6 7 7 8 8 9 9 10 10
REMARK H PARENT
REMARK Flexibility Score: inf
ROOT
ATOM      1  C   UNL     1      43.563  20.435  -1.984  1.00  0.00     0.039 C 
ATOM      2  C   UNL     1      43.041  20.076  -3.343  1.00  0.00    -0.074 C 
ATOM      3  C   UNL     1      42.035  19.166  -3.501  1.00  0.00    -0.027 C 
ATOM      4  C   UNL     1      41.566  18.821  -4.929  1.00  0.00     0.031 C 
ATOM      5  C   UNL     1      42.364  19.672  -5.977  1.00  0.00    -0.000 C 
ATOM      6  C   UNL     1      42.352  21.117  -5.439  1.00  0.00     0.013 C 
ATOM      7  C   UNL     1      43.596  20.723  -4.620  1.00  0.00     0.021 C 
ATOM      8  C   UNL     1      43.886  19.619  -5.670  1.00  0.00    -0.026 C 
ATOM      9  C   UNL     1      44.741  20.142  -6.852  1.00  0.00     0.012 C 
ATOM     10  C   UNL     1      44.501  18.278  -5.181  1.00  0.00     0.012 C 
ENDROOT
TORSDOF 0
ENDMDL
