MODEL 1
REMARK VINA RESULT:    -6.718      0.000      0.000
REMARK INTER + INTRA:         -11.180
REMARK INTER:                 -10.253
REMARK INTRA:                  -0.927
REMARK UNBOUND:                -0.927
REMARK SMILES OC[C@H]1O[C@@H](O[C@@]2(CO)O[C@H](CO)[C@@H](O)[C@H]2O)[C@H](O)[C@@H](O)[C@@H]1O
REMARK SMILES IDX 6 1 5 2 3 3 22 4 4 5 20 6 18 7 2 8 1 9 23 11 21 13 19 15
REMARK SMILES IDX 7 17 16 18 10 19 14 20 11 21 8 22 9 23 17 25 15 27 12 29
REMARK SMILES IDX 13 30
REMARK H PARENT 1 10 23 12 21 14 19 16 9 24 17 26 15 28 13 31
REMARK Flexibility Score: inf
ROOT
ATOM      1  O   UNL     1       7.131   7.609  15.148  1.00  0.00    -0.313 OA
ENDROOT
BRANCH   1   2
ATOM      2  C   UNL     1       5.739   7.654  15.478  1.00  0.00     0.285 C 
ATOM      3  C   UNL     1       4.062   8.845  16.751  1.00  0.00     0.178 C 
ATOM      4  C   UNL     1       3.104   7.666  16.381  1.00  0.00     0.177 C 
ATOM      5  O   UNL     1       5.350   8.855  16.132  1.00  0.00    -0.341 OA
ATOM      6  C   UNL     1       3.804   6.280  16.301  1.00  0.00     0.179 C 
ATOM      7  C   UNL     1       5.340   6.391  16.260  1.00  0.00     0.202 C 
BRANCH   3   8
ATOM      8  C   UNL     1       4.230   8.973  18.275  1.00  0.00     0.191 C 
BRANCH   8   9
ATOM      9  O   UNL     1       3.430   8.034  18.942  1.00  0.00    -0.394 OA
ATOM     10  H   UNL     1       3.959   7.197  18.995  1.00  0.00     0.210 HD
ENDBRANCH   8   9
ENDBRANCH   3   8
BRANCH   4  11
ATOM     11  O   UNL     1       2.407   7.945  15.190  1.00  0.00    -0.387 OA
ATOM     12  H   UNL     1       3.007   8.461  14.593  1.00  0.00     0.211 HD
ENDBRANCH   4  11
BRANCH   6  13
ATOM     13  O   UNL     1       3.401   5.445  17.360  1.00  0.00    -0.387 OA
ATOM     14  H   UNL     1       2.989   4.634  16.962  1.00  0.00     0.211 HD
ENDBRANCH   6  13
BRANCH   7  15
ATOM     15  O   UNL     1       5.882   5.258  15.632  1.00  0.00    -0.385 OA
ATOM     16  H   UNL     1       5.183   4.553  15.656  1.00  0.00     0.211 HD
ENDBRANCH   7  15
ENDBRANCH   1   2
BRANCH   1  17
ATOM     17  C   UNL     1       7.511   7.239  13.820  1.00  0.00     0.224 C 
ATOM     18  C   UNL     1       7.968   8.452  12.971  1.00  0.00     0.208 C 
ATOM     19  O   UNL     1       6.351   6.710  13.201  1.00  0.00    -0.337 OA
ATOM     20  C   UNL     1       7.407   8.142  11.603  1.00  0.00     0.180 C 
ATOM     21  C   UNL     1       6.168   7.328  11.944  1.00  0.00     0.179 C 
BRANCH  17  22
ATOM     22  C   UNL     1       8.562   6.103  13.803  1.00  0.00     0.225 C 
BRANCH  22  23
ATOM     23  O   UNL     1       7.939   4.880  13.514  1.00  0.00    -0.391 OA
ATOM     24  H   UNL     1       8.655   4.272  13.193  1.00  0.00     0.210 HD
ENDBRANCH  22  23
ENDBRANCH  17  22
BRANCH  18  25
ATOM     25  O   UNL     1       7.462   9.670  13.475  1.00  0.00    -0.385 OA
ATOM     26  H   UNL     1       7.800   9.788  14.400  1.00  0.00     0.211 HD
ENDBRANCH  18  25
BRANCH  20  27
ATOM     27  O   UNL     1       7.070   9.302  10.886  1.00  0.00    -0.387 OA
ATOM     28  H   UNL     1       6.436   9.019  10.177  1.00  0.00     0.211 HD
ENDBRANCH  20  27
BRANCH  21  29
ATOM     29  C   UNL     1       5.839   6.277  10.875  1.00  0.00     0.191 C 
BRANCH  29  30
ATOM     30  O   UNL     1       4.480   5.924  10.912  1.00  0.00    -0.394 OA
ATOM     31  H   UNL     1       3.963   6.770  10.846  1.00  0.00     0.210 HD
ENDBRANCH  29  30
ENDBRANCH  21  29
ENDBRANCH   1  17
TORSDOF 13
ENDMDL
MODEL 2
REMARK VINA RESULT:    -6.550      1.467      6.166
REMARK INTER + INTRA:         -10.924
REMARK INTER:                 -10.224
REMARK INTRA:                  -0.700
REMARK UNBOUND:                -0.927
REMARK SMILES OC[C@H]1O[C@@H](O[C@@]2(CO)O[C@H](CO)[C@@H](O)[C@H]2O)[C@H](O)[C@@H](O)[C@@H]1O
REMARK SMILES IDX 6 1 5 2 3 3 22 4 4 5 20 6 18 7 2 8 1 9 23 11 21 13 19 15
REMARK SMILES IDX 7 17 16 18 10 19 14 20 11 21 8 22 9 23 17 25 15 27 12 29
REMARK SMILES IDX 13 30
REMARK H PARENT 1 10 23 12 21 14 19 16 9 24 17 26 15 28 13 31
REMARK Flexibility Score: inf
ROOT
ATOM      1  O   UNL     1       4.860   7.972  15.319  1.00  0.00    -0.313 OA
ENDROOT
BRANCH   1   2
ATOM      2  C   UNL     1       5.663   7.142  14.474  1.00  0.00     0.285 C 
ATOM      3  C   UNL     1       7.848   6.901  13.464  1.00  0.00     0.178 C 
ATOM      4  C   UNL     1       7.215   5.733  12.639  1.00  0.00     0.177 C 
ATOM      5  O   UNL     1       7.044   7.479  14.494  1.00  0.00    -0.341 OA
ATOM      6  C   UNL     1       5.725   5.960  12.258  1.00  0.00     0.179 C 
ATOM      7  C   UNL     1       5.076   7.110  13.053  1.00  0.00     0.202 C 
BRANCH   3   8
ATOM      8  C   UNL     1       8.375   8.016  12.545  1.00  0.00     0.191 C 
BRANCH   8   9
ATOM      9  O   UNL     1       8.268   9.266  13.172  1.00  0.00    -0.394 OA
ATOM     10  H   UNL     1       7.334   9.341  13.499  1.00  0.00     0.210 HD
ENDBRANCH   8   9
ENDBRANCH   3   8
BRANCH   4  11
ATOM     11  O   UNL     1       7.380   4.505  13.305  1.00  0.00    -0.387 OA
ATOM     12  H   UNL     1       8.299   4.177  13.128  1.00  0.00     0.211 HD
ENDBRANCH   4  11
BRANCH   6  13
ATOM     13  O   UNL     1       5.581   6.178  10.875  1.00  0.00    -0.387 OA
ATOM     14  H   UNL     1       6.227   6.885  10.615  1.00  0.00     0.211 HD
ENDBRANCH   6  13
BRANCH   7  15
ATOM     15  O   UNL     1       3.687   6.916  13.122  1.00  0.00    -0.385 OA
ATOM     16  H   UNL     1       3.454   6.250  12.423  1.00  0.00     0.211 HD
ENDBRANCH   7  15
ENDBRANCH   1   2
BRANCH   1  17
ATOM     17  C   UNL     1       4.430   7.456  16.582  1.00  0.00     0.224 C 
ATOM     18  C   UNL     1       3.211   8.220  17.155  1.00  0.00     0.208 C 
ATOM     19  O   UNL     1       5.506   7.651  17.485  1.00  0.00    -0.337 OA
ATOM     20  C   UNL     1       3.503   8.269  18.636  1.00  0.00     0.180 C 
ATOM     21  C   UNL     1       5.024   8.269  18.660  1.00  0.00     0.179 C 
BRANCH  17  22
ATOM     22  C   UNL     1       4.178   5.929  16.539  1.00  0.00     0.225 C 
BRANCH  22  23
ATOM     23  O   UNL     1       3.041   5.611  17.297  1.00  0.00    -0.391 OA
ATOM     24  H   UNL     1       3.223   4.731  17.717  1.00  0.00     0.210 HD
ENDBRANCH  22  23
ENDBRANCH  17  22
BRANCH  18  25
ATOM     25  O   UNL     1       3.093   9.515  16.606  1.00  0.00    -0.385 OA
ATOM     26  H   UNL     1       2.343   9.978  17.060  1.00  0.00     0.211 HD
ENDBRANCH  18  25
BRANCH  20  27
ATOM     27  O   UNL     1       2.988   9.425  19.246  1.00  0.00    -0.387 OA
ATOM     28  H   UNL     1       3.452  10.195  18.826  1.00  0.00     0.211 HD
ENDBRANCH  20  27
BRANCH  21  29
ATOM     29  C   UNL     1       5.595   7.571  19.902  1.00  0.00     0.191 C 
BRANCH  29  30
ATOM     30  O   UNL     1       4.609   7.405  20.888  1.00  0.00    -0.394 OA
ATOM     31  H   UNL     1       4.328   8.316  21.169  1.00  0.00     0.210 HD
ENDBRANCH  29  30
ENDBRANCH  21  29
ENDBRANCH   1  17
TORSDOF 13
ENDMDL
MODEL 3
REMARK VINA RESULT:    -6.481      1.553      6.118
REMARK INTER + INTRA:         -10.818
REMARK INTER:                  -9.726
REMARK INTRA:                  -1.092
REMARK UNBOUND:                -0.927
REMARK SMILES OC[C@H]1O[C@@H](O[C@@]2(CO)O[C@H](CO)[C@@H](O)[C@H]2O)[C@H](O)[C@@H](O)[C@@H]1O
REMARK SMILES IDX 6 1 5 2 3 3 22 4 4 5 20 6 18 7 2 8 1 9 23 11 21 13 19 15
REMARK SMILES IDX 7 17 16 18 10 19 14 20 11 21 8 22 9 23 17 25 15 27 12 29
REMARK SMILES IDX 13 30
REMARK H PARENT 1 10 23 12 21 14 19 16 9 24 17 26 15 28 13 31
REMARK Flexibility Score: inf
ROOT
ATOM      1  O   UNL     1       4.286   6.833  14.773  1.00  0.00    -0.313 OA
ENDROOT
BRANCH   1   2
ATOM      2  C   UNL     1       5.517   6.868  14.044  1.00  0.00     0.285 C 
ATOM      3  C   UNL     1       6.485   6.867  11.828  1.00  0.00     0.178 C 
ATOM      4  C   UNL     1       7.859   6.671  12.549  1.00  0.00     0.177 C 
ATOM      5  O   UNL     1       5.347   7.114  12.654  1.00  0.00    -0.341 OA
ATOM      6  C   UNL     1       7.782   5.802  13.835  1.00  0.00     0.179 C 
ATOM      7  C   UNL     1       6.337   5.599  14.331  1.00  0.00     0.202 C 
BRANCH   3   8
ATOM      8  C   UNL     1       6.179   5.697  10.877  1.00  0.00     0.191 C 
BRANCH   8   9
ATOM      9  O   UNL     1       4.807   5.405  10.880  1.00  0.00    -0.394 OA
ATOM     10  H   UNL     1       4.561   5.203  11.819  1.00  0.00     0.210 HD
ENDBRANCH   8   9
ENDBRANCH   3   8
BRANCH   4  11
ATOM     11  O   UNL     1       8.462   7.914  12.819  1.00  0.00    -0.387 OA
ATOM     12  H   UNL     1       8.934   8.214  12.001  1.00  0.00     0.211 HD
ENDBRANCH   4  11
BRANCH   6  13
ATOM     13  O   UNL     1       8.415   4.559  13.648  1.00  0.00    -0.387 OA
ATOM     14  H   UNL     1       7.722   3.913  13.352  1.00  0.00     0.211 HD
ENDBRANCH   6  13
BRANCH   7  15
ATOM     15  O   UNL     1       6.339   5.342  15.711  1.00  0.00    -0.385 OA
ATOM     16  H   UNL     1       5.619   5.898  16.109  1.00  0.00     0.211 HD
ENDBRANCH   7  15
ENDBRANCH   1   2
BRANCH   1  17
ATOM     17  C   UNL     1       4.098   7.754  15.851  1.00  0.00     0.224 C 
ATOM     18  C   UNL     1       3.796   7.046  17.195  1.00  0.00     0.208 C 
ATOM     19  O   UNL     1       2.958   8.531  15.524  1.00  0.00    -0.337 OA
ATOM     20  C   UNL     1       2.772   7.953  17.837  1.00  0.00     0.180 C 
ATOM     21  C   UNL     1       2.074   8.552  16.625  1.00  0.00     0.179 C 
BRANCH  17  22
ATOM     22  C   UNL     1       5.274   8.753  15.983  1.00  0.00     0.225 C 
BRANCH  22  23
ATOM     23  O   UNL     1       6.218   8.260  16.896  1.00  0.00    -0.391 OA
ATOM     24  H   UNL     1       7.087   8.669  16.647  1.00  0.00     0.210 HD
ENDBRANCH  22  23
ENDBRANCH  17  22
BRANCH  18  25
ATOM     25  O   UNL     1       3.288   5.744  17.004  1.00  0.00    -0.385 OA
ATOM     26  H   UNL     1       3.881   5.268  16.366  1.00  0.00     0.211 HD
ENDBRANCH  18  25
BRANCH  20  27
ATOM     27  O   UNL     1       1.865   7.250  18.647  1.00  0.00    -0.387 OA
ATOM     28  H   UNL     1       1.271   7.929  19.058  1.00  0.00     0.211 HD
ENDBRANCH  20  27
BRANCH  21  29
ATOM     29  C   UNL     1       1.571   9.979  16.879  1.00  0.00     0.191 C 
BRANCH  29  30
ATOM     30  O   UNL     1       0.922  10.075  18.121  1.00  0.00    -0.394 OA
ATOM     31  H   UNL     1       0.441  10.944  18.127  1.00  0.00     0.210 HD
ENDBRANCH  29  30
ENDBRANCH  21  29
ENDBRANCH   1  17
TORSDOF 13
ENDMDL
MODEL 4
REMARK VINA RESULT:    -6.473      1.476      6.142
REMARK INTER + INTRA:         -10.805
REMARK INTER:                  -9.670
REMARK INTRA:                  -1.136
REMARK UNBOUND:                -0.927
REMARK SMILES OC[C@H]1O[C@@H](O[C@@]2(CO)O[C@H](CO)[C@@H](O)[C@H]2O)[C@H](O)[C@@H](O)[C@@H]1O
REMARK SMILES IDX 6 1 5 2 3 3 22 4 4 5 20 6 18 7 2 8 1 9 23 11 21 13 19 15
REMARK SMILES IDX 7 17 16 18 10 19 14 20 11 21 8 22 9 23 17 25 15 27 12 29
REMARK SMILES IDX 13 30
REMARK H PARENT 1 10 23 12 21 14 19 16 9 24 17 26 15 28 13 31
REMARK Flexibility Score: inf
ROOT
ATOM      1  O   UNL     1       5.090   8.319  15.059  1.00  0.00    -0.313 OA
ENDROOT
BRANCH   1   2
ATOM      2  C   UNL     1       5.819   7.352  14.297  1.00  0.00     0.285 C 
ATOM      3  C   UNL     1       7.935   6.894  13.218  1.00  0.00     0.178 C 
ATOM      4  C   UNL     1       7.222   5.647  12.598  1.00  0.00     0.177 C 
ATOM      5  O   UNL     1       7.208   7.637  14.198  1.00  0.00    -0.341 OA
ATOM      6  C   UNL     1       5.720   5.874  12.268  1.00  0.00     0.179 C 
ATOM      7  C   UNL     1       5.151   7.146  12.927  1.00  0.00     0.202 C 
BRANCH   3   8
ATOM      8  C   UNL     1       8.441   7.851  12.126  1.00  0.00     0.191 C 
BRANCH   8   9
ATOM      9  O   UNL     1       8.634   9.138  12.648  1.00  0.00    -0.394 OA
ATOM     10  H   UNL     1       9.360   9.555  12.115  1.00  0.00     0.210 HD
ENDBRANCH   8   9
ENDBRANCH   3   8
BRANCH   4  11
ATOM     11  O   UNL     1       7.389   4.517  13.420  1.00  0.00    -0.387 OA
ATOM     12  H   UNL     1       6.491   4.183  13.675  1.00  0.00     0.211 HD
ENDBRANCH   4  11
BRANCH   6  13
ATOM     13  O   UNL     1       5.504   5.905  10.878  1.00  0.00    -0.387 OA
ATOM     14  H   UNL     1       5.827   6.782  10.544  1.00  0.00     0.211 HD
ENDBRANCH   6  13
BRANCH   7  15
ATOM     15  O   UNL     1       3.763   7.014  13.095  1.00  0.00    -0.385 OA
ATOM     16  H   UNL     1       3.569   6.042  13.144  1.00  0.00     0.211 HD
ENDBRANCH   7  15
ENDBRANCH   1   2
BRANCH   1  17
ATOM     17  C   UNL     1       4.853   8.066  16.446  1.00  0.00     0.224 C 
ATOM     18  C   UNL     1       3.529   7.302  16.696  1.00  0.00     0.208 C 
ATOM     19  O   UNL     1       4.728   9.332  17.072  1.00  0.00    -0.337 OA
ATOM     20  C   UNL     1       3.001   7.938  17.961  1.00  0.00     0.180 C 
ATOM     21  C   UNL     1       3.559   9.350  17.865  1.00  0.00     0.179 C 
BRANCH  17  22
ATOM     22  C   UNL     1       6.053   7.367  17.130  1.00  0.00     0.225 C 
BRANCH  22  23
ATOM     23  O   UNL     1       7.097   8.284  17.319  1.00  0.00    -0.391 OA
ATOM     24  H   UNL     1       7.931   7.816  17.055  1.00  0.00     0.210 HD
ENDBRANCH  22  23
ENDBRANCH  17  22
BRANCH  18  25
ATOM     25  O   UNL     1       2.623   7.451  15.625  1.00  0.00    -0.385 OA
ATOM     26  H   UNL     1       2.160   6.584  15.486  1.00  0.00     0.211 HD
ENDBRANCH  18  25
BRANCH  20  27
ATOM     27  O   UNL     1       1.597   7.951  18.009  1.00  0.00    -0.387 OA
ATOM     28  H   UNL     1       1.289   7.219  17.415  1.00  0.00     0.211 HD
ENDBRANCH  20  27
BRANCH  21  29
ATOM     29  C   UNL     1       3.856   9.963  19.240  1.00  0.00     0.191 C 
BRANCH  29  30
ATOM     30  O   UNL     1       3.120   9.323  20.250  1.00  0.00    -0.394 OA
ATOM     31  H   UNL     1       2.383   8.832  19.799  1.00  0.00     0.210 HD
ENDBRANCH  29  30
ENDBRANCH  21  29
ENDBRANCH   1  17
TORSDOF 13
ENDMDL
MODEL 5
REMARK VINA RESULT:    -6.407      1.914      3.254
REMARK INTER + INTRA:         -10.706
REMARK INTER:                  -9.335
REMARK INTRA:                  -1.371
REMARK UNBOUND:                -0.927
REMARK SMILES OC[C@H]1O[C@@H](O[C@@]2(CO)O[C@H](CO)[C@@H](O)[C@H]2O)[C@H](O)[C@@H](O)[C@@H]1O
REMARK SMILES IDX 6 1 5 2 3 3 22 4 4 5 20 6 18 7 2 8 1 9 23 11 21 13 19 15
REMARK SMILES IDX 7 17 16 18 10 19 14 20 11 21 8 22 9 23 17 25 15 27 12 29
REMARK SMILES IDX 13 30
REMARK H PARENT 1 10 23 12 21 14 19 16 9 24 17 26 15 28 13 31
REMARK Flexibility Score: inf
ROOT
ATOM      1  O   UNL     1       5.486   6.455  15.937  1.00  0.00    -0.313 OA
ENDROOT
BRANCH   1   2
ATOM      2  C   UNL     1       5.273   7.334  17.046  1.00  0.00     0.285 C 
ATOM      3  C   UNL     1       5.992   7.870  19.292  1.00  0.00     0.178 C 
ATOM      4  C   UNL     1       4.755   8.825  19.342  1.00  0.00     0.177 C 
ATOM      5  O   UNL     1       6.288   7.254  18.038  1.00  0.00    -0.341 OA
ATOM      6  C   UNL     1       3.518   8.301  18.561  1.00  0.00     0.179 C 
ATOM      7  C   UNL     1       3.860   7.131  17.618  1.00  0.00     0.202 C 
BRANCH   3   8
ATOM      8  C   UNL     1       5.910   6.788  20.382  1.00  0.00     0.191 C 
BRANCH   8   9
ATOM      9  O   UNL     1       4.834   7.039  21.247  1.00  0.00    -0.394 OA
ATOM     10  H   UNL     1       5.226   7.306  22.118  1.00  0.00     0.210 HD
ENDBRANCH   8   9
ENDBRANCH   3   8
BRANCH   4  11
ATOM     11  O   UNL     1       5.106  10.119  18.914  1.00  0.00    -0.387 OA
ATOM     12  H   UNL     1       6.065  10.113  18.663  1.00  0.00     0.211 HD
ENDBRANCH   4  11
BRANCH   6  13
ATOM     13  O   UNL     1       2.479   7.935  19.438  1.00  0.00    -0.387 OA
ATOM     14  H   UNL     1       2.748   7.088  19.882  1.00  0.00     0.211 HD
ENDBRANCH   6  13
BRANCH   7  15
ATOM     15  O   UNL     1       2.930   7.078  16.567  1.00  0.00    -0.385 OA
ATOM     16  H   UNL     1       2.036   7.247  16.965  1.00  0.00     0.211 HD
ENDBRANCH   7  15
ENDBRANCH   1   2
BRANCH   1  17
ATOM     17  C   UNL     1       5.881   7.014  14.682  1.00  0.00     0.224 C 
ATOM     18  C   UNL     1       4.750   6.961  13.623  1.00  0.00     0.208 C 
ATOM     19  O   UNL     1       6.942   6.208  14.197  1.00  0.00    -0.337 OA
ATOM     20  C   UNL     1       5.492   6.643  12.346  1.00  0.00     0.180 C 
ATOM     21  C   UNL     1       6.679   5.842  12.859  1.00  0.00     0.179 C 
BRANCH  17  22
ATOM     22  C   UNL     1       6.459   8.442  14.829  1.00  0.00     0.225 C 
BRANCH  22  23
ATOM     23  O   UNL     1       7.854   8.410  14.690  1.00  0.00    -0.391 OA
ATOM     24  H   UNL     1       8.226   8.816  15.516  1.00  0.00     0.210 HD
ENDBRANCH  22  23
ENDBRANCH  17  22
BRANCH  18  25
ATOM     25  O   UNL     1       3.790   5.973  13.925  1.00  0.00    -0.385 OA
ATOM     26  H   UNL     1       3.660   5.408  13.119  1.00  0.00     0.211 HD
ENDBRANCH  18  25
BRANCH  20  27
ATOM     27  O   UNL     1       4.718   5.886  11.451  1.00  0.00    -0.387 OA
ATOM     28  H   UNL     1       3.918   5.588  11.955  1.00  0.00     0.211 HD
ENDBRANCH  20  27
BRANCH  21  29
ATOM     29  C   UNL     1       7.935   6.029  11.997  1.00  0.00     0.191 C 
BRANCH  29  30
ATOM     30  O   UNL     1       8.286   7.386  11.902  1.00  0.00    -0.394 OA
ATOM     31  H   UNL     1       8.056   7.677  10.980  1.00  0.00     0.210 HD
ENDBRANCH  29  30
ENDBRANCH  21  29
ENDBRANCH   1  17
TORSDOF 13
ENDMDL
MODEL 6
REMARK VINA RESULT:    -6.327     12.509     14.404
REMARK INTER + INTRA:         -10.583
REMARK INTER:                  -9.251
REMARK INTRA:                  -1.333
REMARK UNBOUND:                -0.927
REMARK SMILES OC[C@H]1O[C@@H](O[C@@]2(CO)O[C@H](CO)[C@@H](O)[C@H]2O)[C@H](O)[C@@H](O)[C@@H]1O
REMARK SMILES IDX 6 1 5 2 3 3 22 4 4 5 20 6 18 7 2 8 1 9 23 11 21 13 19 15
REMARK SMILES IDX 7 17 16 18 10 19 14 20 11 21 8 22 9 23 17 25 15 27 12 29
REMARK SMILES IDX 13 30
REMARK H PARENT 1 10 23 12 21 14 19 16 9 24 17 26 15 28 13 31
REMARK Flexibility Score: inf
ROOT
ATOM      1  O   UNL     1      11.344   7.525  25.839  1.00  0.00    -0.313 OA
ENDROOT
BRANCH   1   2
ATOM      2  C   UNL     1      11.282   6.663  26.979  1.00  0.00     0.285 C 
ATOM      3  C   UNL     1      10.911   4.383  27.697  1.00  0.00     0.178 C 
ATOM      4  C   UNL     1      10.888   4.961  29.150  1.00  0.00     0.177 C 
ATOM      5  O   UNL     1      11.269   5.281  26.646  1.00  0.00    -0.341 OA
ATOM      6  C   UNL     1      10.263   6.380  29.258  1.00  0.00     0.179 C 
ATOM      7  C   UNL     1      10.110   7.070  27.888  1.00  0.00     0.202 C 
BRANCH   3   8
ATOM      8  C   UNL     1       9.580   3.695  27.346  1.00  0.00     0.191 C 
BRANCH   8   9
ATOM      9  O   UNL     1       9.735   2.302  27.324  1.00  0.00    -0.394 OA
ATOM     10  H   UNL     1       9.330   1.957  28.161  1.00  0.00     0.210 HD
ENDBRANCH   8   9
ENDBRANCH   3   8
BRANCH   4  11
ATOM     11  O   UNL     1      12.176   4.937  29.717  1.00  0.00    -0.387 OA
ATOM     12  H   UNL     1      12.796   4.528  29.060  1.00  0.00     0.211 HD
ENDBRANCH   4  11
BRANCH   6  13
ATOM     13  O   UNL     1       9.025   6.342  29.927  1.00  0.00    -0.387 OA
ATOM     14  H   UNL     1       8.386   6.893  29.405  1.00  0.00     0.211 HD
ENDBRANCH   6  13
BRANCH   7  15
ATOM     15  O   UNL     1      10.106   8.464  28.055  1.00  0.00    -0.385 OA
ATOM     16  H   UNL     1       9.848   8.858  27.180  1.00  0.00     0.211 HD
ENDBRANCH   7  15
ENDBRANCH   1   2
BRANCH   1  17
ATOM     17  C   UNL     1      12.593   8.135  25.505  1.00  0.00     0.224 C 
ATOM     18  C   UNL     1      13.258   7.491  24.262  1.00  0.00     0.208 C 
ATOM     19  O   UNL     1      13.459   7.910  26.604  1.00  0.00    -0.337 OA
ATOM     20  C   UNL     1      14.726   7.498  24.618  1.00  0.00     0.180 C 
ATOM     21  C   UNL     1      14.686   7.390  26.135  1.00  0.00     0.179 C 
BRANCH  17  22
ATOM     22  C   UNL     1      12.477   9.672  25.358  1.00  0.00     0.225 C 
BRANCH  22  23
ATOM     23  O   UNL     1      11.260  10.113  25.896  1.00  0.00    -0.391 OA
ATOM     24  H   UNL     1      11.436  10.323  26.851  1.00  0.00     0.210 HD
ENDBRANCH  22  23
ENDBRANCH  17  22
BRANCH  18  25
ATOM     25  O   UNL     1      12.786   6.182  24.029  1.00  0.00    -0.385 OA
ATOM     26  H   UNL     1      12.676   5.731  24.906  1.00  0.00     0.211 HD
ENDBRANCH  18  25
BRANCH  20  27
ATOM     27  O   UNL     1      15.419   6.415  24.052  1.00  0.00    -0.387 OA
ATOM     28  H   UNL     1      16.353   6.720  23.917  1.00  0.00     0.211 HD
ENDBRANCH  20  27
BRANCH  21  29
ATOM     29  C   UNL     1      15.863   8.107  26.810  1.00  0.00     0.191 C 
BRANCH  29  30
ATOM     30  O   UNL     1      17.092   7.646  26.309  1.00  0.00    -0.394 OA
ATOM     31  H   UNL     1      17.096   6.659  26.426  1.00  0.00     0.210 HD
ENDBRANCH  29  30
ENDBRANCH  21  29
ENDBRANCH   1  17
TORSDOF 13
ENDMDL
MODEL 7
REMARK VINA RESULT:    -6.304     11.899     14.894
REMARK INTER + INTRA:         -10.549
REMARK INTER:                  -9.331
REMARK INTRA:                  -1.217
REMARK UNBOUND:                -0.927
REMARK SMILES OC[C@H]1O[C@@H](O[C@@]2(CO)O[C@H](CO)[C@@H](O)[C@H]2O)[C@H](O)[C@@H](O)[C@@H]1O
REMARK SMILES IDX 6 1 5 2 3 3 22 4 4 5 20 6 18 7 2 8 1 9 23 11 21 13 19 15
REMARK SMILES IDX 7 17 16 18 10 19 14 20 11 21 8 22 9 23 17 25 15 27 12 29
REMARK SMILES IDX 13 30
REMARK H PARENT 1 10 23 12 21 14 19 16 9 24 17 26 15 28 13 31
REMARK Flexibility Score: inf
ROOT
ATOM      1  O   UNL     1      11.949   7.173  27.489  1.00  0.00    -0.313 OA
ENDROOT
BRANCH   1   2
ATOM      2  C   UNL     1      12.229   7.288  26.091  1.00  0.00     0.285 C 
ATOM      3  C   UNL     1      13.879   6.850  24.377  1.00  0.00     0.178 C 
ATOM      4  C   UNL     1      12.968   7.704  23.437  1.00  0.00     0.177 C 
ATOM      5  O   UNL     1      13.370   6.547  25.677  1.00  0.00    -0.341 OA
ATOM      6  C   UNL     1      12.249   8.883  24.150  1.00  0.00     0.179 C 
ATOM      7  C   UNL     1      12.300   8.770  25.686  1.00  0.00     0.202 C 
BRANCH   3   8
ATOM      8  C   UNL     1      15.281   7.468  24.513  1.00  0.00     0.191 C 
BRANCH   8   9
ATOM      9  O   UNL     1      16.226   6.710  23.807  1.00  0.00    -0.394 OA
ATOM     10  H   UNL     1      16.979   6.541  24.430  1.00  0.00     0.210 HD
ENDBRANCH   8   9
ENDBRANCH   3   8
BRANCH   4  11
ATOM     11  O   UNL     1      12.041   6.887  22.763  1.00  0.00    -0.387 OA
ATOM     12  H   UNL     1      11.204   7.403  22.640  1.00  0.00     0.211 HD
ENDBRANCH   4  11
BRANCH   6  13
ATOM     13  O   UNL     1      12.768  10.123  23.733  1.00  0.00    -0.387 OA
ATOM     14  H   UNL     1      12.552  10.229  22.770  1.00  0.00     0.211 HD
ENDBRANCH   6  13
BRANCH   7  15
ATOM     15  O   UNL     1      11.218   9.465  26.251  1.00  0.00    -0.385 OA
ATOM     16  H   UNL     1      10.390   9.029  25.918  1.00  0.00     0.211 HD
ENDBRANCH   7  15
ENDBRANCH   1   2
BRANCH   1  17
ATOM     17  C   UNL     1      10.826   6.391  27.904  1.00  0.00     0.224 C 
ATOM     18  C   UNL     1       9.687   7.254  28.502  1.00  0.00     0.208 C 
ATOM     19  O   UNL     1      11.288   5.538  28.937  1.00  0.00    -0.337 OA
ATOM     20  C   UNL     1       9.169   6.399  29.635  1.00  0.00     0.180 C 
ATOM     21  C   UNL     1      10.414   5.625  30.043  1.00  0.00     0.179 C 
BRANCH  17  22
ATOM     22  C   UNL     1      10.308   5.462  26.779  1.00  0.00     0.225 C 
BRANCH  22  23
ATOM     23  O   UNL     1      10.856   4.180  26.929  1.00  0.00    -0.391 OA
ATOM     24  H   UNL     1      11.727   4.300  27.390  1.00  0.00     0.210 HD
ENDBRANCH  22  23
ENDBRANCH  17  22
BRANCH  18  25
ATOM     25  O   UNL     1      10.155   8.501  28.965  1.00  0.00    -0.385 OA
ATOM     26  H   UNL     1      10.374   9.064  28.177  1.00  0.00     0.211 HD
ENDBRANCH  18  25
BRANCH  20  27
ATOM     27  O   UNL     1       8.678   7.167  30.704  1.00  0.00    -0.387 OA
ATOM     28  H   UNL     1       9.156   8.035  30.670  1.00  0.00     0.211 HD
ENDBRANCH  20  27
BRANCH  21  29
ATOM     29  C   UNL     1      10.089   4.224  30.579  1.00  0.00     0.191 C 
BRANCH  29  30
ATOM     30  O   UNL     1       9.751   3.348  29.535  1.00  0.00    -0.394 OA
ATOM     31  H   UNL     1      10.537   2.759  29.389  1.00  0.00     0.210 HD
ENDBRANCH  29  30
ENDBRANCH  21  29
ENDBRANCH   1  17
TORSDOF 13
ENDMDL
MODEL 8
REMARK VINA RESULT:    -6.181     11.101     12.662
REMARK INTER + INTRA:         -10.360
REMARK INTER:                  -9.089
REMARK INTRA:                  -1.271
REMARK UNBOUND:                -0.927
REMARK SMILES OC[C@H]1O[C@@H](O[C@@]2(CO)O[C@H](CO)[C@@H](O)[C@H]2O)[C@H](O)[C@@H](O)[C@@H]1O
REMARK SMILES IDX 6 1 5 2 3 3 22 4 4 5 20 6 18 7 2 8 1 9 23 11 21 13 19 15
REMARK SMILES IDX 7 17 16 18 10 19 14 20 11 21 8 22 9 23 17 25 15 27 12 29
REMARK SMILES IDX 13 30
REMARK H PARENT 1 10 23 12 21 14 19 16 9 24 17 26 15 28 13 31
REMARK Flexibility Score: inf
ROOT
ATOM      1  O   UNL     1      13.297   8.103  25.577  1.00  0.00    -0.313 OA
ENDROOT
BRANCH   1   2
ATOM      2  C   UNL     1      12.358   7.193  26.159  1.00  0.00     0.285 C 
ATOM      3  C   UNL     1      10.220   7.028  27.277  1.00  0.00     0.178 C 
ATOM      4  C   UNL     1      10.597   5.533  27.539  1.00  0.00     0.177 C 
ATOM      5  O   UNL     1      11.093   7.780  26.434  1.00  0.00    -0.341 OA
ATOM      6  C   UNL     1      12.113   5.296  27.787  1.00  0.00     0.179 C 
ATOM      7  C   UNL     1      12.979   6.506  27.387  1.00  0.00     0.202 C 
BRANCH   3   8
ATOM      8  C   UNL     1      10.003   7.791  28.595  1.00  0.00     0.191 C 
BRANCH   8   9
ATOM      9  O   UNL     1      10.649   9.035  28.557  1.00  0.00    -0.394 OA
ATOM     10  H   UNL     1      10.349   9.486  27.727  1.00  0.00     0.210 HD
ENDBRANCH   8   9
ENDBRANCH   3   8
BRANCH   4  11
ATOM     11  O   UNL     1      10.125   4.710  26.500  1.00  0.00    -0.387 OA
ATOM     12  H   UNL     1       9.258   4.320  26.783  1.00  0.00     0.211 HD
ENDBRANCH   4  11
BRANCH   6  13
ATOM     13  O   UNL     1      12.360   4.939  29.127  1.00  0.00    -0.387 OA
ATOM     14  H   UNL     1      11.552   4.471  29.465  1.00  0.00     0.211 HD
ENDBRANCH   6  13
BRANCH   7  15
ATOM     15  O   UNL     1      14.281   6.080  27.081  1.00  0.00    -0.385 OA
ATOM     16  H   UNL     1      14.768   6.871  26.729  1.00  0.00     0.211 HD
ENDBRANCH   7  15
ENDBRANCH   1   2
BRANCH   1  17
ATOM     17  C   UNL     1      13.397   8.171  24.153  1.00  0.00     0.224 C 
ATOM     18  C   UNL     1      12.846   9.501  23.579  1.00  0.00     0.208 C 
ATOM     19  O   UNL     1      12.584   7.129  23.641  1.00  0.00    -0.337 OA
ATOM     20  C   UNL     1      12.163   9.066  22.304  1.00  0.00     0.180 C 
ATOM     21  C   UNL     1      11.729   7.647  22.643  1.00  0.00     0.179 C 
BRANCH  17  22
ATOM     22  C   UNL     1      14.832   7.883  23.648  1.00  0.00     0.225 C 
BRANCH  22  23
ATOM     23  O   UNL     1      15.358   6.768  24.317  1.00  0.00    -0.391 OA
ATOM     24  H   UNL     1      15.494   6.067  23.627  1.00  0.00     0.210 HD
ENDBRANCH  22  23
ENDBRANCH  17  22
BRANCH  18  25
ATOM     25  O   UNL     1      11.943  10.125  24.465  1.00  0.00    -0.385 OA
ATOM     26  H   UNL     1      11.139   9.549  24.546  1.00  0.00     0.211 HD
ENDBRANCH  18  25
BRANCH  20  27
ATOM     27  O   UNL     1      11.056   9.871  21.988  1.00  0.00    -0.387 OA
ATOM     28  H   UNL     1      10.275   9.469  22.448  1.00  0.00     0.211 HD
ENDBRANCH  20  27
BRANCH  21  29
ATOM     29  C   UNL     1      11.717   6.724  21.417  1.00  0.00     0.191 C 
BRANCH  29  30
ATOM     30  O   UNL     1      12.759   7.044  20.532  1.00  0.00    -0.394 OA
ATOM     31  H   UNL     1      12.347   7.164  19.636  1.00  0.00     0.210 HD
ENDBRANCH  29  30
ENDBRANCH  21  29
ENDBRANCH   1  17
TORSDOF 13
ENDMDL
MODEL 9
REMARK VINA RESULT:    -6.153      2.299      5.236
REMARK INTER + INTRA:         -10.317
REMARK INTER:                  -8.979
REMARK INTRA:                  -1.338
REMARK UNBOUND:                -0.927
REMARK SMILES OC[C@H]1O[C@@H](O[C@@]2(CO)O[C@H](CO)[C@@H](O)[C@H]2O)[C@H](O)[C@@H](O)[C@@H]1O
REMARK SMILES IDX 6 1 5 2 3 3 22 4 4 5 20 6 18 7 2 8 1 9 23 11 21 13 19 15
REMARK SMILES IDX 7 17 16 18 10 19 14 20 11 21 8 22 9 23 17 25 15 27 12 29
REMARK SMILES IDX 13 30
REMARK H PARENT 1 10 23 12 21 14 19 16 9 24 17 26 15 28 13 31
REMARK Flexibility Score: inf
ROOT
ATOM      1  O   UNL     1       3.434   7.374  17.856  1.00  0.00    -0.313 OA
ENDROOT
BRANCH   1   2
ATOM      2  C   UNL     1       4.182   8.048  18.874  1.00  0.00     0.285 C 
ATOM      3  C   UNL     1       5.816   7.747  20.631  1.00  0.00     0.178 C 
ATOM      4  C   UNL     1       5.482   9.218  21.041  1.00  0.00     0.177 C 
ATOM      5  O   UNL     1       5.230   7.260  19.423  1.00  0.00    -0.341 OA
ATOM      6  C   UNL     1       3.994   9.614  20.828  1.00  0.00     0.179 C 
ATOM      7  C   UNL     1       3.231   8.608  19.945  1.00  0.00     0.202 C 
BRANCH   3   8
ATOM      8  C   UNL     1       5.513   6.763  21.775  1.00  0.00     0.191 C 
BRANCH   8   9
ATOM      9  O   UNL     1       5.107   7.454  22.926  1.00  0.00    -0.394 OA
ATOM     10  H   UNL     1       4.268   7.928  22.692  1.00  0.00     0.210 HD
ENDBRANCH   8   9
ENDBRANCH   3   8
BRANCH   4  11
ATOM     11  O   UNL     1       6.339  10.125  20.390  1.00  0.00    -0.387 OA
ATOM     12  H   UNL     1       7.167   9.642  20.137  1.00  0.00     0.211 HD
ENDBRANCH   4  11
BRANCH   6  13
ATOM     13  O   UNL     1       3.332   9.785  22.059  1.00  0.00    -0.387 OA
ATOM     14  H   UNL     1       3.274   8.895  22.494  1.00  0.00     0.211 HD
ENDBRANCH   6  13
BRANCH   7  15
ATOM     15  O   UNL     1       2.146   9.248  19.323  1.00  0.00    -0.385 OA
ATOM     16  H   UNL     1       1.884   8.684  18.549  1.00  0.00     0.211 HD
ENDBRANCH   7  15
ENDBRANCH   1   2
BRANCH   1  17
ATOM     17  C   UNL     1       3.711   7.675  16.486  1.00  0.00     0.224 C 
ATOM     18  C   UNL     1       3.898   6.403  15.621  1.00  0.00     0.208 C 
ATOM     19  O   UNL     1       4.944   8.376  16.468  1.00  0.00    -0.337 OA
ATOM     20  C   UNL     1       5.012   6.792  14.678  1.00  0.00     0.180 C 
ATOM     21  C   UNL     1       5.802   7.790  15.511  1.00  0.00     0.179 C 
BRANCH  17  22
ATOM     22  C   UNL     1       2.664   8.635  15.870  1.00  0.00     0.225 C 
BRANCH  22  23
ATOM     23  O   UNL     1       1.432   8.478  16.522  1.00  0.00    -0.391 OA
ATOM     24  H   UNL     1       0.735   8.515  15.815  1.00  0.00     0.210 HD
ENDBRANCH  22  23
ENDBRANCH  17  22
BRANCH  18  25
ATOM     25  O   UNL     1       4.248   5.281  16.402  1.00  0.00    -0.385 OA
ATOM     26  H   UNL     1       4.599   5.604  17.272  1.00  0.00     0.211 HD
ENDBRANCH  18  25
BRANCH  20  27
ATOM     27  O   UNL     1       5.810   5.696  14.310  1.00  0.00    -0.387 OA
ATOM     28  H   UNL     1       5.967   5.778  13.334  1.00  0.00     0.211 HD
ENDBRANCH  20  27
BRANCH  21  29
ATOM     29  C   UNL     1       6.470   8.876  14.657  1.00  0.00     0.191 C 
BRANCH  29  30
ATOM     30  O   UNL     1       6.877   8.364  13.414  1.00  0.00    -0.394 OA
ATOM     31  H   UNL     1       7.331   7.499  13.596  1.00  0.00     0.210 HD
ENDBRANCH  29  30
ENDBRANCH  21  29
ENDBRANCH   1  17
TORSDOF 13
ENDMDL
