MODEL 1
REMARK VINA RESULT:    10.274      0.000      0.000
REMARK INTER + INTRA:          14.521
REMARK INTER:                  15.679
REMARK INTRA:                  -1.158
REMARK UNBOUND:                -1.158
REMARK SMILES CC(=O)CCC=C(C)CCC=C(C)CCC=C(C)C
REMARK SMILES IDX 10 1 11 2 12 3 13 4 14 5 15 6 16 7 18 8 17 9 19 10 9 11 7 12
REMARK SMILES IDX 6 13 8 14 5 15 4 16 2 17 3 18 1 19
REMARK H PARENT
REMARK Flexibility Score: inf
ROOT
ATOM      1  C   UNL     1      35.298  16.772  43.551  1.00  0.00     0.032 C 
ENDROOT
BRANCH   1   2
ATOM      2  C   UNL     1      33.990  17.502  43.365  1.00  0.00    -0.028 C 
ATOM      3  C   UNL     1      33.433  17.819  42.174  1.00  0.00    -0.077 C 
ATOM      4  C   UNL     1      32.158  18.623  42.178  1.00  0.00     0.039 C 
BRANCH   3   5
ATOM      5  C   UNL     1      34.002  17.375  40.837  1.00  0.00     0.034 C 
BRANCH   5   6
ATOM      6  C   UNL     1      33.720  18.398  39.728  1.00  0.00     0.032 C 
BRANCH   6   7
ATOM      7  C   UNL     1      32.845  17.811  38.646  1.00  0.00    -0.028 C 
ATOM      8  C   UNL     1      31.446  19.875  38.391  1.00  0.00     0.039 C 
ATOM      9  C   UNL     1      31.805  18.447  38.059  1.00  0.00    -0.080 C 
ATOM     10  C   UNL     1      30.989  17.694  37.041  1.00  0.00     0.039 C 
ENDBRANCH   6   7
ENDBRANCH   5   6
ENDBRANCH   3   5
ENDBRANCH   1   2
BRANCH   1  11
ATOM     11  C   UNL     1      35.087  15.367  44.134  1.00  0.00     0.034 C 
BRANCH  11  12
ATOM     12  C   UNL     1      35.624  14.287  43.217  1.00  0.00    -0.077 C 
ATOM     13  C   UNL     1      34.769  13.629  42.403  1.00  0.00    -0.028 C 
ATOM     14  C   UNL     1      37.101  13.967  43.247  1.00  0.00     0.039 C 
BRANCH  13  15
ATOM     15  C   UNL     1      35.177  12.566  41.414  1.00  0.00     0.035 C 
BRANCH  15  16
ATOM     16  C   UNL     1      34.044  12.285  40.421  1.00  0.00     0.079 C 
BRANCH  16  17
ATOM     17  C   UNL     1      33.282  11.049  40.820  1.00  0.00     0.130 C 
ATOM     18  O   UNL     1      32.516  11.095  41.770  1.00  0.00    -0.300 OA
ATOM     19  C   UNL     1      33.433   9.762  40.065  1.00  0.00     0.087 C 
ENDBRANCH  16  17
ENDBRANCH  15  16
ENDBRANCH  13  15
ENDBRANCH  11  12
ENDBRANCH   1  11
TORSDOF 9
ENDMDL
MODEL 2
REMARK VINA RESULT:    11.389      2.380      6.513
REMARK INTER + INTRA:          16.223
REMARK INTER:                  16.704
REMARK INTRA:                  -0.481
REMARK UNBOUND:                -1.158
REMARK SMILES CC(=O)CCC=C(C)CCC=C(C)CCC=C(C)C
REMARK SMILES IDX 10 1 11 2 12 3 13 4 14 5 15 6 16 7 18 8 17 9 19 10 9 11 7 12
REMARK SMILES IDX 6 13 8 14 5 15 4 16 2 17 3 18 1 19
REMARK H PARENT
REMARK Flexibility Score: inf
ROOT
ATOM      1  C   UNL     1      34.259  16.250  43.653  1.00  0.00     0.032 C 
ENDROOT
BRANCH   1   2
ATOM      2  C   UNL     1      35.576  15.513  43.639  1.00  0.00    -0.028 C 
ATOM      3  C   UNL     1      35.747  14.223  43.270  1.00  0.00    -0.077 C 
ATOM      4  C   UNL     1      37.125  13.625  43.395  1.00  0.00     0.039 C 
BRANCH   3   5
ATOM      5  C   UNL     1      34.635  13.359  42.700  1.00  0.00     0.034 C 
BRANCH   5   6
ATOM      6  C   UNL     1      34.510  13.516  41.179  1.00  0.00     0.032 C 
BRANCH   6   7
ATOM      7  C   UNL     1      34.419  12.175  40.491  1.00  0.00    -0.028 C 
ATOM      8  C   UNL     1      32.454  11.401  41.839  1.00  0.00     0.039 C 
ATOM      9  C   UNL     1      33.525  11.206  40.794  1.00  0.00    -0.080 C 
ATOM     10  C   UNL     1      33.612   9.896  40.055  1.00  0.00     0.039 C 
ENDBRANCH   6   7
ENDBRANCH   5   6
ENDBRANCH   3   5
ENDBRANCH   1   2
BRANCH   1  11
ATOM     11  C   UNL     1      34.380  17.642  43.015  1.00  0.00     0.034 C 
BRANCH  11  12
ATOM     12  C   UNL     1      33.517  17.774  41.776  1.00  0.00    -0.077 C 
ATOM     13  C   UNL     1      34.048  17.476  40.569  1.00  0.00    -0.028 C 
ATOM     14  C   UNL     1      32.089  18.247  41.924  1.00  0.00     0.039 C 
BRANCH  13  15
ATOM     15  C   UNL     1      33.289  17.523  39.266  1.00  0.00     0.035 C 
BRANCH  15  16
ATOM     16  C   UNL     1      32.931  18.968  38.900  1.00  0.00     0.079 C 
BRANCH  16  17
ATOM     17  C   UNL     1      31.731  19.004  37.991  1.00  0.00     0.130 C 
ATOM     18  O   UNL     1      31.200  20.074  37.739  1.00  0.00    -0.300 OA
ATOM     19  C   UNL     1      31.181  17.752  37.376  1.00  0.00     0.087 C 
ENDBRANCH  16  17
ENDBRANCH  15  16
ENDBRANCH  13  15
ENDBRANCH  11  12
ENDBRANCH   1  11
TORSDOF 9
ENDMDL
