MODEL 1
REMARK VINA RESULT:    -5.142      0.000      0.000
REMARK INTER + INTRA:          -7.675
REMARK INTER:                  -7.847
REMARK INTRA:                   0.172
REMARK UNBOUND:                 0.172
REMARK SMILES CC1=CCC[C@H](C)C(=O)C[C@H](C(C)C)C(=O)C1
REMARK SMILES IDX 8 1 9 2 6 3 7 4 5 5 4 6 3 7 2 8 1 9 10 11 11 12 15 13 16 14
REMARK SMILES IDX 17 15 12 17 13 18 14 19
REMARK H PARENT
REMARK Flexibility Score: 70.00
ROOT
ATOM      1  C   UNL     1      24.501 -19.960  17.419  1.00  0.00     0.136 C 
ATOM      2  O   UNL     1      25.649 -20.182  17.059  1.00  0.00    -0.299 OA
ENDROOT
BRANCH   1   3
ATOM      3  C   UNL     1      23.416 -19.753  16.376  1.00  0.00     0.053 C 
ATOM      4  C   UNL     1      23.798 -18.613  15.421  1.00  0.00     0.016 C 
BRANCH   3   5
ATOM      5  C   UNL     1      23.167 -21.064  15.597  1.00  0.00     0.015 C 
BRANCH   5   6
ATOM      6  C   UNL     1      22.355 -22.084  16.421  1.00  0.00     0.028 C 
BRANCH   6   7
ATOM      7  C   UNL     1      22.994 -23.448  16.365  1.00  0.00    -0.028 C 
ATOM      8  C   UNL     1      23.411 -24.148  17.447  1.00  0.00    -0.070 CG0
ATOM      9  C   UNL     1      24.110 -25.464  17.212  1.00  0.00     0.039 C 
ATOM     10  G   UNL     1      23.183 -23.676  18.873  1.00  0.00     0.000 G0
ENDBRANCH   6   7
ENDBRANCH   5   6
ENDBRANCH   3   5
ENDBRANCH   1   3
BRANCH   1  11
ATOM     11  C   UNL     1      24.183 -19.904  18.896  1.00  0.00     0.087 C 
BRANCH  11  12
ATOM     12  C   UNL     1      23.352 -21.106  19.445  1.00  0.00     0.066 C 
BRANCH  12  13
ATOM     13  C   UNL     1      24.018 -22.465  19.244  1.00  0.00     0.140 C 
ATOM     14  O   UNL     1      25.218 -22.596  19.433  1.00  0.00    -0.299 OA
BRANCH  13  15
ATOM     15  C   UNL     1      23.192 -23.680  18.894  1.00  0.00     0.106 CG0
ATOM     16  G   UNL     1      23.400 -24.127  17.456  1.00  0.00     0.000 G0
ENDBRANCH  13  15
ENDBRANCH  12  13
BRANCH  12  17
ATOM     17  C   UNL     1      22.814 -20.879  20.894  1.00  0.00    -0.006 C 
ATOM     18  C   UNL     1      22.935 -19.405  21.316  1.00  0.00     0.008 C 
ATOM     19  C   UNL     1      21.380 -21.382  21.131  1.00  0.00     0.008 C 
ENDBRANCH  12  17
ENDBRANCH  11  12
ENDBRANCH   1  11
TORSDOF 1
ENDMDL
MODEL 2
REMARK VINA RESULT:    -5.084      1.981      5.362
REMARK INTER + INTRA:          -7.587
REMARK INTER:                  -7.774
REMARK INTRA:                   0.187
REMARK UNBOUND:                 0.172
REMARK SMILES CC1=CCC[C@H](C)C(=O)C[C@H](C(C)C)C(=O)C1
REMARK SMILES IDX 8 1 9 2 6 3 7 4 5 5 4 6 3 7 2 8 1 9 10 11 11 12 15 13 16 14
REMARK SMILES IDX 17 15 12 17 13 18 14 19
REMARK H PARENT
REMARK Flexibility Score: 70.00
ROOT
ATOM      1  C   UNL     1      23.693 -24.213  20.496  1.00  0.00     0.136 C 
ATOM      2  O   UNL     1      24.579 -24.476  21.296  1.00  0.00    -0.299 OA
ENDROOT
BRANCH   1   3
ATOM      3  C   UNL     1      22.260 -24.075  20.983  1.00  0.00     0.053 C 
ATOM      4  C   UNL     1      21.872 -25.274  21.861  1.00  0.00     0.016 C 
BRANCH   3   5
ATOM      5  C   UNL     1      22.083 -22.748  21.753  1.00  0.00     0.015 C 
BRANCH   5   6
ATOM      6  C   UNL     1      21.775 -21.566  20.811  1.00  0.00     0.028 C 
BRANCH   6   7
ATOM      7  C   UNL     1      22.623 -20.369  21.157  1.00  0.00    -0.028 C 
ATOM      8  C   UNL     1      23.477 -19.757  20.303  1.00  0.00    -0.070 CG0
ATOM      9  C   UNL     1      24.317 -18.622  20.834  1.00  0.00     0.039 C 
ATOM     10  G   UNL     1      23.603 -20.150  18.840  1.00  0.00     0.000 G0
ENDBRANCH   6   7
ENDBRANCH   5   6
ENDBRANCH   3   5
ENDBRANCH   1   3
BRANCH   1  11
ATOM     11  C   UNL     1      24.042 -24.024  19.037  1.00  0.00     0.087 C 
BRANCH  11  12
ATOM     12  C   UNL     1      23.463 -22.733  18.376  1.00  0.00     0.066 C 
BRANCH  12  13
ATOM     13  C   UNL     1      24.297 -21.479  18.629  1.00  0.00     0.140 C 
ATOM     14  O   UNL     1      25.517 -21.535  18.603  1.00  0.00    -0.299 OA
BRANCH  13  15
ATOM     15  C   UNL     1      23.627 -20.139  18.828  1.00  0.00     0.106 CG0
ATOM     16  G   UNL     1      23.480 -19.778  20.298  1.00  0.00     0.000 G0
ENDBRANCH  13  15
ENDBRANCH  12  13
BRANCH  12  17
ATOM     17  C   UNL     1      23.061 -22.928  16.879  1.00  0.00    -0.006 C 
ATOM     18  C   UNL     1      23.180 -24.400  16.451  1.00  0.00     0.008 C 
ATOM     19  C   UNL     1      21.672 -22.379  16.513  1.00  0.00     0.008 C 
ENDBRANCH  12  17
ENDBRANCH  11  12
ENDBRANCH   1  11
TORSDOF 1
ENDMDL
MODEL 3
REMARK VINA RESULT:    -4.905      2.424      4.698
REMARK INTER + INTRA:          -7.313
REMARK INTER:                  -7.241
REMARK INTRA:                  -0.072
REMARK UNBOUND:                 0.172
REMARK SMILES CC1=CCC[C@H](C)C(=O)C[C@H](C(C)C)C(=O)C1
REMARK SMILES IDX 8 1 9 2 6 3 7 4 5 5 4 6 3 7 2 8 1 9 10 11 11 12 15 13 16 14
REMARK SMILES IDX 17 15 12 17 13 18 14 19
REMARK H PARENT
REMARK Flexibility Score: 70.00
ROOT
ATOM      1  C   UNL     1      24.481 -20.255  18.313  1.00  0.00     0.136 C 
ATOM      2  O   UNL     1      24.895 -19.725  17.293  1.00  0.00    -0.299 OA
ENDROOT
BRANCH   1   3
ATOM      3  C   UNL     1      24.935 -19.733  19.666  1.00  0.00     0.053 C 
ATOM      4  C   UNL     1      26.339 -19.121  19.563  1.00  0.00     0.016 C 
BRANCH   3   5
ATOM      5  C   UNL     1      23.922 -18.700  20.207  1.00  0.00     0.015 C 
BRANCH   5   6
ATOM      6  C   UNL     1      23.435 -19.052  21.628  1.00  0.00     0.028 C 
BRANCH   6   7
ATOM      7  C   UNL     1      21.937 -18.925  21.728  1.00  0.00    -0.028 C 
ATOM      8  C   UNL     1      21.067 -19.957  21.626  1.00  0.00    -0.070 CG0
ATOM      9  C   UNL     1      19.591 -19.647  21.664  1.00  0.00     0.039 C 
ATOM     10  G   UNL     1      21.516 -21.404  21.502  1.00  0.00     0.000 G0
ENDBRANCH   6   7
ENDBRANCH   5   6
ENDBRANCH   3   5
ENDBRANCH   1   3
BRANCH   1  11
ATOM     11  C   UNL     1      23.518 -21.417  18.209  1.00  0.00     0.087 C 
BRANCH  11  12
ATOM     12  C   UNL     1      23.168 -22.115  19.561  1.00  0.00     0.066 C 
BRANCH  12  13
ATOM     13  C   UNL     1      21.753 -21.830  20.060  1.00  0.00     0.140 C 
ATOM     14  O   UNL     1      20.795 -21.998  19.321  1.00  0.00    -0.299 OA
BRANCH  13  15
ATOM     15  C   UNL     1      21.512 -21.422  21.494  1.00  0.00     0.106 CG0
ATOM     16  G   UNL     1      21.100 -19.964  21.620  1.00  0.00     0.000 G0
ENDBRANCH  13  15
ENDBRANCH  12  13
BRANCH  12  17
ATOM     17  C   UNL     1      23.553 -23.629  19.597  1.00  0.00    -0.006 C 
ATOM     18  C   UNL     1      25.009 -23.850  19.155  1.00  0.00     0.008 C 
ATOM     19  C   UNL     1      23.296 -24.323  20.944  1.00  0.00     0.008 C 
ENDBRANCH  12  17
ENDBRANCH  11  12
ENDBRANCH   1  11
TORSDOF 1
ENDMDL
MODEL 4
REMARK VINA RESULT:    -4.837      2.233      4.260
REMARK INTER + INTRA:          -7.210
REMARK INTER:                  -6.976
REMARK INTRA:                  -0.234
REMARK UNBOUND:                 0.172
REMARK SMILES CC1=CCC[C@H](C)C(=O)C[C@H](C(C)C)C(=O)C1
REMARK SMILES IDX 8 1 9 2 6 3 7 4 5 5 4 6 3 7 2 8 1 9 10 11 11 12 15 13 16 14
REMARK SMILES IDX 17 15 12 17 13 18 14 19
REMARK H PARENT
REMARK Flexibility Score: 70.00
ROOT
ATOM      1  C   UNL     1      23.629 -23.804  19.449  1.00  0.00     0.136 C 
ATOM      2  O   UNL     1      23.498 -24.353  20.534  1.00  0.00    -0.299 OA
ENDROOT
BRANCH   1   3
ATOM      3  C   UNL     1      24.576 -24.397  18.420  1.00  0.00     0.053 C 
ATOM      4  C   UNL     1      25.838 -24.946  19.102  1.00  0.00     0.016 C 
BRANCH   3   5
ATOM      5  C   UNL     1      23.863 -25.502  17.610  1.00  0.00     0.015 C 
BRANCH   5   6
ATOM      6  C   UNL     1      23.810 -25.176  16.103  1.00  0.00     0.028 C 
BRANCH   6   7
ATOM      7  C   UNL     1      22.392 -25.217  15.595  1.00  0.00    -0.028 C 
ATOM      8  C   UNL     1      21.636 -24.125  15.331  1.00  0.00    -0.070 CG0
ATOM      9  C   UNL     1      20.204 -24.339  14.909  1.00  0.00     0.039 C 
ATOM     10  G   UNL     1      22.178 -22.707  15.417  1.00  0.00     0.000 G0
ENDBRANCH   6   7
ENDBRANCH   5   6
ENDBRANCH   3   5
ENDBRANCH   1   3
BRANCH   1  11
ATOM     11  C   UNL     1      22.839 -22.550  19.151  1.00  0.00     0.087 C 
BRANCH  11  12
ATOM     12  C   UNL     1      23.101 -21.916  17.748  1.00  0.00     0.066 C 
BRANCH  12  13
ATOM     13  C   UNL     1      21.944 -22.079  16.766  1.00  0.00     0.140 C 
ATOM     14  O   UNL     1      20.836 -21.645  17.043  1.00  0.00    -0.299 OA
BRANCH  13  15
ATOM     15  C   UNL     1      22.171 -22.701  15.408  1.00  0.00     0.106 CG0
ATOM     16  G   UNL     1      21.639 -24.123  15.326  1.00  0.00     0.000 G0
ENDBRANCH  13  15
ENDBRANCH  12  13
BRANCH  12  17
ATOM     17  C   UNL     1      23.663 -20.459  17.820  1.00  0.00    -0.006 C 
ATOM     18  C   UNL     1      24.776 -20.335  18.873  1.00  0.00     0.008 C 
ATOM     19  C   UNL     1      24.140 -19.890  16.474  1.00  0.00     0.008 C 
ENDBRANCH  12  17
ENDBRANCH  11  12
ENDBRANCH   1  11
TORSDOF 1
ENDMDL
MODEL 5
REMARK VINA RESULT:    -4.831      2.359      5.377
REMARK INTER + INTRA:          -7.201
REMARK INTER:                  -6.966
REMARK INTRA:                  -0.235
REMARK UNBOUND:                 0.172
REMARK SMILES CC1=CCC[C@H](C)C(=O)C[C@H](C(C)C)C(=O)C1
REMARK SMILES IDX 8 1 9 2 6 3 7 4 5 5 4 6 3 7 2 8 1 9 10 11 11 12 15 13 16 14
REMARK SMILES IDX 17 15 12 17 13 18 14 19
REMARK H PARENT
REMARK Flexibility Score: 70.00
ROOT
ATOM      1  C   UNL     1      23.020 -22.392  19.769  1.00  0.00     0.136 C 
ATOM      2  O   UNL     1      23.091 -23.394  20.466  1.00  0.00    -0.299 OA
ENDROOT
BRANCH   1   3
ATOM      3  C   UNL     1      22.029 -21.299  20.128  1.00  0.00     0.053 C 
ATOM      4  C   UNL     1      20.652 -21.902  20.438  1.00  0.00     0.016 C 
BRANCH   3   5
ATOM      5  C   UNL     1      22.552 -20.475  21.326  1.00  0.00     0.015 C 
BRANCH   5   6
ATOM      6  C   UNL     1      22.934 -19.037  20.920  1.00  0.00     0.028 C 
BRANCH   6   7
ATOM      7  C   UNL     1      24.352 -18.725  21.322  1.00  0.00    -0.028 C 
ATOM      8  C   UNL     1      25.388 -18.595  20.459  1.00  0.00    -0.070 CG0
ATOM      9  C   UNL     1      26.764 -18.366  21.033  1.00  0.00     0.039 C 
ATOM     10  G   UNL     1      25.214 -18.645  18.950  1.00  0.00     0.000 G0
ENDBRANCH   6   7
ENDBRANCH   5   6
ENDBRANCH   3   5
ENDBRANCH   1   3
BRANCH   1  11
ATOM     11  C   UNL     1      23.928 -22.258  18.567  1.00  0.00     0.087 C 
BRANCH  11  12
ATOM     12  C   UNL     1      24.036 -20.818  17.972  1.00  0.00     0.066 C 
BRANCH  12  13
ATOM     13  C   UNL     1      25.296 -20.066  18.392  1.00  0.00     0.140 C 
ATOM     14  O   UNL     1      26.398 -20.566  18.221  1.00  0.00    -0.299 OA
BRANCH  13  15
ATOM     15  C   UNL     1      25.205 -18.662  18.943  1.00  0.00     0.106 CG0
ATOM     16  G   UNL     1      25.387 -18.620  20.452  1.00  0.00     0.000 G0
ENDBRANCH  13  15
ENDBRANCH  12  13
BRANCH  12  17
ATOM     17  C   UNL     1      23.751 -20.757  16.437  1.00  0.00    -0.006 C 
ATOM     18  C   UNL     1      22.815 -21.893  15.992  1.00  0.00     0.008 C 
ATOM     19  C   UNL     1      23.217 -19.404  15.939  1.00  0.00     0.008 C 
ENDBRANCH  12  17
ENDBRANCH  11  12
ENDBRANCH   1  11
TORSDOF 1
ENDMDL
MODEL 6
REMARK VINA RESULT:    -4.809      2.610      4.653
REMARK INTER + INTRA:          -7.168
REMARK INTER:                  -7.044
REMARK INTRA:                  -0.124
REMARK UNBOUND:                 0.172
REMARK SMILES CC1=CCC[C@H](C)C(=O)C[C@H](C(C)C)C(=O)C1
REMARK SMILES IDX 8 1 9 2 6 3 7 4 5 5 4 6 3 7 2 8 1 9 10 11 11 12 15 13 16 14
REMARK SMILES IDX 17 15 12 17 13 18 14 19
REMARK H PARENT
REMARK Flexibility Score: 70.00
ROOT
ATOM      1  C   UNL     1      26.267 -24.478  18.783  1.00  0.00     0.136 C 
ATOM      2  O   UNL     1      26.891 -25.345  18.188  1.00  0.00    -0.299 OA
ENDROOT
BRANCH   1   3
ATOM      3  C   UNL     1      27.021 -23.394  19.534  1.00  0.00     0.053 C 
ATOM      4  C   UNL     1      28.281 -23.973  20.193  1.00  0.00     0.016 C 
BRANCH   3   5
ATOM      5  C   UNL     1      27.381 -22.234  18.580  1.00  0.00     0.015 C 
BRANCH   5   6
ATOM      6  C   UNL     1      26.911 -20.869  19.121  1.00  0.00     0.028 C 
BRANCH   6   7
ATOM      7  C   UNL     1      26.121 -20.122  18.078  1.00  0.00    -0.028 C 
ATOM      8  C   UNL     1      24.769 -20.110  17.997  1.00  0.00    -0.070 CG0
ATOM      9  C   UNL     1      24.135 -19.381  16.838  1.00  0.00     0.039 C 
ATOM     10  G   UNL     1      23.875 -20.775  19.031  1.00  0.00     0.000 G0
ENDBRANCH   6   7
ENDBRANCH   5   6
ENDBRANCH   3   5
ENDBRANCH   1   3
BRANCH   1  11
ATOM     11  C   UNL     1      24.755 -24.498  18.753  1.00  0.00     0.087 C 
BRANCH  11  12
ATOM     12  C   UNL     1      24.058 -23.357  19.559  1.00  0.00     0.066 C 
BRANCH  12  13
ATOM     13  C   UNL     1      23.526 -22.219  18.692  1.00  0.00     0.140 C 
ATOM     14  O   UNL     1      22.776 -22.456  17.756  1.00  0.00    -0.299 OA
BRANCH  13  15
ATOM     15  C   UNL     1      23.848 -20.782  19.028  1.00  0.00     0.106 CG0
ATOM     16  G   UNL     1      24.745 -20.131  17.988  1.00  0.00     0.000 G0
ENDBRANCH  13  15
ENDBRANCH  12  13
BRANCH  12  17
ATOM     17  C   UNL     1      23.027 -23.880  20.610  1.00  0.00    -0.006 C 
ATOM     18  C   UNL     1      23.725 -24.609  21.770  1.00  0.00     0.008 C 
ATOM     19  C   UNL     1      22.070 -22.807  21.157  1.00  0.00     0.008 C 
ENDBRANCH  12  17
ENDBRANCH  11  12
ENDBRANCH   1  11
TORSDOF 1
ENDMDL
MODEL 7
REMARK VINA RESULT:    -4.651      2.204      3.833
REMARK INTER + INTRA:          -6.926
REMARK INTER:                  -6.916
REMARK INTRA:                  -0.011
REMARK UNBOUND:                 0.172
REMARK SMILES CC1=CCC[C@H](C)C(=O)C[C@H](C(C)C)C(=O)C1
REMARK SMILES IDX 8 1 9 2 6 3 7 4 5 5 4 6 3 7 2 8 1 9 10 11 11 12 15 13 16 14
REMARK SMILES IDX 17 15 12 17 13 18 14 19
REMARK H PARENT
REMARK Flexibility Score: 70.00
ROOT
ATOM      1  C   UNL     1      26.483 -20.032  19.317  1.00  0.00     0.136 C 
ATOM      2  O   UNL     1      27.024 -19.363  20.184  1.00  0.00    -0.299 OA
ENDROOT
BRANCH   1   3
ATOM      3  C   UNL     1      27.227 -21.206  18.702  1.00  0.00     0.053 C 
ATOM      4  C   UNL     1      28.687 -20.827  18.416  1.00  0.00     0.016 C 
BRANCH   3   5
ATOM      5  C   UNL     1      27.150 -22.435  19.634  1.00  0.00     0.015 C 
BRANCH   5   6
ATOM      6  C   UNL     1      26.434 -23.627  18.966  1.00  0.00     0.028 C 
BRANCH   6   7
ATOM      7  C   UNL     1      25.386 -24.205  19.882  1.00  0.00    -0.028 C 
ATOM      8  C   UNL     1      24.056 -23.981  19.768  1.00  0.00    -0.070 CG0
ATOM      9  C   UNL     1      23.147 -24.567  20.820  1.00  0.00     0.039 C 
ATOM     10  G   UNL     1      23.447 -23.193  18.620  1.00  0.00     0.000 G0
ENDBRANCH   6   7
ENDBRANCH   5   6
ENDBRANCH   3   5
ENDBRANCH   1   3
BRANCH   1  11
ATOM     11  C   UNL     1      25.079 -19.683  18.876  1.00  0.00     0.087 C 
BRANCH  11  12
ATOM     12  C   UNL     1      24.350 -20.783  18.041  1.00  0.00     0.066 C 
BRANCH  12  13
ATOM     13  C   UNL     1      23.443 -21.692  18.868  1.00  0.00     0.140 C 
ATOM     14  O   UNL     1      22.673 -21.213  19.687  1.00  0.00    -0.299 OA
BRANCH  13  15
ATOM     15  C   UNL     1      23.423 -23.183  18.625  1.00  0.00     0.106 CG0
ATOM     16  G   UNL     1      24.052 -23.964  19.768  1.00  0.00     0.000 G0
ENDBRANCH  13  15
ENDBRANCH  12  13
BRANCH  12  17
ATOM     17  C   UNL     1      23.673 -20.232  16.745  1.00  0.00    -0.006 C 
ATOM     18  C   UNL     1      24.693 -19.534  15.830  1.00  0.00     0.008 C 
ATOM     19  C   UNL     1      22.872 -21.275  15.948  1.00  0.00     0.008 C 
ENDBRANCH  12  17
ENDBRANCH  11  12
ENDBRANCH   1  11
TORSDOF 1
ENDMDL
MODEL 8
REMARK VINA RESULT:    -4.607      1.548      2.962
REMARK INTER + INTRA:          -6.859
REMARK INTER:                  -7.066
REMARK INTRA:                   0.207
REMARK UNBOUND:                 0.172
REMARK SMILES CC1=CCC[C@H](C)C(=O)C[C@H](C(C)C)C(=O)C1
REMARK SMILES IDX 8 1 9 2 6 3 7 4 5 5 4 6 3 7 2 8 1 9 10 11 11 12 15 13 16 14
REMARK SMILES IDX 17 15 12 17 13 18 14 19
REMARK H PARENT
REMARK Flexibility Score: 70.00
ROOT
ATOM      1  C   UNL     1      25.468 -21.195  18.909  1.00  0.00     0.136 C 
ATOM      2  O   UNL     1      26.658 -20.973  18.736  1.00  0.00    -0.299 OA
ENDROOT
BRANCH   1   3
ATOM      3  C   UNL     1      24.461 -20.075  18.712  1.00  0.00     0.053 C 
ATOM      4  C   UNL     1      24.674 -18.970  19.757  1.00  0.00     0.016 C 
BRANCH   3   5
ATOM      5  C   UNL     1      24.567 -19.506  17.280  1.00  0.00     0.015 C 
BRANCH   5   6
ATOM      6  C   UNL     1      23.959 -20.459  16.230  1.00  0.00     0.028 C 
BRANCH   6   7
ATOM      7  C   UNL     1      22.533 -20.799  16.578  1.00  0.00    -0.028 C 
ATOM      8  C   UNL     1      22.023 -22.054  16.602  1.00  0.00    -0.070 CG0
ATOM      9  C   UNL     1      20.551 -22.215  16.887  1.00  0.00     0.039 C 
ATOM     10  G   UNL     1      22.874 -23.294  16.379  1.00  0.00     0.000 G0
ENDBRANCH   6   7
ENDBRANCH   5   6
ENDBRANCH   3   5
ENDBRANCH   1   3
BRANCH   1  11
ATOM     11  C   UNL     1      25.022 -22.583  19.310  1.00  0.00     0.087 C 
BRANCH  11  12
ATOM     12  C   UNL     1      23.566 -22.961  18.891  1.00  0.00     0.066 C 
BRANCH  12  13
ATOM     13  C   UNL     1      23.487 -23.840  17.645  1.00  0.00     0.140 C 
ATOM     14  O   UNL     1      23.864 -25.002  17.686  1.00  0.00    -0.299 OA
BRANCH  13  15
ATOM     15  C   UNL     1      22.865 -23.315  16.373  1.00  0.00     0.106 CG0
ATOM     16  G   UNL     1      22.040 -22.060  16.607  1.00  0.00     0.000 G0
ENDBRANCH  13  15
ENDBRANCH  12  13
BRANCH  12  17
ATOM     17  C   UNL     1      22.691 -23.476  20.078  1.00  0.00    -0.006 C 
ATOM     18  C   UNL     1      23.500 -24.380  21.023  1.00  0.00     0.008 C 
ATOM     19  C   UNL     1      21.983 -22.371  20.879  1.00  0.00     0.008 C 
ENDBRANCH  12  17
ENDBRANCH  11  12
ENDBRANCH   1  11
TORSDOF 1
ENDMDL
MODEL 9
REMARK VINA RESULT:    -4.578      2.435      4.218
REMARK INTER + INTRA:          -6.814
REMARK INTER:                  -7.015
REMARK INTRA:                   0.201
REMARK UNBOUND:                 0.172
REMARK SMILES CC1=CCC[C@H](C)C(=O)C[C@H](C(C)C)C(=O)C1
REMARK SMILES IDX 8 1 9 2 6 3 7 4 5 5 4 6 3 7 2 8 1 9 10 11 11 12 15 13 16 14
REMARK SMILES IDX 17 15 12 17 13 18 14 19
REMARK H PARENT
REMARK Flexibility Score: 70.00
ROOT
ATOM      1  C   UNL     1      21.750 -21.427  20.798  1.00  0.00     0.136 C 
ATOM      2  O   UNL     1      20.662 -21.865  20.455  1.00  0.00    -0.299 OA
ENDROOT
BRANCH   1   3
ATOM      3  C   UNL     1      21.997 -19.928  20.769  1.00  0.00     0.053 C 
ATOM      4  C   UNL     1      21.340 -19.250  21.979  1.00  0.00     0.016 C 
BRANCH   3   5
ATOM      5  C   UNL     1      23.514 -19.637  20.731  1.00  0.00     0.015 C 
BRANCH   5   6
ATOM      6  C   UNL     1      24.086 -19.721  19.301  1.00  0.00     0.028 C 
BRANCH   6   7
ATOM      7  C   UNL     1      25.316 -20.591  19.266  1.00  0.00    -0.028 C 
ATOM      8  C   UNL     1      25.320 -21.907  18.948  1.00  0.00    -0.070 CG0
ATOM      9  C   UNL     1      26.626 -22.656  19.044  1.00  0.00     0.039 C 
ATOM     10  G   UNL     1      24.077 -22.646  18.478  1.00  0.00     0.000 G0
ENDBRANCH   6   7
ENDBRANCH   5   6
ENDBRANCH   3   5
ENDBRANCH   1   3
BRANCH   1  11
ATOM     11  C   UNL     1      22.828 -22.386  21.251  1.00  0.00     0.087 C 
BRANCH  11  12
ATOM     12  C   UNL     1      22.829 -23.773  20.535  1.00  0.00     0.066 C 
BRANCH  12  13
ATOM     13  C   UNL     1      23.795 -23.864  19.357  1.00  0.00     0.140 C 
ATOM     14  O   UNL     1      24.301 -24.935  19.057  1.00  0.00    -0.299 OA
BRANCH  13  15
ATOM     15  C   UNL     1      24.071 -22.655  18.495  1.00  0.00     0.106 CG0
ATOM     16  G   UNL     1      25.308 -21.894  18.944  1.00  0.00     0.000 G0
ENDBRANCH  13  15
ENDBRANCH  12  13
BRANCH  12  17
ATOM     17  C   UNL     1      22.927 -24.981  21.522  1.00  0.00    -0.006 C 
ATOM     18  C   UNL     1      23.783 -24.636  22.752  1.00  0.00     0.008 C 
ATOM     19  C   UNL     1      21.572 -25.558  21.964  1.00  0.00     0.008 C 
ENDBRANCH  12  17
ENDBRANCH  11  12
ENDBRANCH   1  11
TORSDOF 1
ENDMDL
