MODEL 1
REMARK VINA RESULT:    -6.421      0.000      0.000
REMARK INTER + INTRA:          -8.586
REMARK INTER:                  -8.110
REMARK INTRA:                  -0.476
REMARK UNBOUND:                -0.476
REMARK SMILES O=C(C=Cc1ccc(O)cc1)c1ccc(O)cc1O
REMARK SMILES IDX 4 1 3 2 5 3 6 4 7 5 8 6 11 7 10 8 9 9 2 11 1 12 12 13 18 14
REMARK SMILES IDX 13 15 17 16 14 17 15 18 19 19 16 21
REMARK H PARENT 9 10 19 20 16 22
REMARK Flexibility Score: inf
ROOT
ATOM      1  C   UNL     1      30.303 -92.795  37.164  1.00  0.00     0.012 C 
ATOM      2  C   UNL     1      30.896 -93.600  38.056  1.00  0.00     0.053 C 
ENDROOT
BRANCH   1   3
ATOM      3  C   UNL     1      30.541 -91.332  37.091  1.00  0.00    -0.025 A 
ATOM      4  C   UNL     1      31.582 -90.770  36.325  1.00  0.00     0.012 A 
ATOM      5  C   UNL     1      31.774 -89.386  36.299  1.00  0.00     0.047 A 
ATOM      6  C   UNL     1      30.938 -88.544  37.043  1.00  0.00     0.115 A 
ATOM      7  C   UNL     1      29.718 -90.478  37.847  1.00  0.00     0.012 A 
ATOM      8  C   UNL     1      29.913 -89.093  37.816  1.00  0.00     0.047 A 
BRANCH   6   9
ATOM      9  O   UNL     1      31.121 -87.163  37.022  1.00  0.00    -0.508 OA
ATOM     10  H   UNL     1      30.857 -86.581  37.808  1.00  0.00     0.293 HD
ENDBRANCH   6   9
ENDBRANCH   1   3
BRANCH   2  11
ATOM     11  C   UNL     1      30.646 -95.057  38.089  1.00  0.00     0.189 C 
ATOM     12  O   UNL     1      31.616 -95.861  38.159  1.00  0.00    -0.289 OA
BRANCH  11  13
ATOM     13  C   UNL     1      29.266 -95.596  38.092  1.00  0.00     0.064 A 
ATOM     14  C   UNL     1      28.644 -96.042  39.279  1.00  0.00     0.130 A 
ATOM     15  C   UNL     1      28.546 -95.641  36.885  1.00  0.00     0.020 A 
ATOM     16  C   UNL     1      27.339 -96.559  39.233  1.00  0.00     0.093 A 
ATOM     17  C   UNL     1      27.245 -96.151  36.850  1.00  0.00     0.047 A 
ATOM     18  C   UNL     1      26.641 -96.614  38.021  1.00  0.00     0.119 A 
BRANCH  14  19
ATOM     19  O   UNL     1      29.303 -95.950  40.505  1.00  0.00    -0.507 OA
ATOM     20  H   UNL     1      29.494 -95.057  40.943  1.00  0.00     0.293 HD
ENDBRANCH  14  19
BRANCH  18  21
ATOM     21  O   UNL     1      25.346 -97.124  37.970  1.00  0.00    -0.508 OA
ATOM     22  H   UNL     1      24.552 -96.534  37.751  1.00  0.00     0.293 HD
ENDBRANCH  18  21
ENDBRANCH  11  13
ENDBRANCH   2  11
TORSDOF 6
ENDMDL
MODEL 2
REMARK VINA RESULT:    -6.386      1.129      1.699
REMARK INTER + INTRA:          -8.541
REMARK INTER:                  -7.996
REMARK INTRA:                  -0.546
REMARK UNBOUND:                -0.476
REMARK SMILES O=C(C=Cc1ccc(O)cc1)c1ccc(O)cc1O
REMARK SMILES IDX 4 1 3 2 5 3 6 4 7 5 8 6 11 7 10 8 9 9 2 11 1 12 12 13 18 14
REMARK SMILES IDX 13 15 17 16 14 17 15 18 19 19 16 21
REMARK H PARENT 9 10 19 20 16 22
REMARK Flexibility Score: inf
ROOT
ATOM      1  C   UNL     1      30.230 -92.980  37.372  1.00  0.00     0.012 C 
ATOM      2  C   UNL     1      30.999 -93.818  38.083  1.00  0.00     0.053 C 
ENDROOT
BRANCH   1   3
ATOM      3  C   UNL     1      30.498 -91.526  37.246  1.00  0.00    -0.025 A 
ATOM      4  C   UNL     1      31.503 -91.011  36.402  1.00  0.00     0.012 A 
ATOM      5  C   UNL     1      31.726 -89.633  36.327  1.00  0.00     0.047 A 
ATOM      6  C   UNL     1      30.958 -88.751  37.098  1.00  0.00     0.115 A 
ATOM      7  C   UNL     1      29.745 -90.633  38.027  1.00  0.00     0.012 A 
ATOM      8  C   UNL     1      29.970 -89.255  37.948  1.00  0.00     0.047 A 
BRANCH   6   9
ATOM      9  O   UNL     1      31.172 -87.376  37.029  1.00  0.00    -0.508 OA
ATOM     10  H   UNL     1      31.612 -86.949  36.223  1.00  0.00     0.293 HD
ENDBRANCH   6   9
ENDBRANCH   1   3
BRANCH   2  11
ATOM     11  C   UNL     1      30.709 -95.265  38.173  1.00  0.00     0.189 C 
ATOM     12  O   UNL     1      31.598 -96.106  37.863  1.00  0.00    -0.289 OA
BRANCH  11  13
ATOM     13  C   UNL     1      29.403 -95.754  38.674  1.00  0.00     0.064 A 
ATOM     14  C   UNL     1      28.316 -95.997  37.805  1.00  0.00     0.130 A 
ATOM     15  C   UNL     1      29.249 -96.009  40.048  1.00  0.00     0.020 A 
ATOM     16  C   UNL     1      27.092 -96.446  38.326  1.00  0.00     0.093 A 
ATOM     17  C   UNL     1      28.029 -96.462  40.556  1.00  0.00     0.047 A 
ATOM     18  C   UNL     1      26.948 -96.677  39.699  1.00  0.00     0.119 A 
BRANCH  14  19
ATOM     19  O   UNL     1      28.453 -95.820  36.428  1.00  0.00    -0.507 OA
ATOM     20  H   UNL     1      29.212 -95.277  36.033  1.00  0.00     0.293 HD
ENDBRANCH  14  19
BRANCH  18  21
ATOM     21  O   UNL     1      25.736 -97.125  40.220  1.00  0.00    -0.508 OA
ATOM     22  H   UNL     1      25.403 -98.068  40.055  1.00  0.00     0.293 HD
ENDBRANCH  18  21
ENDBRANCH  11  13
ENDBRANCH   2  11
TORSDOF 6
ENDMDL
MODEL 3
REMARK VINA RESULT:    -5.558     15.952     17.065
REMARK INTER + INTRA:          -7.495
REMARK INTER:                  -7.064
REMARK INTRA:                  -0.431
REMARK UNBOUND:                -0.476
REMARK SMILES O=C(C=Cc1ccc(O)cc1)c1ccc(O)cc1O
REMARK SMILES IDX 4 1 3 2 5 3 6 4 7 5 8 6 11 7 10 8 9 9 2 11 1 12 12 13 18 14
REMARK SMILES IDX 13 15 17 16 14 17 15 18 19 19 16 21
REMARK H PARENT 9 10 19 20 16 22
REMARK Flexibility Score: inf
ROOT
ATOM      1  C   UNL     1      35.459 -77.167  38.228  1.00  0.00     0.012 C 
ATOM      2  C   UNL     1      36.209 -78.207  38.618  1.00  0.00     0.053 C 
ENDROOT
BRANCH   1   3
ATOM      3  C   UNL     1      34.163 -77.308  37.520  1.00  0.00    -0.025 A 
ATOM      4  C   UNL     1      32.943 -76.880  38.079  1.00  0.00     0.012 A 
ATOM      5  C   UNL     1      31.745 -77.047  37.377  1.00  0.00     0.047 A 
ATOM      6  C   UNL     1      31.747 -77.651  36.113  1.00  0.00     0.115 A 
ATOM      7  C   UNL     1      34.150 -77.929  36.258  1.00  0.00     0.012 A 
ATOM      8  C   UNL     1      32.951 -78.092  35.558  1.00  0.00     0.047 A 
BRANCH   6   9
ATOM      9  O   UNL     1      30.559 -77.821  35.406  1.00  0.00    -0.508 OA
ATOM     10  H   UNL     1      30.119 -78.729  35.318  1.00  0.00     0.293 HD
ENDBRANCH   6   9
ENDBRANCH   1   3
BRANCH   2  11
ATOM     11  C   UNL     1      37.490 -78.028  39.337  1.00  0.00     0.189 C 
ATOM     12  O   UNL     1      37.844 -76.877  39.714  1.00  0.00    -0.289 OA
BRANCH  11  13
ATOM     13  C   UNL     1      38.348 -79.188  39.672  1.00  0.00     0.064 A 
ATOM     14  C   UNL     1      39.325 -79.675  38.775  1.00  0.00     0.130 A 
ATOM     15  C   UNL     1      38.204 -79.805  40.928  1.00  0.00     0.020 A 
ATOM     16  C   UNL     1      40.106 -80.787  39.129  1.00  0.00     0.093 A 
ATOM     17  C   UNL     1      38.991 -80.907  41.273  1.00  0.00     0.047 A 
ATOM     18  C   UNL     1      39.939 -81.403  40.375  1.00  0.00     0.119 A 
BRANCH  14  19
ATOM     19  O   UNL     1      39.541 -79.047  37.549  1.00  0.00    -0.507 OA
ATOM     20  H   UNL     1      39.783 -78.065  37.488  1.00  0.00     0.293 HD
ENDBRANCH  14  19
BRANCH  18  21
ATOM     21  O   UNL     1      40.713 -82.505  40.732  1.00  0.00    -0.508 OA
ATOM     22  H   UNL     1      41.222 -83.042  40.040  1.00  0.00     0.293 HD
ENDBRANCH  18  21
ENDBRANCH  11  13
ENDBRANCH   2  11
TORSDOF 6
ENDMDL
MODEL 4
REMARK VINA RESULT:    -5.491      1.372      2.138
REMARK INTER + INTRA:          -7.411
REMARK INTER:                  -6.722
REMARK INTRA:                  -0.689
REMARK UNBOUND:                -0.476
REMARK SMILES O=C(C=Cc1ccc(O)cc1)c1ccc(O)cc1O
REMARK SMILES IDX 4 1 3 2 5 3 6 4 7 5 8 6 11 7 10 8 9 9 2 11 1 12 12 13 18 14
REMARK SMILES IDX 13 15 17 16 14 17 15 18 19 19 16 21
REMARK H PARENT 9 10 19 20 16 22
REMARK Flexibility Score: inf
ROOT
ATOM      1  C   UNL     1      30.718 -92.481  36.824  1.00  0.00     0.012 C 
ATOM      2  C   UNL     1      30.594 -93.308  37.871  1.00  0.00     0.053 C 
ENDROOT
BRANCH   1   3
ATOM      3  C   UNL     1      30.819 -91.006  36.949  1.00  0.00    -0.025 A 
ATOM      4  C   UNL     1      29.997 -90.261  37.818  1.00  0.00     0.012 A 
ATOM      5  C   UNL     1      30.122 -88.870  37.892  1.00  0.00     0.047 A 
ATOM      6  C   UNL     1      31.060 -88.203  37.094  1.00  0.00     0.115 A 
ATOM      7  C   UNL     1      31.746 -90.324  36.142  1.00  0.00     0.012 A 
ATOM      8  C   UNL     1      31.869 -88.933  36.219  1.00  0.00     0.047 A 
BRANCH   6   9
ATOM      9  O   UNL     1      31.192 -86.818  37.161  1.00  0.00    -0.508 OA
ATOM     10  H   UNL     1      30.711 -86.274  37.868  1.00  0.00     0.293 HD
ENDBRANCH   6   9
ENDBRANCH   1   3
BRANCH   2  11
ATOM     11  C   UNL     1      30.511 -94.776  37.708  1.00  0.00     0.189 C 
ATOM     12  O   UNL     1      31.448 -95.510  38.129  1.00  0.00    -0.289 OA
BRANCH  11  13
ATOM     13  C   UNL     1      29.318 -95.413  37.104  1.00  0.00     0.064 A 
ATOM     14  C   UNL     1      29.425 -96.522  36.236  1.00  0.00     0.130 A 
ATOM     15  C   UNL     1      28.042 -94.916  37.424  1.00  0.00     0.020 A 
ATOM     16  C   UNL     1      28.268 -97.085  35.674  1.00  0.00     0.093 A 
ATOM     17  C   UNL     1      26.895 -95.487  36.864  1.00  0.00     0.047 A 
ATOM     18  C   UNL     1      27.005 -96.568  35.987  1.00  0.00     0.119 A 
BRANCH  14  19
ATOM     19  O   UNL     1      30.670 -97.083  35.949  1.00  0.00    -0.507 OA
ATOM     20  H   UNL     1      31.040 -97.861  36.482  1.00  0.00     0.293 HD
ENDBRANCH  14  19
BRANCH  18  21
ATOM     21  O   UNL     1      25.853 -97.123  35.434  1.00  0.00    -0.508 OA
ATOM     22  H   UNL     1      25.526 -96.859  34.512  1.00  0.00     0.293 HD
ENDBRANCH  18  21
ENDBRANCH  11  13
ENDBRANCH   2  11
TORSDOF 6
ENDMDL
MODEL 5
REMARK VINA RESULT:    -5.447     16.016     17.034
REMARK INTER + INTRA:          -7.356
REMARK INTER:                  -6.756
REMARK INTRA:                  -0.600
REMARK UNBOUND:                -0.476
REMARK SMILES O=C(C=Cc1ccc(O)cc1)c1ccc(O)cc1O
REMARK SMILES IDX 4 1 3 2 5 3 6 4 7 5 8 6 11 7 10 8 9 9 2 11 1 12 12 13 18 14
REMARK SMILES IDX 13 15 17 16 14 17 15 18 19 19 16 21
REMARK H PARENT 9 10 19 20 16 22
REMARK Flexibility Score: inf
ROOT
ATOM      1  C   UNL     1      37.082 -78.560  39.067  1.00  0.00     0.012 C 
ATOM      2  C   UNL     1      36.191 -78.817  38.098  1.00  0.00     0.053 C 
ENDROOT
BRANCH   1   3
ATOM      3  C   UNL     1      38.146 -79.509  39.477  1.00  0.00    -0.025 A 
ATOM      4  C   UNL     1      38.220 -80.050  40.776  1.00  0.00     0.012 A 
ATOM      5  C   UNL     1      39.250 -80.932  41.118  1.00  0.00     0.047 A 
ATOM      6  C   UNL     1      40.225 -81.277  40.174  1.00  0.00     0.115 A 
ATOM      7  C   UNL     1      39.140 -79.851  38.543  1.00  0.00     0.012 A 
ATOM      8  C   UNL     1      40.167 -80.734  38.888  1.00  0.00     0.047 A 
BRANCH   6   9
ATOM      9  O   UNL     1      41.254 -82.156  40.506  1.00  0.00    -0.508 OA
ATOM     10  H   UNL     1      41.071 -83.126  40.731  1.00  0.00     0.293 HD
ENDBRANCH   6   9
ENDBRANCH   1   3
BRANCH   2  11
ATOM     11  C   UNL     1      35.153 -77.840  37.705  1.00  0.00     0.189 C 
ATOM     12  O   UNL     1      34.729 -77.000  38.546  1.00  0.00    -0.289 OA
BRANCH  11  13
ATOM     13  C   UNL     1      34.633 -77.793  36.318  1.00  0.00     0.064 A 
ATOM     14  C   UNL     1      33.290 -78.111  36.016  1.00  0.00     0.130 A 
ATOM     15  C   UNL     1      35.492 -77.394  35.279  1.00  0.00     0.020 A 
ATOM     16  C   UNL     1      32.845 -78.066  34.685  1.00  0.00     0.093 A 
ATOM     17  C   UNL     1      35.037 -77.347  33.959  1.00  0.00     0.047 A 
ATOM     18  C   UNL     1      33.716 -77.686  33.658  1.00  0.00     0.119 A 
BRANCH  14  19
ATOM     19  O   UNL     1      32.393 -78.445  37.030  1.00  0.00    -0.507 OA
ATOM     20  H   UNL     1      32.125 -79.405  37.211  1.00  0.00     0.293 HD
ENDBRANCH  14  19
BRANCH  18  21
ATOM     21  O   UNL     1      33.279 -77.638  32.336  1.00  0.00    -0.508 OA
ATOM     22  H   UNL     1      33.242 -76.767  31.821  1.00  0.00     0.293 HD
ENDBRANCH  18  21
ENDBRANCH  11  13
ENDBRANCH   2  11
TORSDOF 6
ENDMDL
MODEL 6
REMARK VINA RESULT:    -5.188     13.592     15.359
REMARK INTER + INTRA:          -7.029
REMARK INTER:                  -6.498
REMARK INTRA:                  -0.531
REMARK UNBOUND:                -0.476
REMARK SMILES O=C(C=Cc1ccc(O)cc1)c1ccc(O)cc1O
REMARK SMILES IDX 4 1 3 2 5 3 6 4 7 5 8 6 11 7 10 8 9 9 2 11 1 12 12 13 18 14
REMARK SMILES IDX 13 15 17 16 14 17 15 18 19 19 16 21
REMARK H PARENT 9 10 19 20 16 22
REMARK Flexibility Score: inf
ROOT
ATOM      1  C   UNL     1      30.352 -77.322  39.321  1.00  0.00     0.012 C 
ATOM      2  C   UNL     1      29.567 -78.284  39.827  1.00  0.00     0.053 C 
ENDROOT
BRANCH   1   3
ATOM      3  C   UNL     1      31.405 -77.571  38.305  1.00  0.00    -0.025 A 
ATOM      4  C   UNL     1      32.631 -76.875  38.298  1.00  0.00     0.012 A 
ATOM      5  C   UNL     1      33.587 -77.137  37.312  1.00  0.00     0.047 A 
ATOM      6  C   UNL     1      33.331 -78.087  36.315  1.00  0.00     0.115 A 
ATOM      7  C   UNL     1      31.153 -78.511  37.291  1.00  0.00     0.012 A 
ATOM      8  C   UNL     1      32.112 -78.771  36.307  1.00  0.00     0.047 A 
BRANCH   6   9
ATOM      9  O   UNL     1      34.278 -78.355  35.330  1.00  0.00    -0.508 OA
ATOM     10  H   UNL     1      35.225 -78.002  35.396  1.00  0.00     0.293 HD
ENDBRANCH   6   9
ENDBRANCH   1   3
BRANCH   2  11
ATOM     11  C   UNL     1      28.516 -77.996  40.827  1.00  0.00     0.189 C 
ATOM     12  O   UNL     1      28.585 -76.949  41.529  1.00  0.00    -0.289 OA
BRANCH  11  13
ATOM     13  C   UNL     1      27.346 -78.892  40.987  1.00  0.00     0.064 A 
ATOM     14  C   UNL     1      26.120 -78.428  41.514  1.00  0.00     0.130 A 
ATOM     15  C   UNL     1      27.452 -80.233  40.578  1.00  0.00     0.020 A 
ATOM     16  C   UNL     1      25.043 -79.317  41.662  1.00  0.00     0.093 A 
ATOM     17  C   UNL     1      26.371 -81.108  40.723  1.00  0.00     0.047 A 
ATOM     18  C   UNL     1      25.168 -80.654  41.268  1.00  0.00     0.119 A 
BRANCH  14  19
ATOM     19  O   UNL     1      25.959 -77.089  41.867  1.00  0.00    -0.507 OA
ATOM     20  H   UNL     1      26.295 -76.337  41.277  1.00  0.00     0.293 HD
ENDBRANCH  14  19
BRANCH  18  21
ATOM     21  O   UNL     1      24.102 -81.539  41.410  1.00  0.00    -0.508 OA
ATOM     22  H   UNL     1      23.482 -81.499  42.210  1.00  0.00     0.293 HD
ENDBRANCH  18  21
ENDBRANCH  11  13
ENDBRANCH   2  11
TORSDOF 6
ENDMDL
MODEL 7
REMARK VINA RESULT:    -5.161     16.040     17.310
REMARK INTER + INTRA:          -6.995
REMARK INTER:                  -6.394
REMARK INTRA:                  -0.601
REMARK UNBOUND:                -0.476
REMARK SMILES O=C(C=Cc1ccc(O)cc1)c1ccc(O)cc1O
REMARK SMILES IDX 4 1 3 2 5 3 6 4 7 5 8 6 11 7 10 8 9 9 2 11 1 12 12 13 18 14
REMARK SMILES IDX 13 15 17 16 14 17 15 18 19 19 16 21
REMARK H PARENT 9 10 19 20 16 22
REMARK Flexibility Score: inf
ROOT
ATOM      1  C   UNL     1      36.379 -78.893  37.490  1.00  0.00     0.012 C 
ATOM      2  C   UNL     1      36.560 -78.579  38.781  1.00  0.00     0.053 C 
ENDROOT
BRANCH   1   3
ATOM      3  C   UNL     1      35.267 -78.362  36.664  1.00  0.00    -0.025 A 
ATOM      4  C   UNL     1      33.945 -78.264  37.144  1.00  0.00     0.012 A 
ATOM      5  C   UNL     1      32.929 -77.768  36.322  1.00  0.00     0.047 A 
ATOM      6  C   UNL     1      33.213 -77.372  35.009  1.00  0.00     0.115 A 
ATOM      7  C   UNL     1      35.537 -77.976  35.339  1.00  0.00     0.012 A 
ATOM      8  C   UNL     1      34.518 -77.479  34.521  1.00  0.00     0.047 A 
BRANCH   6   9
ATOM      9  O   UNL     1      32.207 -76.875  34.184  1.00  0.00    -0.508 OA
ATOM     10  H   UNL     1      31.228 -77.036  34.386  1.00  0.00     0.293 HD
ENDBRANCH   6   9
ENDBRANCH   1   3
BRANCH   2  11
ATOM     11  C   UNL     1      37.691 -79.117  39.569  1.00  0.00     0.189 C 
ATOM     12  O   UNL     1      37.523 -79.422  40.782  1.00  0.00    -0.289 OA
BRANCH  11  13
ATOM     13  C   UNL     1      39.014 -79.355  38.946  1.00  0.00     0.064 A 
ATOM     14  C   UNL     1      39.685 -80.591  39.073  1.00  0.00     0.130 A 
ATOM     15  C   UNL     1      39.604 -78.331  38.184  1.00  0.00     0.020 A 
ATOM     16  C   UNL     1      40.944 -80.767  38.477  1.00  0.00     0.093 A 
ATOM     17  C   UNL     1      40.855 -78.519  37.589  1.00  0.00     0.047 A 
ATOM     18  C   UNL     1      41.529 -79.732  37.737  1.00  0.00     0.119 A 
BRANCH  14  19
ATOM     19  O   UNL     1      39.099 -81.651  39.765  1.00  0.00    -0.507 OA
ATOM     20  H   UNL     1      39.465 -82.594  39.707  1.00  0.00     0.293 HD
ENDBRANCH  14  19
BRANCH  18  21
ATOM     21  O   UNL     1      42.777 -79.903  37.141  1.00  0.00    -0.508 OA
ATOM     22  H   UNL     1      43.343 -79.111  36.862  1.00  0.00     0.293 HD
ENDBRANCH  18  21
ENDBRANCH  11  13
ENDBRANCH   2  11
TORSDOF 6
ENDMDL
MODEL 8
REMARK VINA RESULT:    -5.089     16.399     18.717
REMARK INTER + INTRA:          -6.904
REMARK INTER:                  -6.420
REMARK INTRA:                  -0.484
REMARK UNBOUND:                -0.476
REMARK SMILES O=C(C=Cc1ccc(O)cc1)c1ccc(O)cc1O
REMARK SMILES IDX 4 1 3 2 5 3 6 4 7 5 8 6 11 7 10 8 9 9 2 11 1 12 12 13 18 14
REMARK SMILES IDX 13 15 17 16 14 17 15 18 19 19 16 21
REMARK H PARENT 9 10 19 20 16 22
REMARK Flexibility Score: inf
ROOT
ATOM      1  C   UNL     1      40.768 -77.625  34.599  1.00  0.00     0.012 C 
ATOM      2  C   UNL     1      40.089 -77.625  35.755  1.00  0.00     0.053 C 
ENDROOT
BRANCH   1   3
ATOM      3  C   UNL     1      40.129 -77.446  33.272  1.00  0.00    -0.025 A 
ATOM      4  C   UNL     1      40.875 -77.335  32.081  1.00  0.00     0.012 A 
ATOM      5  C   UNL     1      40.227 -77.155  30.855  1.00  0.00     0.047 A 
ATOM      6  C   UNL     1      38.830 -77.072  30.800  1.00  0.00     0.115 A 
ATOM      7  C   UNL     1      38.729 -77.346  33.207  1.00  0.00     0.012 A 
ATOM      8  C   UNL     1      38.085 -77.167  31.978  1.00  0.00     0.047 A 
BRANCH   6   9
ATOM      9  O   UNL     1      38.176 -76.894  29.583  1.00  0.00    -0.508 OA
ATOM     10  H   UNL     1      37.520 -76.136  29.441  1.00  0.00     0.293 HD
ENDBRANCH   6   9
ENDBRANCH   1   3
BRANCH   2  11
ATOM     11  C   UNL     1      40.762 -77.791  37.062  1.00  0.00     0.189 C 
ATOM     12  O   UNL     1      41.685 -77.000  37.400  1.00  0.00    -0.289 OA
BRANCH  11  13
ATOM     13  C   UNL     1      40.336 -78.844  38.013  1.00  0.00     0.064 A 
ATOM     14  C   UNL     1      40.755 -80.186  37.875  1.00  0.00     0.130 A 
ATOM     15  C   UNL     1      39.513 -78.493  39.098  1.00  0.00     0.020 A 
ATOM     16  C   UNL     1      40.314 -81.154  38.792  1.00  0.00     0.093 A 
ATOM     17  C   UNL     1      39.085 -79.463  40.009  1.00  0.00     0.047 A 
ATOM     18  C   UNL     1      39.480 -80.793  39.857  1.00  0.00     0.119 A 
BRANCH  14  19
ATOM     19  O   UNL     1      41.625 -80.557  36.850  1.00  0.00    -0.507 OA
ATOM     20  H   UNL     1      42.354 -79.937  36.518  1.00  0.00     0.293 HD
ENDBRANCH  14  19
BRANCH  18  21
ATOM     21  O   UNL     1      39.042 -81.749  40.771  1.00  0.00    -0.508 OA
ATOM     22  H   UNL     1      39.260 -81.678  41.758  1.00  0.00     0.293 HD
ENDBRANCH  18  21
ENDBRANCH  11  13
ENDBRANCH   2  11
TORSDOF 6
ENDMDL
MODEL 9
REMARK VINA RESULT:    -4.981     17.286     19.360
REMARK INTER + INTRA:          -6.766
REMARK INTER:                  -6.164
REMARK INTRA:                  -0.603
REMARK UNBOUND:                -0.476
REMARK SMILES O=C(C=Cc1ccc(O)cc1)c1ccc(O)cc1O
REMARK SMILES IDX 4 1 3 2 5 3 6 4 7 5 8 6 11 7 10 8 9 9 2 11 1 12 12 13 18 14
REMARK SMILES IDX 13 15 17 16 14 17 15 18 19 19 16 21
REMARK H PARENT 9 10 19 20 16 22
REMARK Flexibility Score: inf
ROOT
ATOM      1  C   UNL     1      40.831 -78.008  36.811  1.00  0.00     0.012 C 
ATOM      2  C   UNL     1      40.089 -77.993  35.695  1.00  0.00     0.053 C 
ENDROOT
BRANCH   1   3
ATOM      3  C   UNL     1      40.377 -78.604  38.092  1.00  0.00    -0.025 A 
ATOM      4  C   UNL     1      40.769 -79.892  38.509  1.00  0.00     0.012 A 
ATOM      5  C   UNL     1      40.304 -80.415  39.720  1.00  0.00     0.047 A 
ATOM      6  C   UNL     1      39.436 -79.667  40.525  1.00  0.00     0.115 A 
ATOM      7  C   UNL     1      39.493 -77.869  38.900  1.00  0.00     0.012 A 
ATOM      8  C   UNL     1      39.031 -78.395  40.111  1.00  0.00     0.047 A 
BRANCH   6   9
ATOM      9  O   UNL     1      38.968 -80.180  41.733  1.00  0.00    -0.508 OA
ATOM     10  H   UNL     1      38.399 -79.624  42.359  1.00  0.00     0.293 HD
ENDBRANCH   6   9
ENDBRANCH   1   3
BRANCH   2  11
ATOM     11  C   UNL     1      40.581 -77.403  34.431  1.00  0.00     0.189 C 
ATOM     12  O   UNL     1      41.726 -76.875  34.387  1.00  0.00    -0.289 OA
BRANCH  11  13
ATOM     13  C   UNL     1      39.771 -77.465  33.192  1.00  0.00     0.064 A 
ATOM     14  C   UNL     1      40.313 -77.921  31.970  1.00  0.00     0.130 A 
ATOM     15  C   UNL     1      38.418 -77.085  33.240  1.00  0.00     0.020 A 
ATOM     16  C   UNL     1      39.512 -77.949  30.817  1.00  0.00     0.093 A 
ATOM     17  C   UNL     1      37.627 -77.123  32.088  1.00  0.00     0.047 A 
ATOM     18  C   UNL     1      38.172 -77.550  30.875  1.00  0.00     0.119 A 
BRANCH  14  19
ATOM     19  O   UNL     1      41.632 -78.369  31.901  1.00  0.00    -0.507 OA
ATOM     20  H   UNL     1      41.923 -79.070  31.229  1.00  0.00     0.293 HD
ENDBRANCH  14  19
BRANCH  18  21
ATOM     21  O   UNL     1      37.372 -77.578  29.735  1.00  0.00    -0.508 OA
ATOM     22  H   UNL     1      37.763 -77.755  28.817  1.00  0.00     0.293 HD
ENDBRANCH  18  21
ENDBRANCH  11  13
ENDBRANCH   2  11
TORSDOF 6
ENDMDL
