MODEL 1
REMARK VINA RESULT:    -2.782      0.000      0.000
REMARK INTER + INTRA:          -2.782
REMARK INTER:                  -2.782
REMARK INTRA:                   0.000
REMARK UNBOUND:                 0.000
REMARK SMILES CC(=O)[O-]
REMARK SMILES IDX 1 1 2 2 3 3 4 4
REMARK H PARENT
REMARK Flexibility Score: inf
ROOT
ATOM      1  C   UNL     1      12.728  97.280   0.505  1.00  0.00     0.063 C 
ATOM      2  C   UNL     1      12.281  97.035  -0.897  1.00  0.00     0.038 C 
ATOM      3  O   UNL     1      12.856  97.615  -1.854  1.00  0.00    -0.550 OA
ATOM      4  O   UNL     1      11.193  96.209  -1.145  1.00  0.00    -0.550 OA
ENDROOT
TORSDOF 0
ENDMDL
MODEL 2
REMARK VINA RESULT:    -2.675      1.595      1.883
REMARK INTER + INTRA:          -2.675
REMARK INTER:                  -2.675
REMARK INTRA:                   0.000
REMARK UNBOUND:                 0.000
REMARK SMILES CC(=O)[O-]
REMARK SMILES IDX 1 1 2 2 3 3 4 4
REMARK H PARENT
REMARK Flexibility Score: inf
ROOT
ATOM      1  C   UNL     1      12.014  96.303  -1.465  1.00  0.00     0.063 C 
ATOM      2  C   UNL     1      12.483  97.434  -0.613  1.00  0.00     0.038 C 
ATOM      3  O   UNL     1      12.653  98.576  -1.115  1.00  0.00    -0.550 OA
ATOM      4  O   UNL     1      12.786  97.218   0.725  1.00  0.00    -0.550 OA
ENDROOT
TORSDOF 0
ENDMDL
MODEL 3
REMARK VINA RESULT:    -2.501     11.144     11.287
REMARK INTER + INTRA:          -2.501
REMARK INTER:                  -2.501
REMARK INTRA:                   0.000
REMARK UNBOUND:                 0.000
REMARK SMILES CC(=O)[O-]
REMARK SMILES IDX 1 1 2 2 3 3 4 4
REMARK H PARENT
REMARK Flexibility Score: inf
ROOT
ATOM      1  C   UNL     1      17.460  95.308   8.673  1.00  0.00     0.063 C 
ATOM      2  C   UNL     1      17.027  96.648   9.166  1.00  0.00     0.038 C 
ATOM      3  O   UNL     1      15.916  96.781   9.741  1.00  0.00    -0.550 OA
ATOM      4  O   UNL     1      17.825  97.762   8.942  1.00  0.00    -0.550 OA
ENDROOT
TORSDOF 0
ENDMDL
MODEL 4
REMARK VINA RESULT:    -2.498     10.884     10.965
REMARK INTER + INTRA:          -2.498
REMARK INTER:                  -2.498
REMARK INTRA:                   0.000
REMARK UNBOUND:                 0.000
REMARK SMILES CC(=O)[O-]
REMARK SMILES IDX 1 1 2 2 3 3 4 4
REMARK H PARENT
REMARK Flexibility Score: inf
ROOT
ATOM      1  C   UNL     1      16.271  96.590   9.429  1.00  0.00     0.063 C 
ATOM      2  C   UNL     1      17.399  95.920   8.718  1.00  0.00     0.038 C 
ATOM      3  O   UNL     1      18.231  96.604   8.067  1.00  0.00    -0.550 OA
ATOM      4  O   UNL     1      17.501  94.535   8.726  1.00  0.00    -0.550 OA
ENDROOT
TORSDOF 0
ENDMDL
MODEL 5
REMARK VINA RESULT:    -2.497      9.888     10.308
REMARK INTER + INTRA:          -2.497
REMARK INTER:                  -2.497
REMARK INTRA:                   0.000
REMARK UNBOUND:                 0.000
REMARK SMILES CC(=O)[O-]
REMARK SMILES IDX 1 1 2 2 3 3 4 4
REMARK H PARENT
REMARK Flexibility Score: inf
ROOT
ATOM      1  C   UNL     1       8.221  97.344 -10.125  1.00  0.00     0.063 C 
ATOM      2  C   UNL     1       6.998  97.918  -9.492  1.00  0.00     0.038 C 
ATOM      3  O   UNL     1       7.069  98.466  -8.361  1.00  0.00    -0.550 OA
ATOM      4  O   UNL     1       5.768  97.799 -10.124  1.00  0.00    -0.550 OA
ENDROOT
TORSDOF 0
ENDMDL
MODEL 6
REMARK VINA RESULT:    -2.469     11.134     11.178
REMARK INTER + INTRA:          -2.469
REMARK INTER:                  -2.469
REMARK INTRA:                   0.000
REMARK UNBOUND:                 0.000
REMARK SMILES CC(=O)[O-]
REMARK SMILES IDX 1 1 2 2 3 3 4 4
REMARK H PARENT
REMARK Flexibility Score: inf
ROOT
ATOM      1  C   UNL     1      17.978  97.674   8.800  1.00  0.00     0.063 C 
ATOM      2  C   UNL     1      17.147  96.469   9.091  1.00  0.00     0.038 C 
ATOM      3  O   UNL     1      17.544  95.328   8.739  1.00  0.00    -0.550 OA
ATOM      4  O   UNL     1      15.909  96.611   9.702  1.00  0.00    -0.550 OA
ENDROOT
TORSDOF 0
ENDMDL
MODEL 7
REMARK VINA RESULT:    -2.366      9.814     10.247
REMARK INTER + INTRA:          -2.366
REMARK INTER:                  -2.366
REMARK INTRA:                   0.000
REMARK UNBOUND:                 0.000
REMARK SMILES CC(=O)[O-]
REMARK SMILES IDX 1 1 2 2 3 3 4 4
REMARK H PARENT
REMARK Flexibility Score: inf
ROOT
ATOM      1  C   UNL     1       6.011  97.760 -10.017  1.00  0.00     0.063 C 
ATOM      2  C   UNL     1       7.399  98.024  -9.537  1.00  0.00     0.038 C 
ATOM      3  O   UNL     1       7.603  98.875  -8.632  1.00  0.00    -0.550 OA
ATOM      4  O   UNL     1       8.474  97.372 -10.125  1.00  0.00    -0.550 OA
ENDROOT
TORSDOF 0
ENDMDL
MODEL 8
REMARK VINA RESULT:    -2.359      9.866     10.294
REMARK INTER + INTRA:          -2.359
REMARK INTER:                  -2.359
REMARK INTRA:                   0.000
REMARK UNBOUND:                 0.000
REMARK SMILES CC(=O)[O-]
REMARK SMILES IDX 1 1 2 2 3 3 4 4
REMARK H PARENT
REMARK Flexibility Score: inf
ROOT
ATOM      1  C   UNL     1       5.963  97.817 -10.122  1.00  0.00     0.063 C 
ATOM      2  C   UNL     1       7.359  97.948  -9.611  1.00  0.00     0.038 C 
ATOM      3  O   UNL     1       8.262  97.183 -10.039  1.00  0.00    -0.550 OA
ATOM      4  O   UNL     1       7.653  98.876  -8.622  1.00  0.00    -0.550 OA
ENDROOT
TORSDOF 0
ENDMDL
