MODEL 1
REMARK VINA RESULT:    -3.744      0.000      0.000
REMARK INTER + INTRA:          -4.435
REMARK INTER:                  -4.291
REMARK INTRA:                  -0.144
REMARK UNBOUND:                -0.144
REMARK SMILES CC=Cc1ccc(O)c(OC)c1
REMARK SMILES IDX 4 1 12 2 9 3 7 4 6 5 5 6 3 7 1 8 2 9 10 10 11 11 8 12
REMARK H PARENT 8 13
REMARK Flexibility Score: inf
ROOT
ATOM      1  C   UNL     1     150.976 151.586 145.675  1.00  0.00    -0.022 A 
ATOM      2  C   UNL     1     151.138 150.186 145.682  1.00  0.00     0.058 A 
ATOM      3  C   UNL     1     150.020 149.333 145.561  1.00  0.00     0.161 A 
ATOM      4  C   UNL     1     148.740 149.890 145.443  1.00  0.00     0.157 A 
ATOM      5  C   UNL     1     148.574 151.280 145.453  1.00  0.00     0.051 A 
ATOM      6  C   UNL     1     149.682 152.120 145.573  1.00  0.00     0.012 A 
ENDROOT
BRANCH   1   7
ATOM      7  C   UNL     1     152.120 152.521 145.809  1.00  0.00     0.003 C 
ATOM      8  C   UNL     1     154.485 153.136 146.125  1.00  0.00     0.035 C 
ATOM      9  C   UNL     1     153.383 152.131 146.016  1.00  0.00    -0.030 C 
ENDBRANCH   1   7
BRANCH   3  10
ATOM     10  O   UNL     1     150.143 147.935 145.557  1.00  0.00    -0.493 OA
ATOM     11  C   UNL     1     151.327 147.226 145.908  1.00  0.00     0.278 C 
ENDBRANCH   3  10
BRANCH   4  12
ATOM     12  O   UNL     1     147.632 149.052 145.319  1.00  0.00    -0.504 OA
ATOM     13  H   UNL     1     146.801 149.185 145.882  1.00  0.00     0.293 HD
ENDBRANCH   4  12
TORSDOF 3
ENDMDL
MODEL 2
REMARK VINA RESULT:    -3.504      2.903      4.046
REMARK INTER + INTRA:          -4.160
REMARK INTER:                  -4.015
REMARK INTRA:                  -0.145
REMARK UNBOUND:                -0.144
REMARK SMILES CC=Cc1ccc(O)c(OC)c1
REMARK SMILES IDX 4 1 12 2 9 3 7 4 6 5 5 6 3 7 1 8 2 9 10 10 11 11 8 12
REMARK H PARENT 8 13
REMARK Flexibility Score: inf
ROOT
ATOM      1  C   UNL     1     150.995 150.158 145.321  1.00  0.00    -0.022 A 
ATOM      2  C   UNL     1     151.013 150.326 143.921  1.00  0.00     0.058 A 
ATOM      3  C   UNL     1     150.508 151.503 143.331  1.00  0.00     0.161 A 
ATOM      4  C   UNL     1     149.975 152.508 144.150  1.00  0.00     0.157 A 
ATOM      5  C   UNL     1     149.940 152.338 145.539  1.00  0.00     0.051 A 
ATOM      6  C   UNL     1     150.442 151.171 146.119  1.00  0.00     0.012 A 
ENDROOT
BRANCH   1   7
ATOM      7  C   UNL     1     151.507 148.935 145.984  1.00  0.00     0.003 C 
ATOM      8  C   UNL     1     152.774 146.826 146.125  1.00  0.00     0.035 C 
ATOM      9  C   UNL     1     152.286 148.028 145.382  1.00  0.00    -0.030 C 
ENDBRANCH   1   7
BRANCH   3  10
ATOM     10  O   UNL     1     150.514 151.707 141.943  1.00  0.00    -0.493 OA
ATOM     11  C   UNL     1     150.613 150.669 140.973  1.00  0.00     0.278 C 
ENDBRANCH   3  10
BRANCH   4  12
ATOM     12  O   UNL     1     149.477 153.676 143.572  1.00  0.00    -0.504 OA
ATOM     13  H   UNL     1     148.628 154.113 143.909  1.00  0.00     0.293 HD
ENDBRANCH   4  12
TORSDOF 3
ENDMDL
MODEL 3
REMARK VINA RESULT:    -3.416      8.789      9.660
REMARK INTER + INTRA:          -4.060
REMARK INTER:                  -3.881
REMARK INTRA:                  -0.179
REMARK UNBOUND:                -0.144
REMARK SMILES CC=Cc1ccc(O)c(OC)c1
REMARK SMILES IDX 4 1 12 2 9 3 7 4 6 5 5 6 3 7 1 8 2 9 10 10 11 11 8 12
REMARK H PARENT 8 13
REMARK Flexibility Score: inf
ROOT
ATOM      1  C   UNL     1     154.249 145.063 138.491  1.00  0.00    -0.022 A 
ATOM      2  C   UNL     1     154.339 143.669 138.678  1.00  0.00     0.058 A 
ATOM      3  C   UNL     1     153.257 142.944 139.219  1.00  0.00     0.161 A 
ATOM      4  C   UNL     1     152.086 143.625 139.581  1.00  0.00     0.157 A 
ATOM      5  C   UNL     1     151.998 145.012 139.412  1.00  0.00     0.051 A 
ATOM      6  C   UNL     1     153.072 145.725 138.876  1.00  0.00     0.012 A 
ENDROOT
BRANCH   1   7
ATOM      7  C   UNL     1     155.363 145.868 137.935  1.00  0.00     0.003 C 
ATOM      8  C   UNL     1     157.186 147.526 138.013  1.00  0.00     0.035 C 
ATOM      9  C   UNL     1     156.064 146.763 138.642  1.00  0.00    -0.030 C 
ENDBRANCH   1   7
BRANCH   3  10
ATOM     10  O   UNL     1     153.309 141.556 139.414  1.00  0.00    -0.493 OA
ATOM     11  C   UNL     1     153.944 140.917 140.517  1.00  0.00     0.278 C 
ENDBRANCH   3  10
BRANCH   4  12
ATOM     12  O   UNL     1     151.012 142.913 140.112  1.00  0.00    -0.504 OA
ATOM     13  H   UNL     1     150.156 143.376 140.395  1.00  0.00     0.293 HD
ENDBRANCH   4  12
TORSDOF 3
ENDMDL
MODEL 4
REMARK VINA RESULT:    -3.407      9.052     10.294
REMARK INTER + INTRA:          -4.049
REMARK INTER:                  -3.881
REMARK INTRA:                  -0.168
REMARK UNBOUND:                -0.144
REMARK SMILES CC=Cc1ccc(O)c(OC)c1
REMARK SMILES IDX 4 1 12 2 9 3 7 4 6 5 5 6 3 7 1 8 2 9 10 10 11 11 8 12
REMARK H PARENT 8 13
REMARK Flexibility Score: inf
ROOT
ATOM      1  C   UNL     1     145.176 147.060 138.643  1.00  0.00    -0.022 A 
ATOM      2  C   UNL     1     143.785 146.902 138.809  1.00  0.00     0.058 A 
ATOM      3  C   UNL     1     142.989 147.973 139.267  1.00  0.00     0.161 A 
ATOM      4  C   UNL     1     143.595 149.200 139.567  1.00  0.00     0.157 A 
ATOM      5  C   UNL     1     144.978 149.356 139.420  1.00  0.00     0.051 A 
ATOM      6  C   UNL     1     145.762 148.293 138.966  1.00  0.00     0.012 A 
ENDROOT
BRANCH   1   7
ATOM      7  C   UNL     1     146.053 145.960 138.174  1.00  0.00     0.003 C 
ATOM      8  C   UNL     1     147.439 143.938 138.426  1.00  0.00     0.035 C 
ATOM      9  C   UNL     1     146.574 145.025 138.978  1.00  0.00    -0.030 C 
ENDBRANCH   1   7
BRANCH   3  10
ATOM     10  O   UNL     1     141.601 147.854 139.439  1.00  0.00    -0.493 OA
ATOM     11  C   UNL     1     140.974 147.291 140.586  1.00  0.00     0.278 C 
ENDBRANCH   3  10
BRANCH   4  12
ATOM     12  O   UNL     1     142.813 150.263 140.016  1.00  0.00    -0.504 OA
ATOM     13  H   UNL     1     141.823 150.152 140.201  1.00  0.00     0.293 HD
ENDBRANCH   4  12
TORSDOF 3
ENDMDL
MODEL 5
REMARK VINA RESULT:    -3.406      9.142     10.381
REMARK INTER + INTRA:          -4.049
REMARK INTER:                  -3.890
REMARK INTRA:                  -0.159
REMARK UNBOUND:                -0.144
REMARK SMILES CC=Cc1ccc(O)c(OC)c1
REMARK SMILES IDX 4 1 12 2 9 3 7 4 6 5 5 6 3 7 1 8 2 9 10 10 11 11 8 12
REMARK H PARENT 8 13
REMARK Flexibility Score: inf
ROOT
ATOM      1  C   UNL     1     156.100 154.188 138.662  1.00  0.00    -0.022 A 
ATOM      2  C   UNL     1     157.486 154.386 138.825  1.00  0.00     0.058 A 
ATOM      3  C   UNL     1     158.313 153.337 139.278  1.00  0.00     0.161 A 
ATOM      4  C   UNL     1     157.744 152.091 139.576  1.00  0.00     0.157 A 
ATOM      5  C   UNL     1     156.365 151.896 139.431  1.00  0.00     0.051 A 
ATOM      6  C   UNL     1     155.550 152.938 138.983  1.00  0.00     0.012 A 
ENDROOT
BRANCH   1   7
ATOM      7  C   UNL     1     155.190 155.264 138.199  1.00  0.00     0.003 C 
ATOM      8  C   UNL     1     153.821 157.299 138.441  1.00  0.00     0.035 C 
ATOM      9  C   UNL     1     154.725 156.240 138.988  1.00  0.00    -0.030 C 
ENDBRANCH   1   7
BRANCH   3  10
ATOM     10  O   UNL     1     159.698 153.494 139.446  1.00  0.00    -0.493 OA
ATOM     11  C   UNL     1     160.316 154.013 140.619  1.00  0.00     0.278 C 
ENDBRANCH   3  10
BRANCH   4  12
ATOM     12  O   UNL     1     158.557 151.050 140.020  1.00  0.00    -0.504 OA
ATOM     13  H   UNL     1     159.503 150.933 139.677  1.00  0.00     0.293 HD
ENDBRANCH   4  12
TORSDOF 3
ENDMDL
MODEL 6
REMARK VINA RESULT:    -3.396      9.309     11.085
REMARK INTER + INTRA:          -4.036
REMARK INTER:                  -3.878
REMARK INTRA:                  -0.158
REMARK UNBOUND:                -0.144
REMARK SMILES CC=Cc1ccc(O)c(OC)c1
REMARK SMILES IDX 4 1 12 2 9 3 7 4 6 5 5 6 3 7 1 8 2 9 10 10 11 11 8 12
REMARK H PARENT 8 13
REMARK Flexibility Score: inf
ROOT
ATOM      1  C   UNL     1     147.050 156.103 138.575  1.00  0.00    -0.022 A 
ATOM      2  C   UNL     1     146.872 157.494 138.726  1.00  0.00     0.058 A 
ATOM      3  C   UNL     1     147.923 158.306 139.199  1.00  0.00     0.161 A 
ATOM      4  C   UNL     1     149.151 157.718 139.530  1.00  0.00     0.157 A 
ATOM      5  C   UNL     1     149.327 156.336 139.398  1.00  0.00     0.051 A 
ATOM      6  C   UNL     1     148.284 155.535 138.929  1.00  0.00     0.012 A 
ENDROOT
BRANCH   1   7
ATOM      7  C   UNL     1     145.972 155.208 138.090  1.00  0.00     0.003 C 
ATOM      8  C   UNL     1     143.998 153.750 138.321  1.00  0.00     0.035 C 
ATOM      9  C   UNL     1     145.066 154.630 138.889  1.00  0.00    -0.030 C 
ENDBRANCH   1   7
BRANCH   3  10
ATOM     10  O   UNL     1     147.784 159.694 139.356  1.00  0.00    -0.493 OA
ATOM     11  C   UNL     1     147.269 160.328 140.522  1.00  0.00     0.278 C 
ENDBRANCH   3  10
BRANCH   4  12
ATOM     12  O   UNL     1     150.195 158.517 139.995  1.00  0.00    -0.504 OA
ATOM     13  H   UNL     1     150.150 158.977 140.897  1.00  0.00     0.293 HD
ENDBRANCH   4  12
TORSDOF 3
ENDMDL
MODEL 7
REMARK VINA RESULT:    -3.319      9.153     10.200
REMARK INTER + INTRA:          -3.949
REMARK INTER:                  -3.786
REMARK INTRA:                  -0.162
REMARK UNBOUND:                -0.144
REMARK SMILES CC=Cc1ccc(O)c(OC)c1
REMARK SMILES IDX 4 1 12 2 9 3 7 4 6 5 5 6 3 7 1 8 2 9 10 10 11 11 8 12
REMARK H PARENT 8 13
REMARK Flexibility Score: inf
ROOT
ATOM      1  C   UNL     1     157.145 153.899 139.173  1.00  0.00    -0.022 A 
ATOM      2  C   UNL     1     156.610 152.601 139.305  1.00  0.00     0.058 A 
ATOM      3  C   UNL     1     157.460 151.483 139.437  1.00  0.00     0.161 A 
ATOM      4  C   UNL     1     158.849 151.670 139.427  1.00  0.00     0.157 A 
ATOM      5  C   UNL     1     159.384 152.955 139.280  1.00  0.00     0.051 A 
ATOM      6  C   UNL     1     158.539 154.059 139.149  1.00  0.00     0.012 A 
ENDROOT
BRANCH   1   7
ATOM      7  C   UNL     1     156.292 155.102 139.022  1.00  0.00     0.003 C 
ATOM      8  C   UNL     1     154.291 156.355 138.312  1.00  0.00     0.035 C 
ATOM      9  C   UNL     1     155.101 155.101 138.411  1.00  0.00    -0.030 C 
ENDBRANCH   1   7
BRANCH   3  10
ATOM     10  O   UNL     1     156.963 150.178 139.577  1.00  0.00    -0.493 OA
ATOM     11  C   UNL     1     156.532 149.357 138.496  1.00  0.00     0.278 C 
ENDBRANCH   3  10
BRANCH   4  12
ATOM     12  O   UNL     1     159.693 150.569 139.562  1.00  0.00    -0.504 OA
ATOM     13  H   UNL     1     159.799 149.887 138.820  1.00  0.00     0.293 HD
ENDBRANCH   4  12
TORSDOF 3
ENDMDL
MODEL 8
REMARK VINA RESULT:    -3.285      9.230     10.298
REMARK INTER + INTRA:          -3.909
REMARK INTER:                  -3.749
REMARK INTRA:                  -0.160
REMARK UNBOUND:                -0.144
REMARK SMILES CC=Cc1ccc(O)c(OC)c1
REMARK SMILES IDX 4 1 12 2 9 3 7 4 6 5 5 6 3 7 1 8 2 9 10 10 11 11 8 12
REMARK H PARENT 8 13
REMARK Flexibility Score: inf
ROOT
ATOM      1  C   UNL     1     144.322 147.300 139.140  1.00  0.00    -0.022 A 
ATOM      2  C   UNL     1     144.837 148.605 139.282  1.00  0.00     0.058 A 
ATOM      3  C   UNL     1     143.971 149.706 139.448  1.00  0.00     0.161 A 
ATOM      4  C   UNL     1     142.585 149.495 139.462  1.00  0.00     0.157 A 
ATOM      5  C   UNL     1     142.070 148.203 139.305  1.00  0.00     0.051 A 
ATOM      6  C   UNL     1     142.931 147.116 139.140  1.00  0.00     0.012 A 
ENDROOT
BRANCH   1   7
ATOM      7  C   UNL     1     145.193 146.115 138.954  1.00  0.00     0.003 C 
ATOM      8  C   UNL     1     147.151 144.885 138.098  1.00  0.00     0.035 C 
ATOM      9  C   UNL     1     146.316 146.120 138.225  1.00  0.00    -0.030 C 
ENDBRANCH   1   7
BRANCH   3  10
ATOM     10  O   UNL     1     144.447 151.018 139.597  1.00  0.00    -0.493 OA
ATOM     11  C   UNL     1     144.822 151.869 138.520  1.00  0.00     0.278 C 
ENDBRANCH   3  10
BRANCH   4  12
ATOM     12  O   UNL     1     141.725 150.579 139.629  1.00  0.00    -0.504 OA
ATOM     13  H   UNL     1     141.739 151.141 140.471  1.00  0.00     0.293 HD
ENDBRANCH   4  12
TORSDOF 3
ENDMDL
MODEL 9
REMARK VINA RESULT:    -3.279      8.933      9.765
REMARK INTER + INTRA:          -3.903
REMARK INTER:                  -3.741
REMARK INTRA:                  -0.162
REMARK UNBOUND:                -0.144
REMARK SMILES CC=Cc1ccc(O)c(OC)c1
REMARK SMILES IDX 4 1 12 2 9 3 7 4 6 5 5 6 3 7 1 8 2 9 10 10 11 11 8 12
REMARK H PARENT 8 13
REMARK Flexibility Score: inf
ROOT
ATOM      1  C   UNL     1     153.966 144.358 139.162  1.00  0.00    -0.022 A 
ATOM      2  C   UNL     1     152.663 144.887 139.257  1.00  0.00     0.058 A 
ATOM      3  C   UNL     1     151.551 144.034 139.423  1.00  0.00     0.161 A 
ATOM      4  C   UNL     1     151.751 142.648 139.485  1.00  0.00     0.157 A 
ATOM      5  C   UNL     1     153.042 142.118 139.375  1.00  0.00     0.051 A 
ATOM      6  C   UNL     1     154.139 142.966 139.210  1.00  0.00     0.012 A 
ENDROOT
BRANCH   1   7
ATOM      7  C   UNL     1     155.163 145.213 138.977  1.00  0.00     0.003 C 
ATOM      8  C   UNL     1     156.429 147.132 138.087  1.00  0.00     0.035 C 
ATOM      9  C   UNL     1     155.185 146.311 138.211  1.00  0.00    -0.030 C 
ENDBRANCH   1   7
BRANCH   3  10
ATOM     10  O   UNL     1     150.240 144.525 139.527  1.00  0.00    -0.493 OA
ATOM     11  C   UNL     1     149.423 144.889 138.419  1.00  0.00     0.278 C 
ENDBRANCH   3  10
BRANCH   4  12
ATOM     12  O   UNL     1     150.656 141.802 139.654  1.00  0.00    -0.504 OA
ATOM     13  H   UNL     1     150.742 140.797 139.552  1.00  0.00     0.293 HD
ENDBRANCH   4  12
TORSDOF 3
ENDMDL
