MODEL 1
REMARK VINA RESULT:    -4.380      0.000      0.000
REMARK INTER + INTRA:          -5.664
REMARK INTER:                  -6.173
REMARK INTRA:                   0.509
REMARK UNBOUND:                 0.509
REMARK SMILES CC1=CCC(=C(C)C)C(=O)CC(C)=CCC1
REMARK SMILES IDX 12 1 14 2 13 3 15 4 16 5 2 6 1 7 3 8 11 10 9 11 10 12 5 13
REMARK SMILES IDX 6 14 7 15 8 16 4 17
REMARK H PARENT
REMARK Flexibility Score: 60.00
ROOT
ATOM      1  C   UNL     1       8.687  22.638 -22.858  1.00  0.00    -0.070 C 
ATOM      2  C   UNL     1       8.453  23.602 -21.940  1.00  0.00    -0.027 C 
ATOM      3  C   UNL     1       9.487  21.433 -22.428  1.00  0.00     0.039 C 
ENDROOT
BRANCH   2   4
ATOM      4  C   UNL     1       7.761  24.922 -22.202  1.00  0.00     0.032 C 
BRANCH   4   5
ATOM      5  C   UNL     1       6.324  25.020 -21.647  1.00  0.00     0.034 C 
BRANCH   5   6
ATOM      6  C   UNL     1       5.258  24.748 -22.693  1.00  0.00    -0.077 C 
ATOM      7  C   UNL     1       4.613  25.938 -23.361  1.00  0.00     0.039 C 
ATOM      8  C   UNL     1       4.802  23.515 -23.018  1.00  0.00    -0.023 CG0
ATOM      9  G   UNL     1       5.309  22.185 -22.494  1.00  0.00     0.000 G0
ENDBRANCH   5   6
ENDBRANCH   4   5
ENDBRANCH   2   4
BRANCH   1  10
ATOM     10  C   UNL     1       8.268  22.753 -24.310  1.00  0.00     0.111 C 
BRANCH  10  11
ATOM     11  C   UNL     1       6.872  22.229 -24.527  1.00  0.00     0.163 C 
ATOM     12  O   UNL     1       6.288  22.529 -25.603  1.00  0.00    -0.294 OA
BRANCH  11  13
ATOM     13  C   UNL     1       6.146  21.431 -23.496  1.00  0.00    -0.002 C 
ATOM     14  C   UNL     1       6.165  20.064 -23.527  1.00  0.00    -0.069 C 
ATOM     15  C   UNL     1       7.045  19.316 -24.504  1.00  0.00     0.039 C 
ATOM     16  C   UNL     1       5.314  19.230 -22.597  1.00  0.00     0.039 C 
BRANCH  13  17
ATOM     17  C   UNL     1       5.314  22.199 -22.481  1.00  0.00     0.066 CG0
ATOM     18  G   UNL     1       4.802  23.515 -23.033  1.00  0.00     0.000 G0
ENDBRANCH  13  17
ENDBRANCH  11  13
ENDBRANCH  10  11
ENDBRANCH   1  10
TORSDOF 0
ENDMDL
MODEL 2
REMARK VINA RESULT:    -4.146      3.997      5.324
REMARK INTER + INTRA:          -5.335
REMARK INTER:                  -5.882
REMARK INTRA:                   0.547
REMARK UNBOUND:                 0.509
REMARK SMILES CC1=CCC(=C(C)C)C(=O)CC(C)=CCC1
REMARK SMILES IDX 12 1 14 2 13 3 15 4 16 5 2 6 1 7 3 8 11 10 9 11 10 12 5 13
REMARK SMILES IDX 6 14 7 15 8 16 4 17
REMARK H PARENT
REMARK Flexibility Score: 60.00
ROOT
ATOM      1  C   UNL     1      10.309  19.004 -18.965  1.00  0.00    -0.070 C 
ATOM      2  C   UNL     1      10.444  20.319 -19.244  1.00  0.00    -0.027 C 
ATOM      3  C   UNL     1      10.192  18.598 -17.517  1.00  0.00     0.039 C 
ENDROOT
BRANCH   2   4
ATOM      4  C   UNL     1      10.672  20.911 -20.618  1.00  0.00     0.032 C 
BRANCH   4   5
ATOM      5  C   UNL     1       9.470  21.688 -21.196  1.00  0.00     0.034 C 
BRANCH   5   6
ATOM      6  C   UNL     1       9.058  21.210 -22.577  1.00  0.00    -0.077 C 
ATOM      7  C   UNL     1       9.532  22.011 -23.765  1.00  0.00     0.039 C 
ATOM      8  C   UNL     1       8.240  20.156 -22.809  1.00  0.00    -0.023 CG0
ATOM      9  G   UNL     1       7.663  19.203 -21.781  1.00  0.00     0.000 G0
ENDBRANCH   5   6
ENDBRANCH   4   5
ENDBRANCH   2   4
BRANCH   1  10
ATOM     10  C   UNL     1      10.363  17.919 -20.022  1.00  0.00     0.111 C 
BRANCH  10  11
ATOM     11  C   UNL     1       8.983  17.467 -20.424  1.00  0.00     0.163 C 
ATOM     12  O   UNL     1       8.365  16.688 -19.649  1.00  0.00    -0.294 OA
BRANCH  11  13
ATOM     13  C   UNL     1       8.358  17.857 -21.722  1.00  0.00    -0.002 C 
ATOM     14  C   UNL     1       8.495  17.067 -22.830  1.00  0.00    -0.069 C 
ATOM     15  C   UNL     1       9.145  15.703 -22.744  1.00  0.00     0.039 C 
ATOM     16  C   UNL     1       8.011  17.508 -24.193  1.00  0.00     0.039 C 
BRANCH  13  17
ATOM     17  C   UNL     1       7.652  19.202 -21.778  1.00  0.00     0.066 CG0
ATOM     18  G   UNL     1       8.258  20.128 -22.815  1.00  0.00     0.000 G0
ENDBRANCH  13  17
ENDBRANCH  11  13
ENDBRANCH  10  11
ENDBRANCH   1  10
TORSDOF 0
ENDMDL
MODEL 3
REMARK VINA RESULT:    -4.102     17.045     19.043
REMARK INTER + INTRA:          -5.272
REMARK INTER:                  -5.618
REMARK INTRA:                   0.347
REMARK UNBOUND:                 0.509
REMARK SMILES CC1=CCC(=C(C)C)C(=O)CC(C)=CCC1
REMARK SMILES IDX 12 1 14 2 13 3 15 4 16 5 2 6 1 7 3 8 11 10 9 11 10 12 5 13
REMARK SMILES IDX 6 14 7 15 8 16 4 17
REMARK H PARENT
REMARK Flexibility Score: 60.00
ROOT
ATOM      1  C   UNL     1      20.553  11.976 -27.882  1.00  0.00    -0.070 C 
ATOM      2  C   UNL     1      19.375  12.211 -28.501  1.00  0.00    -0.027 C 
ATOM      3  C   UNL     1      20.855  12.749 -26.622  1.00  0.00     0.039 C 
ENDROOT
BRANCH   2   4
ATOM      4  C   UNL     1      18.936  11.612 -29.820  1.00  0.00     0.032 C 
BRANCH   4   5
ATOM      5  C   UNL     1      18.211  10.255 -29.704  1.00  0.00     0.034 C 
BRANCH   5   6
ATOM      6  C   UNL     1      17.647   9.995 -28.318  1.00  0.00    -0.077 C 
ATOM      7  C   UNL     1      16.317  10.619 -27.975  1.00  0.00     0.039 C 
ATOM      8  C   UNL     1      18.289   9.298 -27.350  1.00  0.00    -0.023 CG0
ATOM      9  G   UNL     1      19.615   8.573 -27.472  1.00  0.00     0.000 G0
ENDBRANCH   5   6
ENDBRANCH   4   5
ENDBRANCH   2   4
BRANCH   1  10
ATOM     10  C   UNL     1      21.615  11.049 -28.438  1.00  0.00     0.111 C 
BRANCH  10  11
ATOM     11  C   UNL     1      21.842   9.862 -27.539  1.00  0.00     0.163 C 
ATOM     12  O   UNL     1      22.987   9.335 -27.530  1.00  0.00    -0.294 OA
BRANCH  11  13
ATOM     13  C   UNL     1      20.752   9.259 -26.717  1.00  0.00    -0.002 C 
ATOM     14  C   UNL     1      20.821   9.264 -25.351  1.00  0.00    -0.069 C 
ATOM     15  C   UNL     1      21.916  10.014 -24.625  1.00  0.00     0.039 C 
ATOM     16  C   UNL     1      19.816   8.525 -24.496  1.00  0.00     0.039 C 
BRANCH  13  17
ATOM     17  C   UNL     1      19.624   8.562 -27.461  1.00  0.00     0.066 CG0
ATOM     18  G   UNL     1      18.306   9.299 -27.331  1.00  0.00     0.000 G0
ENDBRANCH  13  17
ENDBRANCH  11  13
ENDBRANCH  10  11
ENDBRANCH   1  10
TORSDOF 0
ENDMDL
MODEL 4
REMARK VINA RESULT:    -4.100      4.214      6.992
REMARK INTER + INTRA:          -5.270
REMARK INTER:                  -5.719
REMARK INTRA:                   0.449
REMARK UNBOUND:                 0.509
REMARK SMILES CC1=CCC(=C(C)C)C(=O)CC(C)=CCC1
REMARK SMILES IDX 12 1 14 2 13 3 15 4 16 5 2 6 1 7 3 8 11 10 9 11 10 12 5 13
REMARK SMILES IDX 6 14 7 15 8 16 4 17
REMARK H PARENT
REMARK Flexibility Score: 60.00
ROOT
ATOM      1  C   UNL     1      10.409  18.270 -19.637  1.00  0.00    -0.070 C 
ATOM      2  C   UNL     1      11.457  17.544 -20.083  1.00  0.00    -0.027 C 
ATOM      3  C   UNL     1       9.345  17.558 -18.839  1.00  0.00     0.039 C 
ENDROOT
BRANCH   2   4
ATOM      4  C   UNL     1      12.568  18.052 -20.977  1.00  0.00     0.032 C 
BRANCH   4   5
ATOM      5  C   UNL     1      12.686  17.331 -22.336  1.00  0.00     0.034 C 
BRANCH   5   6
ATOM      6  C   UNL     1      11.385  17.311 -23.117  1.00  0.00    -0.077 C 
ATOM      7  C   UNL     1      10.838  15.967 -23.533  1.00  0.00     0.039 C 
ATOM      8  C   UNL     1      10.719  18.419 -23.523  1.00  0.00    -0.023 CG0
ATOM      9  G   UNL     1      11.067  19.861 -23.209  1.00  0.00     0.000 G0
ENDBRANCH   5   6
ENDBRANCH   4   5
ENDBRANCH   2   4
BRANCH   1  10
ATOM     10  C   UNL     1      10.207  19.733 -19.976  1.00  0.00     0.111 C 
BRANCH  10  11
ATOM     11  C   UNL     1       9.403  19.905 -21.239  1.00  0.00     0.163 C 
ATOM     12  O   UNL     1       8.245  19.408 -21.276  1.00  0.00    -0.294 OA
BRANCH  11  13
ATOM     13  C   UNL     1       9.951  20.579 -22.452  1.00  0.00    -0.002 C 
ATOM     14  C   UNL     1       9.409  21.750 -22.907  1.00  0.00    -0.069 C 
ATOM     15  C   UNL     1       8.347  22.481 -22.115  1.00  0.00     0.039 C 
ATOM     16  C   UNL     1       9.834  22.373 -24.218  1.00  0.00     0.039 C 
BRANCH  13  17
ATOM     17  C   UNL     1      11.061  19.863 -23.204  1.00  0.00     0.066 CG0
ATOM     18  G   UNL     1      10.716  18.418 -23.504  1.00  0.00     0.000 G0
ENDBRANCH  13  17
ENDBRANCH  11  13
ENDBRANCH  10  11
ENDBRANCH   1  10
TORSDOF 0
ENDMDL
MODEL 5
REMARK VINA RESULT:    -4.086     18.289     19.597
REMARK INTER + INTRA:          -5.249
REMARK INTER:                  -5.749
REMARK INTRA:                   0.499
REMARK UNBOUND:                 0.509
REMARK SMILES CC1=CCC(=C(C)C)C(=O)CC(C)=CCC1
REMARK SMILES IDX 12 1 14 2 13 3 15 4 16 5 2 6 1 7 3 8 11 10 9 11 10 12 5 13
REMARK SMILES IDX 6 14 7 15 8 16 4 17
REMARK H PARENT
REMARK Flexibility Score: 60.00
ROOT
ATOM      1  C   UNL     1      21.276   9.959 -25.182  1.00  0.00    -0.070 C 
ATOM      2  C   UNL     1      20.543   8.861 -24.893  1.00  0.00    -0.027 C 
ATOM      3  C   UNL     1      22.768   9.794 -25.328  1.00  0.00     0.039 C 
ENDROOT
BRANCH   2   4
ATOM      4  C   UNL     1      19.056   8.841 -24.613  1.00  0.00     0.032 C 
BRANCH   4   5
ATOM      5  C   UNL     1      18.166   8.632 -25.857  1.00  0.00     0.034 C 
BRANCH   5   6
ATOM      6  C   UNL     1      18.914   8.026 -27.031  1.00  0.00    -0.077 C 
ATOM      7  C   UNL     1      19.096   6.528 -27.049  1.00  0.00     0.039 C 
ATOM      8  C   UNL     1      19.485   8.745 -28.027  1.00  0.00    -0.023 CG0
ATOM      9  G   UNL     1      19.418  10.247 -28.225  1.00  0.00     0.000 G0
ENDBRANCH   5   6
ENDBRANCH   4   5
ENDBRANCH   2   4
BRANCH   1  10
ATOM     10  C   UNL     1      20.687  11.352 -25.274  1.00  0.00     0.111 C 
BRANCH  10  11
ATOM     11  C   UNL     1      20.683  11.861 -26.692  1.00  0.00     0.163 C 
ATOM     12  O   UNL     1      20.610  13.106 -26.875  1.00  0.00    -0.294 OA
BRANCH  11  13
ATOM     13  C   UNL     1      20.698  10.947 -27.872  1.00  0.00    -0.002 C 
ATOM     14  C   UNL     1      21.819  10.822 -28.646  1.00  0.00    -0.069 C 
ATOM     15  C   UNL     1      23.123  11.478 -28.248  1.00  0.00     0.039 C 
ATOM     16  C   UNL     1      21.817  10.030 -29.934  1.00  0.00     0.039 C 
BRANCH  13  17
ATOM     17  C   UNL     1      19.397  10.245 -28.224  1.00  0.00     0.066 CG0
ATOM     18  G   UNL     1      19.481   8.743 -28.032  1.00  0.00     0.000 G0
ENDBRANCH  13  17
ENDBRANCH  11  13
ENDBRANCH  10  11
ENDBRANCH   1  10
TORSDOF 0
ENDMDL
MODEL 6
REMARK VINA RESULT:    -4.020      4.185      6.709
REMARK INTER + INTRA:          -5.157
REMARK INTER:                  -5.596
REMARK INTRA:                   0.439
REMARK UNBOUND:                 0.509
REMARK SMILES CC1=CCC(=C(C)C)C(=O)CC(C)=CCC1
REMARK SMILES IDX 12 1 14 2 13 3 15 4 16 5 2 6 1 7 3 8 11 10 9 11 10 12 5 13
REMARK SMILES IDX 6 14 7 15 8 16 4 17
REMARK H PARENT
REMARK Flexibility Score: 60.00
ROOT
ATOM      1  C   UNL     1       7.649  17.819 -20.269  1.00  0.00    -0.070 C 
ATOM      2  C   UNL     1       8.232  17.791 -19.050  1.00  0.00    -0.027 C 
ATOM      3  C   UNL     1       6.235  18.336 -20.364  1.00  0.00     0.039 C 
ENDROOT
BRANCH   2   4
ATOM      4  C   UNL     1       9.599  17.220 -18.738  1.00  0.00     0.032 C 
BRANCH   4   5
ATOM      5  C   UNL     1      10.696  18.274 -18.477  1.00  0.00     0.034 C 
BRANCH   5   6
ATOM      6  C   UNL     1      11.571  18.538 -19.689  1.00  0.00    -0.077 C 
ATOM      7  C   UNL     1      12.884  17.799 -19.779  1.00  0.00     0.039 C 
ATOM      8  C   UNL     1      11.284  19.442 -20.657  1.00  0.00    -0.023 CG0
ATOM      9  G   UNL     1      10.027  20.279 -20.783  1.00  0.00     0.000 G0
ENDBRANCH   5   6
ENDBRANCH   4   5
ENDBRANCH   2   4
BRANCH   1  10
ATOM     10  C   UNL     1       8.309  17.274 -21.519  1.00  0.00     0.111 C 
BRANCH  10  11
ATOM     11  C   UNL     1       9.144  18.322 -22.208  1.00  0.00     0.163 C 
ATOM     12  O   UNL     1       9.976  17.941 -23.075  1.00  0.00    -0.294 OA
BRANCH  11  13
ATOM     13  C   UNL     1       9.064  19.770 -21.857  1.00  0.00    -0.002 C 
ATOM     14  C   UNL     1       8.229  20.611 -22.540  1.00  0.00    -0.069 C 
ATOM     15  C   UNL     1       7.249  20.080 -23.564  1.00  0.00     0.039 C 
ATOM     16  C   UNL     1       8.241  22.106 -22.316  1.00  0.00     0.039 C 
BRANCH  13  17
ATOM     17  C   UNL     1      10.011  20.278 -20.781  1.00  0.00     0.066 CG0
ATOM     18  G   UNL     1      11.265  19.433 -20.672  1.00  0.00     0.000 G0
ENDBRANCH  13  17
ENDBRANCH  11  13
ENDBRANCH  10  11
ENDBRANCH   1  10
TORSDOF 0
ENDMDL
MODEL 7
REMARK VINA RESULT:    -4.002      4.005      5.669
REMARK INTER + INTRA:          -5.131
REMARK INTER:                  -5.572
REMARK INTRA:                   0.441
REMARK UNBOUND:                 0.509
REMARK SMILES CC1=CCC(=C(C)C)C(=O)CC(C)=CCC1
REMARK SMILES IDX 12 1 14 2 13 3 15 4 16 5 2 6 1 7 3 8 11 10 9 11 10 12 5 13
REMARK SMILES IDX 6 14 7 15 8 16 4 17
REMARK H PARENT
REMARK Flexibility Score: 60.00
ROOT
ATOM      1  C   UNL     1      10.587  20.430 -21.605  1.00  0.00    -0.070 C 
ATOM      2  C   UNL     1       9.660  21.290 -22.082  1.00  0.00    -0.027 C 
ATOM      3  C   UNL     1      11.322  20.812 -20.345  1.00  0.00     0.039 C 
ENDROOT
BRANCH   2   4
ATOM      4  C   UNL     1       8.893  21.133 -23.377  1.00  0.00     0.032 C 
BRANCH   4   5
ATOM      5  C   UNL     1       8.438  19.691 -23.688  1.00  0.00     0.034 C 
BRANCH   5   6
ATOM      6  C   UNL     1       7.275  19.233 -22.827  1.00  0.00    -0.077 C 
ATOM      7  C   UNL     1       6.040  20.100 -22.798  1.00  0.00     0.039 C 
ATOM      8  C   UNL     1       7.297  18.136 -22.032  1.00  0.00    -0.023 CG0
ATOM      9  G   UNL     1       8.412  17.115 -21.913  1.00  0.00     0.000 G0
ENDBRANCH   5   6
ENDBRANCH   4   5
ENDBRANCH   2   4
BRANCH   1  10
ATOM     10  C   UNL     1      10.984  19.154 -22.321  1.00  0.00     0.111 C 
BRANCH  10  11
ATOM     11  C   UNL     1      10.808  17.946 -21.439  1.00  0.00     0.163 C 
ATOM     12  O   UNL     1      11.819  17.229 -21.208  1.00  0.00    -0.294 OA
BRANCH  11  13
ATOM     13  C   UNL     1       9.481  17.540 -20.890  1.00  0.00    -0.002 C 
ATOM     14  C   UNL     1       9.268  17.488 -19.539  1.00  0.00    -0.069 C 
ATOM     15  C   UNL     1      10.311  17.985 -18.563  1.00  0.00     0.039 C 
ATOM     16  C   UNL     1       7.992  16.931 -18.951  1.00  0.00     0.039 C 
BRANCH  13  17
ATOM     17  C   UNL     1       8.420  17.102 -21.887  1.00  0.00     0.066 CG0
ATOM     18  G   UNL     1       7.310  18.124 -22.034  1.00  0.00     0.000 G0
ENDBRANCH  13  17
ENDBRANCH  11  13
ENDBRANCH  10  11
ENDBRANCH   1  10
TORSDOF 0
ENDMDL
MODEL 8
REMARK VINA RESULT:    -3.934      4.045      5.473
REMARK INTER + INTRA:          -5.035
REMARK INTER:                  -5.180
REMARK INTRA:                   0.145
REMARK UNBOUND:                 0.509
REMARK SMILES CC1=CCC(=C(C)C)C(=O)CC(C)=CCC1
REMARK SMILES IDX 12 1 14 2 13 3 15 4 16 5 2 6 1 7 3 8 11 10 9 11 10 12 5 13
REMARK SMILES IDX 6 14 7 15 8 16 4 17
REMARK H PARENT
REMARK Flexibility Score: 60.00
ROOT
ATOM      1  C   UNL     1       9.714  20.563 -20.886  1.00  0.00    -0.070 C 
ATOM      2  C   UNL     1       9.291  21.772 -21.317  1.00  0.00    -0.027 C 
ATOM      3  C   UNL     1      10.458  20.501 -19.574  1.00  0.00     0.039 C 
ENDROOT
BRANCH   2   4
ATOM      4  C   UNL     1       8.620  22.050 -22.645  1.00  0.00     0.032 C 
BRANCH   4   5
ATOM      5  C   UNL     1       9.588  22.331 -23.813  1.00  0.00     0.034 C 
BRANCH   5   6
ATOM      6  C   UNL     1       9.284  21.510 -25.053  1.00  0.00    -0.077 C 
ATOM      7  C   UNL     1       8.089  21.910 -25.883  1.00  0.00     0.039 C 
ATOM      8  C   UNL     1       9.972  20.403 -25.425  1.00  0.00    -0.023 CG0
ATOM      9  G   UNL     1      11.207  19.828 -24.760  1.00  0.00     0.000 G0
ENDBRANCH   5   6
ENDBRANCH   4   5
ENDBRANCH   2   4
BRANCH   1  10
ATOM     10  C   UNL     1       9.560  19.290 -21.694  1.00  0.00     0.111 C 
BRANCH  10  11
ATOM     11  C   UNL     1      10.843  18.914 -22.387  1.00  0.00     0.163 C 
ATOM     12  O   UNL     1      11.899  18.878 -21.700  1.00  0.00    -0.294 OA
BRANCH  11  13
ATOM     13  C   UNL     1      10.914  18.648 -23.854  1.00  0.00    -0.002 C 
ATOM     14  C   UNL     1      10.786  17.377 -24.342  1.00  0.00    -0.069 C 
ATOM     15  C   UNL     1      10.415  16.224 -23.435  1.00  0.00     0.039 C 
ATOM     16  C   UNL     1      11.011  17.053 -25.802  1.00  0.00     0.039 C 
BRANCH  13  17
ATOM     17  C   UNL     1      11.227  19.828 -24.760  1.00  0.00     0.066 CG0
ATOM     18  G   UNL     1       9.981  20.408 -25.402  1.00  0.00     0.000 G0
ENDBRANCH  13  17
ENDBRANCH  11  13
ENDBRANCH  10  11
ENDBRANCH   1  10
TORSDOF 0
ENDMDL
MODEL 9
REMARK VINA RESULT:    -3.751     15.434     17.998
REMARK INTER + INTRA:          -4.778
REMARK INTER:                  -5.459
REMARK INTRA:                   0.681
REMARK UNBOUND:                 0.509
REMARK SMILES CC1=CCC(=C(C)C)C(=O)CC(C)=CCC1
REMARK SMILES IDX 12 1 14 2 13 3 15 4 16 5 2 6 1 7 3 8 11 10 9 11 10 12 5 13
REMARK SMILES IDX 6 14 7 15 8 16 4 17
REMARK H PARENT
REMARK Flexibility Score: 60.00
ROOT
ATOM      1  C   UNL     1      17.040   7.494 -24.895  1.00  0.00    -0.070 C 
ATOM      2  C   UNL     1      15.872   7.282 -25.540  1.00  0.00    -0.027 C 
ATOM      3  C   UNL     1      17.787   6.291 -24.373  1.00  0.00     0.039 C 
ENDROOT
BRANCH   2   4
ATOM      4  C   UNL     1      14.936   8.358 -26.046  1.00  0.00     0.032 C 
BRANCH   4   5
ATOM      5  C   UNL     1      15.211   8.828 -27.490  1.00  0.00     0.034 C 
BRANCH   5   6
ATOM      6  C   UNL     1      15.712  10.259 -27.568  1.00  0.00    -0.077 C 
ATOM      7  C   UNL     1      14.682  11.361 -27.611  1.00  0.00     0.039 C 
ATOM      8  C   UNL     1      17.017  10.607 -27.670  1.00  0.00    -0.023 CG0
ATOM      9  G   UNL     1      18.217   9.681 -27.630  1.00  0.00     0.000 G0
ENDBRANCH   5   6
ENDBRANCH   4   5
ENDBRANCH   2   4
BRANCH   1  10
ATOM     10  C   UNL     1      17.586   8.875 -24.592  1.00  0.00     0.111 C 
BRANCH  10  11
ATOM     11  C   UNL     1      18.933   9.092 -25.230  1.00  0.00     0.163 C 
ATOM     12  O   UNL     1      19.939   8.561 -24.685  1.00  0.00    -0.294 OA
BRANCH  11  13
ATOM     13  C   UNL     1      19.122   9.954 -26.433  1.00  0.00    -0.002 C 
ATOM     14  C   UNL     1      20.006  10.997 -26.415  1.00  0.00    -0.069 C 
ATOM     15  C   UNL     1      20.933  11.217 -25.240  1.00  0.00     0.039 C 
ATOM     16  C   UNL     1      20.105  11.983 -27.558  1.00  0.00     0.039 C 
BRANCH  13  17
ATOM     17  C   UNL     1      18.226   9.682 -27.631  1.00  0.00     0.066 CG0
ATOM     18  G   UNL     1      17.022  10.603 -27.672  1.00  0.00     0.000 G0
ENDBRANCH  13  17
ENDBRANCH  11  13
ENDBRANCH  10  11
ENDBRANCH   1  10
TORSDOF 0
ENDMDL
