MODEL 1
REMARK VINA RESULT:    -0.751      0.000      0.000
REMARK INTER + INTRA:          -0.397
REMARK INTER:                  -0.838
REMARK INTRA:                   0.441
REMARK UNBOUND:                 0.441
REMARK SMILES C=C(C)[C@@H]1CC[C@]2(C(=O)[O-])CC[C@@]3(C)[C@H](CC[C@H]4[C@@]5(C)CCC(=O)C(C)(C)[C@H]5CC[C@@]43C)[C@@H]12
REMARK SMILES IDX 7 1 6 2 33 3 11 4 5 5 15 6 4 7 12 8 16 9 13 10 17 11 31 12
REMARK SMILES IDX 14 13 18 14 30 15 32 16 19 17 29 18 21 19 20 20 28 21 22 22
REMARK SMILES IDX 25 23 23 24 26 25 27 26 24 27 8 28 9 29 10 30 2 31 3 32 1 33
REMARK H PARENT
REMARK Flexibility Score: inf
ROOT
ATOM      1  C   UNL     1     -18.932  11.334 -29.884  1.00  0.00     0.014 C 
ATOM      2  C   UNL     1     -19.417   9.942 -29.478  1.00  0.00     0.014 C 
ATOM      3  C   UNL     1     -17.675  11.502 -29.018  1.00  0.00     0.012 C 
ATOM      4  C   UNL     1     -18.484  11.444 -31.348  1.00  0.00     0.014 C 
ATOM      5  C   UNL     1     -19.181   9.878 -27.964  1.00  0.00     0.009 C 
ATOM      6  C   UNL     1     -17.114  12.950 -29.117  1.00  0.00     0.000 C 
ATOM      7  C   UNL     1     -18.066  10.903 -27.644  1.00  0.00     0.018 C 
ATOM      8  C   UNL     1     -17.885  12.846 -31.635  1.00  0.00     0.008 C 
ATOM      9  C   UNL     1     -15.953  13.217 -28.139  1.00  0.00     0.005 C 
ATOM     10  C   UNL     1     -16.792  13.410 -30.622  1.00  0.00    -0.024 C 
ATOM     11  C   UNL     1     -14.617  12.691 -28.651  1.00  0.00     0.005 C 
ATOM     12  C   UNL     1     -15.262  13.058 -31.104  1.00  0.00    -0.024 C 
ATOM     13  C   UNL     1     -17.023  14.962 -30.638  1.00  0.00     0.012 C 
ATOM     14  C   UNL     1     -14.236  13.432 -29.958  1.00  0.00     0.002 C 
ATOM     15  C   UNL     1     -14.846  13.906 -32.341  1.00  0.00     0.008 C 
ATOM     16  C   UNL     1     -15.160  11.558 -31.544  1.00  0.00     0.012 C 
ATOM     17  C   UNL     1     -12.667  13.451 -30.268  1.00  0.00    -0.025 C 
ATOM     18  C   UNL     1     -13.397  13.685 -32.786  1.00  0.00     0.006 C 
ATOM     19  C   UNL     1     -12.059  12.014 -30.108  1.00  0.00     0.015 C 
ATOM     20  C   UNL     1     -12.002  14.377 -29.177  1.00  0.00     0.012 C 
ATOM     21  C   UNL     1     -12.358  14.083 -31.707  1.00  0.00     0.008 C 
ATOM     22  C   UNL     1     -10.610  11.867 -30.581  1.00  0.00     0.077 C 
ATOM     23  C   UNL     1     -10.863  13.876 -32.223  1.00  0.00     0.027 C 
ATOM     24  C   UNL     1     -10.432  12.445 -31.950  1.00  0.00     0.138 C 
ATOM     25  C   UNL     1     -10.717  14.190 -33.743  1.00  0.00     0.020 C 
ATOM     26  C   UNL     1      -9.875  14.838 -31.514  1.00  0.00     0.020 C 
ATOM     27  O   UNL     1      -9.875  11.776 -32.810  1.00  0.00    -0.299 OA
ENDROOT
BRANCH   1  28
ATOM     28  C   UNL     1     -20.068  12.325 -29.599  1.00  0.00     0.048 C 
ATOM     29  O   UNL     1     -19.835  13.539 -29.355  1.00  0.00    -0.550 OA
ATOM     30  O   UNL     1     -21.376  11.867 -29.481  1.00  0.00    -0.550 OA
ENDBRANCH   1  28
BRANCH   7  31
ATOM     31  C   UNL     1     -16.907  10.232 -26.905  1.00  0.00    -0.077 C 
ATOM     32  C   UNL     1     -15.621   9.875 -27.611  1.00  0.00     0.039 C 
ATOM     33  C   UNL     1     -17.049   9.875 -25.619  1.00  0.00     0.008 C 
ENDBRANCH   7  31
TORSDOF 2
ENDMDL
