MODEL 1
REMARK VINA RESULT:    -3.323      0.000      0.000
REMARK INTER + INTRA:          -7.736
REMARK INTER:                  -6.042
REMARK INTRA:                  -1.694
REMARK UNBOUND:                -1.694
REMARK SMILES CCCCCC=CCC=CCCCCCCCC(=O)[O-]
REMARK SMILES IDX 11 1 12 2 13 3 14 4 15 5 16 6 17 7 18 8 19 9 20 10 10 11
REMARK SMILES IDX 9 12 8 13 7 14 6 15 5 16 4 17 3 18 2 19 1 20
REMARK H PARENT
REMARK Flexibility Score: inf
ROOT
ATOM      1  C   UNL     1      15.821  37.040 -13.065  1.00  0.00     0.027 C 
ENDROOT
BRANCH   1   2
ATOM      2  C   UNL     1      14.722  36.686 -14.081  1.00  0.00     0.004 C 
BRANCH   2   3
ATOM      3  C   UNL     1      13.322  37.215 -13.709  1.00  0.00     0.000 C 
BRANCH   3   4
ATOM      4  C   UNL     1      13.189  38.751 -13.675  1.00  0.00     0.000 C 
BRANCH   4   5
ATOM      5  C   UNL     1      13.288  39.380 -12.274  1.00  0.00     0.000 C 
BRANCH   5   6
ATOM      6  C   UNL     1      12.961  38.384 -11.148  1.00  0.00     0.006 C 
BRANCH   6   7
ATOM      7  C   UNL     1      13.152  38.999  -9.756  1.00  0.00     0.053 C 
BRANCH   7   8
ATOM      8  C   UNL     1      11.858  39.498  -9.190  1.00  0.00     0.041 C 
ATOM      9  O   UNL     1      11.849  40.482  -8.403  1.00  0.00    -0.550 OA
ATOM     10  O   UNL     1      10.660  38.901  -9.559  1.00  0.00    -0.550 OA
ENDBRANCH   7   8
ENDBRANCH   6   7
ENDBRANCH   5   6
ENDBRANCH   4   5
ENDBRANCH   3   4
ENDBRANCH   2   3
ENDBRANCH   1   2
BRANCH   1  11
ATOM     11  C   UNL     1      17.123  37.408 -13.734  1.00  0.00    -0.031 C 
ATOM     12  C   UNL     1      17.455  38.652 -14.125  1.00  0.00    -0.027 C 
BRANCH  12  13
ATOM     13  C   UNL     1      16.538  39.844 -13.994  1.00  0.00     0.054 C 
BRANCH  13  14
ATOM     14  C   UNL     1      17.307  41.135 -14.116  1.00  0.00    -0.027 C 
ATOM     15  C   UNL     1      17.696  41.887 -13.069  1.00  0.00    -0.031 C 
BRANCH  15  16
ATOM     16  C   UNL     1      17.476  41.514 -11.625  1.00  0.00     0.027 C 
BRANCH  16  17
ATOM     17  C   UNL     1      15.977  41.502 -11.292  1.00  0.00     0.004 C 
BRANCH  17  18
ATOM     18  C   UNL     1      15.515  42.794 -10.597  1.00  0.00     0.000 C 
BRANCH  18  19
ATOM     19  C   UNL     1      14.086  42.687 -10.043  1.00  0.00    -0.003 C 
ATOM     20  C   UNL     1      13.764  43.862  -9.124  1.00  0.00     0.004 C 
ENDBRANCH  18  19
ENDBRANCH  17  18
ENDBRANCH  16  17
ENDBRANCH  15  16
ENDBRANCH  13  14
ENDBRANCH  12  13
ENDBRANCH   1  11
TORSDOF 14
ENDMDL
MODEL 2
REMARK VINA RESULT:    -3.102      1.255      2.151
REMARK INTER + INTRA:          -7.335
REMARK INTER:                  -6.146
REMARK INTRA:                  -1.188
REMARK UNBOUND:                -1.694
REMARK SMILES CCCCCC=CCC=CCCCCCCCC(=O)[O-]
REMARK SMILES IDX 11 1 12 2 13 3 14 4 15 5 16 6 17 7 18 8 19 9 20 10 10 11
REMARK SMILES IDX 9 12 8 13 7 14 6 15 5 16 4 17 3 18 2 19 1 20
REMARK H PARENT
REMARK Flexibility Score: inf
ROOT
ATOM      1  C   UNL     1      14.035  38.389 -14.064  1.00  0.00     0.027 C 
ENDROOT
BRANCH   1   2
ATOM      2  C   UNL     1      12.785  38.163 -13.196  1.00  0.00     0.004 C 
BRANCH   2   3
ATOM      3  C   UNL     1      13.087  37.904 -11.706  1.00  0.00     0.000 C 
BRANCH   3   4
ATOM      4  C   UNL     1      13.386  39.164 -10.869  1.00  0.00     0.000 C 
BRANCH   4   5
ATOM      5  C   UNL     1      12.966  39.076  -9.390  1.00  0.00     0.000 C 
BRANCH   5   6
ATOM      6  C   UNL     1      11.570  39.668  -9.131  1.00  0.00     0.006 C 
BRANCH   6   7
ATOM      7  C   UNL     1      10.452  38.790  -9.707  1.00  0.00     0.053 C 
BRANCH   7   8
ATOM      8  C   UNL     1       9.096  39.311  -9.344  1.00  0.00     0.041 C 
ATOM      9  O   UNL     1       8.926  40.541  -9.131  1.00  0.00    -0.550 OA
ATOM     10  O   UNL     1       8.012  38.445  -9.275  1.00  0.00    -0.550 OA
ENDBRANCH   7   8
ENDBRANCH   6   7
ENDBRANCH   5   6
ENDBRANCH   4   5
ENDBRANCH   3   4
ENDBRANCH   2   3
ENDBRANCH   1   2
BRANCH   1  11
ATOM     11  C   UNL     1      14.919  37.166 -14.125  1.00  0.00    -0.031 C 
ATOM     12  C   UNL     1      16.170  37.103 -13.634  1.00  0.00    -0.027 C 
BRANCH  12  13
ATOM     13  C   UNL     1      16.881  38.274 -13.000  1.00  0.00     0.054 C 
BRANCH  13  14
ATOM     14  C   UNL     1      17.164  39.351 -14.016  1.00  0.00    -0.027 C 
ATOM     15  C   UNL     1      17.310  40.656 -13.716  1.00  0.00    -0.031 C 
BRANCH  15  16
ATOM     16  C   UNL     1      17.277  41.216 -12.317  1.00  0.00     0.027 C 
BRANCH  16  17
ATOM     17  C   UNL     1      15.829  41.341 -11.819  1.00  0.00     0.004 C 
BRANCH  17  18
ATOM     18  C   UNL     1      15.658  42.453 -10.770  1.00  0.00     0.000 C 
BRANCH  18  19
ATOM     19  C   UNL     1      14.313  42.365 -10.033  1.00  0.00    -0.003 C 
ATOM     20  C   UNL     1      13.915  43.720  -9.455  1.00  0.00     0.004 C 
ENDBRANCH  18  19
ENDBRANCH  17  18
ENDBRANCH  16  17
ENDBRANCH  15  16
ENDBRANCH  13  14
ENDBRANCH  12  13
ENDBRANCH   1  11
TORSDOF 14
ENDMDL
MODEL 3
REMARK VINA RESULT:    -2.938      1.384      4.464
REMARK INTER + INTRA:          -7.036
REMARK INTER:                  -6.120
REMARK INTRA:                  -0.917
REMARK UNBOUND:                -1.694
REMARK SMILES CCCCCC=CCC=CCCCCCCCC(=O)[O-]
REMARK SMILES IDX 11 1 12 2 13 3 14 4 15 5 16 6 17 7 18 8 19 9 20 10 10 11
REMARK SMILES IDX 9 12 8 13 7 14 6 15 5 16 4 17 3 18 2 19 1 20
REMARK H PARENT
REMARK Flexibility Score: inf
ROOT
ATOM      1  C   UNL     1      16.688  37.848 -12.817  1.00  0.00     0.027 C 
ENDROOT
BRANCH   1   2
ATOM      2  C   UNL     1      17.427  38.731 -13.836  1.00  0.00     0.004 C 
BRANCH   2   3
ATOM      3  C   UNL     1      16.737  40.079 -14.125  1.00  0.00     0.000 C 
BRANCH   3   4
ATOM      4  C   UNL     1      17.551  41.330 -13.733  1.00  0.00     0.000 C 
BRANCH   4   5
ATOM      5  C   UNL     1      17.575  41.643 -12.226  1.00  0.00     0.000 C 
BRANCH   5   6
ATOM      6  C   UNL     1      16.181  41.569 -11.580  1.00  0.00     0.006 C 
BRANCH   6   7
ATOM      7  C   UNL     1      15.833  42.845 -10.803  1.00  0.00     0.053 C 
BRANCH   7   8
ATOM      8  C   UNL     1      14.525  42.718 -10.085  1.00  0.00     0.041 C 
ATOM      9  O   UNL     1      14.044  43.703  -9.465  1.00  0.00    -0.550 OA
ATOM     10  O   UNL     1      13.818  41.523 -10.132  1.00  0.00    -0.550 OA
ENDBRANCH   7   8
ENDBRANCH   6   7
ENDBRANCH   5   6
ENDBRANCH   4   5
ENDBRANCH   3   4
ENDBRANCH   2   3
ENDBRANCH   1   2
BRANCH   1  11
ATOM     11  C   UNL     1      15.882  36.758 -13.482  1.00  0.00    -0.031 C 
ATOM     12  C   UNL     1      14.693  36.947 -14.083  1.00  0.00    -0.027 C 
BRANCH  12  13
ATOM     13  C   UNL     1      13.976  38.275 -14.125  1.00  0.00     0.054 C 
BRANCH  13  14
ATOM     14  C   UNL     1      12.646  38.195 -13.419  1.00  0.00    -0.027 C 
ATOM     15  C   UNL     1      12.495  38.239 -12.082  1.00  0.00    -0.031 C 
BRANCH  15  16
ATOM     16  C   UNL     1      13.624  38.437 -11.104  1.00  0.00     0.027 C 
BRANCH  16  17
ATOM     17  C   UNL     1      13.077  38.734  -9.699  1.00  0.00     0.004 C 
BRANCH  17  18
ATOM     18  C   UNL     1      11.541  38.789  -9.661  1.00  0.00     0.000 C 
BRANCH  18  19
ATOM     19  C   UNL     1      11.013  39.932  -8.781  1.00  0.00    -0.003 C 
ATOM     20  C   UNL     1       9.502  40.086  -8.929  1.00  0.00     0.004 C 
ENDBRANCH  18  19
ENDBRANCH  17  18
ENDBRANCH  16  17
ENDBRANCH  15  16
ENDBRANCH  13  14
ENDBRANCH  12  13
ENDBRANCH   1  11
TORSDOF 14
ENDMDL
MODEL 4
REMARK VINA RESULT:    -2.839      1.727      4.747
REMARK INTER + INTRA:          -6.856
REMARK INTER:                  -5.970
REMARK INTRA:                  -0.886
REMARK UNBOUND:                -1.694
REMARK SMILES CCCCCC=CCC=CCCCCCCCC(=O)[O-]
REMARK SMILES IDX 11 1 12 2 13 3 14 4 15 5 16 6 17 7 18 8 19 9 20 10 10 11
REMARK SMILES IDX 9 12 8 13 7 14 6 15 5 16 4 17 3 18 2 19 1 20
REMARK H PARENT
REMARK Flexibility Score: inf
ROOT
ATOM      1  C   UNL     1      16.461  37.601 -13.085  1.00  0.00     0.027 C 
ENDROOT
BRANCH   1   2
ATOM      2  C   UNL     1      17.289  38.727 -13.728  1.00  0.00     0.004 C 
BRANCH   2   3
ATOM      3  C   UNL     1      16.497  40.023 -13.994  1.00  0.00     0.000 C 
BRANCH   3   4
ATOM      4  C   UNL     1      17.206  41.325 -13.567  1.00  0.00     0.000 C 
BRANCH   4   5
ATOM      5  C   UNL     1      17.382  41.498 -12.047  1.00  0.00     0.000 C 
BRANCH   5   6
ATOM      6  C   UNL     1      16.325  42.427 -11.427  1.00  0.00     0.006 C 
BRANCH   6   7
ATOM      7  C   UNL     1      15.199  41.645 -10.738  1.00  0.00     0.053 C 
BRANCH   7   8
ATOM      8  C   UNL     1      14.297  42.548  -9.954  1.00  0.00     0.041 C 
ATOM      9  O   UNL     1      13.198  42.118  -9.513  1.00  0.00    -0.550 OA
ATOM     10  O   UNL     1      14.686  43.852  -9.677  1.00  0.00    -0.550 OA
ENDBRANCH   7   8
ENDBRANCH   6   7
ENDBRANCH   5   6
ENDBRANCH   4   5
ENDBRANCH   3   4
ENDBRANCH   2   3
ENDBRANCH   1   2
BRANCH   1  11
ATOM     11  C   UNL     1      15.555  36.917 -14.079  1.00  0.00    -0.031 C 
ATOM     12  C   UNL     1      14.237  36.718 -13.899  1.00  0.00    -0.027 C 
BRANCH  12  13
ATOM     13  C   UNL     1      13.494  37.108 -12.644  1.00  0.00     0.054 C 
BRANCH  13  14
ATOM     14  C   UNL     1      13.567  38.596 -12.412  1.00  0.00    -0.027 C 
ATOM     15  C   UNL     1      13.232  39.200 -11.256  1.00  0.00    -0.031 C 
BRANCH  15  16
ATOM     16  C   UNL     1      12.798  38.471 -10.010  1.00  0.00     0.027 C 
BRANCH  16  17
ATOM     17  C   UNL     1      11.777  39.306  -9.222  1.00  0.00     0.004 C 
BRANCH  17  18
ATOM     18  C   UNL     1      10.324  38.948  -9.572  1.00  0.00     0.000 C 
BRANCH  18  19
ATOM     19  C   UNL     1       9.333  40.054  -9.176  1.00  0.00    -0.003 C 
ATOM     20  C   UNL     1       7.911  39.690  -9.593  1.00  0.00     0.004 C 
ENDBRANCH  18  19
ENDBRANCH  17  18
ENDBRANCH  16  17
ENDBRANCH  15  16
ENDBRANCH  13  14
ENDBRANCH  12  13
ENDBRANCH   1  11
TORSDOF 14
ENDMDL
MODEL 5
REMARK VINA RESULT:    -2.836      1.441      2.928
REMARK INTER + INTRA:          -6.851
REMARK INTER:                  -5.739
REMARK INTRA:                  -1.112
REMARK UNBOUND:                -1.694
REMARK SMILES CCCCCC=CCC=CCCCCCCCC(=O)[O-]
REMARK SMILES IDX 11 1 12 2 13 3 14 4 15 5 16 6 17 7 18 8 19 9 20 10 10 11
REMARK SMILES IDX 9 12 8 13 7 14 6 15 5 16 4 17 3 18 2 19 1 20
REMARK H PARENT
REMARK Flexibility Score: inf
ROOT
ATOM      1  C   UNL     1      13.532  38.066 -13.378  1.00  0.00     0.027 C 
ENDROOT
BRANCH   1   2
ATOM      2  C   UNL     1      13.808  37.978 -11.867  1.00  0.00     0.004 C 
BRANCH   2   3
ATOM      3  C   UNL     1      13.267  39.171 -11.054  1.00  0.00     0.000 C 
BRANCH   3   4
ATOM      4  C   UNL     1      12.887  38.851  -9.594  1.00  0.00     0.000 C 
BRANCH   4   5
ATOM      5  C   UNL     1      12.418  40.060  -8.765  1.00  0.00     0.000 C 
BRANCH   5   6
ATOM      6  C   UNL     1      10.886  40.162  -8.672  1.00  0.00     0.006 C 
BRANCH   6   7
ATOM      7  C   UNL     1      10.188  38.915  -9.231  1.00  0.00     0.053 C 
BRANCH   7   8
ATOM      8  C   UNL     1       8.714  39.129  -9.387  1.00  0.00     0.041 C 
ATOM      9  O   UNL     1       8.251  40.297  -9.484  1.00  0.00    -0.550 OA
ATOM     10  O   UNL     1       7.856  38.040  -9.464  1.00  0.00    -0.550 OA
ENDBRANCH   7   8
ENDBRANCH   6   7
ENDBRANCH   5   6
ENDBRANCH   4   5
ENDBRANCH   3   4
ENDBRANCH   2   3
ENDBRANCH   1   2
BRANCH   1  11
ATOM     11  C   UNL     1      14.043  36.858 -14.125  1.00  0.00    -0.031 C 
ATOM     12  C   UNL     1      15.305  36.396 -14.058  1.00  0.00    -0.027 C 
BRANCH  12  13
ATOM     13  C   UNL     1      16.400  37.063 -13.261  1.00  0.00     0.054 C 
BRANCH  13  14
ATOM     14  C   UNL     1      17.203  38.002 -14.125  1.00  0.00    -0.027 C 
ATOM     15  C   UNL     1      17.354  39.317 -13.877  1.00  0.00    -0.031 C 
BRANCH  15  16
ATOM     16  C   UNL     1      16.798  40.024 -12.667  1.00  0.00     0.027 C 
BRANCH  16  17
ATOM     17  C   UNL     1      17.235  41.497 -12.653  1.00  0.00     0.004 C 
BRANCH  17  18
ATOM     18  C   UNL     1      16.614  42.287 -11.489  1.00  0.00     0.000 C 
BRANCH  18  19
ATOM     19  C   UNL     1      15.281  41.688 -11.015  1.00  0.00    -0.003 C 
ATOM     20  C   UNL     1      14.561  42.639 -10.062  1.00  0.00     0.004 C 
ENDBRANCH  18  19
ENDBRANCH  17  18
ENDBRANCH  16  17
ENDBRANCH  15  16
ENDBRANCH  13  14
ENDBRANCH  12  13
ENDBRANCH   1  11
TORSDOF 14
ENDMDL
MODEL 6
REMARK VINA RESULT:    -2.780      2.531      4.917
REMARK INTER + INTRA:          -6.748
REMARK INTER:                  -6.444
REMARK INTRA:                  -0.305
REMARK UNBOUND:                -1.694
REMARK SMILES CCCCCC=CCC=CCCCCCCCC(=O)[O-]
REMARK SMILES IDX 11 1 12 2 13 3 14 4 15 5 16 6 17 7 18 8 19 9 20 10 10 11
REMARK SMILES IDX 9 12 8 13 7 14 6 15 5 16 4 17 3 18 2 19 1 20
REMARK H PARENT
REMARK Flexibility Score: inf
ROOT
ATOM      1  C   UNL     1      12.874  37.932 -13.955  1.00  0.00     0.027 C 
ENDROOT
BRANCH   1   2
ATOM      2  C   UNL     1      13.793  36.830 -13.401  1.00  0.00     0.004 C 
BRANCH   2   3
ATOM      3  C   UNL     1      15.181  36.768 -14.069  1.00  0.00     0.000 C 
BRANCH   3   4
ATOM      4  C   UNL     1      16.320  37.444 -13.278  1.00  0.00     0.000 C 
BRANCH   4   5
ATOM      5  C   UNL     1      17.552  37.831 -14.117  1.00  0.00     0.000 C 
BRANCH   5   6
ATOM      6  C   UNL     1      17.814  39.347 -14.125  1.00  0.00     0.006 C 
BRANCH   6   7
ATOM      7  C   UNL     1      16.916  40.096 -13.132  1.00  0.00     0.053 C 
BRANCH   7   8
ATOM      8  C   UNL     1      17.424  41.478 -12.859  1.00  0.00     0.041 C 
ATOM      9  O   UNL     1      17.411  41.937 -11.686  1.00  0.00    -0.550 OA
ATOM     10  O   UNL     1      17.946  42.245 -13.892  1.00  0.00    -0.550 OA
ENDBRANCH   7   8
ENDBRANCH   6   7
ENDBRANCH   5   6
ENDBRANCH   4   5
ENDBRANCH   3   4
ENDBRANCH   2   3
ENDBRANCH   1   2
BRANCH   1  11
ATOM     11  C   UNL     1      13.417  39.316 -13.694  1.00  0.00    -0.031 C 
ATOM     12  C   UNL     1      13.856  39.751 -12.500  1.00  0.00    -0.027 C 
BRANCH  12  13
ATOM     13  C   UNL     1      13.812  38.923 -11.238  1.00  0.00     0.054 C 
BRANCH  13  14
ATOM     14  C   UNL     1      12.393  38.728 -10.767  1.00  0.00    -0.027 C 
ATOM     15  C   UNL     1      11.920  39.166  -9.585  1.00  0.00    -0.031 C 
BRANCH  15  16
ATOM     16  C   UNL     1      12.722  39.968  -8.593  1.00  0.00     0.027 C 
BRANCH  16  17
ATOM     17  C   UNL     1      12.849  41.428  -9.054  1.00  0.00     0.004 C 
BRANCH  17  18
ATOM     18  C   UNL     1      14.206  41.724  -9.715  1.00  0.00     0.000 C 
BRANCH  18  19
ATOM     19  C   UNL     1      14.349  43.195 -10.133  1.00  0.00    -0.003 C 
ATOM     20  C   UNL     1      13.873  44.129  -9.025  1.00  0.00     0.004 C 
ENDBRANCH  18  19
ENDBRANCH  17  18
ENDBRANCH  16  17
ENDBRANCH  15  16
ENDBRANCH  13  14
ENDBRANCH  12  13
ENDBRANCH   1  11
TORSDOF 14
ENDMDL
MODEL 7
REMARK VINA RESULT:    -2.541      2.183      5.075
REMARK INTER + INTRA:          -6.314
REMARK INTER:                  -5.627
REMARK INTRA:                  -0.687
REMARK UNBOUND:                -1.694
REMARK SMILES CCCCCC=CCC=CCCCCCCCC(=O)[O-]
REMARK SMILES IDX 11 1 12 2 13 3 14 4 15 5 16 6 17 7 18 8 19 9 20 10 10 11
REMARK SMILES IDX 9 12 8 13 7 14 6 15 5 16 4 17 3 18 2 19 1 20
REMARK H PARENT
REMARK Flexibility Score: inf
ROOT
ATOM      1  C   UNL     1      13.916  36.667 -13.849  1.00  0.00     0.027 C 
ENDROOT
BRANCH   1   2
ATOM      2  C   UNL     1      15.384  36.300 -14.123  1.00  0.00     0.004 C 
BRANCH   2   3
ATOM      3  C   UNL     1      16.404  37.116 -13.303  1.00  0.00     0.000 C 
BRANCH   3   4
ATOM      4  C   UNL     1      17.259  38.107 -14.120  1.00  0.00     0.000 C 
BRANCH   4   5
ATOM      5  C   UNL     1      17.534  39.452 -13.425  1.00  0.00     0.000 C 
BRANCH   5   6
ATOM      6  C   UNL     1      16.469  40.515 -13.742  1.00  0.00     0.006 C 
BRANCH   6   7
ATOM      7  C   UNL     1      15.461  40.685 -12.597  1.00  0.00     0.053 C 
BRANCH   7   8
ATOM      8  C   UNL     1      15.971  41.622 -11.545  1.00  0.00     0.041 C 
ATOM      9  O   UNL     1      17.146  42.070 -11.613  1.00  0.00    -0.550 OA
ATOM     10  O   UNL     1      15.137  42.028 -10.511  1.00  0.00    -0.550 OA
ENDBRANCH   7   8
ENDBRANCH   6   7
ENDBRANCH   5   6
ENDBRANCH   4   5
ENDBRANCH   3   4
ENDBRANCH   2   3
ENDBRANCH   1   2
BRANCH   1  11
ATOM     11  C   UNL     1      13.671  38.154 -13.930  1.00  0.00    -0.031 C 
ATOM     12  C   UNL     1      13.021  38.873 -12.997  1.00  0.00    -0.027 C 
BRANCH  12  13
ATOM     13  C   UNL     1      12.396  38.272 -11.761  1.00  0.00     0.054 C 
BRANCH  13  14
ATOM     14  C   UNL     1      13.363  38.285 -10.605  1.00  0.00    -0.027 C 
ATOM     15  C   UNL     1      13.344  39.194  -9.611  1.00  0.00    -0.031 C 
BRANCH  15  16
ATOM     16  C   UNL     1      12.315  40.288  -9.479  1.00  0.00     0.027 C 
BRANCH  16  17
ATOM     17  C   UNL     1      11.055  39.764  -8.775  1.00  0.00     0.004 C 
BRANCH  17  18
ATOM     18  C   UNL     1      10.244  38.798  -9.654  1.00  0.00     0.000 C 
BRANCH  18  19
ATOM     19  C   UNL     1       8.729  39.030  -9.542  1.00  0.00    -0.003 C 
ATOM     20  C   UNL     1       8.423  40.471  -9.143  1.00  0.00     0.004 C 
ENDBRANCH  18  19
ENDBRANCH  17  18
ENDBRANCH  16  17
ENDBRANCH  15  16
ENDBRANCH  13  14
ENDBRANCH  12  13
ENDBRANCH   1  11
TORSDOF 14
ENDMDL
MODEL 8
REMARK VINA RESULT:    -2.525      2.904      5.568
REMARK INTER + INTRA:          -6.286
REMARK INTER:                  -6.503
REMARK INTRA:                   0.217
REMARK UNBOUND:                -1.694
REMARK SMILES CCCCCC=CCC=CCCCCCCCC(=O)[O-]
REMARK SMILES IDX 11 1 12 2 13 3 14 4 15 5 16 6 17 7 18 8 19 9 20 10 10 11
REMARK SMILES IDX 9 12 8 13 7 14 6 15 5 16 4 17 3 18 2 19 1 20
REMARK H PARENT
REMARK Flexibility Score: inf
ROOT
ATOM      1  C   UNL     1      12.820  38.745 -13.745  1.00  0.00     0.027 C 
ENDROOT
BRANCH   1   2
ATOM      2  C   UNL     1      13.406  37.336 -13.545  1.00  0.00     0.004 C 
BRANCH   2   3
ATOM      3  C   UNL     1      14.695  37.301 -12.701  1.00  0.00     0.000 C 
BRANCH   3   4
ATOM      4  C   UNL     1      15.917  36.665 -13.396  1.00  0.00     0.000 C 
BRANCH   4   5
ATOM      5  C   UNL     1      16.840  37.659 -14.125  1.00  0.00     0.000 C 
BRANCH   5   6
ATOM      6  C   UNL     1      17.255  38.846 -13.239  1.00  0.00     0.006 C 
BRANCH   6   7
ATOM      7  C   UNL     1      17.214  40.178 -13.999  1.00  0.00     0.053 C 
BRANCH   7   8
ATOM      8  C   UNL     1      17.995  41.243 -13.293  1.00  0.00     0.041 C 
ATOM      9  O   UNL     1      18.810  41.960 -13.932  1.00  0.00    -0.550 OA
ATOM     10  O   UNL     1      17.798  41.468 -11.936  1.00  0.00    -0.550 OA
ENDBRANCH   7   8
ENDBRANCH   6   7
ENDBRANCH   5   6
ENDBRANCH   4   5
ENDBRANCH   3   4
ENDBRANCH   2   3
ENDBRANCH   1   2
BRANCH   1  11
ATOM     11  C   UNL     1      13.892  39.802 -13.847  1.00  0.00    -0.031 C 
ATOM     12  C   UNL     1      14.256  40.620 -12.843  1.00  0.00    -0.027 C 
BRANCH  12  13
ATOM     13  C   UNL     1      13.595  40.625 -11.485  1.00  0.00     0.054 C 
BRANCH  13  14
ATOM     14  C   UNL     1      13.574  39.240 -10.888  1.00  0.00    -0.027 C 
ATOM     15  C   UNL     1      13.176  38.963  -9.632  1.00  0.00    -0.031 C 
BRANCH  15  16
ATOM     16  C   UNL     1      12.635  39.986  -8.666  1.00  0.00     0.027 C 
BRANCH  16  17
ATOM     17  C   UNL     1      11.100  40.019  -8.717  1.00  0.00     0.004 C 
BRANCH  17  18
ATOM     18  C   UNL     1      10.512  38.899  -9.591  1.00  0.00     0.000 C 
BRANCH  18  19
ATOM     19  C   UNL     1       8.993  38.753  -9.418  1.00  0.00    -0.003 C 
ATOM     20  C   UNL     1       8.294  40.104  -9.543  1.00  0.00     0.004 C 
ENDBRANCH  18  19
ENDBRANCH  17  18
ENDBRANCH  16  17
ENDBRANCH  15  16
ENDBRANCH  13  14
ENDBRANCH  12  13
ENDBRANCH   1  11
TORSDOF 14
ENDMDL
MODEL 9
REMARK VINA RESULT:    -2.479      1.595      4.630
REMARK INTER + INTRA:          -6.202
REMARK INTER:                  -4.577
REMARK INTRA:                  -1.625
REMARK UNBOUND:                -1.694
REMARK SMILES CCCCCC=CCC=CCCCCCCCC(=O)[O-]
REMARK SMILES IDX 11 1 12 2 13 3 14 4 15 5 16 6 17 7 18 8 19 9 20 10 10 11
REMARK SMILES IDX 9 12 8 13 7 14 6 15 5 16 4 17 3 18 2 19 1 20
REMARK H PARENT
REMARK Flexibility Score: inf
ROOT
ATOM      1  C   UNL     1      15.056  42.306 -11.220  1.00  0.00     0.027 C 
ENDROOT
BRANCH   1   2
ATOM      2  C   UNL     1      14.417  41.421 -10.136  1.00  0.00     0.004 C 
BRANCH   2   3
ATOM      3  C   UNL     1      13.795  40.116 -10.670  1.00  0.00     0.000 C 
BRANCH   3   4
ATOM      4  C   UNL     1      12.787  39.434  -9.722  1.00  0.00     0.000 C 
BRANCH   4   5
ATOM      5  C   UNL     1      12.093  40.378  -8.724  1.00  0.00     0.000 C 
BRANCH   5   6
ATOM      6  C   UNL     1      10.634  39.982  -8.444  1.00  0.00     0.006 C 
BRANCH   6   7
ATOM      7  C   UNL     1      10.117  38.933  -9.437  1.00  0.00     0.053 C 
BRANCH   7   8
ATOM      8  C   UNL     1       8.626  38.983  -9.569  1.00  0.00     0.041 C 
ATOM      9  O   UNL     1       8.051  40.067  -9.854  1.00  0.00    -0.550 OA
ATOM     10  O   UNL     1       7.874  37.825  -9.415  1.00  0.00    -0.550 OA
ENDBRANCH   7   8
ENDBRANCH   6   7
ENDBRANCH   5   6
ENDBRANCH   4   5
ENDBRANCH   3   4
ENDBRANCH   2   3
ENDBRANCH   1   2
BRANCH   1  11
ATOM     11  C   UNL     1      16.536  42.050 -11.369  1.00  0.00    -0.031 C 
ATOM     12  C   UNL     1      17.082  41.253 -12.305  1.00  0.00    -0.027 C 
BRANCH  12  13
ATOM     13  C   UNL     1      16.275  40.458 -13.303  1.00  0.00     0.054 C 
BRANCH  13  14
ATOM     14  C   UNL     1      17.163  39.559 -14.125  1.00  0.00    -0.027 C 
ATOM     15  C   UNL     1      17.182  38.216 -14.025  1.00  0.00    -0.031 C 
BRANCH  15  16
ATOM     16  C   UNL     1      16.274  37.417 -13.126  1.00  0.00     0.027 C 
BRANCH  16  17
ATOM     17  C   UNL     1      15.259  36.616 -13.956  1.00  0.00     0.004 C 
BRANCH  17  18
ATOM     18  C   UNL     1      13.808  36.846 -13.501  1.00  0.00     0.000 C 
BRANCH  18  19
ATOM     19  C   UNL     1      13.188  38.106 -14.124  1.00  0.00    -0.003 C 
ATOM     20  C   UNL     1      11.743  38.289 -13.669  1.00  0.00     0.004 C 
ENDBRANCH  18  19
ENDBRANCH  17  18
ENDBRANCH  16  17
ENDBRANCH  15  16
ENDBRANCH  13  14
ENDBRANCH  12  13
ENDBRANCH   1  11
TORSDOF 14
ENDMDL
