MODEL 1
REMARK VINA RESULT:    -3.998      0.000      0.000
REMARK INTER + INTRA:          -6.957
REMARK INTER:                  -6.101
REMARK INTRA:                  -0.856
REMARK UNBOUND:                -0.856
REMARK SMILES O=C([O-])CCCCCCCCC(=O)[O-]
REMARK SMILES IDX 7 1 6 2 5 3 4 4 2 5 1 6 3 7 8 8 9 9 10 10 11 11 12 12 13 13
REMARK SMILES IDX 14 14
REMARK H PARENT
REMARK Flexibility Score: inf
ROOT
ATOM      1  C   UNL     1       9.100  35.693   1.093  1.00  0.00     0.000 C 
ENDROOT
BRANCH   1   2
ATOM      2  C   UNL     1      10.599  35.963   0.876  1.00  0.00     0.000 C 
BRANCH   2   3
ATOM      3  C   UNL     1      10.904  36.522  -0.523  1.00  0.00     0.006 C 
BRANCH   3   4
ATOM      4  C   UNL     1       9.955  37.658  -0.926  1.00  0.00     0.053 C 
BRANCH   4   5
ATOM      5  C   UNL     1      10.549  38.984  -0.574  1.00  0.00     0.041 C 
ATOM      6  O   UNL     1      11.479  39.467  -1.272  1.00  0.00    -0.550 OA
ATOM      7  O   UNL     1      10.111  39.665   0.554  1.00  0.00    -0.550 OA
ENDBRANCH   4   5
ENDBRANCH   3   4
ENDBRANCH   2   3
ENDBRANCH   1   2
BRANCH   1   8
ATOM      8  C   UNL     1       8.695  34.268   0.656  1.00  0.00     0.000 C 
BRANCH   8   9
ATOM      9  C   UNL     1       7.949  34.223  -0.691  1.00  0.00     0.000 C 
BRANCH   9  10
ATOM     10  C   UNL     1       8.485  33.183  -1.690  1.00  0.00     0.006 C 
BRANCH  10  11
ATOM     11  C   UNL     1      10.015  33.069  -1.663  1.00  0.00     0.053 C 
BRANCH  11  12
ATOM     12  C   UNL     1      10.428  31.670  -1.331  1.00  0.00     0.041 C 
ATOM     13  O   UNL     1       9.955  31.094  -0.316  1.00  0.00    -0.550 OA
ATOM     14  O   UNL     1      11.294  30.984  -2.172  1.00  0.00    -0.550 OA
ENDBRANCH  11  12
ENDBRANCH  10  11
ENDBRANCH   9  10
ENDBRANCH   8   9
ENDBRANCH   1   8
TORSDOF 9
ENDMDL
MODEL 2
REMARK VINA RESULT:    -3.948      2.950      6.044
REMARK INTER + INTRA:          -6.882
REMARK INTER:                  -6.283
REMARK INTRA:                  -0.599
REMARK UNBOUND:                -0.856
REMARK SMILES O=C([O-])CCCCCCCCC(=O)[O-]
REMARK SMILES IDX 7 1 6 2 5 3 4 4 2 5 1 6 3 7 8 8 9 9 10 10 11 11 12 12 13 13
REMARK SMILES IDX 14 14
REMARK H PARENT
REMARK Flexibility Score: inf
ROOT
ATOM      1  C   UNL     1       9.319  33.429  -0.384  1.00  0.00     0.000 C 
ENDROOT
BRANCH   1   2
ATOM      2  C   UNL     1       8.179  33.340  -1.414  1.00  0.00     0.000 C 
BRANCH   2   3
ATOM      3  C   UNL     1       7.111  34.427  -1.213  1.00  0.00     0.006 C 
BRANCH   3   4
ATOM      4  C   UNL     1       6.129  34.515  -2.387  1.00  0.00     0.053 C 
BRANCH   4   5
ATOM      5  C   UNL     1       4.731  34.270  -1.918  1.00  0.00     0.041 C 
ATOM      6  O   UNL     1       4.012  33.410  -2.492  1.00  0.00    -0.550 OA
ATOM      7  O   UNL     1       4.203  35.025  -0.879  1.00  0.00    -0.550 OA
ENDBRANCH   4   5
ENDBRANCH   3   4
ENDBRANCH   2   3
ENDBRANCH   1   2
BRANCH   1   8
ATOM      8  C   UNL     1      10.706  33.526  -1.056  1.00  0.00     0.000 C 
BRANCH   8   9
ATOM      9  C   UNL     1      11.155  34.971  -1.344  1.00  0.00     0.000 C 
BRANCH   9  10
ATOM     10  C   UNL     1      10.676  36.011  -0.317  1.00  0.00     0.006 C 
BRANCH  10  11
ATOM     11  C   UNL     1       9.991  37.218  -0.970  1.00  0.00     0.053 C 
BRANCH  11  12
ATOM     12  C   UNL     1      10.551  38.494  -0.425  1.00  0.00     0.041 C 
ATOM     13  O   UNL     1      10.442  38.761   0.800  1.00  0.00    -0.550 OA
ATOM     14  O   UNL     1      11.239  39.363  -1.262  1.00  0.00    -0.550 OA
ENDBRANCH  11  12
ENDBRANCH  10  11
ENDBRANCH   9  10
ENDBRANCH   8   9
ENDBRANCH   1   8
TORSDOF 9
ENDMDL
MODEL 3
REMARK VINA RESULT:    -3.909      3.633      5.170
REMARK INTER + INTRA:          -6.822
REMARK INTER:                  -5.920
REMARK INTRA:                  -0.902
REMARK UNBOUND:                -0.856
REMARK SMILES O=C([O-])CCCCCCCCC(=O)[O-]
REMARK SMILES IDX 7 1 6 2 5 3 4 4 2 5 1 6 3 7 8 8 9 9 10 10 11 11 12 12 13 13
REMARK SMILES IDX 14 14
REMARK H PARENT
REMARK Flexibility Score: inf
ROOT
ATOM      1  C   UNL     1       7.305  36.740  -1.711  1.00  0.00     0.000 C 
ENDROOT
BRANCH   1   2
ATOM      2  C   UNL     1       7.086  35.522  -2.625  1.00  0.00     0.000 C 
BRANCH   2   3
ATOM      3  C   UNL     1       6.372  34.364  -1.910  1.00  0.00     0.006 C 
BRANCH   3   4
ATOM      4  C   UNL     1       5.050  34.795  -1.262  1.00  0.00     0.053 C 
BRANCH   4   5
ATOM      5  C   UNL     1       3.914  34.603  -2.216  1.00  0.00     0.041 C 
ATOM      6  O   UNL     1       3.393  35.596  -2.789  1.00  0.00    -0.550 OA
ATOM      7  O   UNL     1       3.397  33.332  -2.435  1.00  0.00    -0.550 OA
ENDBRANCH   4   5
ENDBRANCH   3   4
ENDBRANCH   2   3
ENDBRANCH   1   2
BRANCH   1   8
ATOM      8  C   UNL     1       8.431  36.502  -0.681  1.00  0.00     0.000 C 
BRANCH   8   9
ATOM      9  C   UNL     1       9.801  36.204  -1.321  1.00  0.00     0.000 C 
BRANCH   9  10
ATOM     10  C   UNL     1      10.540  34.994  -0.725  1.00  0.00     0.006 C 
BRANCH  10  11
ATOM     11  C   UNL     1       9.591  33.987  -0.061  1.00  0.00     0.053 C 
BRANCH  11  12
ATOM     12  C   UNL     1       9.609  32.687  -0.802  1.00  0.00     0.041 C 
ATOM     13  O   UNL     1       9.673  31.599  -0.171  1.00  0.00    -0.550 OA
ATOM     14  O   UNL     1       9.503  32.675  -2.187  1.00  0.00    -0.550 OA
ENDBRANCH  11  12
ENDBRANCH  10  11
ENDBRANCH   9  10
ENDBRANCH   8   9
ENDBRANCH   1   8
TORSDOF 9
ENDMDL
MODEL 4
REMARK VINA RESULT:    -3.873      3.315      5.736
REMARK INTER + INTRA:          -6.767
REMARK INTER:                  -5.902
REMARK INTRA:                  -0.865
REMARK UNBOUND:                -0.856
REMARK SMILES O=C([O-])CCCCCCCCC(=O)[O-]
REMARK SMILES IDX 7 1 6 2 5 3 4 4 2 5 1 6 3 7 8 8 9 9 10 10 11 11 12 12 13 13
REMARK SMILES IDX 14 14
REMARK H PARENT
REMARK Flexibility Score: inf
ROOT
ATOM      1  C   UNL     1       9.696  36.115  -1.358  1.00  0.00     0.000 C 
ENDROOT
BRANCH   1   2
ATOM      2  C   UNL     1      10.382  34.924  -0.664  1.00  0.00     0.000 C 
BRANCH   2   3
ATOM      3  C   UNL     1       9.388  33.828  -0.247  1.00  0.00     0.006 C 
BRANCH   3   4
ATOM      4  C   UNL     1       9.370  32.644  -1.222  1.00  0.00     0.053 C 
BRANCH   4   5
ATOM      5  C   UNL     1      10.170  31.505  -0.675  1.00  0.00     0.041 C 
ATOM      6  O   UNL     1      11.212  31.121  -1.268  1.00  0.00    -0.550 OA
ATOM      7  O   UNL     1       9.738  30.835   0.463  1.00  0.00    -0.550 OA
ENDBRANCH   4   5
ENDBRANCH   3   4
ENDBRANCH   2   3
ENDBRANCH   1   2
BRANCH   1   8
ATOM      8  C   UNL     1       8.364  36.497  -0.677  1.00  0.00     0.000 C 
BRANCH   8   9
ATOM      9  C   UNL     1       7.209  36.737  -1.669  1.00  0.00     0.000 C 
BRANCH   9  10
ATOM     10  C   UNL     1       6.901  35.550  -2.597  1.00  0.00     0.006 C 
BRANCH  10  11
ATOM     11  C   UNL     1       6.096  34.446  -1.900  1.00  0.00     0.053 C 
BRANCH  11  12
ATOM     12  C   UNL     1       4.707  34.920  -1.606  1.00  0.00     0.041 C 
ATOM     13  O   UNL     1       3.855  34.995  -2.530  1.00  0.00    -0.550 OA
ATOM     14  O   UNL     1       4.340  35.229  -0.303  1.00  0.00    -0.550 OA
ENDBRANCH  11  12
ENDBRANCH  10  11
ENDBRANCH   9  10
ENDBRANCH   8   9
ENDBRANCH   1   8
TORSDOF 9
ENDMDL
MODEL 5
REMARK VINA RESULT:    -3.861      3.360      4.198
REMARK INTER + INTRA:          -6.748
REMARK INTER:                  -5.957
REMARK INTRA:                  -0.791
REMARK UNBOUND:                -0.856
REMARK SMILES O=C([O-])CCCCCCCCC(=O)[O-]
REMARK SMILES IDX 7 1 6 2 5 3 4 4 2 5 1 6 3 7 8 8 9 9 10 10 11 11 12 12 13 13
REMARK SMILES IDX 14 14
REMARK H PARENT
REMARK Flexibility Score: inf
ROOT
ATOM      1  C   UNL     1       9.036  33.763  -0.358  1.00  0.00     0.000 C 
ENDROOT
BRANCH   1   2
ATOM      2  C   UNL     1      10.357  34.552  -0.347  1.00  0.00     0.000 C 
BRANCH   2   3
ATOM      3  C   UNL     1      10.365  35.709  -1.358  1.00  0.00     0.006 C 
BRANCH   3   4
ATOM      4  C   UNL     1       9.279  36.753  -1.072  1.00  0.00     0.053 C 
BRANCH   4   5
ATOM      5  C   UNL     1       9.898  38.040  -0.627  1.00  0.00     0.041 C 
ATOM      6  O   UNL     1       9.168  39.011  -0.293  1.00  0.00    -0.550 OA
ATOM      7  O   UNL     1      11.279  38.185  -0.628  1.00  0.00    -0.550 OA
ENDBRANCH   4   5
ENDBRANCH   3   4
ENDBRANCH   2   3
ENDBRANCH   1   2
BRANCH   1   8
ATOM      8  C   UNL     1       8.830  32.990  -1.679  1.00  0.00     0.000 C 
BRANCH   8   9
ATOM      9  C   UNL     1       7.540  33.377  -2.428  1.00  0.00     0.000 C 
BRANCH   9  10
ATOM     10  C   UNL     1       6.531  34.187  -1.596  1.00  0.00     0.006 C 
BRANCH  10  11
ATOM     11  C   UNL     1       5.787  35.240  -2.428  1.00  0.00     0.053 C 
BRANCH  11  12
ATOM     12  C   UNL     1       4.315  34.972  -2.412  1.00  0.00     0.041 C 
ATOM     13  O   UNL     1       3.501  35.891  -2.692  1.00  0.00    -0.550 OA
ATOM     14  O   UNL     1       3.845  33.694  -2.138  1.00  0.00    -0.550 OA
ENDBRANCH  11  12
ENDBRANCH  10  11
ENDBRANCH   9  10
ENDBRANCH   8   9
ENDBRANCH   1   8
TORSDOF 9
ENDMDL
MODEL 6
REMARK VINA RESULT:    -3.834      2.045      2.617
REMARK INTER + INTRA:          -6.708
REMARK INTER:                  -5.822
REMARK INTRA:                  -0.885
REMARK UNBOUND:                -0.856
REMARK SMILES O=C([O-])CCCCCCCCC(=O)[O-]
REMARK SMILES IDX 7 1 6 2 5 3 4 4 2 5 1 6 3 7 8 8 9 9 10 10 11 11 12 12 13 13
REMARK SMILES IDX 14 14
REMARK H PARENT
REMARK Flexibility Score: inf
ROOT
ATOM      1  C   UNL     1       6.352  36.165  -0.728  1.00  0.00     0.000 C 
ENDROOT
BRANCH   1   2
ATOM      2  C   UNL     1       7.543  36.906  -1.359  1.00  0.00     0.000 C 
BRANCH   2   3
ATOM      3  C   UNL     1       8.660  37.205  -0.346  1.00  0.00     0.006 C 
BRANCH   3   4
ATOM      4  C   UNL     1      10.053  37.218  -0.987  1.00  0.00     0.053 C 
BRANCH   4   5
ATOM      5  C   UNL     1      11.019  36.442  -0.151  1.00  0.00     0.041 C 
ATOM      6  O   UNL     1      12.255  36.507  -0.385  1.00  0.00    -0.550 OA
ATOM      7  O   UNL     1      10.553  35.607   0.856  1.00  0.00    -0.550 OA
ENDBRANCH   4   5
ENDBRANCH   3   4
ENDBRANCH   2   3
ENDBRANCH   1   2
BRANCH   1   8
ATOM      8  C   UNL     1       6.066  34.818  -1.428  1.00  0.00     0.000 C 
BRANCH   8   9
ATOM      9  C   UNL     1       7.048  34.493  -2.570  1.00  0.00     0.000 C 
BRANCH   9  10
ATOM     10  C   UNL     1       7.907  33.238  -2.343  1.00  0.00     0.006 C 
BRANCH  10  11
ATOM     11  C   UNL     1       8.664  33.272  -1.008  1.00  0.00     0.053 C 
BRANCH  11  12
ATOM     12  C   UNL     1       9.950  32.515  -1.118  1.00  0.00     0.041 C 
ATOM     13  O   UNL     1      11.013  33.114  -1.429  1.00  0.00    -0.550 OA
ATOM     14  O   UNL     1       9.983  31.157  -0.828  1.00  0.00    -0.550 OA
ENDBRANCH  11  12
ENDBRANCH  10  11
ENDBRANCH   9  10
ENDBRANCH   8   9
ENDBRANCH   1   8
TORSDOF 9
ENDMDL
MODEL 7
REMARK VINA RESULT:    -3.788      4.109      5.675
REMARK INTER + INTRA:          -6.637
REMARK INTER:                  -6.027
REMARK INTRA:                  -0.610
REMARK UNBOUND:                -0.856
REMARK SMILES O=C([O-])CCCCCCCCC(=O)[O-]
REMARK SMILES IDX 7 1 6 2 5 3 4 4 2 5 1 6 3 7 8 8 9 9 10 10 11 11 12 12 13 13
REMARK SMILES IDX 14 14
REMARK H PARENT
REMARK Flexibility Score: inf
ROOT
ATOM      1  C   UNL     1       4.099  33.676  -2.338  1.00  0.00     0.000 C 
ENDROOT
BRANCH   1   2
ATOM      2  C   UNL     1       3.184  34.472  -1.390  1.00  0.00     0.000 C 
BRANCH   2   3
ATOM      3  C   UNL     1       3.926  35.603  -0.662  1.00  0.00     0.006 C 
BRANCH   3   4
ATOM      4  C   UNL     1       3.284  35.961   0.684  1.00  0.00     0.053 C 
BRANCH   4   5
ATOM      5  C   UNL     1       4.274  35.803   1.794  1.00  0.00     0.041 C 
ATOM      6  O   UNL     1       3.974  36.155   2.965  1.00  0.00    -0.550 OA
ATOM      7  O   UNL     1       5.546  35.314   1.527  1.00  0.00    -0.550 OA
ENDBRANCH   4   5
ENDBRANCH   3   4
ENDBRANCH   2   3
ENDBRANCH   1   2
BRANCH   1   8
ATOM      8  C   UNL     1       5.522  34.270  -2.410  1.00  0.00     0.000 C 
BRANCH   8   9
ATOM      9  C   UNL     1       6.582  33.276  -2.923  1.00  0.00     0.000 C 
BRANCH   9  10
ATOM     10  C   UNL     1       7.921  33.317  -2.167  1.00  0.00     0.006 C 
BRANCH  10  11
ATOM     11  C   UNL     1       7.888  34.253  -0.952  1.00  0.00     0.053 C 
BRANCH  11  12
ATOM     12  C   UNL     1       8.845  33.780   0.096  1.00  0.00     0.041 C 
ATOM     13  O   UNL     1       8.926  34.383   1.199  1.00  0.00    -0.550 OA
ATOM     14  O   UNL     1       9.611  32.642  -0.124  1.00  0.00    -0.550 OA
ENDBRANCH  11  12
ENDBRANCH  10  11
ENDBRANCH   9  10
ENDBRANCH   8   9
ENDBRANCH   1   8
TORSDOF 9
ENDMDL
MODEL 8
REMARK VINA RESULT:    -3.781      2.464      5.808
REMARK INTER + INTRA:          -6.626
REMARK INTER:                  -5.845
REMARK INTRA:                  -0.781
REMARK UNBOUND:                -0.856
REMARK SMILES O=C([O-])CCCCCCCCC(=O)[O-]
REMARK SMILES IDX 7 1 6 2 5 3 4 4 2 5 1 6 3 7 8 8 9 9 10 10 11 11 12 12 13 13
REMARK SMILES IDX 14 14
REMARK H PARENT
REMARK Flexibility Score: inf
ROOT
ATOM      1  C   UNL     1      10.990  33.876  -1.362  1.00  0.00     0.000 C 
ENDROOT
BRANCH   1   2
ATOM      2  C   UNL     1       9.802  33.197  -0.658  1.00  0.00     0.000 C 
BRANCH   2   3
ATOM      3  C   UNL     1       8.545  33.136  -1.540  1.00  0.00     0.006 C 
BRANCH   3   4
ATOM      4  C   UNL     1       7.469  34.139  -1.107  1.00  0.00     0.053 C 
BRANCH   4   5
ATOM      5  C   UNL     1       6.613  34.522  -2.273  1.00  0.00     0.041 C 
ATOM      6  O   UNL     1       5.561  33.878  -2.524  1.00  0.00    -0.550 OA
ATOM      7  O   UNL     1       7.003  35.558  -3.112  1.00  0.00    -0.550 OA
ENDBRANCH   4   5
ENDBRANCH   3   4
ENDBRANCH   2   3
ENDBRANCH   1   2
BRANCH   1   8
ATOM      8  C   UNL     1      10.899  35.417  -1.305  1.00  0.00     0.000 C 
BRANCH   8   9
ATOM      9  C   UNL     1      10.780  35.977   0.126  1.00  0.00     0.000 C 
BRANCH   9  10
ATOM     10  C   UNL     1       9.503  36.791   0.394  1.00  0.00     0.006 C 
BRANCH  10  11
ATOM     11  C   UNL     1       9.320  37.949  -0.596  1.00  0.00     0.053 C 
BRANCH  11  12
ATOM     12  C   UNL     1      10.311  39.035  -0.317  1.00  0.00     0.041 C 
ATOM     13  O   UNL     1      10.239  39.699   0.751  1.00  0.00    -0.550 OA
ATOM     14  O   UNL     1      11.344  39.280  -1.212  1.00  0.00    -0.550 OA
ENDBRANCH  11  12
ENDBRANCH  10  11
ENDBRANCH   9  10
ENDBRANCH   8   9
ENDBRANCH   1   8
TORSDOF 9
ENDMDL
MODEL 9
REMARK VINA RESULT:    -3.746      1.565      5.536
REMARK INTER + INTRA:          -6.572
REMARK INTER:                  -5.789
REMARK INTRA:                  -0.783
REMARK UNBOUND:                -0.856
REMARK SMILES O=C([O-])CCCCCCCCC(=O)[O-]
REMARK SMILES IDX 7 1 6 2 5 3 4 4 2 5 1 6 3 7 8 8 9 9 10 10 11 11 12 12 13 13
REMARK SMILES IDX 14 14
REMARK H PARENT
REMARK Flexibility Score: inf
ROOT
ATOM      1  C   UNL     1       7.226  35.109  -1.266  1.00  0.00     0.000 C 
ENDROOT
BRANCH   1   2
ATOM      2  C   UNL     1       7.299  33.648  -1.740  1.00  0.00     0.000 C 
BRANCH   2   3
ATOM      3  C   UNL     1       8.744  33.155  -1.921  1.00  0.00     0.006 C 
BRANCH   3   4
ATOM      4  C   UNL     1       9.468  32.940  -0.586  1.00  0.00     0.053 C 
BRANCH   4   5
ATOM      5  C   UNL     1       9.982  31.539  -0.490  1.00  0.00     0.041 C 
ATOM      6  O   UNL     1      10.668  31.051  -1.427  1.00  0.00    -0.550 OA
ATOM      7  O   UNL     1       9.662  30.755   0.610  1.00  0.00    -0.550 OA
ENDBRANCH   4   5
ENDBRANCH   3   4
ENDBRANCH   2   3
ENDBRANCH   1   2
BRANCH   1   8
ATOM      8  C   UNL     1       6.591  35.236   0.136  1.00  0.00     0.000 C 
BRANCH   8   9
ATOM      9  C   UNL     1       7.623  35.327   1.277  1.00  0.00     0.000 C 
BRANCH   9  10
ATOM     10  C   UNL     1       8.507  36.585   1.246  1.00  0.00     0.006 C 
BRANCH  10  11
ATOM     11  C   UNL     1      10.006  36.256   1.243  1.00  0.00     0.053 C 
BRANCH  11  12
ATOM     12  C   UNL     1      10.616  36.614  -0.075  1.00  0.00     0.041 C 
ATOM     13  O   UNL     1      11.757  36.181  -0.384  1.00  0.00    -0.550 OA
ATOM     14  O   UNL     1       9.902  37.385  -0.984  1.00  0.00    -0.550 OA
ENDBRANCH  11  12
ENDBRANCH  10  11
ENDBRANCH   9  10
ENDBRANCH   8   9
ENDBRANCH   1   8
TORSDOF 9
ENDMDL
