MODEL 1
REMARK VINA RESULT:    -3.603      0.000      0.000
REMARK INTER + INTRA:          -8.213
REMARK INTER:                  -6.131
REMARK INTRA:                  -2.082
REMARK UNBOUND:                -2.082
REMARK SMILES CC(=O)CCC[C@H](C)CCC[C@@H](C)CCCC(C)C
REMARK SMILES IDX 10 1 11 2 12 3 13 4 14 5 15 6 16 7 17 8 18 9 19 10 9 11 7 12
REMARK SMILES IDX 8 13 6 14 5 15 4 16 2 17 3 18 1 19
REMARK H PARENT
REMARK Flexibility Score: inf
ROOT
ATOM      1  C   UNL     1      -7.477  23.084   9.176  1.00  0.00     0.001 C 
ENDROOT
BRANCH   1   2
ATOM      2  C   UNL     1      -7.221  23.113   7.660  1.00  0.00     0.003 C 
BRANCH   2   3
ATOM      3  C   UNL     1      -5.998  22.259   7.237  1.00  0.00    -0.014 C 
ATOM      4  C   UNL     1      -6.428  21.099   6.323  1.00  0.00     0.007 C 
BRANCH   3   5
ATOM      5  C   UNL     1      -4.939  23.126   6.513  1.00  0.00     0.003 C 
BRANCH   5   6
ATOM      6  C   UNL     1      -3.614  23.225   7.293  1.00  0.00     0.001 C 
BRANCH   6   7
ATOM      7  C   UNL     1      -3.206  24.691   7.561  1.00  0.00     0.003 C 
BRANCH   7   8
ATOM      8  C   UNL     1      -3.408  25.134   9.029  1.00  0.00    -0.017 C 
ATOM      9  C   UNL     1      -4.812  25.721   9.212  1.00  0.00     0.007 C 
ATOM     10  C   UNL     1      -3.193  23.980  10.020  1.00  0.00     0.007 C 
ENDBRANCH   7   8
ENDBRANCH   6   7
ENDBRANCH   5   6
ENDBRANCH   3   5
ENDBRANCH   2   3
ENDBRANCH   1   2
BRANCH   1  11
ATOM     11  C   UNL     1      -6.462  22.174   9.890  1.00  0.00     0.003 C 
BRANCH  11  12
ATOM     12  C   UNL     1      -6.238  22.556  11.375  1.00  0.00    -0.014 C 
ATOM     13  C   UNL     1      -6.935  23.888  11.718  1.00  0.00     0.007 C 
BRANCH  12  14
ATOM     14  C   UNL     1      -6.747  21.410  12.284  1.00  0.00     0.004 C 
BRANCH  14  15
ATOM     15  C   UNL     1      -8.281  21.372  12.405  1.00  0.00     0.008 C 
BRANCH  15  16
ATOM     16  C   UNL     1      -8.715  20.537  13.618  1.00  0.00     0.075 C 
BRANCH  16  17
ATOM     17  C   UNL     1      -9.197  21.331  14.817  1.00  0.00     0.129 C 
ATOM     18  O   UNL     1     -10.119  20.869  15.471  1.00  0.00    -0.300 OA
ATOM     19  C   UNL     1      -8.618  22.651  15.259  1.00  0.00     0.087 C 
ENDBRANCH  16  17
ENDBRANCH  15  16
ENDBRANCH  14  15
ENDBRANCH  12  14
ENDBRANCH  11  12
ENDBRANCH   1  11
TORSDOF 12
ENDMDL
MODEL 2
REMARK VINA RESULT:    -3.561      3.166      7.108
REMARK INTER + INTRA:          -8.141
REMARK INTER:                  -5.744
REMARK INTRA:                  -2.397
REMARK UNBOUND:                -2.082
REMARK SMILES CC(=O)CCC[C@H](C)CCC[C@@H](C)CCCC(C)C
REMARK SMILES IDX 10 1 11 2 12 3 13 4 14 5 15 6 16 7 17 8 18 9 19 10 9 11 7 12
REMARK SMILES IDX 8 13 6 14 5 15 4 16 2 17 3 18 1 19
REMARK H PARENT
REMARK Flexibility Score: inf
ROOT
ATOM      1  C   UNL     1      -6.918  23.944   9.892  1.00  0.00     0.001 C 
ENDROOT
BRANCH   1   2
ATOM      2  C   UNL     1      -6.031  22.823  10.460  1.00  0.00     0.003 C 
BRANCH   2   3
ATOM      3  C   UNL     1      -6.232  22.605  11.981  1.00  0.00    -0.014 C 
ATOM      4  C   UNL     1      -7.083  23.732  12.591  1.00  0.00     0.007 C 
BRANCH   3   5
ATOM      5  C   UNL     1      -6.902  21.238  12.263  1.00  0.00     0.003 C 
BRANCH   5   6
ATOM      6  C   UNL     1      -8.161  21.359  13.142  1.00  0.00     0.001 C 
BRANCH   6   7
ATOM      7  C   UNL     1      -9.392  20.693  12.489  1.00  0.00     0.003 C 
BRANCH   7   8
ATOM      8  C   UNL     1      -9.650  21.155  11.035  1.00  0.00    -0.017 C 
ATOM      9  C   UNL     1     -10.643  20.208  10.352  1.00  0.00     0.007 C 
ATOM     10  C   UNL     1     -10.174  22.597  10.967  1.00  0.00     0.007 C 
ENDBRANCH   7   8
ENDBRANCH   6   7
ENDBRANCH   5   6
ENDBRANCH   3   5
ENDBRANCH   2   3
ENDBRANCH   1   2
BRANCH   1  11
ATOM     11  C   UNL     1      -7.224  23.706   8.403  1.00  0.00     0.003 C 
BRANCH  11  12
ATOM     12  C   UNL     1      -7.300  22.205   8.027  1.00  0.00    -0.014 C 
ATOM     13  C   UNL     1      -8.715  21.823   7.550  1.00  0.00     0.007 C 
BRANCH  12  14
ATOM     14  C   UNL     1      -6.242  21.893   6.939  1.00  0.00     0.004 C 
BRANCH  14  15
ATOM     15  C   UNL     1      -5.449  23.135   6.495  1.00  0.00     0.008 C 
BRANCH  15  16
ATOM     16  C   UNL     1      -3.943  22.838   6.453  1.00  0.00     0.075 C 
BRANCH  16  17
ATOM     17  C   UNL     1      -3.066  23.806   7.224  1.00  0.00     0.129 C 
ATOM     18  O   UNL     1      -2.044  24.201   6.684  1.00  0.00    -0.300 OA
ATOM     19  C   UNL     1      -3.366  24.315   8.611  1.00  0.00     0.087 C 
ENDBRANCH  16  17
ENDBRANCH  15  16
ENDBRANCH  14  15
ENDBRANCH  12  14
ENDBRANCH  11  12
ENDBRANCH   1  11
TORSDOF 12
ENDMDL
MODEL 3
REMARK VINA RESULT:    -3.437      2.380      6.632
REMARK INTER + INTRA:          -7.930
REMARK INTER:                  -5.722
REMARK INTRA:                  -2.208
REMARK UNBOUND:                -2.082
REMARK SMILES CC(=O)CCC[C@H](C)CCC[C@@H](C)CCCC(C)C
REMARK SMILES IDX 10 1 11 2 12 3 13 4 14 5 15 6 16 7 17 8 18 9 19 10 9 11 7 12
REMARK SMILES IDX 8 13 6 14 5 15 4 16 2 17 3 18 1 19
REMARK H PARENT
REMARK Flexibility Score: inf
ROOT
ATOM      1  C   UNL     1      -6.498  22.388  11.706  1.00  0.00     0.001 C 
ENDROOT
BRANCH   1   2
ATOM      2  C   UNL     1      -7.140  21.279  12.555  1.00  0.00     0.003 C 
BRANCH   2   3
ATOM      3  C   UNL     1      -8.602  21.597  12.961  1.00  0.00    -0.014 C 
ATOM      4  C   UNL     1      -9.598  20.937  11.992  1.00  0.00     0.007 C 
BRANCH   3   5
ATOM      5  C   UNL     1      -8.892  21.124  14.407  1.00  0.00     0.003 C 
BRANCH   5   6
ATOM      6  C   UNL     1      -9.210  22.289  15.364  1.00  0.00     0.001 C 
BRANCH   6   7
ATOM      7  C   UNL     1      -8.055  23.312  15.438  1.00  0.00     0.003 C 
BRANCH   7   8
ATOM      8  C   UNL     1      -8.450  24.730  14.961  1.00  0.00    -0.017 C 
ATOM      9  C   UNL     1      -7.503  25.191  13.847  1.00  0.00     0.007 C 
ATOM     10  C   UNL     1      -9.904  24.795  14.471  1.00  0.00     0.007 C 
ENDBRANCH   7   8
ENDBRANCH   6   7
ENDBRANCH   5   6
ENDBRANCH   3   5
ENDBRANCH   2   3
ENDBRANCH   1   2
BRANCH   1  11
ATOM     11  C   UNL     1      -6.445  21.987  10.222  1.00  0.00     0.003 C 
BRANCH  11  12
ATOM     12  C   UNL     1      -6.787  23.153   9.260  1.00  0.00    -0.014 C 
ATOM     13  C   UNL     1      -7.098  24.445  10.042  1.00  0.00     0.007 C 
BRANCH  12  14
ATOM     14  C   UNL     1      -5.612  23.368   8.273  1.00  0.00     0.004 C 
BRANCH  14  15
ATOM     15  C   UNL     1      -4.688  24.529   8.680  1.00  0.00     0.008 C 
BRANCH  15  16
ATOM     16  C   UNL     1      -3.428  24.006   9.384  1.00  0.00     0.075 C 
BRANCH  16  17
ATOM     17  C   UNL     1      -3.407  24.174  10.891  1.00  0.00     0.129 C 
ATOM     18  O   UNL     1      -3.019  23.230  11.563  1.00  0.00    -0.300 OA
ATOM     19  C   UNL     1      -3.833  25.423  11.620  1.00  0.00     0.087 C 
ENDBRANCH  16  17
ENDBRANCH  15  16
ENDBRANCH  14  15
ENDBRANCH  12  14
ENDBRANCH  11  12
ENDBRANCH   1  11
TORSDOF 12
ENDMDL
MODEL 4
REMARK VINA RESULT:    -3.428      2.897      6.993
REMARK INTER + INTRA:          -7.915
REMARK INTER:                  -5.701
REMARK INTRA:                  -2.214
REMARK UNBOUND:                -2.082
REMARK SMILES CC(=O)CCC[C@H](C)CCC[C@@H](C)CCCC(C)C
REMARK SMILES IDX 10 1 11 2 12 3 13 4 14 5 15 6 16 7 17 8 18 9 19 10 9 11 7 12
REMARK SMILES IDX 8 13 6 14 5 15 4 16 2 17 3 18 1 19
REMARK H PARENT
REMARK Flexibility Score: inf
ROOT
ATOM      1  C   UNL     1      -6.222  22.537  11.131  1.00  0.00     0.001 C 
ENDROOT
BRANCH   1   2
ATOM      2  C   UNL     1      -6.737  21.651  12.276  1.00  0.00     0.003 C 
BRANCH   2   3
ATOM      3  C   UNL     1      -7.491  22.451  13.368  1.00  0.00    -0.014 C 
ATOM      4  C   UNL     1      -7.911  23.836  12.844  1.00  0.00     0.007 C 
BRANCH   3   5
ATOM      5  C   UNL     1      -8.742  21.680  13.858  1.00  0.00     0.003 C 
BRANCH   5   6
ATOM      6  C   UNL     1      -8.789  20.230  13.341  1.00  0.00     0.001 C 
BRANCH   6   7
ATOM      7  C   UNL     1      -9.923  20.015  12.314  1.00  0.00     0.003 C 
BRANCH   7   8
ATOM      8  C   UNL     1     -10.550  21.331  11.797  1.00  0.00    -0.017 C 
ATOM      9  C   UNL     1     -10.259  21.501  10.302  1.00  0.00     0.007 C 
ATOM     10  C   UNL     1     -12.065  21.389  12.043  1.00  0.00     0.007 C 
ENDBRANCH   7   8
ENDBRANCH   6   7
ENDBRANCH   5   6
ENDBRANCH   3   5
ENDBRANCH   2   3
ENDBRANCH   1   2
BRANCH   1  11
ATOM     11  C   UNL     1      -6.713  22.019   9.767  1.00  0.00     0.003 C 
BRANCH  11  12
ATOM     12  C   UNL     1      -6.800  23.127   8.687  1.00  0.00    -0.014 C 
ATOM     13  C   UNL     1      -7.150  24.490   9.316  1.00  0.00     0.007 C 
BRANCH  12  14
ATOM     14  C   UNL     1      -5.460  23.197   7.913  1.00  0.00     0.004 C 
BRANCH  14  15
ATOM     15  C   UNL     1      -4.598  24.409   8.309  1.00  0.00     0.008 C 
BRANCH  15  16
ATOM     16  C   UNL     1      -3.334  23.961   9.057  1.00  0.00     0.075 C 
BRANCH  16  17
ATOM     17  C   UNL     1      -2.994  24.761  10.299  1.00  0.00     0.129 C 
ATOM     18  O   UNL     1      -1.817  24.853  10.612  1.00  0.00    -0.300 OA
ATOM     19  C   UNL     1      -4.006  25.451  11.178  1.00  0.00     0.087 C 
ENDBRANCH  16  17
ENDBRANCH  15  16
ENDBRANCH  14  15
ENDBRANCH  12  14
ENDBRANCH  11  12
ENDBRANCH   1  11
TORSDOF 12
ENDMDL
MODEL 5
REMARK VINA RESULT:    -3.410      2.825      6.761
REMARK INTER + INTRA:          -7.884
REMARK INTER:                  -5.767
REMARK INTRA:                  -2.118
REMARK UNBOUND:                -2.082
REMARK SMILES CC(=O)CCC[C@H](C)CCC[C@@H](C)CCCC(C)C
REMARK SMILES IDX 10 1 11 2 12 3 13 4 14 5 15 6 16 7 17 8 18 9 19 10 9 11 7 12
REMARK SMILES IDX 8 13 6 14 5 15 4 16 2 17 3 18 1 19
REMARK H PARENT
REMARK Flexibility Score: inf
ROOT
ATOM      1  C   UNL     1      -6.754  23.356   9.142  1.00  0.00     0.001 C 
ENDROOT
BRANCH   1   2
ATOM      2  C   UNL     1      -6.742  22.123  10.060  1.00  0.00     0.003 C 
BRANCH   2   3
ATOM      3  C   UNL     1      -6.597  22.488  11.560  1.00  0.00    -0.014 C 
ATOM      4  C   UNL     1      -7.576  23.608  11.951  1.00  0.00     0.007 C 
BRANCH   3   5
ATOM      5  C   UNL     1      -6.838  21.250  12.458  1.00  0.00     0.003 C 
BRANCH   5   6
ATOM      6  C   UNL     1      -8.115  21.370  13.311  1.00  0.00     0.001 C 
BRANCH   6   7
ATOM      7  C   UNL     1      -9.106  20.217  13.040  1.00  0.00     0.003 C 
BRANCH   7   8
ATOM      8  C   UNL     1     -10.381  20.658  12.283  1.00  0.00    -0.017 C 
ATOM      9  C   UNL     1     -10.880  22.000  12.832  1.00  0.00     0.007 C 
ATOM     10  C   UNL     1     -10.150  20.767  10.769  1.00  0.00     0.007 C 
ENDBRANCH   7   8
ENDBRANCH   6   7
ENDBRANCH   5   6
ENDBRANCH   3   5
ENDBRANCH   2   3
ENDBRANCH   1   2
BRANCH   1  11
ATOM     11  C   UNL     1      -5.452  23.449   8.326  1.00  0.00     0.003 C 
BRANCH  11  12
ATOM     12  C   UNL     1      -4.459  24.504   8.877  1.00  0.00    -0.014 C 
ATOM     13  C   UNL     1      -5.181  25.536   9.766  1.00  0.00     0.007 C 
BRANCH  12  14
ATOM     14  C   UNL     1      -3.329  23.788   9.658  1.00  0.00     0.004 C 
BRANCH  14  15
ATOM     15  C   UNL     1      -3.354  24.091  11.167  1.00  0.00     0.008 C 
BRANCH  15  16
ATOM     16  C   UNL     1      -2.013  24.678  11.630  1.00  0.00     0.075 C 
BRANCH  16  17
ATOM     17  C   UNL     1      -2.058  26.121  12.093  1.00  0.00     0.129 C 
ATOM     18  O   UNL     1      -2.166  26.331  13.291  1.00  0.00    -0.300 OA
ATOM     19  C   UNL     1      -1.980  27.317  11.178  1.00  0.00     0.087 C 
ENDBRANCH  16  17
ENDBRANCH  15  16
ENDBRANCH  14  15
ENDBRANCH  12  14
ENDBRANCH  11  12
ENDBRANCH   1  11
TORSDOF 12
ENDMDL
MODEL 6
REMARK VINA RESULT:    -3.400      2.813      7.237
REMARK INTER + INTRA:          -7.868
REMARK INTER:                  -5.669
REMARK INTRA:                  -2.199
REMARK UNBOUND:                -2.082
REMARK SMILES CC(=O)CCC[C@H](C)CCC[C@@H](C)CCCC(C)C
REMARK SMILES IDX 10 1 11 2 12 3 13 4 14 5 15 6 16 7 17 8 18 9 19 10 9 11 7 12
REMARK SMILES IDX 8 13 6 14 5 15 4 16 2 17 3 18 1 19
REMARK H PARENT
REMARK Flexibility Score: inf
ROOT
ATOM      1  C   UNL     1      -6.764  21.495  12.448  1.00  0.00     0.001 C 
ENDROOT
BRANCH   1   2
ATOM      2  C   UNL     1      -7.541  22.631  13.133  1.00  0.00     0.003 C 
BRANCH   2   3
ATOM      3  C   UNL     1      -8.450  22.133  14.286  1.00  0.00    -0.014 C 
ATOM      4  C   UNL     1      -9.563  23.151  14.589  1.00  0.00     0.007 C 
BRANCH   3   5
ATOM      5  C   UNL     1      -9.079  20.760  13.943  1.00  0.00     0.003 C 
BRANCH   5   6
ATOM      6  C   UNL     1     -10.318  20.882  13.035  1.00  0.00     0.001 C 
BRANCH   6   7
ATOM      7  C   UNL     1     -10.168  20.060  11.735  1.00  0.00     0.003 C 
BRANCH   7   8
ATOM      8  C   UNL     1     -10.083  20.929  10.458  1.00  0.00    -0.017 C 
ATOM      9  C   UNL     1     -11.073  20.413   9.406  1.00  0.00     0.007 C 
ATOM     10  C   UNL     1     -10.353  22.413  10.744  1.00  0.00     0.007 C 
ENDBRANCH   7   8
ENDBRANCH   6   7
ENDBRANCH   5   6
ENDBRANCH   3   5
ENDBRANCH   2   3
ENDBRANCH   1   2
BRANCH   1  11
ATOM     11  C   UNL     1      -6.633  21.750  10.936  1.00  0.00     0.003 C 
BRANCH  11  12
ATOM     12  C   UNL     1      -6.399  23.241  10.585  1.00  0.00    -0.014 C 
ATOM     13  C   UNL     1      -4.896  23.583  10.584  1.00  0.00     0.007 C 
BRANCH  12  14
ATOM     14  C   UNL     1      -7.043  23.553   9.210  1.00  0.00     0.004 C 
BRANCH  14  15
ATOM     15  C   UNL     1      -7.310  22.292   8.369  1.00  0.00     0.008 C 
BRANCH  15  16
ATOM     16  C   UNL     1      -6.169  22.049   7.369  1.00  0.00     0.075 C 
BRANCH  16  17
ATOM     17  C   UNL     1      -6.505  21.133   6.208  1.00  0.00     0.129 C 
ATOM     18  O   UNL     1      -7.642  20.692   6.143  1.00  0.00    -0.300 OA
ATOM     19  C   UNL     1      -5.534  20.727   5.129  1.00  0.00     0.087 C 
ENDBRANCH  16  17
ENDBRANCH  15  16
ENDBRANCH  14  15
ENDBRANCH  12  14
ENDBRANCH  11  12
ENDBRANCH   1  11
TORSDOF 12
ENDMDL
MODEL 7
REMARK VINA RESULT:    -3.372      2.622      4.743
REMARK INTER + INTRA:          -7.819
REMARK INTER:                  -5.666
REMARK INTRA:                  -2.153
REMARK UNBOUND:                -2.082
REMARK SMILES CC(=O)CCC[C@H](C)CCC[C@@H](C)CCCC(C)C
REMARK SMILES IDX 10 1 11 2 12 3 13 4 14 5 15 6 16 7 17 8 18 9 19 10 9 11 7 12
REMARK SMILES IDX 8 13 6 14 5 15 4 16 2 17 3 18 1 19
REMARK H PARENT
REMARK Flexibility Score: inf
ROOT
ATOM      1  C   UNL     1      -9.764  23.605  12.163  1.00  0.00     0.001 C 
ENDROOT
BRANCH   1   2
ATOM      2  C   UNL     1      -9.051  22.370  11.589  1.00  0.00     0.003 C 
BRANCH   2   3
ATOM      3  C   UNL     1      -7.944  21.821  12.525  1.00  0.00    -0.014 C 
ATOM      4  C   UNL     1      -8.397  20.520  13.209  1.00  0.00     0.007 C 
BRANCH   3   5
ATOM      5  C   UNL     1      -6.631  21.567  11.743  1.00  0.00     0.003 C 
BRANCH   5   6
ATOM      6  C   UNL     1      -6.701  22.058  10.285  1.00  0.00     0.001 C 
BRANCH   6   7
ATOM      7  C   UNL     1      -5.681  23.183  10.001  1.00  0.00     0.003 C 
BRANCH   7   8
ATOM      8  C   UNL     1      -5.018  23.757  11.276  1.00  0.00    -0.017 C 
ATOM      9  C   UNL     1      -3.498  23.836  11.087  1.00  0.00     0.007 C 
ATOM     10  C   UNL     1      -5.570  25.141  11.647  1.00  0.00     0.007 C 
ENDBRANCH   7   8
ENDBRANCH   6   7
ENDBRANCH   5   6
ENDBRANCH   3   5
ENDBRANCH   2   3
ENDBRANCH   1   2
BRANCH   1  11
ATOM     11  C   UNL     1     -11.173  23.246  12.666  1.00  0.00     0.003 C 
BRANCH  11  12
ATOM     12  C   UNL     1     -11.306  23.307  14.208  1.00  0.00    -0.014 C 
ATOM     13  C   UNL     1     -11.561  21.906  14.799  1.00  0.00     0.007 C 
BRANCH  12  14
ATOM     14  C   UNL     1     -10.028  23.942  14.811  1.00  0.00     0.004 C 
BRANCH  14  15
ATOM     15  C   UNL     1      -9.341  23.041  15.852  1.00  0.00     0.008 C 
BRANCH  15  16
ATOM     16  C   UNL     1      -7.838  23.347  15.934  1.00  0.00     0.075 C 
BRANCH  16  17
ATOM     17  C   UNL     1      -7.405  24.169  17.132  1.00  0.00     0.129 C 
ATOM     18  O   UNL     1      -6.555  25.028  16.955  1.00  0.00    -0.300 OA
ATOM     19  C   UNL     1      -7.949  24.002  18.528  1.00  0.00     0.087 C 
ENDBRANCH  16  17
ENDBRANCH  15  16
ENDBRANCH  14  15
ENDBRANCH  12  14
ENDBRANCH  11  12
ENDBRANCH   1  11
TORSDOF 12
ENDMDL
MODEL 8
REMARK VINA RESULT:    -3.353      2.989      7.397
REMARK INTER + INTRA:          -7.788
REMARK INTER:                  -5.417
REMARK INTRA:                  -2.371
REMARK UNBOUND:                -2.082
REMARK SMILES CC(=O)CCC[C@H](C)CCC[C@@H](C)CCCC(C)C
REMARK SMILES IDX 10 1 11 2 12 3 13 4 14 5 15 6 16 7 17 8 18 9 19 10 9 11 7 12
REMARK SMILES IDX 8 13 6 14 5 15 4 16 2 17 3 18 1 19
REMARK H PARENT
REMARK Flexibility Score: inf
ROOT
ATOM      1  C   UNL     1      -7.358  22.174  13.095  1.00  0.00     0.001 C 
ENDROOT
BRANCH   1   2
ATOM      2  C   UNL     1      -8.343  21.237  13.812  1.00  0.00     0.003 C 
BRANCH   2   3
ATOM      3  C   UNL     1      -9.071  21.918  14.999  1.00  0.00    -0.014 C 
ATOM      4  C   UNL     1      -8.678  23.401  15.108  1.00  0.00     0.007 C 
BRANCH   3   5
ATOM      5  C   UNL     1     -10.608  21.797  14.850  1.00  0.00     0.003 C 
BRANCH   5   6
ATOM      6  C   UNL     1     -11.176  22.718  13.753  1.00  0.00     0.001 C 
BRANCH   6   7
ATOM      7  C   UNL     1     -11.793  21.917  12.585  1.00  0.00     0.003 C 
BRANCH   7   8
ATOM      8  C   UNL     1     -11.084  22.150  11.230  1.00  0.00    -0.017 C 
ATOM      9  C   UNL     1     -10.173  23.380  11.318  1.00  0.00     0.007 C 
ATOM     10  C   UNL     1     -10.269  20.928  10.782  1.00  0.00     0.007 C 
ENDBRANCH   7   8
ENDBRANCH   6   7
ENDBRANCH   5   6
ENDBRANCH   3   5
ENDBRANCH   2   3
ENDBRANCH   1   2
BRANCH   1  11
ATOM     11  C   UNL     1      -6.717  21.479  11.881  1.00  0.00     0.003 C 
BRANCH  11  12
ATOM     12  C   UNL     1      -6.249  22.469  10.785  1.00  0.00    -0.014 C 
ATOM     13  C   UNL     1      -7.057  22.281   9.485  1.00  0.00     0.007 C 
BRANCH  12  14
ATOM     14  C   UNL     1      -6.374  23.919  11.315  1.00  0.00     0.004 C 
BRANCH  14  15
ATOM     15  C   UNL     1      -5.019  24.640  11.425  1.00  0.00     0.008 C 
BRANCH  15  16
ATOM     16  C   UNL     1      -3.881  23.750  10.902  1.00  0.00     0.075 C 
BRANCH  16  17
ATOM     17  C   UNL     1      -3.154  24.275   9.680  1.00  0.00     0.129 C 
ATOM     18  O   UNL     1      -2.230  25.054   9.859  1.00  0.00    -0.300 OA
ATOM     19  C   UNL     1      -3.489  23.905   8.257  1.00  0.00     0.087 C 
ENDBRANCH  16  17
ENDBRANCH  15  16
ENDBRANCH  14  15
ENDBRANCH  12  14
ENDBRANCH  11  12
ENDBRANCH   1  11
TORSDOF 12
ENDMDL
MODEL 9
REMARK VINA RESULT:    -3.311      2.513      6.637
REMARK INTER + INTRA:          -7.717
REMARK INTER:                  -5.694
REMARK INTRA:                  -2.023
REMARK UNBOUND:                -2.082
REMARK SMILES CC(=O)CCC[C@H](C)CCC[C@@H](C)CCCC(C)C
REMARK SMILES IDX 10 1 11 2 12 3 13 4 14 5 15 6 16 7 17 8 18 9 19 10 9 11 7 12
REMARK SMILES IDX 8 13 6 14 5 15 4 16 2 17 3 18 1 19
REMARK H PARENT
REMARK Flexibility Score: inf
ROOT
ATOM      1  C   UNL     1      -8.078  23.501   9.674  1.00  0.00     0.001 C 
ENDROOT
BRANCH   1   2
ATOM      2  C   UNL     1      -7.804  22.120  10.292  1.00  0.00     0.003 C 
BRANCH   2   3
ATOM      3  C   UNL     1      -6.473  22.065  11.084  1.00  0.00    -0.014 C 
ATOM      4  C   UNL     1      -5.910  23.478  11.313  1.00  0.00     0.007 C 
BRANCH   3   5
ATOM      5  C   UNL     1      -6.667  21.356  12.447  1.00  0.00     0.003 C 
BRANCH   5   6
ATOM      6  C   UNL     1      -8.144  21.036  12.749  1.00  0.00     0.001 C 
BRANCH   6   7
ATOM      7  C   UNL     1      -8.609  21.648  14.089  1.00  0.00     0.003 C 
BRANCH   7   8
ATOM      8  C   UNL     1      -8.065  23.074  14.343  1.00  0.00    -0.017 C 
ATOM      9  C   UNL     1      -8.932  24.105  13.611  1.00  0.00     0.007 C 
ATOM     10  C   UNL     1      -8.001  23.414  15.839  1.00  0.00     0.007 C 
ENDBRANCH   7   8
ENDBRANCH   6   7
ENDBRANCH   5   6
ENDBRANCH   3   5
ENDBRANCH   2   3
ENDBRANCH   1   2
BRANCH   1  11
ATOM     11  C   UNL     1      -7.805  23.492   8.159  1.00  0.00     0.003 C 
BRANCH  11  12
ATOM     12  C   UNL     1      -7.156  22.176   7.662  1.00  0.00    -0.014 C 
ATOM     13  C   UNL     1      -8.006  21.520   6.556  1.00  0.00     0.007 C 
BRANCH  12  14
ATOM     14  C   UNL     1      -5.719  22.469   7.162  1.00  0.00     0.004 C 
BRANCH  14  15
ATOM     15  C   UNL     1      -5.188  23.839   7.619  1.00  0.00     0.008 C 
BRANCH  15  16
ATOM     16  C   UNL     1      -3.677  23.780   7.886  1.00  0.00     0.075 C 
BRANCH  16  17
ATOM     17  C   UNL     1      -3.164  24.743   8.938  1.00  0.00     0.129 C 
ATOM     18  O   UNL     1      -2.616  24.270   9.922  1.00  0.00    -0.300 OA
ATOM     19  C   UNL     1      -3.281  26.244   8.857  1.00  0.00     0.087 C 
ENDBRANCH  16  17
ENDBRANCH  15  16
ENDBRANCH  14  15
ENDBRANCH  12  14
ENDBRANCH  11  12
ENDBRANCH   1  11
TORSDOF 12
ENDMDL
