MODEL 1
REMARK VINA RESULT:    -5.151      0.000      0.000
REMARK INTER + INTRA:          -9.582
REMARK INTER:                  -8.765
REMARK INTRA:                  -0.817
REMARK UNBOUND:                -0.817
REMARK SMILES CCCCCCCCCCCCCC(=O)[O-]
REMARK SMILES IDX 8 1 9 2 10 3 11 4 12 5 13 6 14 7 15 8 16 9 7 10 6 11 5 12
REMARK SMILES IDX 4 13 3 14 2 15 1 16
REMARK H PARENT
REMARK Flexibility Score: inf
ROOT
ATOM      1  C   UNL     1      44.043  -5.620  26.577  1.00  0.00     0.000 C 
ENDROOT
BRANCH   1   2
ATOM      2  C   UNL     1      42.946  -5.523  27.652  1.00  0.00     0.000 C 
BRANCH   2   3
ATOM      3  C   UNL     1      42.002  -4.332  27.435  1.00  0.00     0.000 C 
BRANCH   3   4
ATOM      4  C   UNL     1      41.850  -3.510  28.720  1.00  0.00     0.000 C 
BRANCH   4   5
ATOM      5  C   UNL     1      43.190  -3.395  29.461  1.00  0.00     0.006 C 
BRANCH   5   6
ATOM      6  C   UNL     1      43.715  -1.953  29.490  1.00  0.00     0.053 C 
BRANCH   6   7
ATOM      7  C   UNL     1      44.892  -1.773  28.581  1.00  0.00     0.041 C 
ATOM      8  O   UNL     1      45.333  -0.619  28.336  1.00  0.00    -0.550 OA
ATOM      9  O   UNL     1      45.481  -2.877  27.978  1.00  0.00    -0.550 OA
ENDBRANCH   6   7
ENDBRANCH   5   6
ENDBRANCH   4   5
ENDBRANCH   3   4
ENDBRANCH   2   3
ENDBRANCH   1   2
BRANCH   1  10
ATOM     10  C   UNL     1      45.331  -6.346  27.019  1.00  0.00     0.000 C 
BRANCH  10  11
ATOM     11  C   UNL     1      45.548  -7.736  26.393  1.00  0.00    -0.000 C 
BRANCH  11  12
ATOM     12  C   UNL     1      46.297  -7.676  25.050  1.00  0.00    -0.000 C 
BRANCH  12  13
ATOM     13  C   UNL     1      47.461  -6.671  25.069  1.00  0.00    -0.000 C 
BRANCH  13  14
ATOM     14  C   UNL     1      48.451  -6.889  23.915  1.00  0.00    -0.000 C 
BRANCH  14  15
ATOM     15  C   UNL     1      47.721  -7.331  22.643  1.00  0.00    -0.003 C 
ATOM     16  C   UNL     1      48.689  -7.948  21.636  1.00  0.00     0.004 C 
ENDBRANCH  14  15
ENDBRANCH  13  14
ENDBRANCH  12  13
ENDBRANCH  11  12
ENDBRANCH  10  11
ENDBRANCH   1  10
TORSDOF 12
ENDMDL
MODEL 2
REMARK VINA RESULT:    -4.989      2.749      6.469
REMARK INTER + INTRA:          -9.306
REMARK INTER:                  -8.215
REMARK INTRA:                  -1.091
REMARK UNBOUND:                -0.817
REMARK SMILES CCCCCCCCCCCCCC(=O)[O-]
REMARK SMILES IDX 8 1 9 2 10 3 11 4 12 5 13 6 14 7 15 8 16 9 7 10 6 11 5 12
REMARK SMILES IDX 4 13 3 14 2 15 1 16
REMARK H PARENT
REMARK Flexibility Score: inf
ROOT
ATOM      1  C   UNL     1      42.321  -5.355  27.710  1.00  0.00     0.000 C 
ENDROOT
BRANCH   1   2
ATOM      2  C   UNL     1      43.482  -5.494  26.709  1.00  0.00     0.000 C 
BRANCH   2   3
ATOM      3  C   UNL     1      44.803  -5.894  27.381  1.00  0.00     0.000 C 
BRANCH   3   4
ATOM      4  C   UNL     1      45.918  -6.064  26.341  1.00  0.00     0.000 C 
BRANCH   4   5
ATOM      5  C   UNL     1      45.823  -7.433  25.652  1.00  0.00     0.006 C 
BRANCH   5   6
ATOM      6  C   UNL     1      46.425  -7.414  24.240  1.00  0.00     0.053 C 
BRANCH   6   7
ATOM      7  C   UNL     1      47.873  -7.029  24.259  1.00  0.00     0.041 C 
ATOM      8  O   UNL     1      48.295  -6.111  23.508  1.00  0.00    -0.550 OA
ATOM      9  O   UNL     1      48.763  -7.709  25.082  1.00  0.00    -0.550 OA
ENDBRANCH   6   7
ENDBRANCH   5   6
ENDBRANCH   4   5
ENDBRANCH   3   4
ENDBRANCH   2   3
ENDBRANCH   1   2
BRANCH   1  10
ATOM     10  C   UNL     1      42.744  -5.162  29.181  1.00  0.00     0.000 C 
BRANCH  10  11
ATOM     11  C   UNL     1      42.270  -3.850  29.833  1.00  0.00    -0.000 C 
BRANCH  11  12
ATOM     12  C   UNL     1      43.403  -2.822  29.997  1.00  0.00    -0.000 C 
BRANCH  12  13
ATOM     13  C   UNL     1      43.981  -2.362  28.648  1.00  0.00    -0.000 C 
BRANCH  13  14
ATOM     14  C   UNL     1      44.690  -1.002  28.738  1.00  0.00    -0.000 C 
BRANCH  14  15
ATOM     15  C   UNL     1      46.005  -1.017  27.952  1.00  0.00    -0.003 C 
ATOM     16  C   UNL     1      46.272  -2.394  27.349  1.00  0.00     0.004 C 
ENDBRANCH  14  15
ENDBRANCH  13  14
ENDBRANCH  12  13
ENDBRANCH  11  12
ENDBRANCH  10  11
ENDBRANCH   1  10
TORSDOF 12
ENDMDL
MODEL 3
REMARK VINA RESULT:    -4.940      3.492      4.257
REMARK INTER + INTRA:          -9.222
REMARK INTER:                  -8.706
REMARK INTRA:                  -0.516
REMARK UNBOUND:                -0.817
REMARK SMILES CCCCCCCCCCCCCC(=O)[O-]
REMARK SMILES IDX 8 1 9 2 10 3 11 4 12 5 13 6 14 7 15 8 16 9 7 10 6 11 5 12
REMARK SMILES IDX 4 13 3 14 2 15 1 16
REMARK H PARENT
REMARK Flexibility Score: inf
ROOT
ATOM      1  C   UNL     1      44.579  -5.811  26.884  1.00  0.00     0.000 C 
ENDROOT
BRANCH   1   2
ATOM      2  C   UNL     1      43.368  -5.699  27.826  1.00  0.00     0.000 C 
BRANCH   2   3
ATOM      3  C   UNL     1      42.514  -4.452  27.556  1.00  0.00     0.000 C 
BRANCH   3   4
ATOM      4  C   UNL     1      41.258  -4.809  26.752  1.00  0.00     0.000 C 
BRANCH   4   5
ATOM      5  C   UNL     1      39.991  -4.309  27.461  1.00  0.00     0.006 C 
BRANCH   5   6
ATOM      6  C   UNL     1      38.783  -4.247  26.515  1.00  0.00     0.053 C 
BRANCH   6   7
ATOM      7  C   UNL     1      38.243  -5.612  26.216  1.00  0.00     0.041 C 
ATOM      8  O   UNL     1      37.582  -6.237  27.086  1.00  0.00    -0.550 OA
ATOM      9  O   UNL     1      38.499  -6.207  24.986  1.00  0.00    -0.550 OA
ENDBRANCH   6   7
ENDBRANCH   5   6
ENDBRANCH   4   5
ENDBRANCH   3   4
ENDBRANCH   2   3
ENDBRANCH   1   2
BRANCH   1  10
ATOM     10  C   UNL     1      45.339  -7.152  26.950  1.00  0.00     0.000 C 
BRANCH  10  11
ATOM     11  C   UNL     1      45.470  -7.899  25.610  1.00  0.00    -0.000 C 
BRANCH  11  12
ATOM     12  C   UNL     1      46.425  -7.199  24.627  1.00  0.00    -0.000 C 
BRANCH  12  13
ATOM     13  C   UNL     1      47.892  -7.269  25.080  1.00  0.00    -0.000 C 
BRANCH  13  14
ATOM     14  C   UNL     1      48.868  -7.449  23.907  1.00  0.00    -0.000 C 
BRANCH  14  15
ATOM     15  C   UNL     1      48.149  -7.272  22.565  1.00  0.00    -0.003 C 
ATOM     16  C   UNL     1      48.929  -7.930  21.429  1.00  0.00     0.004 C 
ENDBRANCH  14  15
ENDBRANCH  13  14
ENDBRANCH  12  13
ENDBRANCH  11  12
ENDBRANCH  10  11
ENDBRANCH   1  10
TORSDOF 12
ENDMDL
MODEL 4
REMARK VINA RESULT:    -4.909      2.293      2.602
REMARK INTER + INTRA:          -9.170
REMARK INTER:                  -8.289
REMARK INTRA:                  -0.881
REMARK UNBOUND:                -0.817
REMARK SMILES CCCCCCCCCCCCCC(=O)[O-]
REMARK SMILES IDX 8 1 9 2 10 3 11 4 12 5 13 6 14 7 15 8 16 9 7 10 6 11 5 12
REMARK SMILES IDX 4 13 3 14 2 15 1 16
REMARK H PARENT
REMARK Flexibility Score: inf
ROOT
ATOM      1  C   UNL     1      45.322  -4.615  27.768  1.00  0.00     0.000 C 
ENDROOT
BRANCH   1   2
ATOM      2  C   UNL     1      43.919  -4.885  28.340  1.00  0.00     0.000 C 
BRANCH   2   3
ATOM      3  C   UNL     1      43.112  -3.599  28.573  1.00  0.00     0.000 C 
BRANCH   3   4
ATOM      4  C   UNL     1      44.041  -2.390  28.735  1.00  0.00     0.000 C 
BRANCH   4   5
ATOM      5  C   UNL     1      43.595  -1.507  29.910  1.00  0.00     0.006 C 
BRANCH   5   6
ATOM      6  C   UNL     1      42.474  -2.157  30.731  1.00  0.00     0.053 C 
BRANCH   6   7
ATOM      7  C   UNL     1      42.708  -2.011  32.203  1.00  0.00     0.041 C 
ATOM      8  O   UNL     1      42.279  -0.998  32.816  1.00  0.00    -0.550 OA
ATOM      9  O   UNL     1      43.430  -2.978  32.893  1.00  0.00    -0.550 OA
ENDBRANCH   6   7
ENDBRANCH   5   6
ENDBRANCH   4   5
ENDBRANCH   3   4
ENDBRANCH   2   3
ENDBRANCH   1   2
BRANCH   1  10
ATOM     10  C   UNL     1      45.530  -5.059  26.305  1.00  0.00     0.000 C 
BRANCH  10  11
ATOM     11  C   UNL     1      44.615  -6.203  25.830  1.00  0.00    -0.000 C 
BRANCH  11  12
ATOM     12  C   UNL     1      45.394  -7.355  25.172  1.00  0.00    -0.000 C 
BRANCH  12  13
ATOM     13  C   UNL     1      46.824  -7.488  25.719  1.00  0.00    -0.000 C 
BRANCH  13  14
ATOM     14  C   UNL     1      47.889  -7.452  24.612  1.00  0.00    -0.000 C 
BRANCH  14  15
ATOM     15  C   UNL     1      47.237  -7.386  23.227  1.00  0.00    -0.003 C 
ATOM     16  C   UNL     1      48.249  -7.685  22.124  1.00  0.00     0.004 C 
ENDBRANCH  14  15
ENDBRANCH  13  14
ENDBRANCH  12  13
ENDBRANCH  11  12
ENDBRANCH  10  11
ENDBRANCH   1  10
TORSDOF 12
ENDMDL
MODEL 5
REMARK VINA RESULT:    -4.892      3.383      7.305
REMARK INTER + INTRA:          -9.140
REMARK INTER:                  -8.619
REMARK INTRA:                  -0.521
REMARK UNBOUND:                -0.817
REMARK SMILES CCCCCCCCCCCCCC(=O)[O-]
REMARK SMILES IDX 8 1 9 2 10 3 11 4 12 5 13 6 14 7 15 8 16 9 7 10 6 11 5 12
REMARK SMILES IDX 4 13 3 14 2 15 1 16
REMARK H PARENT
REMARK Flexibility Score: inf
ROOT
ATOM      1  C   UNL     1      44.282  -4.730  28.003  1.00  0.00     0.000 C 
ENDROOT
BRANCH   1   2
ATOM      2  C   UNL     1      45.400  -5.568  27.358  1.00  0.00     0.000 C 
BRANCH   2   3
ATOM      3  C   UNL     1      44.954  -6.999  27.023  1.00  0.00     0.000 C 
BRANCH   3   4
ATOM      4  C   UNL     1      46.090  -7.785  26.355  1.00  0.00     0.000 C 
BRANCH   4   5
ATOM      5  C   UNL     1      46.553  -7.095  25.064  1.00  0.00     0.006 C 
BRANCH   5   6
ATOM      6  C   UNL     1      48.034  -7.361  24.763  1.00  0.00     0.053 C 
BRANCH   6   7
ATOM      7  C   UNL     1      48.493  -6.623  23.543  1.00  0.00     0.041 C 
ATOM      8  O   UNL     1      48.777  -7.252  22.490  1.00  0.00    -0.550 OA
ATOM      9  O   UNL     1      48.640  -5.241  23.580  1.00  0.00    -0.550 OA
ENDBRANCH   6   7
ENDBRANCH   5   6
ENDBRANCH   4   5
ENDBRANCH   3   4
ENDBRANCH   2   3
ENDBRANCH   1   2
BRANCH   1  10
ATOM     10  C   UNL     1      42.880  -5.374  27.974  1.00  0.00     0.000 C 
BRANCH  10  11
ATOM     11  C   UNL     1      41.981  -4.938  26.802  1.00  0.00    -0.000 C 
BRANCH  11  12
ATOM     12  C   UNL     1      40.656  -4.311  27.268  1.00  0.00    -0.000 C 
BRANCH  12  13
ATOM     13  C   UNL     1      39.538  -4.449  26.222  1.00  0.00    -0.000 C 
BRANCH  13  14
ATOM     14  C   UNL     1      38.618  -5.650  26.490  1.00  0.00    -0.000 C 
BRANCH  14  15
ATOM     15  C   UNL     1      38.598  -6.603  25.291  1.00  0.00    -0.003 C 
ATOM     16  C   UNL     1      37.170  -6.999  24.925  1.00  0.00     0.004 C 
ENDBRANCH  14  15
ENDBRANCH  13  14
ENDBRANCH  12  13
ENDBRANCH  11  12
ENDBRANCH  10  11
ENDBRANCH   1  10
TORSDOF 12
ENDMDL
MODEL 6
REMARK VINA RESULT:    -4.889      3.331      7.814
REMARK INTER + INTRA:          -9.135
REMARK INTER:                  -8.475
REMARK INTRA:                  -0.659
REMARK UNBOUND:                -0.817
REMARK SMILES CCCCCCCCCCCCCC(=O)[O-]
REMARK SMILES IDX 8 1 9 2 10 3 11 4 12 5 13 6 14 7 15 8 16 9 7 10 6 11 5 12
REMARK SMILES IDX 4 13 3 14 2 15 1 16
REMARK H PARENT
REMARK Flexibility Score: inf
ROOT
ATOM      1  C   UNL     1      44.372  -5.844  26.062  1.00  0.00     0.000 C 
ENDROOT
BRANCH   1   2
ATOM      2  C   UNL     1      45.159  -6.979  26.742  1.00  0.00     0.000 C 
BRANCH   2   3
ATOM      3  C   UNL     1      46.177  -7.643  25.803  1.00  0.00     0.000 C 
BRANCH   3   4
ATOM      4  C   UNL     1      47.411  -6.752  25.614  1.00  0.00     0.000 C 
BRANCH   4   5
ATOM      5  C   UNL     1      48.446  -7.432  24.706  1.00  0.00     0.006 C 
BRANCH   5   6
ATOM      6  C   UNL     1      48.538  -6.763  23.328  1.00  0.00     0.053 C 
BRANCH   6   7
ATOM      7  C   UNL     1      48.255  -7.732  22.221  1.00  0.00     0.041 C 
ATOM      8  O   UNL     1      49.179  -8.103  21.451  1.00  0.00    -0.550 OA
ATOM      9  O   UNL     1      46.961  -8.198  22.018  1.00  0.00    -0.550 OA
ENDBRANCH   6   7
ENDBRANCH   5   6
ENDBRANCH   4   5
ENDBRANCH   3   4
ENDBRANCH   2   3
ENDBRANCH   1   2
BRANCH   1  10
ATOM     10  C   UNL     1      43.162  -5.316  26.861  1.00  0.00     0.000 C 
BRANCH  10  11
ATOM     11  C   UNL     1      43.119  -5.736  28.342  1.00  0.00    -0.000 C 
BRANCH  11  12
ATOM     12  C   UNL     1      43.256  -4.543  29.304  1.00  0.00    -0.000 C 
BRANCH  12  13
ATOM     13  C   UNL     1      43.102  -3.190  28.591  1.00  0.00    -0.000 C 
BRANCH  13  14
ATOM     14  C   UNL     1      43.864  -2.057  29.296  1.00  0.00    -0.000 C 
BRANCH  14  15
ATOM     15  C   UNL     1      43.278  -1.785  30.685  1.00  0.00    -0.003 C 
ATOM     16  C   UNL     1      42.196  -0.710  30.628  1.00  0.00     0.004 C 
ENDBRANCH  14  15
ENDBRANCH  13  14
ENDBRANCH  12  13
ENDBRANCH  11  12
ENDBRANCH  10  11
ENDBRANCH   1  10
TORSDOF 12
ENDMDL
MODEL 7
REMARK VINA RESULT:    -4.871      4.586      5.733
REMARK INTER + INTRA:          -9.105
REMARK INTER:                  -8.634
REMARK INTRA:                  -0.471
REMARK UNBOUND:                -0.817
REMARK SMILES CCCCCCCCCCCCCC(=O)[O-]
REMARK SMILES IDX 8 1 9 2 10 3 11 4 12 5 13 6 14 7 15 8 16 9 7 10 6 11 5 12
REMARK SMILES IDX 4 13 3 14 2 15 1 16
REMARK H PARENT
REMARK Flexibility Score: inf
ROOT
ATOM      1  C   UNL     1      42.566  -5.144  26.766  1.00  0.00     0.000 C 
ENDROOT
BRANCH   1   2
ATOM      2  C   UNL     1      41.676  -4.883  27.994  1.00  0.00     0.000 C 
BRANCH   2   3
ATOM      3  C   UNL     1      40.415  -5.758  28.013  1.00  0.00     0.000 C 
BRANCH   3   4
ATOM      4  C   UNL     1      39.532  -5.477  26.791  1.00  0.00     0.000 C 
BRANCH   4   5
ATOM      5  C   UNL     1      39.025  -6.784  26.165  1.00  0.00     0.006 C 
BRANCH   5   6
ATOM      6  C   UNL     1      38.245  -6.542  24.866  1.00  0.00     0.053 C 
BRANCH   6   7
ATOM      7  C   UNL     1      36.851  -7.085  24.946  1.00  0.00     0.041 C 
ATOM      8  O   UNL     1      36.446  -7.639  26.002  1.00  0.00    -0.550 OA
ATOM      9  O   UNL     1      36.011  -7.011  23.842  1.00  0.00    -0.550 OA
ENDBRANCH   6   7
ENDBRANCH   5   6
ENDBRANCH   4   5
ENDBRANCH   3   4
ENDBRANCH   2   3
ENDBRANCH   1   2
BRANCH   1  10
ATOM     10  C   UNL     1      43.898  -5.864  27.063  1.00  0.00     0.000 C 
BRANCH  10  11
ATOM     11  C   UNL     1      44.749  -6.208  25.827  1.00  0.00    -0.000 C 
BRANCH  11  12
ATOM     12  C   UNL     1      45.448  -7.573  25.945  1.00  0.00    -0.000 C 
BRANCH  12  13
ATOM     13  C   UNL     1      46.964  -7.482  25.703  1.00  0.00    -0.000 C 
BRANCH  13  14
ATOM     14  C   UNL     1      47.317  -7.262  24.224  1.00  0.00    -0.000 C 
BRANCH  14  15
ATOM     15  C   UNL     1      48.825  -7.410  23.994  1.00  0.00    -0.003 C 
ATOM     16  C   UNL     1      49.614  -7.052  25.252  1.00  0.00     0.004 C 
ENDBRANCH  14  15
ENDBRANCH  13  14
ENDBRANCH  12  13
ENDBRANCH  11  12
ENDBRANCH  10  11
ENDBRANCH   1  10
TORSDOF 12
ENDMDL
MODEL 8
REMARK VINA RESULT:    -4.862      4.773      8.109
REMARK INTER + INTRA:          -9.090
REMARK INTER:                  -8.686
REMARK INTRA:                  -0.404
REMARK UNBOUND:                -0.817
REMARK SMILES CCCCCCCCCCCCCC(=O)[O-]
REMARK SMILES IDX 8 1 9 2 10 3 11 4 12 5 13 6 14 7 15 8 16 9 7 10 6 11 5 12
REMARK SMILES IDX 4 13 3 14 2 15 1 16
REMARK H PARENT
REMARK Flexibility Score: inf
ROOT
ATOM      1  C   UNL     1      40.820  -4.950  27.448  1.00  0.00     0.000 C 
ENDROOT
BRANCH   1   2
ATOM      2  C   UNL     1      42.238  -5.142  26.881  1.00  0.00     0.000 C 
BRANCH   2   3
ATOM      3  C   UNL     1      43.297  -5.335  27.976  1.00  0.00     0.000 C 
BRANCH   3   4
ATOM      4  C   UNL     1      44.688  -5.539  27.364  1.00  0.00     0.000 C 
BRANCH   4   5
ATOM      5  C   UNL     1      44.592  -6.227  25.995  1.00  0.00     0.006 C 
BRANCH   5   6
ATOM      6  C   UNL     1      45.607  -7.368  25.846  1.00  0.00     0.053 C 
BRANCH   6   7
ATOM      7  C   UNL     1      46.829  -6.930  25.098  1.00  0.00     0.041 C 
ATOM      8  O   UNL     1      47.635  -6.116  25.621  1.00  0.00    -0.550 OA
ATOM      9  O   UNL     1      47.060  -7.395  23.809  1.00  0.00    -0.550 OA
ENDBRANCH   6   7
ENDBRANCH   5   6
ENDBRANCH   4   5
ENDBRANCH   3   4
ENDBRANCH   2   3
ENDBRANCH   1   2
BRANCH   1  10
ATOM     10  C   UNL     1      39.770  -5.963  26.944  1.00  0.00     0.000 C 
BRANCH  10  11
ATOM     11  C   UNL     1      38.721  -5.392  25.973  1.00  0.00    -0.000 C 
BRANCH  11  12
ATOM     12  C   UNL     1      38.311  -6.396  24.881  1.00  0.00    -0.000 C 
BRANCH  12  13
ATOM     13  C   UNL     1      37.018  -7.151  25.230  1.00  0.00    -0.000 C 
BRANCH  13  14
ATOM     14  C   UNL     1      35.980  -7.106  24.099  1.00  0.00    -0.000 C 
BRANCH  14  15
ATOM     15  C   UNL     1      34.636  -7.676  24.566  1.00  0.00    -0.003 C 
ATOM     16  C   UNL     1      33.551  -6.603  24.566  1.00  0.00     0.004 C 
ENDBRANCH  14  15
ENDBRANCH  13  14
ENDBRANCH  12  13
ENDBRANCH  11  12
ENDBRANCH  10  11
ENDBRANCH   1  10
TORSDOF 12
ENDMDL
MODEL 9
REMARK VINA RESULT:    -4.843      2.717      6.870
REMARK INTER + INTRA:          -9.057
REMARK INTER:                  -8.227
REMARK INTRA:                  -0.830
REMARK UNBOUND:                -0.817
REMARK SMILES CCCCCCCCCCCCCC(=O)[O-]
REMARK SMILES IDX 8 1 9 2 10 3 11 4 12 5 13 6 14 7 15 8 16 9 7 10 6 11 5 12
REMARK SMILES IDX 4 13 3 14 2 15 1 16
REMARK H PARENT
REMARK Flexibility Score: inf
ROOT
ATOM      1  C   UNL     1      45.404  -5.527  27.508  1.00  0.00     0.000 C 
ENDROOT
BRANCH   1   2
ATOM      2  C   UNL     1      45.034  -5.997  26.090  1.00  0.00     0.000 C 
BRANCH   2   3
ATOM      3  C   UNL     1      45.488  -7.436  25.802  1.00  0.00     0.000 C 
BRANCH   3   4
ATOM      4  C   UNL     1      45.793  -7.627  24.311  1.00  0.00     0.000 C 
BRANCH   4   5
ATOM      5  C   UNL     1      47.159  -7.027  23.948  1.00  0.00     0.006 C 
BRANCH   5   6
ATOM      6  C   UNL     1      48.269  -7.497  24.898  1.00  0.00     0.053 C 
BRANCH   6   7
ATOM      7  C   UNL     1      49.128  -6.357  25.354  1.00  0.00     0.041 C 
ATOM      8  O   UNL     1      50.382  -6.466  25.348  1.00  0.00    -0.550 OA
ATOM      9  O   UNL     1      48.541  -5.186  25.819  1.00  0.00    -0.550 OA
ENDBRANCH   6   7
ENDBRANCH   5   6
ENDBRANCH   4   5
ENDBRANCH   3   4
ENDBRANCH   2   3
ENDBRANCH   1   2
BRANCH   1  10
ATOM     10  C   UNL     1      44.378  -4.587  28.175  1.00  0.00     0.000 C 
BRANCH  10  11
ATOM     11  C   UNL     1      42.960  -5.167  28.330  1.00  0.00    -0.000 C 
BRANCH  11  12
ATOM     12  C   UNL     1      41.858  -4.123  28.080  1.00  0.00    -0.000 C 
BRANCH  12  13
ATOM     13  C   UNL     1      41.060  -4.405  26.796  1.00  0.00    -0.000 C 
BRANCH  13  14
ATOM     14  C   UNL     1      40.374  -5.779  26.813  1.00  0.00    -0.000 C 
BRANCH  14  15
ATOM     15  C   UNL     1      39.007  -5.717  26.123  1.00  0.00    -0.003 C 
ATOM     16  C   UNL     1      38.507  -7.113  25.761  1.00  0.00     0.004 C 
ENDBRANCH  14  15
ENDBRANCH  13  14
ENDBRANCH  12  13
ENDBRANCH  11  12
ENDBRANCH  10  11
ENDBRANCH   1  10
TORSDOF 12
ENDMDL
