MODEL 1
REMARK VINA RESULT:    -3.988      0.000      0.000
REMARK INTER + INTRA:          -6.203
REMARK INTER:                  -5.853
REMARK INTRA:                  -0.351
REMARK UNBOUND:                -0.351
REMARK SMILES O=C([O-])CCCCCCCC(=O)[O-]
REMARK SMILES IDX 7 1 6 2 5 3 4 4 2 5 1 6 3 7 8 8 9 9 10 10 11 11 12 12 13 13
REMARK H PARENT
REMARK Flexibility Score: inf
ROOT
ATOM      1  C   UNL     1      18.101 -18.929  22.393  1.00  0.00     0.000 C 
ENDROOT
BRANCH   1   2
ATOM      2  C   UNL     1      19.515 -19.229  22.911  1.00  0.00     0.000 C 
BRANCH   2   3
ATOM      3  C   UNL     1      20.571 -18.901  21.845  1.00  0.00     0.006 C 
BRANCH   3   4
ATOM      4  C   UNL     1      20.080 -17.849  20.843  1.00  0.00     0.053 C 
BRANCH   4   5
ATOM      5  C   UNL     1      21.214 -17.237  20.080  1.00  0.00     0.041 C 
ATOM      6  O   UNL     1      21.278 -15.989  19.929  1.00  0.00    -0.550 OA
ATOM      7  O   UNL     1      22.184 -18.050  19.507  1.00  0.00    -0.550 OA
ENDBRANCH   4   5
ENDBRANCH   3   4
ENDBRANCH   2   3
ENDBRANCH   1   2
BRANCH   1   8
ATOM      8  C   UNL     1      17.042 -19.883  22.971  1.00  0.00     0.000 C 
BRANCH   8   9
ATOM      9  C   UNL     1      17.662 -21.042  23.766  1.00  0.00     0.006 C 
BRANCH   9  10
ATOM     10  C   UNL     1      17.010 -22.375  23.388  1.00  0.00     0.053 C 
BRANCH  10  11
ATOM     11  C   UNL     1      18.051 -23.429  23.184  1.00  0.00     0.041 C 
ATOM     12  O   UNL     1      18.986 -23.565  24.017  1.00  0.00    -0.550 OA
ATOM     13  O   UNL     1      18.020 -24.229  22.049  1.00  0.00    -0.550 OA
ENDBRANCH  10  11
ENDBRANCH   9  10
ENDBRANCH   8   9
ENDBRANCH   1   8
TORSDOF 8
ENDMDL
MODEL 2
REMARK VINA RESULT:    -3.958     11.359     12.068
REMARK INTER + INTRA:          -6.160
REMARK INTER:                  -5.630
REMARK INTRA:                  -0.530
REMARK UNBOUND:                -0.351
REMARK SMILES O=C([O-])CCCCCCCC(=O)[O-]
REMARK SMILES IDX 7 1 6 2 5 3 4 4 2 5 1 6 3 7 8 8 9 9 10 10 11 11 12 12 13 13
REMARK H PARENT
REMARK Flexibility Score: inf
ROOT
ATOM      1  C   UNL     1       7.146 -17.257  22.280  1.00  0.00     0.000 C 
ENDROOT
BRANCH   1   2
ATOM      2  C   UNL     1       8.336 -16.401  22.734  1.00  0.00     0.000 C 
BRANCH   2   3
ATOM      3  C   UNL     1       7.857 -15.114  23.422  1.00  0.00     0.006 C 
BRANCH   3   4
ATOM      4  C   UNL     1       8.816 -14.650  24.525  1.00  0.00     0.053 C 
BRANCH   4   5
ATOM      5  C   UNL     1       8.919 -15.656  25.630  1.00  0.00     0.041 C 
ATOM      6  O   UNL     1       7.888 -16.023  26.253  1.00  0.00    -0.550 OA
ATOM      7  O   UNL     1      10.160 -16.164  25.993  1.00  0.00    -0.550 OA
ENDBRANCH   4   5
ENDBRANCH   3   4
ENDBRANCH   2   3
ENDBRANCH   1   2
BRANCH   1   8
ATOM      8  C   UNL     1       6.453 -17.977  23.449  1.00  0.00     0.000 C 
BRANCH   8   9
ATOM      9  C   UNL     1       6.888 -19.445  23.580  1.00  0.00     0.006 C 
BRANCH   9  10
ATOM     10  C   UNL     1       6.419 -20.264  22.374  1.00  0.00     0.053 C 
BRANCH  10  11
ATOM     11  C   UNL     1       7.581 -20.934  21.712  1.00  0.00     0.041 C 
ATOM     12  O   UNL     1       7.399 -21.951  20.991  1.00  0.00    -0.550 OA
ATOM     13  O   UNL     1       8.871 -20.466  21.928  1.00  0.00    -0.550 OA
ENDBRANCH  10  11
ENDBRANCH   9  10
ENDBRANCH   8   9
ENDBRANCH   1   8
TORSDOF 8
ENDMDL
MODEL 3
REMARK VINA RESULT:    -3.939     10.731     11.845
REMARK INTER + INTRA:          -6.133
REMARK INTER:                  -5.753
REMARK INTRA:                  -0.379
REMARK UNBOUND:                -0.351
REMARK SMILES O=C([O-])CCCCCCCC(=O)[O-]
REMARK SMILES IDX 7 1 6 2 5 3 4 4 2 5 1 6 3 7 8 8 9 9 10 10 11 11 12 12 13 13
REMARK H PARENT
REMARK Flexibility Score: inf
ROOT
ATOM      1  C   UNL     1       7.136 -18.838  23.716  1.00  0.00     0.000 C 
ENDROOT
BRANCH   1   2
ATOM      2  C   UNL     1       6.512 -17.442  23.574  1.00  0.00     0.000 C 
BRANCH   2   3
ATOM      3  C   UNL     1       7.449 -16.499  22.804  1.00  0.00     0.006 C 
BRANCH   3   4
ATOM      4  C   UNL     1       7.525 -15.106  23.443  1.00  0.00     0.053 C 
BRANCH   4   5
ATOM      5  C   UNL     1       8.646 -15.010  24.431  1.00  0.00     0.041 C 
ATOM      6  O   UNL     1       9.796 -14.659  24.056  1.00  0.00    -0.550 OA
ATOM      7  O   UNL     1       8.428 -15.341  25.763  1.00  0.00    -0.550 OA
ENDBRANCH   4   5
ENDBRANCH   3   4
ENDBRANCH   2   3
ENDBRANCH   1   2
BRANCH   1   8
ATOM      8  C   UNL     1       6.300 -19.933  23.034  1.00  0.00     0.000 C 
BRANCH   8   9
ATOM      9  C   UNL     1       6.893 -20.378  21.688  1.00  0.00     0.006 C 
BRANCH   9  10
ATOM     10  C   UNL     1       8.403 -20.606  21.805  1.00  0.00     0.053 C 
BRANCH  10  11
ATOM     11  C   UNL     1       8.845 -21.683  20.866  1.00  0.00     0.041 C 
ATOM     12  O   UNL     1       9.845 -22.396  21.146  1.00  0.00    -0.550 OA
ATOM     13  O   UNL     1       8.183 -21.870  19.659  1.00  0.00    -0.550 OA
ENDBRANCH  10  11
ENDBRANCH   9  10
ENDBRANCH   8   9
ENDBRANCH   1   8
TORSDOF 8
ENDMDL
MODEL 4
REMARK VINA RESULT:    -3.902     10.810     12.608
REMARK INTER + INTRA:          -6.077
REMARK INTER:                  -5.672
REMARK INTRA:                  -0.405
REMARK UNBOUND:                -0.351
REMARK SMILES O=C([O-])CCCCCCCC(=O)[O-]
REMARK SMILES IDX 7 1 6 2 5 3 4 4 2 5 1 6 3 7 8 8 9 9 10 10 11 11 12 12 13 13
REMARK H PARENT
REMARK Flexibility Score: inf
ROOT
ATOM      1  C   UNL     1       7.129 -18.845  23.614  1.00  0.00     0.000 C 
ENDROOT
BRANCH   1   2
ATOM      2  C   UNL     1       6.278 -19.966  22.998  1.00  0.00     0.000 C 
BRANCH   2   3
ATOM      3  C   UNL     1       6.813 -20.363  21.614  1.00  0.00     0.006 C 
BRANCH   3   4
ATOM      4  C   UNL     1       8.341 -20.494  21.596  1.00  0.00     0.053 C 
BRANCH   4   5
ATOM      5  C   UNL     1       8.792 -21.598  20.690  1.00  0.00     0.041 C 
ATOM      6  O   UNL     1       9.645 -22.435  21.085  1.00  0.00    -0.550 OA
ATOM      7  O   UNL     1       8.294 -21.681  19.395  1.00  0.00    -0.550 OA
ENDBRANCH   4   5
ENDBRANCH   3   4
ENDBRANCH   2   3
ENDBRANCH   1   2
BRANCH   1   8
ATOM      8  C   UNL     1       6.290 -17.625  24.031  1.00  0.00     0.000 C 
BRANCH   8   9
ATOM      9  C   UNL     1       6.860 -16.304  23.493  1.00  0.00     0.006 C 
BRANCH   9  10
ATOM     10  C   UNL     1       8.391 -16.336  23.475  1.00  0.00     0.053 C 
BRANCH  10  11
ATOM     11  C   UNL     1       8.948 -15.274  24.370  1.00  0.00     0.041 C 
ATOM     12  O   UNL     1       9.813 -14.470  23.935  1.00  0.00    -0.550 OA
ATOM     13  O   UNL     1       8.548 -15.202  25.698  1.00  0.00    -0.550 OA
ENDBRANCH  10  11
ENDBRANCH   9  10
ENDBRANCH   8   9
ENDBRANCH   1   8
TORSDOF 8
ENDMDL
MODEL 5
REMARK VINA RESULT:    -3.893     11.305     12.780
REMARK INTER + INTRA:          -6.065
REMARK INTER:                  -5.632
REMARK INTRA:                  -0.433
REMARK UNBOUND:                -0.351
REMARK SMILES O=C([O-])CCCCCCCC(=O)[O-]
REMARK SMILES IDX 7 1 6 2 5 3 4 4 2 5 1 6 3 7 8 8 9 9 10 10 11 11 12 12 13 13
REMARK H PARENT
REMARK Flexibility Score: inf
ROOT
ATOM      1  C   UNL     1       7.213 -18.557  24.223  1.00  0.00     0.000 C 
ENDROOT
BRANCH   1   2
ATOM      2  C   UNL     1       6.798 -19.954  23.739  1.00  0.00     0.000 C 
BRANCH   2   3
ATOM      3  C   UNL     1       6.739 -20.008  22.205  1.00  0.00     0.006 C 
BRANCH   3   4
ATOM      4  C   UNL     1       8.104 -20.323  21.580  1.00  0.00     0.053 C 
BRANCH   4   5
ATOM      5  C   UNL     1       8.018 -21.451  20.599  1.00  0.00     0.041 C 
ATOM      6  O   UNL     1       7.461 -22.533  20.922  1.00  0.00    -0.550 OA
ATOM      7  O   UNL     1       8.583 -21.317  19.336  1.00  0.00    -0.550 OA
ENDBRANCH   4   5
ENDBRANCH   3   4
ENDBRANCH   2   3
ENDBRANCH   1   2
BRANCH   1   8
ATOM      8  C   UNL     1       6.617 -17.430  23.363  1.00  0.00     0.000 C 
BRANCH   8   9
ATOM      9  C   UNL     1       7.681 -16.444  22.859  1.00  0.00     0.006 C 
BRANCH   9  10
ATOM     10  C   UNL     1       7.631 -15.133  23.650  1.00  0.00     0.053 C 
BRANCH  10  11
ATOM     11  C   UNL     1       8.804 -15.032  24.572  1.00  0.00     0.041 C 
ATOM     12  O   UNL     1       8.650 -15.181  25.813  1.00  0.00    -0.550 OA
ATOM     13  O   UNL     1      10.062 -14.726  24.068  1.00  0.00    -0.550 OA
ENDBRANCH  10  11
ENDBRANCH   9  10
ENDBRANCH   8   9
ENDBRANCH   1   8
TORSDOF 8
ENDMDL
MODEL 6
REMARK VINA RESULT:    -3.855     11.441     12.182
REMARK INTER + INTRA:          -6.009
REMARK INTER:                  -5.256
REMARK INTRA:                  -0.753
REMARK UNBOUND:                -0.351
REMARK SMILES O=C([O-])CCCCCCCC(=O)[O-]
REMARK SMILES IDX 7 1 6 2 5 3 4 4 2 5 1 6 3 7 8 8 9 9 10 10 11 11 12 12 13 13
REMARK H PARENT
REMARK Flexibility Score: inf
ROOT
ATOM      1  C   UNL     1       7.569 -18.236  21.116  1.00  0.00     0.000 C 
ENDROOT
BRANCH   1   2
ATOM      2  C   UNL     1       7.116 -16.887  21.692  1.00  0.00     0.000 C 
BRANCH   2   3
ATOM      3  C   UNL     1       8.309 -16.109  22.269  1.00  0.00     0.006 C 
BRANCH   3   4
ATOM      4  C   UNL     1       7.888 -15.137  23.379  1.00  0.00     0.053 C 
BRANCH   4   5
ATOM      5  C   UNL     1       8.975 -14.946  24.391  1.00  0.00     0.041 C 
ATOM      6  O   UNL     1      10.143 -14.656  24.022  1.00  0.00    -0.550 OA
ATOM      7  O   UNL     1       8.704 -15.122  25.742  1.00  0.00    -0.550 OA
ENDBRANCH   4   5
ENDBRANCH   3   4
ENDBRANCH   2   3
ENDBRANCH   1   2
BRANCH   1   8
ATOM      8  C   UNL     1       6.947 -19.434  21.854  1.00  0.00     0.000 C 
BRANCH   8   9
ATOM      9  C   UNL     1       7.794 -19.898  23.048  1.00  0.00     0.006 C 
BRANCH   9  10
ATOM     10  C   UNL     1       6.968 -19.898  24.338  1.00  0.00     0.053 C 
BRANCH  10  11
ATOM     11  C   UNL     1       7.208 -18.642  25.114  1.00  0.00     0.041 C 
ATOM     12  O   UNL     1       6.350 -17.720  25.108  1.00  0.00    -0.550 OA
ATOM     13  O   UNL     1       8.400 -18.468  25.805  1.00  0.00    -0.550 OA
ENDBRANCH  10  11
ENDBRANCH   9  10
ENDBRANCH   8   9
ENDBRANCH   1   8
TORSDOF 8
ENDMDL
MODEL 7
REMARK VINA RESULT:    -3.852     11.016     12.672
REMARK INTER + INTRA:          -6.005
REMARK INTER:                  -5.370
REMARK INTRA:                  -0.635
REMARK UNBOUND:                -0.351
REMARK SMILES O=C([O-])CCCCCCCC(=O)[O-]
REMARK SMILES IDX 7 1 6 2 5 3 4 4 2 5 1 6 3 7 8 8 9 9 10 10 11 11 12 12 13 13
REMARK H PARENT
REMARK Flexibility Score: inf
ROOT
ATOM      1  C   UNL     1       6.402 -16.200  23.185  1.00  0.00     0.000 C 
ENDROOT
BRANCH   1   2
ATOM      2  C   UNL     1       6.031 -17.428  24.030  1.00  0.00     0.000 C 
BRANCH   2   3
ATOM      3  C   UNL     1       7.164 -18.465  24.020  1.00  0.00     0.006 C 
BRANCH   3   4
ATOM      4  C   UNL     1       6.757 -19.765  23.315  1.00  0.00     0.053 C 
BRANCH   4   5
ATOM      5  C   UNL     1       7.655 -20.072  22.156  1.00  0.00     0.041 C 
ATOM      6  O   UNL     1       7.168 -20.289  21.015  1.00  0.00    -0.550 OA
ATOM      7  O   UNL     1       9.029 -20.150  22.344  1.00  0.00    -0.550 OA
ENDBRANCH   4   5
ENDBRANCH   3   4
ENDBRANCH   2   3
ENDBRANCH   1   2
BRANCH   1   8
ATOM      8  C   UNL     1       7.919 -16.066  22.969  1.00  0.00     0.000 C 
BRANCH   8   9
ATOM      9  C   UNL     1       8.498 -14.797  23.614  1.00  0.00     0.006 C 
BRANCH   9  10
ATOM     10  C   UNL     1       9.730 -15.128  24.460  1.00  0.00     0.053 C 
BRANCH  10  11
ATOM     11  C   UNL     1       9.339 -15.917  25.669  1.00  0.00     0.041 C 
ATOM     12  O   UNL     1      10.079 -16.848  26.084  1.00  0.00    -0.550 OA
ATOM     13  O   UNL     1       8.135 -15.658  26.311  1.00  0.00    -0.550 OA
ENDBRANCH  10  11
ENDBRANCH   9  10
ENDBRANCH   8   9
ENDBRANCH   1   8
TORSDOF 8
ENDMDL
MODEL 8
REMARK VINA RESULT:    -3.846     11.485     12.097
REMARK INTER + INTRA:          -5.996
REMARK INTER:                  -5.535
REMARK INTRA:                  -0.461
REMARK UNBOUND:                -0.351
REMARK SMILES O=C([O-])CCCCCCCC(=O)[O-]
REMARK SMILES IDX 7 1 6 2 5 3 4 4 2 5 1 6 3 7 8 8 9 9 10 10 11 11 12 12 13 13
REMARK H PARENT
REMARK Flexibility Score: inf
ROOT
ATOM      1  C   UNL     1       7.141 -18.697  25.032  1.00  0.00     0.000 C 
ENDROOT
BRANCH   1   2
ATOM      2  C   UNL     1       8.300 -17.854  25.582  1.00  0.00     0.000 C 
BRANCH   2   3
ATOM      3  C   UNL     1       7.842 -16.417  25.876  1.00  0.00     0.006 C 
BRANCH   3   4
ATOM      4  C   UNL     1       8.968 -15.395  25.676  1.00  0.00     0.053 C 
BRANCH   4   5
ATOM      5  C   UNL     1       8.926 -14.785  24.308  1.00  0.00     0.041 C 
ATOM      6  O   UNL     1       9.989 -14.410  23.747  1.00  0.00    -0.550 OA
ATOM      7  O   UNL     1       7.708 -14.601  23.667  1.00  0.00    -0.550 OA
ENDBRANCH   4   5
ENDBRANCH   3   4
ENDBRANCH   2   3
ENDBRANCH   1   2
BRANCH   1   8
ATOM      8  C   UNL     1       6.397 -18.003  23.879  1.00  0.00     0.000 C 
BRANCH   8   9
ATOM      9  C   UNL     1       6.792 -18.555  22.501  1.00  0.00     0.006 C 
BRANCH   9  10
ATOM     10  C   UNL     1       6.644 -20.079  22.461  1.00  0.00     0.053 C 
BRANCH  10  11
ATOM     11  C   UNL     1       7.423 -20.651  21.318  1.00  0.00     0.041 C 
ATOM     12  O   UNL     1       8.009 -19.887  20.507  1.00  0.00    -0.550 OA
ATOM     13  O   UNL     1       7.461 -22.025  21.120  1.00  0.00    -0.550 OA
ENDBRANCH  10  11
ENDBRANCH   9  10
ENDBRANCH   8   9
ENDBRANCH   1   8
TORSDOF 8
ENDMDL
MODEL 9
REMARK VINA RESULT:    -3.814     11.086     12.778
REMARK INTER + INTRA:          -5.948
REMARK INTER:                  -5.056
REMARK INTRA:                  -0.893
REMARK UNBOUND:                -0.351
REMARK SMILES O=C([O-])CCCCCCCC(=O)[O-]
REMARK SMILES IDX 7 1 6 2 5 3 4 4 2 5 1 6 3 7 8 8 9 9 10 10 11 11 12 12 13 13
REMARK H PARENT
REMARK Flexibility Score: inf
ROOT
ATOM      1  C   UNL     1       8.385 -18.422  21.978  1.00  0.00     0.000 C 
ENDROOT
BRANCH   1   2
ATOM      2  C   UNL     1       7.900 -19.804  22.439  1.00  0.00     0.000 C 
BRANCH   2   3
ATOM      3  C   UNL     1       6.625 -19.683  23.287  1.00  0.00     0.006 C 
BRANCH   3   4
ATOM      4  C   UNL     1       6.875 -20.011  24.765  1.00  0.00     0.053 C 
BRANCH   4   5
ATOM      5  C   UNL     1       7.401 -18.826  25.515  1.00  0.00     0.041 C 
ATOM      6  O   UNL     1       8.595 -18.805  25.913  1.00  0.00    -0.550 OA
ATOM      7  O   UNL     1       6.560 -17.759  25.804  1.00  0.00    -0.550 OA
ENDBRANCH   4   5
ENDBRANCH   3   4
ENDBRANCH   2   3
ENDBRANCH   1   2
BRANCH   1   8
ATOM      8  C   UNL     1       7.272 -17.361  22.010  1.00  0.00     0.000 C 
BRANCH   8   9
ATOM      9  C   UNL     1       7.636 -16.148  22.879  1.00  0.00     0.006 C 
BRANCH   9  10
ATOM     10  C   UNL     1       9.135 -16.127  23.188  1.00  0.00     0.053 C 
BRANCH  10  11
ATOM     11  C   UNL     1       9.379 -15.589  24.563  1.00  0.00     0.041 C 
ATOM     12  O   UNL     1       8.646 -14.675  25.024  1.00  0.00    -0.550 OA
ATOM     13  O   UNL     1      10.445 -16.061  25.317  1.00  0.00    -0.550 OA
ENDBRANCH  10  11
ENDBRANCH   9  10
ENDBRANCH   8   9
ENDBRANCH   1   8
TORSDOF 8
ENDMDL
