MODEL 1
REMARK VINA RESULT:    -1.429      0.000      0.000
REMARK INTER + INTRA:          -3.478
REMARK INTER:                  -2.598
REMARK INTRA:                  -0.880
REMARK UNBOUND:                -0.880
REMARK SMILES CCCCCCCCCCCCCC[C@@H](C)C(=O)[O-]
REMARK SMILES IDX 9 1 10 2 11 3 12 4 13 5 14 6 15 7 16 8 17 9 18 10 19 11 8 12
REMARK SMILES IDX 7 13 6 14 5 15 4 16 3 17 2 18 1 19
REMARK H PARENT
REMARK Flexibility Score: inf
ROOT
ATOM      1  C   UNL     1      -5.659 -21.643  15.740  1.00  0.00     0.000 C 
ENDROOT
BRANCH   1   2
ATOM      2  C   UNL     1      -4.895 -21.686  17.075  1.00  0.00     0.000 C 
BRANCH   2   3
ATOM      3  C   UNL     1      -4.962 -23.064  17.759  1.00  0.00     0.000 C 
BRANCH   3   4
ATOM      4  C   UNL     1      -5.446 -23.048  19.225  1.00  0.00     0.000 C 
BRANCH   4   5
ATOM      5  C   UNL     1      -6.971 -23.125  19.412  1.00  0.00     0.001 C 
BRANCH   5   6
ATOM      6  C   UNL     1      -7.399 -23.088  20.889  1.00  0.00     0.009 C 
BRANCH   6   7
ATOM      7  C   UNL     1      -8.589 -22.133  21.120  1.00  0.00     0.032 C 
ATOM      8  C   UNL     1      -9.912 -22.820  20.763  1.00  0.00     0.014 C 
BRANCH   7   9
ATOM      9  C   UNL     1      -8.628 -21.646  22.545  1.00  0.00     0.044 C 
ATOM     10  O   UNL     1      -9.221 -20.573  22.838  1.00  0.00    -0.550 OA
ATOM     11  O   UNL     1      -8.022 -22.389  23.549  1.00  0.00    -0.550 OA
ENDBRANCH   7   9
ENDBRANCH   6   7
ENDBRANCH   5   6
ENDBRANCH   4   5
ENDBRANCH   3   4
ENDBRANCH   2   3
ENDBRANCH   1   2
BRANCH   1  12
ATOM     12  C   UNL     1      -7.037 -22.334  15.826  1.00  0.00     0.000 C 
BRANCH  12  13
ATOM     13  C   UNL     1      -8.191 -21.383  16.202  1.00  0.00    -0.000 C 
BRANCH  13  14
ATOM     14  C   UNL     1      -9.165 -21.054  15.055  1.00  0.00    -0.000 C 
BRANCH  14  15
ATOM     15  C   UNL     1     -10.010 -19.780  15.261  1.00  0.00    -0.000 C 
BRANCH  15  16
ATOM     16  C   UNL     1     -11.117 -19.896  16.329  1.00  0.00    -0.000 C 
BRANCH  16  17
ATOM     17  C   UNL     1     -10.667 -20.504  17.668  1.00  0.00    -0.000 C 
BRANCH  17  18
ATOM     18  C   UNL     1     -11.042 -19.632  18.876  1.00  0.00    -0.003 C 
ATOM     19  C   UNL     1     -11.087 -18.155  18.493  1.00  0.00     0.004 C 
ENDBRANCH  17  18
ENDBRANCH  16  17
ENDBRANCH  15  16
ENDBRANCH  14  15
ENDBRANCH  13  14
ENDBRANCH  12  13
ENDBRANCH   1  12
TORSDOF 14
ENDMDL
MODEL 2
REMARK VINA RESULT:    -0.885      1.473      3.067
REMARK INTER + INTRA:          -2.488
REMARK INTER:                  -1.630
REMARK INTRA:                  -0.859
REMARK UNBOUND:                -0.880
REMARK SMILES CCCCCCCCCCCCCC[C@@H](C)C(=O)[O-]
REMARK SMILES IDX 9 1 10 2 11 3 12 4 13 5 14 6 15 7 16 8 17 9 18 10 19 11 8 12
REMARK SMILES IDX 7 13 6 14 5 15 4 16 3 17 2 18 1 19
REMARK H PARENT
REMARK Flexibility Score: inf
ROOT
ATOM      1  C   UNL     1      -7.166 -22.257  19.072  1.00  0.00     0.000 C 
ENDROOT
BRANCH   1   2
ATOM      2  C   UNL     1      -8.280 -23.109  19.706  1.00  0.00     0.000 C 
BRANCH   2   3
ATOM      3  C   UNL     1      -9.581 -23.101  18.883  1.00  0.00     0.000 C 
BRANCH   3   4
ATOM      4  C   UNL     1     -10.864 -22.798  19.686  1.00  0.00     0.000 C 
BRANCH   4   5
ATOM      5  C   UNL     1     -10.791 -23.125  21.187  1.00  0.00     0.001 C 
BRANCH   5   6
ATOM      6  C   UNL     1     -11.125 -21.920  22.083  1.00  0.00     0.009 C 
BRANCH   6   7
ATOM      7  C   UNL     1     -10.036 -21.676  23.149  1.00  0.00     0.032 C 
ATOM      8  C   UNL     1      -9.270 -22.970  23.447  1.00  0.00     0.014 C 
BRANCH   7   9
ATOM      9  C   UNL     1      -9.079 -20.598  22.713  1.00  0.00     0.044 C 
ATOM     10  O   UNL     1      -7.992 -20.421  23.326  1.00  0.00    -0.550 OA
ATOM     11  O   UNL     1      -9.383 -19.800  21.617  1.00  0.00    -0.550 OA
ENDBRANCH   7   9
ENDBRANCH   6   7
ENDBRANCH   5   6
ENDBRANCH   4   5
ENDBRANCH   3   4
ENDBRANCH   2   3
ENDBRANCH   1   2
BRANCH   1  12
ATOM     12  C   UNL     1      -6.920 -22.614  17.590  1.00  0.00     0.000 C 
BRANCH  12  13
ATOM     13  C   UNL     1      -8.132 -22.351  16.675  1.00  0.00    -0.000 C 
BRANCH  13  14
ATOM     14  C   UNL     1      -7.783 -21.913  15.240  1.00  0.00    -0.000 C 
BRANCH  14  15
ATOM     15  C   UNL     1      -8.557 -20.681  14.727  1.00  0.00    -0.000 C 
BRANCH  15  16
ATOM     16  C   UNL     1     -10.074 -20.891  14.543  1.00  0.00    -0.000 C 
BRANCH  16  17
ATOM     17  C   UNL     1     -10.963 -20.024  15.452  1.00  0.00    -0.000 C 
BRANCH  17  18
ATOM     18  C   UNL     1     -11.122 -20.609  16.864  1.00  0.00    -0.003 C 
ATOM     19  C   UNL     1     -10.631 -19.626  17.923  1.00  0.00     0.004 C 
ENDBRANCH  17  18
ENDBRANCH  16  17
ENDBRANCH  15  16
ENDBRANCH  14  15
ENDBRANCH  13  14
ENDBRANCH  12  13
ENDBRANCH   1  12
TORSDOF 14
ENDMDL
MODEL 3
REMARK VINA RESULT:    -0.791      2.690      4.920
REMARK INTER + INTRA:          -2.318
REMARK INTER:                  -2.150
REMARK INTRA:                  -0.167
REMARK UNBOUND:                -0.880
REMARK SMILES CCCCCCCCCCCCCC[C@@H](C)C(=O)[O-]
REMARK SMILES IDX 9 1 10 2 11 3 12 4 13 5 14 6 15 7 16 8 17 9 18 10 19 11 8 12
REMARK SMILES IDX 7 13 6 14 5 15 4 16 3 17 2 18 1 19
REMARK H PARENT
REMARK Flexibility Score: inf
ROOT
ATOM      1  C   UNL     1      -9.252 -19.821  21.320  1.00  0.00     0.000 C 
ENDROOT
BRANCH   1   2
ATOM      2  C   UNL     1      -9.333 -20.984  22.325  1.00  0.00     0.000 C 
BRANCH   2   3
ATOM      3  C   UNL     1      -8.017 -21.776  22.430  1.00  0.00     0.000 C 
BRANCH   3   4
ATOM      4  C   UNL     1      -7.795 -22.832  21.327  1.00  0.00     0.000 C 
BRANCH   4   5
ATOM      5  C   UNL     1      -6.324 -23.123  20.985  1.00  0.00     0.001 C 
BRANCH   5   6
ATOM      6  C   UNL     1      -5.898 -22.551  19.623  1.00  0.00     0.009 C 
BRANCH   6   7
ATOM      7  C   UNL     1      -6.890 -22.928  18.504  1.00  0.00     0.032 C 
ATOM      8  C   UNL     1      -8.030 -21.907  18.423  1.00  0.00     0.014 C 
BRANCH   7   9
ATOM      9  C   UNL     1      -6.195 -23.033  17.171  1.00  0.00     0.044 C 
ATOM     10  O   UNL     1      -6.863 -23.124  16.106  1.00  0.00    -0.550 OA
ATOM     11  O   UNL     1      -4.808 -23.012  17.109  1.00  0.00    -0.550 OA
ENDBRANCH   7   9
ENDBRANCH   6   7
ENDBRANCH   5   6
ENDBRANCH   4   5
ENDBRANCH   3   4
ENDBRANCH   2   3
ENDBRANCH   1   2
BRANCH   1  12
ATOM     12  C   UNL     1     -10.646 -19.333  20.868  1.00  0.00     0.000 C 
BRANCH  12  13
ATOM     13  C   UNL     1     -10.709 -18.906  19.389  1.00  0.00    -0.000 C 
BRANCH  13  14
ATOM     14  C   UNL     1     -10.533 -20.049  18.371  1.00  0.00    -0.000 C 
BRANCH  14  15
ATOM     15  C   UNL     1     -11.068 -19.750  16.956  1.00  0.00    -0.000 C 
BRANCH  15  16
ATOM     16  C   UNL     1     -11.125 -20.965  16.008  1.00  0.00    -0.000 C 
BRANCH  16  17
ATOM     17  C   UNL     1     -10.675 -20.683  14.564  1.00  0.00    -0.000 C 
BRANCH  17  18
ATOM     18  C   UNL     1      -9.316 -19.972  14.490  1.00  0.00    -0.003 C 
ATOM     19  C   UNL     1      -8.205 -20.849  15.064  1.00  0.00     0.004 C 
ENDBRANCH  17  18
ENDBRANCH  16  17
ENDBRANCH  15  16
ENDBRANCH  14  15
ENDBRANCH  13  14
ENDBRANCH  12  13
ENDBRANCH   1  12
TORSDOF 14
ENDMDL
MODEL 4
REMARK VINA RESULT:    -0.590      3.315      5.489
REMARK INTER + INTRA:          -1.953
REMARK INTER:                  -1.944
REMARK INTRA:                  -0.009
REMARK UNBOUND:                -0.880
REMARK SMILES CCCCCCCCCCCCCC[C@@H](C)C(=O)[O-]
REMARK SMILES IDX 9 1 10 2 11 3 12 4 13 5 14 6 15 7 16 8 17 9 18 10 19 11 8 12
REMARK SMILES IDX 7 13 6 14 5 15 4 16 3 17 2 18 1 19
REMARK H PARENT
REMARK Flexibility Score: inf
ROOT
ATOM      1  C   UNL     1      -9.817 -20.146  14.937  1.00  0.00     0.000 C 
ENDROOT
BRANCH   1   2
ATOM      2  C   UNL     1      -8.388 -20.553  15.338  1.00  0.00     0.000 C 
BRANCH   2   3
ATOM      3  C   UNL     1      -8.279 -22.034  15.744  1.00  0.00     0.000 C 
BRANCH   3   4
ATOM      4  C   UNL     1      -8.077 -22.290  17.252  1.00  0.00     0.000 C 
BRANCH   4   5
ATOM      5  C   UNL     1      -6.798 -23.063  17.619  1.00  0.00     0.001 C 
BRANCH   5   6
ATOM      6  C   UNL     1      -5.759 -23.082  16.485  1.00  0.00     0.009 C 
BRANCH   6   7
ATOM      7  C   UNL     1      -4.527 -22.215  16.820  1.00  0.00     0.032 C 
ATOM      8  C   UNL     1      -3.437 -23.057  17.491  1.00  0.00     0.014 C 
BRANCH   7   9
ATOM      9  C   UNL     1      -3.978 -21.550  15.584  1.00  0.00     0.044 C 
ATOM     10  O   UNL     1      -4.636 -20.650  14.995  1.00  0.00    -0.550 OA
ATOM     11  O   UNL     1      -2.730 -21.915  15.096  1.00  0.00    -0.550 OA
ENDBRANCH   7   9
ENDBRANCH   6   7
ENDBRANCH   5   6
ENDBRANCH   4   5
ENDBRANCH   3   4
ENDBRANCH   2   3
ENDBRANCH   1   2
BRANCH   1  12
ATOM     12  C   UNL     1     -10.770 -20.067  16.150  1.00  0.00     0.000 C 
BRANCH  12  13
ATOM     13  C   UNL     1     -10.806 -21.352  17.001  1.00  0.00    -0.000 C 
BRANCH  13  14
ATOM     14  C   UNL     1     -11.125 -21.138  18.492  1.00  0.00    -0.000 C 
BRANCH  14  15
ATOM     15  C   UNL     1     -10.381 -19.962  19.156  1.00  0.00    -0.000 C 
BRANCH  15  16
ATOM     16  C   UNL     1     -10.194 -20.084  20.682  1.00  0.00    -0.000 C 
BRANCH  16  17
ATOM     17  C   UNL     1     -10.560 -21.457  21.274  1.00  0.00    -0.000 C 
BRANCH  17  18
ATOM     18  C   UNL     1      -9.414 -22.084  22.081  1.00  0.00    -0.003 C 
ATOM     19  C   UNL     1      -8.542 -21.008  22.723  1.00  0.00     0.004 C 
ENDBRANCH  17  18
ENDBRANCH  16  17
ENDBRANCH  15  16
ENDBRANCH  14  15
ENDBRANCH  13  14
ENDBRANCH  12  13
ENDBRANCH   1  12
TORSDOF 14
ENDMDL
MODEL 5
REMARK VINA RESULT:    -0.497      2.038      5.479
REMARK INTER + INTRA:          -1.784
REMARK INTER:                  -1.162
REMARK INTRA:                  -0.621
REMARK UNBOUND:                -0.880
REMARK SMILES CCCCCCCCCCCCCC[C@@H](C)C(=O)[O-]
REMARK SMILES IDX 9 1 10 2 11 3 12 4 13 5 14 6 15 7 16 8 17 9 18 10 19 11 8 12
REMARK SMILES IDX 7 13 6 14 5 15 4 16 3 17 2 18 1 19
REMARK H PARENT
REMARK Flexibility Score: inf
ROOT
ATOM      1  C   UNL     1      -7.896 -20.761  14.704  1.00  0.00     0.000 C 
ENDROOT
BRANCH   1   2
ATOM      2  C   UNL     1      -9.077 -20.271  15.559  1.00  0.00     0.000 C 
BRANCH   2   3
ATOM      3  C   UNL     1     -10.442 -20.516  14.891  1.00  0.00     0.000 C 
BRANCH   3   4
ATOM      4  C   UNL     1     -11.082 -21.889  15.186  1.00  0.00     0.000 C 
BRANCH   4   5
ATOM      5  C   UNL     1     -11.087 -22.305  16.667  1.00  0.00     0.001 C 
BRANCH   5   6
ATOM      6  C   UNL     1     -10.803 -21.134  17.623  1.00  0.00     0.009 C 
BRANCH   6   7
ATOM      7  C   UNL     1     -11.009 -21.533  19.099  1.00  0.00     0.032 C 
ATOM      8  C   UNL     1     -10.228 -22.809  19.430  1.00  0.00     0.014 C 
BRANCH   7   9
ATOM      9  C   UNL     1     -10.597 -20.420  20.026  1.00  0.00     0.044 C 
ATOM     10  O   UNL     1      -9.880 -19.471  19.608  1.00  0.00    -0.550 OA
ATOM     11  O   UNL     1     -11.020 -20.426  21.349  1.00  0.00    -0.550 OA
ENDBRANCH   7   9
ENDBRANCH   6   7
ENDBRANCH   5   6
ENDBRANCH   4   5
ENDBRANCH   3   4
ENDBRANCH   2   3
ENDBRANCH   1   2
BRANCH   1  12
ATOM     12  C   UNL     1      -7.113 -21.909  15.380  1.00  0.00     0.000 C 
BRANCH  12  13
ATOM     13  C   UNL     1      -7.639 -22.284  16.779  1.00  0.00    -0.000 C 
BRANCH  13  14
ATOM     14  C   UNL     1      -6.597 -22.919  17.719  1.00  0.00    -0.000 C 
BRANCH  14  15
ATOM     15  C   UNL     1      -5.197 -23.114  17.104  1.00  0.00    -0.000 C 
BRANCH  15  16
ATOM     16  C   UNL     1      -4.024 -23.017  18.101  1.00  0.00    -0.000 C 
BRANCH  16  17
ATOM     17  C   UNL     1      -4.428 -23.080  19.585  1.00  0.00    -0.000 C 
BRANCH  17  18
ATOM     18  C   UNL     1      -3.500 -22.257  20.491  1.00  0.00    -0.003 C 
ATOM     19  C   UNL     1      -2.370 -23.119  21.048  1.00  0.00     0.004 C 
ENDBRANCH  17  18
ENDBRANCH  16  17
ENDBRANCH  15  16
ENDBRANCH  14  15
ENDBRANCH  13  14
ENDBRANCH  12  13
ENDBRANCH   1  12
TORSDOF 14
ENDMDL
MODEL 6
REMARK VINA RESULT:    -0.242      3.072      5.911
REMARK INTER + INTRA:          -1.320
REMARK INTER:                  -0.985
REMARK INTRA:                  -0.336
REMARK UNBOUND:                -0.880
REMARK SMILES CCCCCCCCCCCCCC[C@@H](C)C(=O)[O-]
REMARK SMILES IDX 9 1 10 2 11 3 12 4 13 5 14 6 15 7 16 8 17 9 18 10 19 11 8 12
REMARK SMILES IDX 7 13 6 14 5 15 4 16 3 17 2 18 1 19
REMARK H PARENT
REMARK Flexibility Score: inf
ROOT
ATOM      1  C   UNL     1     -10.061 -21.481  17.314  1.00  0.00     0.000 C 
ENDROOT
BRANCH   1   2
ATOM      2  C   UNL     1      -9.153 -20.861  16.238  1.00  0.00     0.000 C 
BRANCH   2   3
ATOM      3  C   UNL     1      -7.949 -21.753  15.883  1.00  0.00     0.000 C 
BRANCH   3   4
ATOM      4  C   UNL     1      -7.722 -22.955  16.824  1.00  0.00     0.000 C 
BRANCH   4   5
ATOM      5  C   UNL     1      -6.954 -22.638  18.119  1.00  0.00     0.001 C 
BRANCH   5   6
ATOM      6  C   UNL     1      -5.630 -21.895  17.867  1.00  0.00     0.009 C 
BRANCH   6   7
ATOM      7  C   UNL     1      -4.975 -22.322  16.537  1.00  0.00     0.032 C 
ATOM      8  C   UNL     1      -4.965 -21.157  15.540  1.00  0.00     0.014 C 
BRANCH   7   9
ATOM      9  C   UNL     1      -3.572 -22.825  16.757  1.00  0.00     0.044 C 
ATOM     10  O   UNL     1      -3.174 -23.125  17.914  1.00  0.00    -0.550 OA
ATOM     11  O   UNL     1      -2.712 -22.975  15.677  1.00  0.00    -0.550 OA
ENDBRANCH   7   9
ENDBRANCH   6   7
ENDBRANCH   5   6
ENDBRANCH   4   5
ENDBRANCH   3   4
ENDBRANCH   2   3
ENDBRANCH   1   2
BRANCH   1  12
ATOM     12  C   UNL     1     -10.552 -20.440  18.344  1.00  0.00     0.000 C 
BRANCH  12  13
ATOM     13  C   UNL     1      -9.632 -20.294  19.571  1.00  0.00    -0.000 C 
BRANCH  13  14
ATOM     14  C   UNL     1     -10.233 -20.788  20.900  1.00  0.00    -0.000 C 
BRANCH  14  15
ATOM     15  C   UNL     1     -10.984 -22.132  20.817  1.00  0.00    -0.000 C 
BRANCH  15  16
ATOM     16  C   UNL     1     -10.733 -23.096  21.994  1.00  0.00    -0.000 C 
BRANCH  16  17
ATOM     17  C   UNL     1     -10.361 -22.415  23.323  1.00  0.00    -0.000 C 
BRANCH  17  18
ATOM     18  C   UNL     1      -8.889 -22.624  23.709  1.00  0.00    -0.003 C 
ATOM     19  C   UNL     1      -8.075 -23.125  22.519  1.00  0.00     0.004 C 
ENDBRANCH  17  18
ENDBRANCH  16  17
ENDBRANCH  15  16
ENDBRANCH  14  15
ENDBRANCH  13  14
ENDBRANCH  12  13
ENDBRANCH   1  12
TORSDOF 14
ENDMDL
MODEL 7
REMARK VINA RESULT:     0.261      2.324      5.654
REMARK INTER + INTRA:          -0.406
REMARK INTER:                  -0.175
REMARK INTRA:                  -0.231
REMARK UNBOUND:                -0.880
REMARK SMILES CCCCCCCCCCCCCC[C@@H](C)C(=O)[O-]
REMARK SMILES IDX 9 1 10 2 11 3 12 4 13 5 14 6 15 7 16 8 17 9 18 10 19 11 8 12
REMARK SMILES IDX 7 13 6 14 5 15 4 16 3 17 2 18 1 19
REMARK H PARENT
REMARK Flexibility Score: inf
ROOT
ATOM      1  C   UNL     1     -10.290 -21.606  17.525  1.00  0.00     0.000 C 
ENDROOT
BRANCH   1   2
ATOM      2  C   UNL     1      -9.608 -20.481  16.728  1.00  0.00     0.000 C 
BRANCH   2   3
ATOM      3  C   UNL     1      -8.887 -20.992  15.467  1.00  0.00     0.000 C 
BRANCH   3   4
ATOM      4  C   UNL     1      -7.444 -20.477  15.280  1.00  0.00     0.000 C 
BRANCH   4   5
ATOM      5  C   UNL     1      -6.397 -21.560  14.966  1.00  0.00     0.001 C 
BRANCH   5   6
ATOM      6  C   UNL     1      -6.628 -22.865  15.747  1.00  0.00     0.009 C 
BRANCH   6   7
ATOM      7  C   UNL     1      -5.509 -23.125  16.777  1.00  0.00     0.032 C 
ATOM      8  C   UNL     1      -4.212 -22.425  16.356  1.00  0.00     0.014 C 
BRANCH   7   9
ATOM      9  C   UNL     1      -5.919 -22.668  18.153  1.00  0.00     0.044 C 
ATOM     10  O   UNL     1      -6.932 -21.934  18.309  1.00  0.00    -0.550 OA
ATOM     11  O   UNL     1      -5.188 -23.069  19.264  1.00  0.00    -0.550 OA
ENDBRANCH   7   9
ENDBRANCH   6   7
ENDBRANCH   5   6
ENDBRANCH   4   5
ENDBRANCH   3   4
ENDBRANCH   2   3
ENDBRANCH   1   2
BRANCH   1  12
ATOM     12  C   UNL     1      -9.344 -22.255  18.559  1.00  0.00     0.000 C 
BRANCH  12  13
ATOM     13  C   UNL     1     -10.073 -23.050  19.660  1.00  0.00    -0.000 C 
BRANCH  13  14
ATOM     14  C   UNL     1     -10.852 -22.194  20.676  1.00  0.00    -0.000 C 
BRANCH  14  15
ATOM     15  C   UNL     1     -10.064 -21.009  21.271  1.00  0.00    -0.000 C 
BRANCH  15  16
ATOM     16  C   UNL     1      -9.897 -21.038  22.804  1.00  0.00    -0.000 C 
BRANCH  16  17
ATOM     17  C   UNL     1      -8.534 -21.554  23.299  1.00  0.00    -0.000 C 
BRANCH  17  18
ATOM     18  C   UNL     1      -8.611 -22.970  23.888  1.00  0.00    -0.003 C 
ATOM     19  C   UNL     1      -9.833 -23.125  24.789  1.00  0.00     0.004 C 
ENDBRANCH  17  18
ENDBRANCH  16  17
ENDBRANCH  15  16
ENDBRANCH  14  15
ENDBRANCH  13  14
ENDBRANCH  12  13
ENDBRANCH   1  12
TORSDOF 14
ENDMDL
