MODEL 1
REMARK VINA RESULT:    -4.357      0.000      0.000
REMARK INTER + INTRA:          -4.783
REMARK INTER:                  -4.739
REMARK INTRA:                  -0.044
REMARK UNBOUND:                -0.044
REMARK SMILES COc1ccccc1O
REMARK SMILES IDX 3 1 4 2 5 3 6 4 7 5 8 6 2 7 1 8 9 9
REMARK H PARENT 9 10
REMARK Flexibility Score: inf
ROOT
ATOM      1  C   UNL     1     -26.288 -11.925 -29.402  1.00  0.00     0.160 A 
ATOM      2  C   UNL     1     -25.016 -11.336 -29.552  1.00  0.00     0.050 A 
ATOM      3  C   UNL     1     -24.340 -11.417 -30.773  1.00  0.00     0.004 A 
ATOM      4  C   UNL     1     -24.922 -12.082 -31.853  1.00  0.00     0.004 A 
ATOM      5  C   UNL     1     -26.181 -12.668 -31.716  1.00  0.00     0.050 A 
ATOM      6  C   UNL     1     -26.867 -12.594 -30.498  1.00  0.00     0.157 A 
ENDROOT
BRANCH   1   7
ATOM      7  O   UNL     1     -26.998 -11.865 -28.192  1.00  0.00    -0.493 OA
ATOM      8  C   UNL     1     -27.833 -10.780 -27.801  1.00  0.00     0.278 C 
ENDBRANCH   1   7
BRANCH   6   9
ATOM      9  O   UNL     1     -28.124 -13.191 -30.396  1.00  0.00    -0.504 OA
ATOM     10  H   UNL     1     -28.978 -12.648 -30.365  1.00  0.00     0.293 HD
ENDBRANCH   6   9
TORSDOF 2
ENDMDL
MODEL 2
REMARK VINA RESULT:    -4.287      1.292      2.396
REMARK INTER + INTRA:          -4.707
REMARK INTER:                  -4.681
REMARK INTRA:                  -0.026
REMARK UNBOUND:                -0.044
REMARK SMILES COc1ccccc1O
REMARK SMILES IDX 3 1 4 2 5 3 6 4 7 5 8 6 2 7 1 8 9 9
REMARK H PARENT 9 10
REMARK Flexibility Score: inf
ROOT
ATOM      1  C   UNL     1     -25.320 -11.331 -29.546  1.00  0.00     0.160 A 
ATOM      2  C   UNL     1     -24.794 -11.407 -30.852  1.00  0.00     0.050 A 
ATOM      3  C   UNL     1     -25.460 -12.141 -31.838  1.00  0.00     0.004 A 
ATOM      4  C   UNL     1     -26.649 -12.805 -31.535  1.00  0.00     0.004 A 
ATOM      5  C   UNL     1     -27.178 -12.737 -30.245  1.00  0.00     0.050 A 
ATOM      6  C   UNL     1     -26.521 -12.004 -29.250  1.00  0.00     0.157 A 
ENDROOT
BRANCH   1   7
ATOM      7  O   UNL     1     -24.681 -10.603 -28.529  1.00  0.00    -0.493 OA
ATOM      8  C   UNL     1     -23.305 -10.237 -28.541  1.00  0.00     0.278 C 
ENDBRANCH   1   7
BRANCH   6   9
ATOM      9  O   UNL     1     -27.077 -11.957 -27.971  1.00  0.00    -0.504 OA
ATOM     10  H   UNL     1     -26.620 -12.373 -27.169  1.00  0.00     0.293 HD
ENDBRANCH   6   9
TORSDOF 2
ENDMDL
MODEL 3
REMARK VINA RESULT:    -4.169      1.075      2.304
REMARK INTER + INTRA:          -4.579
REMARK INTER:                  -4.537
REMARK INTRA:                  -0.042
REMARK UNBOUND:                -0.044
REMARK SMILES COc1ccccc1O
REMARK SMILES IDX 3 1 4 2 5 3 6 4 7 5 8 6 2 7 1 8 9 9
REMARK H PARENT 9 10
REMARK Flexibility Score: inf
ROOT
ATOM      1  C   UNL     1     -26.342 -11.870 -29.298  1.00  0.00     0.160 A 
ATOM      2  C   UNL     1     -27.077 -12.569 -30.277  1.00  0.00     0.050 A 
ATOM      3  C   UNL     1     -26.549 -12.753 -31.558  1.00  0.00     0.004 A 
ATOM      4  C   UNL     1     -25.289 -12.246 -31.877  1.00  0.00     0.004 A 
ATOM      5  C   UNL     1     -24.552 -11.552 -30.915  1.00  0.00     0.050 A 
ATOM      6  C   UNL     1     -25.070 -11.362 -29.628  1.00  0.00     0.157 A 
ENDROOT
BRANCH   1   7
ATOM      7  O   UNL     1     -26.838 -11.665 -28.001  1.00  0.00    -0.493 OA
ATOM      8  C   UNL     1     -27.970 -10.860 -27.688  1.00  0.00     0.278 C 
ENDBRANCH   1   7
BRANCH   6   9
ATOM      9  O   UNL     1     -24.307 -10.664 -28.692  1.00  0.00    -0.504 OA
ATOM     10  H   UNL     1     -24.714 -10.262 -27.857  1.00  0.00     0.293 HD
ENDBRANCH   6   9
TORSDOF 2
ENDMDL
MODEL 4
REMARK VINA RESULT:    -4.011      1.478      3.202
REMARK INTER + INTRA:          -4.407
REMARK INTER:                  -4.381
REMARK INTRA:                  -0.025
REMARK UNBOUND:                -0.044
REMARK SMILES COc1ccccc1O
REMARK SMILES IDX 3 1 4 2 5 3 6 4 7 5 8 6 2 7 1 8 9 9
REMARK H PARENT 9 10
REMARK Flexibility Score: inf
ROOT
ATOM      1  C   UNL     1     -25.591 -11.974 -30.668  1.00  0.00     0.160 A 
ATOM      2  C   UNL     1     -24.671 -11.159 -29.977  1.00  0.00     0.050 A 
ATOM      3  C   UNL     1     -24.977 -10.675 -28.702  1.00  0.00     0.004 A 
ATOM      4  C   UNL     1     -26.196 -10.995 -28.104  1.00  0.00     0.004 A 
ATOM      5  C   UNL     1     -27.114 -11.802 -28.779  1.00  0.00     0.050 A 
ATOM      6  C   UNL     1     -26.819 -12.293 -30.056  1.00  0.00     0.157 A 
ENDROOT
BRANCH   1   7
ATOM      7  O   UNL     1     -25.320 -12.480 -31.949  1.00  0.00    -0.493 OA
ATOM      8  C   UNL     1     -24.118 -12.239 -32.674  1.00  0.00     0.278 C 
ENDBRANCH   1   7
BRANCH   6   9
ATOM      9  O   UNL     1     -27.759 -13.096 -30.703  1.00  0.00    -0.504 OA
ATOM     10  H   UNL     1     -27.572 -13.532 -31.597  1.00  0.00     0.293 HD
ENDBRANCH   6   9
TORSDOF 2
ENDMDL
MODEL 5
REMARK VINA RESULT:    -3.997      1.866      3.514
REMARK INTER + INTRA:          -4.392
REMARK INTER:                  -4.365
REMARK INTRA:                  -0.027
REMARK UNBOUND:                -0.044
REMARK SMILES COc1ccccc1O
REMARK SMILES IDX 3 1 4 2 5 3 6 4 7 5 8 6 2 7 1 8 9 9
REMARK H PARENT 9 10
REMARK Flexibility Score: inf
ROOT
ATOM      1  C   UNL     1     -25.776 -10.955 -29.053  1.00  0.00     0.160 A 
ATOM      2  C   UNL     1     -25.751  -9.690 -28.431  1.00  0.00     0.050 A 
ATOM      3  C   UNL     1     -26.878  -9.214 -27.756  1.00  0.00     0.004 A 
ATOM      4  C   UNL     1     -28.038  -9.988 -27.694  1.00  0.00     0.004 A 
ATOM      5  C   UNL     1     -28.073 -11.242 -28.306  1.00  0.00     0.050 A 
ATOM      6  C   UNL     1     -26.950 -11.730 -28.985  1.00  0.00     0.157 A 
ENDROOT
BRANCH   1   7
ATOM      7  O   UNL     1     -24.664 -11.468 -29.740  1.00  0.00    -0.493 OA
ATOM      8  C   UNL     1     -23.312 -11.109 -29.468  1.00  0.00     0.278 C 
ENDBRANCH   1   7
BRANCH   6   9
ATOM      9  O   UNL     1     -27.020 -12.987 -29.586  1.00  0.00    -0.504 OA
ATOM     10  H   UNL     1     -27.734 -13.662 -29.342  1.00  0.00     0.293 HD
ENDBRANCH   6   9
TORSDOF 2
ENDMDL
MODEL 6
REMARK VINA RESULT:    -3.947     11.411     12.889
REMARK INTER + INTRA:          -4.337
REMARK INTER:                  -4.293
REMARK INTRA:                  -0.044
REMARK UNBOUND:                -0.044
REMARK SMILES COc1ccccc1O
REMARK SMILES IDX 3 1 4 2 5 3 6 4 7 5 8 6 2 7 1 8 9 9
REMARK H PARENT 9 10
REMARK Flexibility Score: inf
ROOT
ATOM      1  C   UNL     1     -16.087  -6.074 -27.202  1.00  0.00     0.160 A 
ATOM      2  C   UNL     1     -17.415  -6.103 -27.676  1.00  0.00     0.050 A 
ATOM      3  C   UNL     1     -18.371  -5.232 -27.148  1.00  0.00     0.004 A 
ATOM      4  C   UNL     1     -18.018  -4.327 -26.146  1.00  0.00     0.004 A 
ATOM      5  C   UNL     1     -16.707  -4.289 -25.669  1.00  0.00     0.050 A 
ATOM      6  C   UNL     1     -15.740  -5.157 -26.192  1.00  0.00     0.157 A 
ENDROOT
BRANCH   1   7
ATOM      7  O   UNL     1     -15.098  -6.932 -27.709  1.00  0.00    -0.493 OA
ATOM      8  C   UNL     1     -14.326  -6.673 -28.877  1.00  0.00     0.278 C 
ENDBRANCH   1   7
BRANCH   6   9
ATOM      9  O   UNL     1     -14.439  -5.093 -25.692  1.00  0.00    -0.504 OA
ATOM     10  H   UNL     1     -14.224  -4.665 -24.800  1.00  0.00     0.293 HD
ENDBRANCH   6   9
TORSDOF 2
ENDMDL
MODEL 7
REMARK VINA RESULT:    -3.934      2.325      3.374
REMARK INTER + INTRA:          -4.323
REMARK INTER:                  -4.284
REMARK INTRA:                  -0.039
REMARK UNBOUND:                -0.044
REMARK SMILES COc1ccccc1O
REMARK SMILES IDX 3 1 4 2 5 3 6 4 7 5 8 6 2 7 1 8 9 9
REMARK H PARENT 9 10
REMARK Flexibility Score: inf
ROOT
ATOM      1  C   UNL     1     -24.762 -11.392 -30.669  1.00  0.00     0.160 A 
ATOM      2  C   UNL     1     -25.279 -11.742 -29.404  1.00  0.00     0.050 A 
ATOM      3  C   UNL     1     -26.494 -12.425 -29.304  1.00  0.00     0.004 A 
ATOM      4  C   UNL     1     -27.205 -12.765 -30.456  1.00  0.00     0.004 A 
ATOM      5  C   UNL     1     -26.702 -12.424 -31.713  1.00  0.00     0.050 A 
ATOM      6  C   UNL     1     -25.485 -11.741 -31.826  1.00  0.00     0.157 A 
ENDROOT
BRANCH   1   7
ATOM      7  O   UNL     1     -23.544 -10.708 -30.811  1.00  0.00    -0.493 OA
ATOM      8  C   UNL     1     -22.284 -11.203 -30.370  1.00  0.00     0.278 C 
ENDBRANCH   1   7
BRANCH   6   9
ATOM      9  O   UNL     1     -25.012 -11.415 -33.097  1.00  0.00    -0.504 OA
ATOM     10  H   UNL     1     -25.506 -10.779 -33.710  1.00  0.00     0.293 HD
ENDBRANCH   6   9
TORSDOF 2
ENDMDL
MODEL 8
REMARK VINA RESULT:    -3.928     11.769     12.873
REMARK INTER + INTRA:          -4.316
REMARK INTER:                  -4.288
REMARK INTRA:                  -0.029
REMARK UNBOUND:                -0.044
REMARK SMILES COc1ccccc1O
REMARK SMILES IDX 3 1 4 2 5 3 6 4 7 5 8 6 2 7 1 8 9 9
REMARK H PARENT 9 10
REMARK Flexibility Score: inf
ROOT
ATOM      1  C   UNL     1     -16.836  -4.291 -25.670  1.00  0.00     0.160 A 
ATOM      2  C   UNL     1     -18.025  -4.466 -26.406  1.00  0.00     0.050 A 
ATOM      3  C   UNL     1     -18.090  -5.418 -27.427  1.00  0.00     0.004 A 
ATOM      4  C   UNL     1     -16.975  -6.203 -27.725  1.00  0.00     0.004 A 
ATOM      5  C   UNL     1     -15.792  -6.039 -27.002  1.00  0.00     0.050 A 
ATOM      6  C   UNL     1     -15.716  -5.088 -25.977  1.00  0.00     0.157 A 
ENDROOT
BRANCH   1   7
ATOM      7  O   UNL     1     -16.733  -3.346 -24.637  1.00  0.00    -0.493 OA
ATOM      8  C   UNL     1     -17.785  -3.018 -23.735  1.00  0.00     0.278 C 
ENDBRANCH   1   7
BRANCH   6   9
ATOM      9  O   UNL     1     -14.518  -4.950 -25.275  1.00  0.00    -0.504 OA
ATOM     10  H   UNL     1     -14.420  -4.308 -24.498  1.00  0.00     0.293 HD
ENDBRANCH   6   9
TORSDOF 2
ENDMDL
MODEL 9
REMARK VINA RESULT:    -3.647      6.191      7.556
REMARK INTER + INTRA:          -4.011
REMARK INTER:                  -3.965
REMARK INTRA:                  -0.046
REMARK UNBOUND:                -0.044
REMARK SMILES COc1ccccc1O
REMARK SMILES IDX 3 1 4 2 5 3 6 4 7 5 8 6 2 7 1 8 9 9
REMARK H PARENT 9 10
REMARK Flexibility Score: inf
ROOT
ATOM      1  C   UNL     1     -26.646  -5.106 -27.753  1.00  0.00     0.160 A 
ATOM      2  C   UNL     1     -26.440  -4.278 -26.631  1.00  0.00     0.050 A 
ATOM      3  C   UNL     1     -25.489  -4.621 -25.666  1.00  0.00     0.004 A 
ATOM      4  C   UNL     1     -24.737  -5.788 -25.807  1.00  0.00     0.004 A 
ATOM      5  C   UNL     1     -24.933  -6.615 -26.914  1.00  0.00     0.050 A 
ATOM      6  C   UNL     1     -25.882  -6.281 -27.887  1.00  0.00     0.157 A 
ENDROOT
BRANCH   1   7
ATOM      7  O   UNL     1     -27.592  -4.795 -28.743  1.00  0.00    -0.493 OA
ATOM      8  C   UNL     1     -27.365  -3.888 -29.818  1.00  0.00     0.278 C 
ENDBRANCH   1   7
BRANCH   6   9
ATOM      9  O   UNL     1     -26.052  -7.131 -28.981  1.00  0.00    -0.504 OA
ATOM     10  H   UNL     1     -26.966  -7.450 -29.278  1.00  0.00     0.293 HD
ENDBRANCH   6   9
TORSDOF 2
ENDMDL
