MODEL 1
REMARK VINA RESULT:     9.597      0.000      0.000
REMARK INTER + INTRA:          19.877
REMARK INTER:                  13.244
REMARK INTRA:                   6.634
REMARK UNBOUND:                 6.634
REMARK SMILES O=C([O-])[C@@H]1O[C@@H](Oc2cc3oc(-c4ccccc4)cc(=O)c3c(O)c2O)[C@@H](O)[C@@H](O)[C@@H]1O
REMARK SMILES IDX 7 1 6 2 4 3 31 4 5 5 29 6 27 7 2 8 1 9 3 10 32 11 30 13
REMARK SMILES IDX 28 15 8 17 25 18 9 19 23 20 10 21 22 22 11 23 20 24 12 25
REMARK SMILES IDX 19 26 21 27 26 28 24 30 13 32 14 33 18 34 15 35 17 36 16 37
REMARK H PARENT 32 12 30 14 28 16 26 29 24 31
REMARK Flexibility Score: inf
ROOT
ATOM      1  O   UNL     1      26.507  35.989  26.137  1.00  0.00    -0.458 OA
ENDROOT
BRANCH   1   2
ATOM      2  C   UNL     1      25.776  37.070  25.540  1.00  0.00     0.339 C 
ATOM      3  C   UNL     1      27.712  38.386  25.343  1.00  0.00     0.199 C 
ATOM      4  C   UNL     1      27.234  39.452  26.359  1.00  0.00     0.180 C 
ATOM      5  O   UNL     1      26.614  37.801  24.658  1.00  0.00    -0.328 OA
ATOM      6  C   UNL     1      26.187  38.863  27.334  1.00  0.00     0.181 C 
ATOM      7  C   UNL     1      25.134  38.006  26.594  1.00  0.00     0.214 C 
BRANCH   3   8
ATOM      8  C   UNL     1      28.648  39.001  24.345  1.00  0.00     0.073 C 
ATOM      9  O   UNL     1      28.251  39.915  23.573  1.00  0.00    -0.547 OA
ATOM     10  O   UNL     1      29.978  38.601  24.305  1.00  0.00    -0.547 OA
ENDBRANCH   3   8
BRANCH   4  11
ATOM     11  O   UNL     1      26.717  40.590  25.709  1.00  0.00    -0.387 OA
ATOM     12  H   UNL     1      26.188  40.283  24.928  1.00  0.00     0.211 HD
ENDBRANCH   4  11
BRANCH   6  13
ATOM     13  O   UNL     1      26.800  38.146  28.380  1.00  0.00    -0.387 OA
ATOM     14  H   UNL     1      26.091  37.793  28.975  1.00  0.00     0.211 HD
ENDBRANCH   6  13
BRANCH   7  15
ATOM     15  O   UNL     1      24.373  37.266  27.513  1.00  0.00    -0.384 OA
ATOM     16  H   UNL     1      23.459  37.187  27.133  1.00  0.00     0.211 HD
ENDBRANCH   7  15
ENDBRANCH   1   2
BRANCH   1  17
ATOM     17  C   UNL     1      27.835  36.020  26.600  1.00  0.00     0.172 A 
ATOM     18  C   UNL     1      28.485  34.792  26.794  1.00  0.00     0.201 A 
ATOM     19  C   UNL     1      28.512  37.217  26.880  1.00  0.00     0.098 A 
ATOM     20  C   UNL     1      29.825  34.756  27.259  1.00  0.00     0.176 A 
ATOM     21  C   UNL     1      29.828  37.199  27.337  1.00  0.00     0.146 A 
ATOM     22  C   UNL     1      30.500  35.972  27.531  1.00  0.00     0.111 A 
ATOM     23  O   UNL     1      30.437  38.354  27.589  1.00  0.00    -0.456 OA
ATOM     24  C   UNL     1      31.835  36.029  27.988  1.00  0.00     0.197 A 
ATOM     25  C   UNL     1      31.689  38.441  28.030  1.00  0.00     0.138 A 
ATOM     26  C   UNL     1      32.430  37.266  28.236  1.00  0.00     0.100 A 
ATOM     27  O   UNL     1      32.512  34.982  28.177  1.00  0.00    -0.289 OA
BRANCH  18  28
ATOM     28  O   UNL     1      27.761  33.631  26.509  1.00  0.00    -0.502 OA
ATOM     29  H   UNL     1      27.046  33.559  25.800  1.00  0.00     0.293 HD
ENDBRANCH  18  28
BRANCH  20  30
ATOM     30  O   UNL     1      30.498  33.546  27.457  1.00  0.00    -0.504 OA
ATOM     31  H   UNL     1      30.207  32.657  27.076  1.00  0.00     0.293 HD
ENDBRANCH  20  30
BRANCH  25  32
ATOM     32  C   UNL     1      32.266  39.787  28.276  1.00  0.00     0.017 A 
ATOM     33  C   UNL     1      31.521  40.739  28.997  1.00  0.00     0.012 A 
ATOM     34  C   UNL     1      33.561  40.131  27.835  1.00  0.00     0.012 A 
ATOM     35  C   UNL     1      32.046  42.009  29.250  1.00  0.00     0.001 A 
ATOM     36  C   UNL     1      34.081  41.404  28.093  1.00  0.00     0.001 A 
ATOM     37  C   UNL     1      33.325  42.342  28.797  1.00  0.00     0.000 A 
ENDBRANCH  25  32
ENDBRANCH   1  17
TORSDOF 9
ENDMDL
MODEL 2
REMARK VINA RESULT:    10.315      2.092      3.933
REMARK INTER + INTRA:          20.868
REMARK INTER:                  18.437
REMARK INTRA:                   2.431
REMARK UNBOUND:                 6.634
REMARK SMILES O=C([O-])[C@@H]1O[C@@H](Oc2cc3oc(-c4ccccc4)cc(=O)c3c(O)c2O)[C@@H](O)[C@@H](O)[C@@H]1O
REMARK SMILES IDX 7 1 6 2 4 3 31 4 5 5 29 6 27 7 2 8 1 9 3 10 32 11 30 13
REMARK SMILES IDX 28 15 8 17 25 18 9 19 23 20 10 21 22 22 11 23 20 24 12 25
REMARK SMILES IDX 19 26 21 27 26 28 24 30 13 32 14 33 18 34 15 35 17 36 16 37
REMARK H PARENT 32 12 30 14 28 16 26 29 24 31
REMARK Flexibility Score: inf
ROOT
ATOM      1  O   UNL     1      27.032  38.243  26.078  1.00  0.00    -0.458 OA
ENDROOT
BRANCH   1   2
ATOM      2  C   UNL     1      27.524  37.507  24.951  1.00  0.00     0.339 C 
ATOM      3  C   UNL     1      29.415  36.780  26.141  1.00  0.00     0.199 C 
ATOM      4  C   UNL     1      30.417  37.573  25.266  1.00  0.00     0.180 C 
ATOM      5  O   UNL     1      28.278  36.386  25.387  1.00  0.00    -0.328 OA
ATOM      6  C   UNL     1      29.728  38.777  24.581  1.00  0.00     0.181 C 
ATOM      7  C   UNL     1      28.355  38.386  23.984  1.00  0.00     0.214 C 
BRANCH   3   8
ATOM      8  C   UNL     1      30.076  35.561  26.715  1.00  0.00     0.073 C 
ATOM      9  O   UNL     1      30.884  35.664  27.677  1.00  0.00    -0.547 OA
ATOM     10  O   UNL     1      29.757  34.303  26.220  1.00  0.00    -0.547 OA
ENDBRANCH   3   8
BRANCH   4  11
ATOM     11  O   UNL     1      31.033  36.746  24.307  1.00  0.00    -0.387 OA
ATOM     12  H   UNL     1      30.327  36.204  23.870  1.00  0.00     0.211 HD
ENDBRANCH   4  11
BRANCH   6  13
ATOM     13  O   UNL     1      29.621  39.878  25.452  1.00  0.00    -0.387 OA
ATOM     14  H   UNL     1      30.027  40.667  25.012  1.00  0.00     0.211 HD
ENDBRANCH   6  13
BRANCH   7  15
ATOM     15  O   UNL     1      27.636  39.535  23.621  1.00  0.00    -0.384 OA
ATOM     16  H   UNL     1      27.289  39.936  24.460  1.00  0.00     0.211 HD
ENDBRANCH   7  15
ENDBRANCH   1   2
BRANCH   1  17
ATOM     17  C   UNL     1      27.652  38.385  27.333  1.00  0.00     0.172 A 
ATOM     18  C   UNL     1      27.152  37.621  28.397  1.00  0.00     0.201 A 
ATOM     19  C   UNL     1      28.726  39.262  27.552  1.00  0.00     0.098 A 
ATOM     20  C   UNL     1      27.735  37.719  29.687  1.00  0.00     0.176 A 
ATOM     21  C   UNL     1      29.310  39.370  28.812  1.00  0.00     0.146 A 
ATOM     22  C   UNL     1      28.824  38.601  29.893  1.00  0.00     0.111 A 
ATOM     23  O   UNL     1      30.328  40.208  28.980  1.00  0.00    -0.456 OA
ATOM     24  C   UNL     1      29.468  38.755  31.141  1.00  0.00     0.197 A 
ATOM     25  C   UNL     1      30.949  40.384  30.143  1.00  0.00     0.138 A 
ATOM     26  C   UNL     1      30.534  39.646  31.264  1.00  0.00     0.100 A 
ATOM     27  O   UNL     1      29.106  38.099  32.155  1.00  0.00    -0.289 OA
BRANCH  18  28
ATOM     28  O   UNL     1      26.074  36.772  28.126  1.00  0.00    -0.502 OA
ATOM     29  H   UNL     1      25.984  35.828  28.472  1.00  0.00     0.293 HD
ENDBRANCH  18  28
BRANCH  20  30
ATOM     30  O   UNL     1      27.258  36.963  30.763  1.00  0.00    -0.504 OA
ATOM     31  H   UNL     1      27.167  37.303  31.710  1.00  0.00     0.293 HD
ENDBRANCH  20  30
BRANCH  25  32
ATOM     32  C   UNL     1      32.076  41.348  30.211  1.00  0.00     0.017 A 
ATOM     33  C   UNL     1      32.772  41.684  29.035  1.00  0.00     0.012 A 
ATOM     34  C   UNL     1      32.452  41.966  31.422  1.00  0.00     0.012 A 
ATOM     35  C   UNL     1      33.830  42.597  29.072  1.00  0.00     0.001 A 
ATOM     36  C   UNL     1      33.511  42.879  31.451  1.00  0.00     0.001 A 
ATOM     37  C   UNL     1      34.201  43.193  30.279  1.00  0.00     0.000 A 
ENDBRANCH  25  32
ENDBRANCH   1  17
TORSDOF 9
ENDMDL
MODEL 3
REMARK VINA RESULT:    10.790      2.526      4.697
REMARK INTER + INTRA:          21.524
REMARK INTER:                  15.032
REMARK INTRA:                   6.492
REMARK UNBOUND:                 6.634
REMARK SMILES O=C([O-])[C@@H]1O[C@@H](Oc2cc3oc(-c4ccccc4)cc(=O)c3c(O)c2O)[C@@H](O)[C@@H](O)[C@@H]1O
REMARK SMILES IDX 7 1 6 2 4 3 31 4 5 5 29 6 27 7 2 8 1 9 3 10 32 11 30 13
REMARK SMILES IDX 28 15 8 17 25 18 9 19 23 20 10 21 22 22 11 23 20 24 12 25
REMARK SMILES IDX 19 26 21 27 26 28 24 30 13 32 14 33 18 34 15 35 17 36 16 37
REMARK H PARENT 32 12 30 14 28 16 26 29 24 31
REMARK Flexibility Score: inf
ROOT
ATOM      1  O   UNL     1      26.562  37.983  28.763  1.00  0.00    -0.458 OA
ENDROOT
BRANCH   1   2
ATOM      2  C   UNL     1      25.790  36.916  28.195  1.00  0.00     0.339 C 
ATOM      3  C   UNL     1      27.649  36.067  27.039  1.00  0.00     0.199 C 
ATOM      4  C   UNL     1      27.074  36.390  25.637  1.00  0.00     0.180 C 
ATOM      5  O   UNL     1      26.612  35.783  27.965  1.00  0.00    -0.328 OA
ATOM      6  C   UNL     1      26.032  37.530  25.712  1.00  0.00     0.181 C 
ATOM      7  C   UNL     1      25.057  37.338  26.897  1.00  0.00     0.214 C 
BRANCH   3   8
ATOM      8  C   UNL     1      28.581  34.894  26.961  1.00  0.00     0.073 C 
ATOM      9  O   UNL     1      28.295  33.894  26.249  1.00  0.00    -0.547 OA
ATOM     10  O   UNL     1      29.796  34.928  27.635  1.00  0.00    -0.547 OA
ENDBRANCH   3   8
BRANCH   4  11
ATOM     11  O   UNL     1      26.514  35.248  25.034  1.00  0.00    -0.387 OA
ATOM     12  H   UNL     1      25.861  35.551  24.351  1.00  0.00     0.211 HD
ENDBRANCH   4  11
BRANCH   6  13
ATOM     13  O   UNL     1      26.650  38.795  25.746  1.00  0.00    -0.387 OA
ATOM     14  H   UNL     1      27.632  38.665  25.738  1.00  0.00     0.211 HD
ENDBRANCH   6  13
BRANCH   7  15
ATOM     15  O   UNL     1      24.311  38.508  27.110  1.00  0.00    -0.384 OA
ATOM     16  H   UNL     1      24.627  38.900  27.966  1.00  0.00     0.211 HD
ENDBRANCH   7  15
ENDBRANCH   1   2
BRANCH   1  17
ATOM     17  C   UNL     1      27.895  38.317  28.461  1.00  0.00     0.172 A 
ATOM     18  C   UNL     1      28.602  39.086  29.396  1.00  0.00     0.201 A 
ATOM     19  C   UNL     1      28.522  37.922  27.269  1.00  0.00     0.098 A 
ATOM     20  C   UNL     1      29.950  39.454  29.149  1.00  0.00     0.176 A 
ATOM     21  C   UNL     1      29.845  38.275  27.011  1.00  0.00     0.146 A 
ATOM     22  C   UNL     1      30.574  39.043  27.946  1.00  0.00     0.111 A 
ATOM     23  O   UNL     1      30.406  37.880  25.873  1.00  0.00    -0.456 OA
ATOM     24  C   UNL     1      31.913  39.358  27.624  1.00  0.00     0.197 A 
ATOM     25  C   UNL     1      31.661  38.168  25.535  1.00  0.00     0.138 A 
ATOM     26  C   UNL     1      32.456  38.917  26.417  1.00  0.00     0.100 A 
ATOM     27  O   UNL     1      32.639  40.029  28.406  1.00  0.00    -0.289 OA
BRANCH  18  28
ATOM     28  O   UNL     1      27.925  39.460  30.561  1.00  0.00    -0.502 OA
ATOM     29  H   UNL     1      27.863  38.895  31.395  1.00  0.00     0.293 HD
ENDBRANCH  18  28
BRANCH  20  30
ATOM     30  O   UNL     1      30.679  40.217  30.068  1.00  0.00    -0.504 OA
ATOM     31  H   UNL     1      31.426  39.862  30.645  1.00  0.00     0.293 HD
ENDBRANCH  20  30
BRANCH  25  32
ATOM     32  C   UNL     1      32.182  37.672  24.236  1.00  0.00     0.017 A 
ATOM     33  C   UNL     1      31.406  37.832  23.072  1.00  0.00     0.012 A 
ATOM     34  C   UNL     1      33.452  37.070  24.127  1.00  0.00     0.012 A 
ATOM     35  C   UNL     1      31.879  37.382  21.836  1.00  0.00     0.001 A 
ATOM     36  C   UNL     1      33.919  36.624  22.886  1.00  0.00     0.001 A 
ATOM     37  C   UNL     1      33.134  36.777  21.743  1.00  0.00     0.000 A 
ENDBRANCH  25  32
ENDBRANCH   1  17
TORSDOF 9
ENDMDL
MODEL 4
REMARK VINA RESULT:    10.933      2.020      3.363
REMARK INTER + INTRA:          21.722
REMARK INTER:                  19.902
REMARK INTRA:                   1.820
REMARK UNBOUND:                 6.634
REMARK SMILES O=C([O-])[C@@H]1O[C@@H](Oc2cc3oc(-c4ccccc4)cc(=O)c3c(O)c2O)[C@@H](O)[C@@H](O)[C@@H]1O
REMARK SMILES IDX 7 1 6 2 4 3 31 4 5 5 29 6 27 7 2 8 1 9 3 10 32 11 30 13
REMARK SMILES IDX 28 15 8 17 25 18 9 19 23 20 10 21 22 22 11 23 20 24 12 25
REMARK SMILES IDX 19 26 21 27 26 28 24 30 13 32 14 33 18 34 15 35 17 36 16 37
REMARK H PARENT 32 12 30 14 28 16 26 29 24 31
REMARK Flexibility Score: inf
ROOT
ATOM      1  O   UNL     1      27.116  38.673  25.903  1.00  0.00    -0.458 OA
ENDROOT
BRANCH   1   2
ATOM      2  C   UNL     1      26.103  38.677  26.919  1.00  0.00     0.339 C 
ATOM      3  C   UNL     1      27.682  38.312  28.619  1.00  0.00     0.199 C 
ATOM      4  C   UNL     1      27.149  36.902  28.974  1.00  0.00     0.180 C 
ATOM      5  O   UNL     1      26.638  39.150  28.145  1.00  0.00    -0.328 OA
ATOM      6  C   UNL     1      26.396  36.273  27.778  1.00  0.00     0.181 C 
ATOM      7  C   UNL     1      25.443  37.288  27.105  1.00  0.00     0.214 C 
BRANCH   3   8
ATOM      8  C   UNL     1      28.320  38.945  29.820  1.00  0.00     0.073 C 
ATOM      9  O   UNL     1      27.622  39.573  30.660  1.00  0.00    -0.547 OA
ATOM     10  O   UNL     1      29.684  38.793  30.041  1.00  0.00    -0.547 OA
ENDBRANCH   3   8
BRANCH   4  11
ATOM     11  O   UNL     1      26.325  36.933  30.115  1.00  0.00    -0.387 OA
ATOM     12  H   UNL     1      25.544  37.512  29.913  1.00  0.00     0.211 HD
ENDBRANCH   4  11
BRANCH   6  13
ATOM     13  O   UNL     1      27.286  35.699  26.849  1.00  0.00    -0.387 OA
ATOM     14  H   UNL     1      28.148  35.527  27.306  1.00  0.00     0.211 HD
ENDBRANCH   6  13
BRANCH   7  15
ATOM     15  O   UNL     1      24.989  36.789  25.874  1.00  0.00    -0.384 OA
ATOM     16  H   UNL     1      25.662  37.048  25.192  1.00  0.00     0.211 HD
ENDBRANCH   7  15
ENDBRANCH   1   2
BRANCH   1  17
ATOM     17  C   UNL     1      28.509  38.653  26.097  1.00  0.00     0.172 A 
ATOM     18  C   UNL     1      29.240  37.635  25.468  1.00  0.00     0.201 A 
ATOM     19  C   UNL     1      29.176  39.595  26.897  1.00  0.00     0.098 A 
ATOM     20  C   UNL     1      30.648  37.561  25.624  1.00  0.00     0.176 A 
ATOM     21  C   UNL     1      30.558  39.536  27.061  1.00  0.00     0.146 A 
ATOM     22  C   UNL     1      31.310  38.522  26.428  1.00  0.00     0.111 A 
ATOM     23  O   UNL     1      31.154  40.448  27.823  1.00  0.00    -0.456 OA
ATOM     24  C   UNL     1      32.708  38.528  26.630  1.00  0.00     0.197 A 
ATOM     25  C   UNL     1      32.466  40.475  28.043  1.00  0.00     0.138 A 
ATOM     26  C   UNL     1      33.285  39.508  27.438  1.00  0.00     0.100 A 
ATOM     27  O   UNL     1      33.456  37.666  26.094  1.00  0.00    -0.289 OA
BRANCH  18  28
ATOM     28  O   UNL     1      28.524  36.718  24.691  1.00  0.00    -0.502 OA
ATOM     29  H   UNL     1      27.578  36.855  24.368  1.00  0.00     0.293 HD
ENDBRANCH  18  28
BRANCH  20  30
ATOM     30  O   UNL     1      31.400  36.559  25.003  1.00  0.00    -0.504 OA
ATOM     31  H   UNL     1      31.480  36.434  24.005  1.00  0.00     0.293 HD
ENDBRANCH  20  30
BRANCH  25  32
ATOM     32  C   UNL     1      33.022  41.542  28.913  1.00  0.00     0.017 A 
ATOM     33  C   UNL     1      32.221  42.650  29.247  1.00  0.00     0.012 A 
ATOM     34  C   UNL     1      34.326  41.462  29.445  1.00  0.00     0.012 A 
ATOM     35  C   UNL     1      32.718  43.663  30.072  1.00  0.00     0.001 A 
ATOM     36  C   UNL     1      34.816  42.479  30.271  1.00  0.00     0.001 A 
ATOM     37  C   UNL     1      34.015  43.578  30.583  1.00  0.00     0.000 A 
ENDBRANCH  25  32
ENDBRANCH   1  17
TORSDOF 9
ENDMDL
MODEL 5
REMARK VINA RESULT:    11.115      2.543      4.686
REMARK INTER + INTRA:          21.972
REMARK INTER:                  15.098
REMARK INTRA:                   6.874
REMARK UNBOUND:                 6.634
REMARK SMILES O=C([O-])[C@@H]1O[C@@H](Oc2cc3oc(-c4ccccc4)cc(=O)c3c(O)c2O)[C@@H](O)[C@@H](O)[C@@H]1O
REMARK SMILES IDX 7 1 6 2 4 3 31 4 5 5 29 6 27 7 2 8 1 9 3 10 32 11 30 13
REMARK SMILES IDX 28 15 8 17 25 18 9 19 23 20 10 21 22 22 11 23 20 24 12 25
REMARK SMILES IDX 19 26 21 27 26 28 24 30 13 32 14 33 18 34 15 35 17 36 16 37
REMARK H PARENT 32 12 30 14 28 16 26 29 24 31
REMARK Flexibility Score: inf
ROOT
ATOM      1  O   UNL     1      26.570  39.347  25.880  1.00  0.00    -0.458 OA
ENDROOT
BRANCH   1   2
ATOM      2  C   UNL     1      25.894  39.300  27.144  1.00  0.00     0.339 C 
ATOM      3  C   UNL     1      27.841  38.609  28.260  1.00  0.00     0.199 C 
ATOM      4  C   UNL     1      27.282  37.209  28.618  1.00  0.00     0.180 C 
ATOM      5  O   UNL     1      26.803  39.575  28.198  1.00  0.00    -0.328 OA
ATOM      6  C   UNL     1      26.158  36.793  27.641  1.00  0.00     0.181 C 
ATOM      7  C   UNL     1      25.168  37.952  27.380  1.00  0.00     0.214 C 
BRANCH   3   8
ATOM      8  C   UNL     1      28.858  39.038  29.277  1.00  0.00     0.073 C 
ATOM      9  O   UNL     1      28.741  38.696  30.484  1.00  0.00    -0.547 OA
ATOM     10  O   UNL     1      29.968  39.773  28.878  1.00  0.00    -0.547 OA
ENDBRANCH   3   8
BRANCH   4  11
ATOM     11  O   UNL     1      26.824  37.161  29.948  1.00  0.00    -0.387 OA
ATOM     12  H   UNL     1      27.614  37.201  30.547  1.00  0.00     0.211 HD
ENDBRANCH   4  11
BRANCH   6  13
ATOM     13  O   UNL     1      26.680  36.274  26.441  1.00  0.00    -0.387 OA
ATOM     14  H   UNL     1      27.503  35.765  26.651  1.00  0.00     0.211 HD
ENDBRANCH   6  13
BRANCH   7  15
ATOM     15  O   UNL     1      24.332  37.645  26.294  1.00  0.00    -0.384 OA
ATOM     16  H   UNL     1      24.814  37.922  25.472  1.00  0.00     0.211 HD
ENDBRANCH   7  15
ENDBRANCH   1   2
BRANCH   1  17
ATOM     17  C   UNL     1      27.866  38.878  25.596  1.00  0.00     0.172 A 
ATOM     18  C   UNL     1      28.449  39.271  24.382  1.00  0.00     0.201 A 
ATOM     19  C   UNL     1      28.573  38.034  26.466  1.00  0.00     0.098 A 
ATOM     20  C   UNL     1      29.754  38.831  24.038  1.00  0.00     0.176 A 
ATOM     21  C   UNL     1      29.855  37.594  26.143  1.00  0.00     0.146 A 
ATOM     22  C   UNL     1      30.461  37.987  24.929  1.00  0.00     0.111 A 
ATOM     23  O   UNL     1      30.496  36.799  26.995  1.00  0.00    -0.456 OA
ATOM     24  C   UNL     1      31.765  37.510  24.670  1.00  0.00     0.197 A 
ATOM     25  C   UNL     1      31.720  36.325  26.776  1.00  0.00     0.138 A 
ATOM     26  C   UNL     1      32.395  36.679  25.598  1.00  0.00     0.100 A 
ATOM     27  O   UNL     1      32.383  37.821  23.616  1.00  0.00    -0.289 OA
BRANCH  18  28
ATOM     28  O   UNL     1      27.696  40.103  23.549  1.00  0.00    -0.502 OA
ATOM     29  H   UNL     1      27.700  41.112  23.588  1.00  0.00     0.293 HD
ENDBRANCH  18  28
BRANCH  20  30
ATOM     30  O   UNL     1      30.360  39.213  22.837  1.00  0.00    -0.504 OA
ATOM     31  H   UNL     1      30.507  38.603  22.047  1.00  0.00     0.293 HD
ENDBRANCH  20  30
BRANCH  25  32
ATOM     32  C   UNL     1      32.337  35.444  27.800  1.00  0.00     0.017 A 
ATOM     33  C   UNL     1      31.560  34.441  28.410  1.00  0.00     0.012 A 
ATOM     34  C   UNL     1      33.696  35.561  28.158  1.00  0.00     0.012 A 
ATOM     35  C   UNL     1      32.120  33.593  29.370  1.00  0.00     0.001 A 
ATOM     36  C   UNL     1      34.250  34.708  29.118  1.00  0.00     0.001 A 
ATOM     37  C   UNL     1      33.464  33.728  29.725  1.00  0.00     0.000 A 
ENDBRANCH  25  32
ENDBRANCH   1  17
TORSDOF 9
ENDMDL
