MODEL 1
REMARK VINA RESULT:    -4.353      0.000      0.000
REMARK INTER + INTRA:          -6.772
REMARK INTER:                  -6.134
REMARK INTRA:                  -0.638
REMARK UNBOUND:                -0.638
REMARK SMILES CCCCCCCCC(=O)[O-]
REMARK SMILES IDX 6 1 7 2 8 3 9 4 10 5 11 6 5 7 4 8 3 9 2 10 1 11
REMARK H PARENT
REMARK Flexibility Score: inf
ROOT
ATOM      1  C   UNL     1     103.437  25.206 196.884  1.00  0.00     0.000 C 
ENDROOT
BRANCH   1   2
ATOM      2  C   UNL     1     103.011  24.101 197.873  1.00  0.00     0.006 C 
BRANCH   2   3
ATOM      3  C   UNL     1     104.166  23.181 198.299  1.00  0.00     0.053 C 
BRANCH   3   4
ATOM      4  C   UNL     1     104.446  23.266 199.767  1.00  0.00     0.041 C 
ATOM      5  O   UNL     1     103.500  23.204 200.598  1.00  0.00    -0.550 OA
ATOM      6  O   UNL     1     105.748  23.440 200.218  1.00  0.00    -0.550 OA
ENDBRANCH   3   4
ENDBRANCH   2   3
ENDBRANCH   1   2
BRANCH   1   7
ATOM      7  C   UNL     1     104.880  25.023 196.385  1.00  0.00     0.000 C 
BRANCH   7   8
ATOM      8  C   UNL     1     104.957  24.654 194.893  1.00  0.00    -0.000 C 
BRANCH   8   9
ATOM      9  C   UNL     1     104.892  23.145 194.592  1.00  0.00    -0.000 C 
BRANCH   9  10
ATOM     10  C   UNL     1     103.859  22.796 193.510  1.00  0.00    -0.003 C 
ATOM     11  C   UNL     1     102.523  22.402 194.133  1.00  0.00     0.004 C 
ENDBRANCH   9  10
ENDBRANCH   8   9
ENDBRANCH   7   8
ENDBRANCH   1   7
TORSDOF 7
ENDMDL
MODEL 2
REMARK VINA RESULT:    -4.310      2.247      2.760
REMARK INTER + INTRA:          -6.711
REMARK INTER:                  -5.993
REMARK INTRA:                  -0.718
REMARK UNBOUND:                -0.638
REMARK SMILES CCCCCCCCC(=O)[O-]
REMARK SMILES IDX 6 1 7 2 8 3 9 4 10 5 11 6 5 7 4 8 3 9 2 10 1 11
REMARK H PARENT
REMARK Flexibility Score: inf
ROOT
ATOM      1  C   UNL     1     104.768  25.197 197.381  1.00  0.00     0.000 C 
ENDROOT
BRANCH   1   2
ATOM      2  C   UNL     1     103.271  25.294 197.022  1.00  0.00     0.006 C 
BRANCH   2   3
ATOM      3  C   UNL     1     102.400  24.247 197.735  1.00  0.00     0.053 C 
BRANCH   3   4
ATOM      4  C   UNL     1     102.045  23.100 196.841  1.00  0.00     0.041 C 
ATOM      5  O   UNL     1     102.722  22.038 196.874  1.00  0.00    -0.550 OA
ATOM      6  O   UNL     1     100.984  23.214 195.953  1.00  0.00    -0.550 OA
ENDBRANCH   3   4
ENDBRANCH   2   3
ENDBRANCH   1   2
BRANCH   1   7
ATOM      7  C   UNL     1     105.667  25.127 196.135  1.00  0.00     0.000 C 
BRANCH   7   8
ATOM      8  C   UNL     1     105.006  24.387 194.959  1.00  0.00    -0.000 C 
BRANCH   8   9
ATOM      9  C   UNL     1     105.401  22.905 194.819  1.00  0.00    -0.000 C 
BRANCH   9  10
ATOM     10  C   UNL     1     104.681  22.202 193.660  1.00  0.00    -0.003 C 
ATOM     11  C   UNL     1     103.375  22.912 193.312  1.00  0.00     0.004 C 
ENDBRANCH   9  10
ENDBRANCH   8   9
ENDBRANCH   7   8
ENDBRANCH   1   7
TORSDOF 7
ENDMDL
MODEL 3
REMARK VINA RESULT:    -4.288      2.572      4.808
REMARK INTER + INTRA:          -6.680
REMARK INTER:                  -6.005
REMARK INTRA:                  -0.675
REMARK UNBOUND:                -0.638
REMARK SMILES CCCCCCCCC(=O)[O-]
REMARK SMILES IDX 6 1 7 2 8 3 9 4 10 5 11 6 5 7 4 8 3 9 2 10 1 11
REMARK H PARENT
REMARK Flexibility Score: inf
ROOT
ATOM      1  C   UNL     1     103.065  25.065 197.065  1.00  0.00     0.000 C 
ENDROOT
BRANCH   1   2
ATOM      2  C   UNL     1     104.588  25.304 197.074  1.00  0.00     0.006 C 
BRANCH   2   3
ATOM      3  C   UNL     1     105.237  25.179 195.687  1.00  0.00     0.053 C 
BRANCH   3   4
ATOM      4  C   UNL     1     105.052  23.816 195.095  1.00  0.00     0.041 C 
ATOM      5  O   UNL     1     105.640  22.822 195.599  1.00  0.00    -0.550 OA
ATOM      6  O   UNL     1     104.253  23.648 193.973  1.00  0.00    -0.550 OA
ENDBRANCH   3   4
ENDBRANCH   2   3
ENDBRANCH   1   2
BRANCH   1   7
ATOM      7  C   UNL     1     102.608  24.143 198.208  1.00  0.00     0.000 C 
BRANCH   7   8
ATOM      8  C   UNL     1     103.686  23.127 198.626  1.00  0.00    -0.000 C 
BRANCH   8   9
ATOM      9  C   UNL     1     104.223  23.301 200.059  1.00  0.00    -0.000 C 
BRANCH   9  10
ATOM     10  C   UNL     1     105.756  23.237 200.134  1.00  0.00    -0.003 C 
ATOM     11  C   UNL     1     106.319  22.287 199.081  1.00  0.00     0.004 C 
ENDBRANCH   9  10
ENDBRANCH   8   9
ENDBRANCH   7   8
ENDBRANCH   1   7
TORSDOF 7
ENDMDL
MODEL 4
REMARK VINA RESULT:    -4.275      3.166      5.239
REMARK INTER + INTRA:          -6.662
REMARK INTER:                  -6.134
REMARK INTRA:                  -0.528
REMARK UNBOUND:                -0.638
REMARK SMILES CCCCCCCCC(=O)[O-]
REMARK SMILES IDX 6 1 7 2 8 3 9 4 10 5 11 6 5 7 4 8 3 9 2 10 1 11
REMARK H PARENT
REMARK Flexibility Score: inf
ROOT
ATOM      1  C   UNL     1     104.387  24.969 196.652  1.00  0.00     0.000 C 
ENDROOT
BRANCH   1   2
ATOM      2  C   UNL     1     104.737  24.599 195.196  1.00  0.00     0.006 C 
BRANCH   2   3
ATOM      3  C   UNL     1     105.018  23.102 194.994  1.00  0.00     0.053 C 
BRANCH   3   4
ATOM      4  C   UNL     1     104.358  22.561 193.764  1.00  0.00     0.041 C 
ATOM      5  O   UNL     1     105.036  21.944 192.900  1.00  0.00    -0.550 OA
ATOM      6  O   UNL     1     103.000  22.762 193.559  1.00  0.00    -0.550 OA
ENDBRANCH   3   4
ENDBRANCH   2   3
ENDBRANCH   1   2
BRANCH   1   7
ATOM      7  C   UNL     1     102.883  24.831 196.947  1.00  0.00     0.000 C 
BRANCH   7   8
ATOM      8  C   UNL     1     102.589  23.909 198.143  1.00  0.00    -0.000 C 
BRANCH   8   9
ATOM      9  C   UNL     1     103.756  22.996 198.564  1.00  0.00    -0.000 C 
BRANCH   9  10
ATOM     10  C   UNL     1     104.258  23.285 199.986  1.00  0.00    -0.003 C 
ATOM     11  C   UNL     1     105.784  23.297 200.038  1.00  0.00     0.004 C 
ENDBRANCH   9  10
ENDBRANCH   8   9
ENDBRANCH   7   8
ENDBRANCH   1   7
TORSDOF 7
ENDMDL
MODEL 5
REMARK VINA RESULT:    -4.258      2.648      4.510
REMARK INTER + INTRA:          -6.639
REMARK INTER:                  -6.024
REMARK INTRA:                  -0.615
REMARK UNBOUND:                -0.638
REMARK SMILES CCCCCCCCC(=O)[O-]
REMARK SMILES IDX 6 1 7 2 8 3 9 4 10 5 11 6 5 7 4 8 3 9 2 10 1 11
REMARK H PARENT
REMARK Flexibility Score: inf
ROOT
ATOM      1  C   UNL     1     104.409  22.152 193.384  1.00  0.00     0.000 C 
ENDROOT
BRANCH   1   2
ATOM      2  C   UNL     1     103.078  22.928 193.317  1.00  0.00     0.006 C 
BRANCH   2   3
ATOM      3  C   UNL     1     101.879  22.137 193.863  1.00  0.00     0.053 C 
BRANCH   3   4
ATOM      4  C   UNL     1     101.590  22.461 195.296  1.00  0.00     0.041 C 
ATOM      5  O   UNL     1     102.276  21.938 196.214  1.00  0.00    -0.550 OA
ATOM      6  O   UNL     1     100.548  23.319 195.619  1.00  0.00    -0.550 OA
ENDBRANCH   3   4
ENDBRANCH   2   3
ENDBRANCH   1   2
BRANCH   1   7
ATOM      7  C   UNL     1     105.334  22.670 194.499  1.00  0.00     0.000 C 
BRANCH   7   8
ATOM      8  C   UNL     1     104.971  24.089 194.970  1.00  0.00    -0.000 C 
BRANCH   8   9
ATOM      9  C   UNL     1     105.735  24.577 196.215  1.00  0.00    -0.000 C 
BRANCH   9  10
ATOM     10  C   UNL     1     104.933  25.584 197.051  1.00  0.00    -0.003 C 
ATOM     11  C   UNL     1     103.439  25.279 196.996  1.00  0.00     0.004 C 
ENDBRANCH   9  10
ENDBRANCH   8   9
ENDBRANCH   7   8
ENDBRANCH   1   7
TORSDOF 7
ENDMDL
MODEL 6
REMARK VINA RESULT:    -4.256      2.409      3.555
REMARK INTER + INTRA:          -6.635
REMARK INTER:                  -6.105
REMARK INTRA:                  -0.531
REMARK UNBOUND:                -0.638
REMARK SMILES CCCCCCCCC(=O)[O-]
REMARK SMILES IDX 6 1 7 2 8 3 9 4 10 5 11 6 5 7 4 8 3 9 2 10 1 11
REMARK H PARENT
REMARK Flexibility Score: inf
ROOT
ATOM      1  C   UNL     1     103.664  23.275 199.999  1.00  0.00     0.000 C 
ENDROOT
BRANCH   1   2
ATOM      2  C   UNL     1     105.200  23.295 200.134  1.00  0.00     0.006 C 
BRANCH   2   3
ATOM      3  C   UNL     1     105.927  22.589 198.978  1.00  0.00     0.053 C 
BRANCH   3   4
ATOM      4  C   UNL     1     107.033  21.703 199.460  1.00  0.00     0.041 C 
ATOM      5  O   UNL     1     106.952  20.453 199.315  1.00  0.00    -0.550 OA
ATOM      6  O   UNL     1     108.139  22.252 200.093  1.00  0.00    -0.550 OA
ENDBRANCH   3   4
ENDBRANCH   2   3
ENDBRANCH   1   2
BRANCH   1   7
ATOM      7  C   UNL     1     103.205  23.021 198.553  1.00  0.00     0.000 C 
BRANCH   7   8
ATOM      8  C   UNL     1     102.301  24.140 198.005  1.00  0.00    -0.000 C 
BRANCH   8   9
ATOM      9  C   UNL     1     103.022  25.198 197.150  1.00  0.00    -0.000 C 
BRANCH   9  10
ATOM     10  C   UNL     1     104.241  24.635 196.405  1.00  0.00    -0.003 C 
ATOM     11  C   UNL     1     104.930  25.718 195.580  1.00  0.00     0.004 C 
ENDBRANCH   9  10
ENDBRANCH   8   9
ENDBRANCH   7   8
ENDBRANCH   1   7
TORSDOF 7
ENDMDL
MODEL 7
REMARK VINA RESULT:    -4.251      1.930      2.277
REMARK INTER + INTRA:          -6.629
REMARK INTER:                  -6.103
REMARK INTRA:                  -0.526
REMARK UNBOUND:                -0.638
REMARK SMILES CCCCCCCCC(=O)[O-]
REMARK SMILES IDX 6 1 7 2 8 3 9 4 10 5 11 6 5 7 4 8 3 9 2 10 1 11
REMARK H PARENT
REMARK Flexibility Score: inf
ROOT
ATOM      1  C   UNL     1     103.060  25.264 197.000  1.00  0.00     0.000 C 
ENDROOT
BRANCH   1   2
ATOM      2  C   UNL     1     102.289  23.961 197.292  1.00  0.00     0.006 C 
BRANCH   2   3
ATOM      3  C   UNL     1     102.425  23.479 198.745  1.00  0.00     0.053 C 
BRANCH   3   4
ATOM      4  C   UNL     1     101.118  23.503 199.475  1.00  0.00     0.041 C 
ATOM      5  O   UNL     1     100.046  23.249 198.864  1.00  0.00    -0.550 OA
ATOM      6  O   UNL     1     101.081  23.832 200.823  1.00  0.00    -0.550 OA
ENDBRANCH   3   4
ENDBRANCH   2   3
ENDBRANCH   1   2
BRANCH   1   7
ATOM      7  C   UNL     1     104.550  25.013 196.713  1.00  0.00     0.000 C 
BRANCH   7   8
ATOM      8  C   UNL     1     104.815  24.569 195.263  1.00  0.00    -0.000 C 
BRANCH   8   9
ATOM      9  C   UNL     1     105.305  23.118 195.106  1.00  0.00    -0.000 C 
BRANCH   9  10
ATOM     10  C   UNL     1     104.241  22.191 194.502  1.00  0.00    -0.003 C 
ATOM     11  C   UNL     1     103.541  22.855 193.319  1.00  0.00     0.004 C 
ENDBRANCH   9  10
ENDBRANCH   8   9
ENDBRANCH   7   8
ENDBRANCH   1   7
TORSDOF 7
ENDMDL
MODEL 8
REMARK VINA RESULT:    -4.211      2.684      4.729
REMARK INTER + INTRA:          -6.571
REMARK INTER:                  -5.897
REMARK INTRA:                  -0.675
REMARK UNBOUND:                -0.638
REMARK SMILES CCCCCCCCC(=O)[O-]
REMARK SMILES IDX 6 1 7 2 8 3 9 4 10 5 11 6 5 7 4 8 3 9 2 10 1 11
REMARK H PARENT
REMARK Flexibility Score: inf
ROOT
ATOM      1  C   UNL     1     104.932  24.899 195.113  1.00  0.00     0.000 C 
ENDROOT
BRANCH   1   2
ATOM      2  C   UNL     1     105.081  23.389 194.837  1.00  0.00     0.006 C 
BRANCH   2   3
ATOM      3  C   UNL     1     104.109  22.861 193.770  1.00  0.00     0.053 C 
BRANCH   3   4
ATOM      4  C   UNL     1     102.840  22.339 194.367  1.00  0.00     0.041 C 
ATOM      5  O   UNL     1     101.737  22.551 193.796  1.00  0.00    -0.550 OA
ATOM      6  O   UNL     1     102.871  21.641 195.566  1.00  0.00    -0.550 OA
ENDBRANCH   3   4
ENDBRANCH   2   3
ENDBRANCH   1   2
BRANCH   1   7
ATOM      7  C   UNL     1     104.722  25.205 196.606  1.00  0.00     0.000 C 
BRANCH   7   8
ATOM      8  C   UNL     1     103.279  24.948 197.073  1.00  0.00    -0.000 C 
BRANCH   8   9
ATOM      9  C   UNL     1     103.139  23.931 198.221  1.00  0.00    -0.000 C 
BRANCH   9  10
ATOM     10  C   UNL     1     104.443  23.173 198.510  1.00  0.00    -0.003 C 
ATOM     11  C   UNL     1     104.816  23.264 199.986  1.00  0.00     0.004 C 
ENDBRANCH   9  10
ENDBRANCH   8   9
ENDBRANCH   7   8
ENDBRANCH   1   7
TORSDOF 7
ENDMDL
MODEL 9
REMARK VINA RESULT:    -4.207      2.283      2.751
REMARK INTER + INTRA:          -6.566
REMARK INTER:                  -5.677
REMARK INTRA:                  -0.889
REMARK UNBOUND:                -0.638
REMARK SMILES CCCCCCCCC(=O)[O-]
REMARK SMILES IDX 6 1 7 2 8 3 9 4 10 5 11 6 5 7 4 8 3 9 2 10 1 11
REMARK H PARENT
REMARK Flexibility Score: inf
ROOT
ATOM      1  C   UNL     1     103.549  25.240 197.064  1.00  0.00     0.000 C 
ENDROOT
BRANCH   1   2
ATOM      2  C   UNL     1     102.442  24.369 197.692  1.00  0.00     0.006 C 
BRANCH   2   3
ATOM      3  C   UNL     1     101.621  23.581 196.659  1.00  0.00     0.053 C 
BRANCH   3   4
ATOM      4  C   UNL     1     101.992  22.132 196.625  1.00  0.00     0.041 C 
ATOM      5  O   UNL     1     101.287  21.312 195.978  1.00  0.00    -0.550 OA
ATOM      6  O   UNL     1     103.101  21.681 197.328  1.00  0.00    -0.550 OA
ENDBRANCH   3   4
ENDBRANCH   2   3
ENDBRANCH   1   2
BRANCH   1   7
ATOM      7  C   UNL     1     104.960  24.736 197.410  1.00  0.00     0.000 C 
BRANCH   7   8
ATOM      8  C   UNL     1     105.611  23.940 196.265  1.00  0.00    -0.000 C 
BRANCH   8   9
ATOM      9  C   UNL     1     104.912  24.077 194.900  1.00  0.00    -0.000 C 
BRANCH   9  10
ATOM     10  C   UNL     1     104.726  22.729 194.187  1.00  0.00    -0.003 C 
ATOM     11  C   UNL     1     103.504  22.756 193.273  1.00  0.00     0.004 C 
ENDBRANCH   9  10
ENDBRANCH   8   9
ENDBRANCH   7   8
ENDBRANCH   1   7
TORSDOF 7
ENDMDL
