MODEL 1
REMARK VINA RESULT:    -3.257      0.000      0.000
REMARK INTER + INTRA:          -7.656
REMARK INTER:                  -5.923
REMARK INTRA:                  -1.732
REMARK UNBOUND:                -1.732
REMARK SMILES CCCCCCCCCCCCCC[C@H](C)C(=O)[O-]
REMARK SMILES IDX 9 1 10 2 11 3 12 4 13 5 14 6 15 7 16 8 17 9 18 10 19 11 8 12
REMARK SMILES IDX 7 13 6 14 5 15 4 16 3 17 2 18 1 19
REMARK H PARENT
REMARK Flexibility Score: inf
ROOT
ATOM      1  C   UNL     1      27.205  20.625  59.433  1.00  0.00     0.000 C 
ENDROOT
BRANCH   1   2
ATOM      2  C   UNL     1      26.341  20.248  58.216  1.00  0.00     0.000 C 
BRANCH   2   3
ATOM      3  C   UNL     1      27.008  20.458  56.840  1.00  0.00     0.000 C 
BRANCH   3   4
ATOM      4  C   UNL     1      26.640  21.764  56.112  1.00  0.00     0.000 C 
BRANCH   4   5
ATOM      5  C   UNL     1      25.951  21.526  54.760  1.00  0.00     0.001 C 
BRANCH   5   6
ATOM      6  C   UNL     1      24.454  21.903  54.753  1.00  0.00     0.009 C 
BRANCH   6   7
ATOM      7  C   UNL     1      23.438  20.796  55.142  1.00  0.00     0.032 C 
ATOM      8  C   UNL     1      23.107  20.782  56.642  1.00  0.00     0.014 C 
BRANCH   7   9
ATOM      9  C   UNL     1      23.825  19.435  54.626  1.00  0.00     0.044 C 
ATOM     10  O   UNL     1      24.375  18.588  55.380  1.00  0.00    -0.550 OA
ATOM     11  O   UNL     1      23.623  19.125  53.287  1.00  0.00    -0.550 OA
ENDBRANCH   7   9
ENDBRANCH   6   7
ENDBRANCH   5   6
ENDBRANCH   4   5
ENDBRANCH   3   4
ENDBRANCH   2   3
ENDBRANCH   1   2
BRANCH   1  12
ATOM     12  C   UNL     1      26.685  21.870  60.172  1.00  0.00     0.000 C 
BRANCH  12  13
ATOM     13  C   UNL     1      25.186  22.125  59.931  1.00  0.00    -0.000 C 
BRANCH  13  14
ATOM     14  C   UNL     1      24.229  21.338  60.849  1.00  0.00    -0.000 C 
BRANCH  14  15
ATOM     15  C   UNL     1      23.797  22.076  62.129  1.00  0.00    -0.000 C 
BRANCH  15  16
ATOM     16  C   UNL     1      24.260  21.369  63.410  1.00  0.00    -0.000 C 
BRANCH  16  17
ATOM     17  C   UNL     1      25.754  21.617  63.663  1.00  0.00    -0.000 C 
BRANCH  17  18
ATOM     18  C   UNL     1      26.591  20.331  63.570  1.00  0.00    -0.003 C 
ATOM     19  C   UNL     1      25.849  19.104  64.097  1.00  0.00     0.004 C 
ENDBRANCH  17  18
ENDBRANCH  16  17
ENDBRANCH  15  16
ENDBRANCH  14  15
ENDBRANCH  13  14
ENDBRANCH  12  13
ENDBRANCH   1  12
TORSDOF 14
ENDMDL
MODEL 2
REMARK VINA RESULT:    -3.055      1.358      2.623
REMARK INTER + INTRA:          -7.288
REMARK INTER:                  -5.953
REMARK INTRA:                  -1.335
REMARK UNBOUND:                -1.732
REMARK SMILES CCCCCCCCCCCCCC[C@H](C)C(=O)[O-]
REMARK SMILES IDX 9 1 10 2 11 3 12 4 13 5 14 6 15 7 16 8 17 9 18 10 19 11 8 12
REMARK SMILES IDX 7 13 6 14 5 15 4 16 3 17 2 18 1 19
REMARK H PARENT
REMARK Flexibility Score: inf
ROOT
ATOM      1  C   UNL     1      27.762  21.128  59.616  1.00  0.00     0.000 C 
ENDROOT
BRANCH   1   2
ATOM      2  C   UNL     1      27.015  20.716  58.334  1.00  0.00     0.000 C 
BRANCH   2   3
ATOM      3  C   UNL     1      26.059  21.779  57.754  1.00  0.00     0.000 C 
BRANCH   3   4
ATOM      4  C   UNL     1      24.657  21.836  58.390  1.00  0.00     0.000 C 
BRANCH   4   5
ATOM      5  C   UNL     1      23.558  21.278  57.473  1.00  0.00     0.001 C 
BRANCH   5   6
ATOM      6  C   UNL     1      23.602  19.743  57.316  1.00  0.00     0.009 C 
BRANCH   6   7
ATOM      7  C   UNL     1      23.515  19.171  55.876  1.00  0.00     0.032 C 
ATOM      8  C   UNL     1      23.703  17.647  55.819  1.00  0.00     0.014 C 
BRANCH   7   9
ATOM      9  C   UNL     1      24.405  19.895  54.901  1.00  0.00     0.044 C 
ATOM     10  O   UNL     1      25.654  19.929  55.064  1.00  0.00    -0.550 OA
ATOM     11  O   UNL     1      23.839  20.582  53.834  1.00  0.00    -0.550 OA
ENDBRANCH   7   9
ENDBRANCH   6   7
ENDBRANCH   5   6
ENDBRANCH   4   5
ENDBRANCH   3   4
ENDBRANCH   2   3
ENDBRANCH   1   2
BRANCH   1  12
ATOM     12  C   UNL     1      26.927  20.914  60.889  1.00  0.00     0.000 C 
BRANCH  12  13
ATOM     13  C   UNL     1      26.962  22.125  61.838  1.00  0.00    -0.000 C 
BRANCH  13  14
ATOM     14  C   UNL     1      26.903  21.785  63.341  1.00  0.00    -0.000 C 
BRANCH  14  15
ATOM     15  C   UNL     1      26.601  20.311  63.667  1.00  0.00    -0.000 C 
BRANCH  15  16
ATOM     16  C   UNL     1      25.097  20.015  63.745  1.00  0.00    -0.000 C 
BRANCH  16  17
ATOM     17  C   UNL     1      24.300  21.296  64.030  1.00  0.00    -0.000 C 
BRANCH  17  18
ATOM     18  C   UNL     1      23.076  21.448  63.112  1.00  0.00    -0.003 C 
ATOM     19  C   UNL     1      23.437  21.378  61.629  1.00  0.00     0.004 C 
ENDBRANCH  17  18
ENDBRANCH  16  17
ENDBRANCH  15  16
ENDBRANCH  14  15
ENDBRANCH  13  14
ENDBRANCH  12  13
ENDBRANCH   1  12
TORSDOF 14
ENDMDL
MODEL 3
REMARK VINA RESULT:    -2.720      1.508      2.117
REMARK INTER + INTRA:          -6.678
REMARK INTER:                  -5.360
REMARK INTRA:                  -1.318
REMARK UNBOUND:                -1.732
REMARK SMILES CCCCCCCCCCCCCC[C@H](C)C(=O)[O-]
REMARK SMILES IDX 9 1 10 2 11 3 12 4 13 5 14 6 15 7 16 8 17 9 18 10 19 11 8 12
REMARK SMILES IDX 7 13 6 14 5 15 4 16 3 17 2 18 1 19
REMARK H PARENT
REMARK Flexibility Score: inf
ROOT
ATOM      1  C   UNL     1      26.362  20.427  57.906  1.00  0.00     0.000 C 
ENDROOT
BRANCH   1   2
ATOM      2  C   UNL     1      27.309  20.510  56.695  1.00  0.00     0.000 C 
BRANCH   2   3
ATOM      3  C   UNL     1      26.982  21.620  55.674  1.00  0.00     0.000 C 
BRANCH   3   4
ATOM      4  C   UNL     1      25.499  22.022  55.577  1.00  0.00     0.000 C 
BRANCH   4   5
ATOM      5  C   UNL     1      24.788  21.409  54.361  1.00  0.00     0.001 C 
BRANCH   5   6
ATOM      6  C   UNL     1      23.481  20.667  54.717  1.00  0.00     0.009 C 
BRANCH   6   7
ATOM      7  C   UNL     1      23.610  19.317  55.471  1.00  0.00     0.032 C 
ATOM      8  C   UNL     1      22.902  18.156  54.754  1.00  0.00     0.014 C 
BRANCH   7   9
ATOM      9  C   UNL     1      23.224  19.416  56.923  1.00  0.00     0.044 C 
ATOM     10  O   UNL     1      23.152  18.387  57.647  1.00  0.00    -0.550 OA
ATOM     11  O   UNL     1      22.889  20.652  57.463  1.00  0.00    -0.550 OA
ENDBRANCH   7   9
ENDBRANCH   6   7
ENDBRANCH   5   6
ENDBRANCH   4   5
ENDBRANCH   3   4
ENDBRANCH   2   3
ENDBRANCH   1   2
BRANCH   1  12
ATOM     12  C   UNL     1      27.113  20.330  59.245  1.00  0.00     0.000 C 
BRANCH  12  13
ATOM     13  C   UNL     1      27.604  21.696  59.755  1.00  0.00    -0.000 C 
BRANCH  13  14
ATOM     14  C   UNL     1      27.055  22.121  61.132  1.00  0.00    -0.000 C 
BRANCH  14  15
ATOM     15  C   UNL     1      25.531  21.984  61.299  1.00  0.00    -0.000 C 
BRANCH  15  16
ATOM     16  C   UNL     1      25.139  21.035  62.440  1.00  0.00    -0.000 C 
BRANCH  16  17
ATOM     17  C   UNL     1      26.158  21.106  63.587  1.00  0.00    -0.000 C 
BRANCH  17  18
ATOM     18  C   UNL     1      26.655  19.719  64.024  1.00  0.00    -0.003 C 
ATOM     19  C   UNL     1      25.515  18.728  64.252  1.00  0.00     0.004 C 
ENDBRANCH  17  18
ENDBRANCH  16  17
ENDBRANCH  15  16
ENDBRANCH  14  15
ENDBRANCH  13  14
ENDBRANCH  12  13
ENDBRANCH   1  12
TORSDOF 14
ENDMDL
MODEL 4
REMARK VINA RESULT:    -2.619      3.094      7.107
REMARK INTER + INTRA:          -6.494
REMARK INTER:                  -4.924
REMARK INTRA:                  -1.570
REMARK UNBOUND:                -1.732
REMARK SMILES CCCCCCCCCCCCCC[C@H](C)C(=O)[O-]
REMARK SMILES IDX 9 1 10 2 11 3 12 4 13 5 14 6 15 7 16 8 17 9 18 10 19 11 8 12
REMARK SMILES IDX 7 13 6 14 5 15 4 16 3 17 2 18 1 19
REMARK H PARENT
REMARK Flexibility Score: inf
ROOT
ATOM      1  C   UNL     1      25.180  20.249  57.743  1.00  0.00     0.000 C 
ENDROOT
BRANCH   1   2
ATOM      2  C   UNL     1      26.337  21.063  57.136  1.00  0.00     0.000 C 
BRANCH   2   3
ATOM      3  C   UNL     1      27.284  21.730  58.156  1.00  0.00     0.000 C 
BRANCH   3   4
ATOM      4  C   UNL     1      27.538  20.935  59.450  1.00  0.00     0.000 C 
BRANCH   4   5
ATOM      5  C   UNL     1      27.393  21.789  60.719  1.00  0.00     0.001 C 
BRANCH   5   6
ATOM      6  C   UNL     1      25.968  21.777  61.314  1.00  0.00     0.009 C 
BRANCH   6   7
ATOM      7  C   UNL     1      25.836  21.543  62.843  1.00  0.00     0.032 C 
ATOM      8  C   UNL     1      26.639  20.331  63.340  1.00  0.00     0.014 C 
BRANCH   7   9
ATOM      9  C   UNL     1      24.405  21.515  63.311  1.00  0.00     0.044 C 
ATOM     10  O   UNL     1      24.100  21.038  64.437  1.00  0.00    -0.550 OA
ATOM     11  O   UNL     1      23.398  21.971  62.470  1.00  0.00    -0.550 OA
ENDBRANCH   7   9
ENDBRANCH   6   7
ENDBRANCH   5   6
ENDBRANCH   4   5
ENDBRANCH   3   4
ENDBRANCH   2   3
ENDBRANCH   1   2
BRANCH   1  12
ATOM     12  C   UNL     1      24.080  21.136  58.350  1.00  0.00     0.000 C 
BRANCH  12  13
ATOM     13  C   UNL     1      23.481  22.125  57.335  1.00  0.00    -0.000 C 
BRANCH  13  14
ATOM     14  C   UNL     1      22.956  21.491  56.030  1.00  0.00    -0.000 C 
BRANCH  14  15
ATOM     15  C   UNL     1      23.560  22.064  54.735  1.00  0.00    -0.000 C 
BRANCH  15  16
ATOM     16  C   UNL     1      23.637  21.029  53.604  1.00  0.00    -0.000 C 
BRANCH  16  17
ATOM     17  C   UNL     1      23.122  19.662  54.076  1.00  0.00    -0.000 C 
BRANCH  17  18
ATOM     18  C   UNL     1      24.259  18.713  54.491  1.00  0.00    -0.003 C 
ATOM     19  C   UNL     1      23.842  17.737  55.589  1.00  0.00     0.004 C 
ENDBRANCH  17  18
ENDBRANCH  16  17
ENDBRANCH  15  16
ENDBRANCH  14  15
ENDBRANCH  13  14
ENDBRANCH  12  13
ENDBRANCH   1  12
TORSDOF 14
ENDMDL
MODEL 5
REMARK VINA RESULT:    -2.458      3.009      7.576
REMARK INTER + INTRA:          -6.203
REMARK INTER:                  -5.665
REMARK INTRA:                  -0.538
REMARK UNBOUND:                -1.732
REMARK SMILES CCCCCCCCCCCCCC[C@H](C)C(=O)[O-]
REMARK SMILES IDX 9 1 10 2 11 3 12 4 13 5 14 6 15 7 16 8 17 9 18 10 19 11 8 12
REMARK SMILES IDX 7 13 6 14 5 15 4 16 3 17 2 18 1 19
REMARK H PARENT
REMARK Flexibility Score: inf
ROOT
ATOM      1  C   UNL     1      25.519  19.502  57.186  1.00  0.00     0.000 C 
ENDROOT
BRANCH   1   2
ATOM      2  C   UNL     1      26.664  20.238  57.905  1.00  0.00     0.000 C 
BRANCH   2   3
ATOM      3  C   UNL     1      26.229  21.374  58.854  1.00  0.00     0.000 C 
BRANCH   3   4
ATOM      4  C   UNL     1      27.351  22.002  59.702  1.00  0.00     0.000 C 
BRANCH   4   5
ATOM      5  C   UNL     1      27.011  22.064  61.199  1.00  0.00     0.001 C 
BRANCH   5   6
ATOM      6  C   UNL     1      26.719  20.682  61.825  1.00  0.00     0.009 C 
BRANCH   6   7
ATOM      7  C   UNL     1      26.149  20.659  63.268  1.00  0.00     0.032 C 
ATOM      8  C   UNL     1      26.486  19.367  64.029  1.00  0.00     0.014 C 
BRANCH   7   9
ATOM      9  C   UNL     1      24.682  20.994  63.327  1.00  0.00     0.044 C 
ATOM     10  O   UNL     1      23.948  20.874  62.310  1.00  0.00    -0.550 OA
ATOM     11  O   UNL     1      24.139  21.494  64.504  1.00  0.00    -0.550 OA
ENDBRANCH   7   9
ENDBRANCH   6   7
ENDBRANCH   5   6
ENDBRANCH   4   5
ENDBRANCH   3   4
ENDBRANCH   2   3
ENDBRANCH   1   2
BRANCH   1  12
ATOM     12  C   UNL     1      24.128  19.953  57.661  1.00  0.00     0.000 C 
BRANCH  12  13
ATOM     13  C   UNL     1      23.026  19.691  56.620  1.00  0.00    -0.000 C 
BRANCH  13  14
ATOM     14  C   UNL     1      22.875  18.220  56.178  1.00  0.00    -0.000 C 
BRANCH  14  15
ATOM     15  C   UNL     1      23.149  17.955  54.686  1.00  0.00    -0.000 C 
BRANCH  15  16
ATOM     16  C   UNL     1      23.843  19.133  53.989  1.00  0.00    -0.000 C 
BRANCH  16  17
ATOM     17  C   UNL     1      22.902  20.343  53.889  1.00  0.00    -0.000 C 
BRANCH  17  18
ATOM     18  C   UNL     1      23.637  21.633  53.493  1.00  0.00    -0.003 C 
ATOM     19  C   UNL     1      24.698  22.045  54.510  1.00  0.00     0.004 C 
ENDBRANCH  17  18
ENDBRANCH  16  17
ENDBRANCH  15  16
ENDBRANCH  14  15
ENDBRANCH  13  14
ENDBRANCH  12  13
ENDBRANCH   1  12
TORSDOF 14
ENDMDL
MODEL 6
REMARK VINA RESULT:    -2.320      1.194      2.725
REMARK INTER + INTRA:          -5.952
REMARK INTER:                  -5.235
REMARK INTRA:                  -0.716
REMARK UNBOUND:                -1.732
REMARK SMILES CCCCCCCCCCCCCC[C@H](C)C(=O)[O-]
REMARK SMILES IDX 9 1 10 2 11 3 12 4 13 5 14 6 15 7 16 8 17 9 18 10 19 11 8 12
REMARK SMILES IDX 7 13 6 14 5 15 4 16 3 17 2 18 1 19
REMARK H PARENT
REMARK Flexibility Score: inf
ROOT
ATOM      1  C   UNL     1      25.429  20.611  59.033  1.00  0.00     0.000 C 
ENDROOT
BRANCH   1   2
ATOM      2  C   UNL     1      24.758  21.983  59.232  1.00  0.00     0.000 C 
BRANCH   2   3
ATOM      3  C   UNL     1      23.332  22.113  58.655  1.00  0.00     0.000 C 
BRANCH   3   4
ATOM      4  C   UNL     1      22.913  21.016  57.659  1.00  0.00     0.000 C 
BRANCH   4   5
ATOM      5  C   UNL     1      22.875  21.506  56.204  1.00  0.00     0.001 C 
BRANCH   5   6
ATOM      6  C   UNL     1      24.233  21.392  55.477  1.00  0.00     0.009 C 
BRANCH   6   7
ATOM      7  C   UNL     1      25.092  20.132  55.765  1.00  0.00     0.032 C 
ATOM      8  C   UNL     1      26.523  20.238  55.213  1.00  0.00     0.014 C 
BRANCH   7   9
ATOM      9  C   UNL     1      24.413  18.852  55.356  1.00  0.00     0.044 C 
ATOM     10  O   UNL     1      24.255  17.910  56.178  1.00  0.00    -0.550 OA
ATOM     11  O   UNL     1      24.001  18.682  54.040  1.00  0.00    -0.550 OA
ENDBRANCH   7   9
ENDBRANCH   6   7
ENDBRANCH   5   6
ENDBRANCH   4   5
ENDBRANCH   3   4
ENDBRANCH   2   3
ENDBRANCH   1   2
BRANCH   1  12
ATOM     12  C   UNL     1      26.916  20.724  58.660  1.00  0.00     0.000 C 
BRANCH  12  13
ATOM     13  C   UNL     1      27.751  21.436  59.738  1.00  0.00    -0.000 C 
BRANCH  13  14
ATOM     14  C   UNL     1      27.013  21.715  61.064  1.00  0.00    -0.000 C 
BRANCH  14  15
ATOM     15  C   UNL     1      27.007  20.546  62.066  1.00  0.00    -0.000 C 
BRANCH  15  16
ATOM     16  C   UNL     1      26.501  20.955  63.457  1.00  0.00    -0.000 C 
BRANCH  16  17
ATOM     17  C   UNL     1      25.138  20.313  63.755  1.00  0.00    -0.000 C 
BRANCH  17  18
ATOM     18  C   UNL     1      23.998  21.342  63.808  1.00  0.00    -0.003 C 
ATOM     19  C   UNL     1      23.463  21.705  62.424  1.00  0.00     0.004 C 
ENDBRANCH  17  18
ENDBRANCH  16  17
ENDBRANCH  15  16
ENDBRANCH  14  15
ENDBRANCH  13  14
ENDBRANCH  12  13
ENDBRANCH   1  12
TORSDOF 14
ENDMDL
MODEL 7
REMARK VINA RESULT:    -2.084      1.325      4.400
REMARK INTER + INTRA:          -5.523
REMARK INTER:                  -4.277
REMARK INTRA:                  -1.246
REMARK UNBOUND:                -1.732
REMARK SMILES CCCCCCCCCCCCCC[C@H](C)C(=O)[O-]
REMARK SMILES IDX 9 1 10 2 11 3 12 4 13 5 14 6 15 7 16 8 17 9 18 10 19 11 8 12
REMARK SMILES IDX 7 13 6 14 5 15 4 16 3 17 2 18 1 19
REMARK H PARENT
REMARK Flexibility Score: inf
ROOT
ATOM      1  C   UNL     1      23.986  21.248  62.911  1.00  0.00     0.000 C 
ENDROOT
BRANCH   1   2
ATOM      2  C   UNL     1      23.266  21.761  61.650  1.00  0.00     0.000 C 
BRANCH   2   3
ATOM      3  C   UNL     1      23.836  21.253  60.309  1.00  0.00     0.000 C 
BRANCH   3   4
ATOM      4  C   UNL     1      22.875  21.320  59.108  1.00  0.00     0.000 C 
BRANCH   4   5
ATOM      5  C   UNL     1      22.944  20.075  58.212  1.00  0.00     0.001 C 
BRANCH   5   6
ATOM      6  C   UNL     1      23.085  20.400  56.709  1.00  0.00     0.009 C 
BRANCH   6   7
ATOM      7  C   UNL     1      23.330  19.212  55.741  1.00  0.00     0.032 C 
ATOM      8  C   UNL     1      24.554  18.365  56.123  1.00  0.00     0.014 C 
BRANCH   7   9
ATOM      9  C   UNL     1      23.348  19.626  54.294  1.00  0.00     0.044 C 
ATOM     10  O   UNL     1      22.993  18.828  53.386  1.00  0.00    -0.550 OA
ATOM     11  O   UNL     1      23.813  20.889  53.946  1.00  0.00    -0.550 OA
ENDBRANCH   7   9
ENDBRANCH   6   7
ENDBRANCH   5   6
ENDBRANCH   4   5
ENDBRANCH   3   4
ENDBRANCH   2   3
ENDBRANCH   1   2
BRANCH   1  12
ATOM     12  C   UNL     1      25.291  20.500  62.591  1.00  0.00     0.000 C 
BRANCH  12  13
ATOM     13  C   UNL     1      26.548  21.321  62.925  1.00  0.00    -0.000 C 
BRANCH  13  14
ATOM     14  C   UNL     1      27.145  22.119  61.747  1.00  0.00    -0.000 C 
BRANCH  14  15
ATOM     15  C   UNL     1      27.262  21.341  60.424  1.00  0.00    -0.000 C 
BRANCH  15  16
ATOM     16  C   UNL     1      26.602  22.068  59.244  1.00  0.00    -0.000 C 
BRANCH  16  17
ATOM     17  C   UNL     1      26.375  21.108  58.067  1.00  0.00    -0.000 C 
BRANCH  17  18
ATOM     18  C   UNL     1      27.530  21.131  57.053  1.00  0.00    -0.003 C 
ATOM     19  C   UNL     1      27.046  21.127  55.605  1.00  0.00     0.004 C 
ENDBRANCH  17  18
ENDBRANCH  16  17
ENDBRANCH  15  16
ENDBRANCH  14  15
ENDBRANCH  13  14
ENDBRANCH  12  13
ENDBRANCH   1  12
TORSDOF 14
ENDMDL
