MODEL 1
REMARK VINA RESULT:    -3.266      0.000      0.000
REMARK INTER + INTRA:          -4.149
REMARK INTER:                  -3.935
REMARK INTRA:                  -0.214
REMARK UNBOUND:                -0.214
REMARK SMILES OCC(O)CO
REMARK SMILES IDX 3 1 5 2 6 3 2 5 1 6 4 8
REMARK H PARENT 6 4 1 7 4 9
REMARK Flexibility Score: inf
ROOT
ATOM      1  C   UNL     1      54.767  92.589  26.076  1.00  0.00     0.165 C 
ENDROOT
BRANCH   1   2
ATOM      2  C   UNL     1      54.995  91.347  26.941  1.00  0.00     0.190 C 
BRANCH   2   3
ATOM      3  O   UNL     1      56.044  90.587  26.408  1.00  0.00    -0.394 OA
ATOM      4  H   UNL     1      56.344  89.983  27.136  1.00  0.00     0.210 HD
ENDBRANCH   2   3
ENDBRANCH   1   2
BRANCH   1   5
ATOM      5  C   UNL     1      55.652  93.750  26.557  1.00  0.00     0.190 C 
BRANCH   5   6
ATOM      6  O   UNL     1      57.005  93.473  26.315  1.00  0.00    -0.394 OA
ATOM      7  H   UNL     1      57.515  94.270  26.615  1.00  0.00     0.210 HD
ENDBRANCH   5   6
ENDBRANCH   1   5
BRANCH   1   8
ATOM      8  O   UNL     1      55.068  92.280  24.739  1.00  0.00    -0.388 OA
ATOM      9  H   UNL     1      55.934  92.719  24.528  1.00  0.00     0.211 HD
ENDBRANCH   1   8
TORSDOF 5
ENDMDL
MODEL 2
REMARK VINA RESULT:    -3.214      0.790      2.409
REMARK INTER + INTRA:          -4.086
REMARK INTER:                  -3.862
REMARK INTRA:                  -0.224
REMARK UNBOUND:                -0.214
REMARK SMILES OCC(O)CO
REMARK SMILES IDX 3 1 5 2 6 3 2 5 1 6 4 8
REMARK H PARENT 6 4 1 7 4 9
REMARK Flexibility Score: inf
ROOT
ATOM      1  C   UNL     1      55.576  91.873  27.092  1.00  0.00     0.165 C 
ENDROOT
BRANCH   1   2
ATOM      2  C   UNL     1      56.752  92.768  27.488  1.00  0.00     0.190 C 
BRANCH   2   3
ATOM      3  O   UNL     1      57.099  93.595  26.411  1.00  0.00    -0.394 OA
ATOM      4  H   UNL     1      58.031  93.355  26.170  1.00  0.00     0.210 HD
ENDBRANCH   2   3
ENDBRANCH   1   2
BRANCH   1   5
ATOM      5  C   UNL     1      54.676  92.586  26.069  1.00  0.00     0.190 C 
BRANCH   5   6
ATOM      6  O   UNL     1      55.057  92.256  24.761  1.00  0.00    -0.394 OA
ATOM      7  H   UNL     1      55.937  91.802  24.829  1.00  0.00     0.210 HD
ENDBRANCH   5   6
ENDBRANCH   1   5
BRANCH   1   8
ATOM      8  O   UNL     1      56.071  90.679  26.542  1.00  0.00    -0.388 OA
ATOM      9  H   UNL     1      57.034  90.827  26.350  1.00  0.00     0.211 HD
ENDBRANCH   1   8
TORSDOF 5
ENDMDL
MODEL 3
REMARK VINA RESULT:    -3.201      7.845      8.671
REMARK INTER + INTRA:          -4.070
REMARK INTER:                  -3.875
REMARK INTRA:                  -0.195
REMARK UNBOUND:                -0.214
REMARK SMILES OCC(O)CO
REMARK SMILES IDX 3 1 5 2 6 3 2 5 1 6 4 8
REMARK H PARENT 6 4 1 7 4 9
REMARK Flexibility Score: inf
ROOT
ATOM      1  C   UNL     1      56.420  88.788  34.040  1.00  0.00     0.165 C 
ENDROOT
BRANCH   1   2
ATOM      2  C   UNL     1      55.333  89.053  32.995  1.00  0.00     0.190 C 
BRANCH   2   3
ATOM      3  O   UNL     1      54.470  90.056  33.457  1.00  0.00    -0.394 OA
ATOM      4  H   UNL     1      54.651  90.148  34.428  1.00  0.00     0.210 HD
ENDBRANCH   2   3
ENDBRANCH   1   2
BRANCH   1   5
ATOM      5  C   UNL     1      57.505  89.875  33.977  1.00  0.00     0.190 C 
BRANCH   5   6
ATOM      6  O   UNL     1      57.148  90.975  34.769  1.00  0.00    -0.394 OA
ATOM      7  H   UNL     1      56.339  90.708  35.277  1.00  0.00     0.210 HD
ENDBRANCH   5   6
ENDBRANCH   1   5
BRANCH   1   8
ATOM      8  O   UNL     1      55.835  88.769  35.317  1.00  0.00    -0.388 OA
ATOM      9  H   UNL     1      55.637  89.711  35.559  1.00  0.00     0.211 HD
ENDBRANCH   1   8
TORSDOF 5
ENDMDL
MODEL 4
REMARK VINA RESULT:    -3.181      0.720      2.445
REMARK INTER + INTRA:          -4.046
REMARK INTER:                  -3.833
REMARK INTRA:                  -0.213
REMARK UNBOUND:                -0.214
REMARK SMILES OCC(O)CO
REMARK SMILES IDX 3 1 5 2 6 3 2 5 1 6 4 8
REMARK H PARENT 6 4 1 7 4 9
REMARK Flexibility Score: inf
ROOT
ATOM      1  C   UNL     1      55.910  92.950  26.949  1.00  0.00     0.165 C 
ENDROOT
BRANCH   1   2
ATOM      2  C   UNL     1      54.713  92.833  26.003  1.00  0.00     0.190 C 
BRANCH   2   3
ATOM      3  O   UNL     1      55.162  92.536  24.709  1.00  0.00    -0.394 OA
ATOM      4  H   UNL     1      55.632  91.665  24.774  1.00  0.00     0.210 HD
ENDBRANCH   2   3
ENDBRANCH   1   2
BRANCH   1   5
ATOM      5  C   UNL     1      56.316  91.564  27.478  1.00  0.00     0.190 C 
BRANCH   5   6
ATOM      6  O   UNL     1      56.037  90.572  26.528  1.00  0.00    -0.394 OA
ATOM      7  H   UNL     1      55.175  90.158  26.796  1.00  0.00     0.210 HD
ENDBRANCH   5   6
ENDBRANCH   1   5
BRANCH   1   8
ATOM      8  O   UNL     1      56.987  93.532  26.259  1.00  0.00    -0.388 OA
ATOM      9  H   UNL     1      57.717  93.663  26.920  1.00  0.00     0.211 HD
ENDBRANCH   1   8
TORSDOF 5
ENDMDL
MODEL 5
REMARK VINA RESULT:    -3.161     17.576     18.952
REMARK INTER + INTRA:          -4.022
REMARK INTER:                  -3.852
REMARK INTRA:                  -0.170
REMARK UNBOUND:                -0.214
REMARK SMILES OCC(O)CO
REMARK SMILES IDX 3 1 5 2 6 3 2 5 1 6 4 8
REMARK H PARENT 6 4 1 7 4 9
REMARK Flexibility Score: inf
ROOT
ATOM      1  C   UNL     1      66.432 102.978  37.729  1.00  0.00     0.165 C 
ENDROOT
BRANCH   1   2
ATOM      2  C   UNL     1      67.784 103.498  37.234  1.00  0.00     0.190 C 
BRANCH   2   3
ATOM      3  O   UNL     1      68.521 102.443  36.680  1.00  0.00    -0.394 OA
ATOM      4  H   UNL     1      69.474 102.716  36.732  1.00  0.00     0.210 HD
ENDBRANCH   2   3
ENDBRANCH   1   2
BRANCH   1   5
ATOM      5  C   UNL     1      65.794 102.052  36.680  1.00  0.00     0.190 C 
BRANCH   5   6
ATOM      6  O   UNL     1      65.875 100.713  37.088  1.00  0.00    -0.394 OA
ATOM      7  H   UNL     1      66.324 100.220  36.354  1.00  0.00     0.210 HD
ENDBRANCH   5   6
ENDBRANCH   1   5
BRANCH   1   8
ATOM      8  O   UNL     1      66.622 102.278  38.932  1.00  0.00    -0.388 OA
ATOM      9  H   UNL     1      67.322 101.594  38.762  1.00  0.00     0.211 HD
ENDBRANCH   1   8
TORSDOF 5
ENDMDL
MODEL 6
REMARK VINA RESULT:    -3.133     15.521     17.052
REMARK INTER + INTRA:          -3.988
REMARK INTER:                  -3.812
REMARK INTRA:                  -0.176
REMARK UNBOUND:                -0.214
REMARK SMILES OCC(O)CO
REMARK SMILES IDX 3 1 5 2 6 3 2 5 1 6 4 8
REMARK H PARENT 6 4 1 7 4 9
REMARK Flexibility Score: inf
ROOT
ATOM      1  C   UNL     1      68.053 103.663  29.347  1.00  0.00     0.165 C 
ENDROOT
BRANCH   1   2
ATOM      2  C   UNL     1      68.300 104.883  30.237  1.00  0.00     0.190 C 
BRANCH   2   3
ATOM      3  O   UNL     1      67.077 105.379  30.708  1.00  0.00    -0.394 OA
ATOM      4  H   UNL     1      67.183 105.489  31.688  1.00  0.00     0.210 HD
ENDBRANCH   2   3
ENDBRANCH   1   2
BRANCH   1   5
ATOM      5  C   UNL     1      66.935 102.786  29.934  1.00  0.00     0.190 C 
BRANCH   5   6
ATOM      6  O   UNL     1      65.756 102.925  29.189  1.00  0.00    -0.394 OA
ATOM      7  H   UNL     1      66.025 102.946  28.234  1.00  0.00     0.210 HD
ENDBRANCH   5   6
ENDBRANCH   1   5
BRANCH   1   8
ATOM      8  O   UNL     1      67.695 104.096  28.060  1.00  0.00    -0.388 OA
ATOM      9  H   UNL     1      67.354 105.024  28.152  1.00  0.00     0.211 HD
ENDBRANCH   1   8
TORSDOF 5
ENDMDL
MODEL 7
REMARK VINA RESULT:    -3.132      5.365      6.359
REMARK INTER + INTRA:          -3.986
REMARK INTER:                  -3.776
REMARK INTRA:                  -0.210
REMARK UNBOUND:                -0.214
REMARK SMILES OCC(O)CO
REMARK SMILES IDX 3 1 5 2 6 3 2 5 1 6 4 8
REMARK H PARENT 6 4 1 7 4 9
REMARK Flexibility Score: inf
ROOT
ATOM      1  C   UNL     1      53.773  97.388  25.107  1.00  0.00     0.165 C 
ENDROOT
BRANCH   1   2
ATOM      2  C   UNL     1      53.360  98.832  24.819  1.00  0.00     0.190 C 
BRANCH   2   3
ATOM      3  O   UNL     1      54.009  99.287  23.663  1.00  0.00    -0.394 OA
ATOM      4  H   UNL     1      53.325  99.288  22.945  1.00  0.00     0.210 HD
ENDBRANCH   2   3
ENDBRANCH   1   2
BRANCH   1   5
ATOM      5  C   UNL     1      54.435  96.759  23.870  1.00  0.00     0.190 C 
BRANCH   5   6
ATOM      6  O   UNL     1      55.787  97.124  23.794  1.00  0.00    -0.394 OA
ATOM      7  H   UNL     1      55.886  97.954  24.328  1.00  0.00     0.210 HD
ENDBRANCH   5   6
ENDBRANCH   1   5
BRANCH   1   8
ATOM      8  O   UNL     1      54.670  97.373  26.189  1.00  0.00    -0.388 OA
ATOM      9  H   UNL     1      54.906  98.318  26.381  1.00  0.00     0.211 HD
ENDBRANCH   1   8
TORSDOF 5
ENDMDL
MODEL 8
REMARK VINA RESULT:    -3.127      7.756      8.590
REMARK INTER + INTRA:          -3.981
REMARK INTER:                  -3.768
REMARK INTRA:                  -0.213
REMARK UNBOUND:                -0.214
REMARK SMILES OCC(O)CO
REMARK SMILES IDX 3 1 5 2 6 3 2 5 1 6 4 8
REMARK H PARENT 6 4 1 7 4 9
REMARK Flexibility Score: inf
ROOT
ATOM      1  C   UNL     1      56.981  90.277  33.656  1.00  0.00     0.165 C 
ENDROOT
BRANCH   1   2
ATOM      2  C   UNL     1      56.843  88.907  34.323  1.00  0.00     0.190 C 
BRANCH   2   3
ATOM      3  O   UNL     1      56.486  89.070  35.668  1.00  0.00    -0.394 OA
ATOM      4  H   UNL     1      55.991  89.928  35.720  1.00  0.00     0.210 HD
ENDBRANCH   2   3
ENDBRANCH   1   2
BRANCH   1   5
ATOM      5  C   UNL     1      55.695  90.638  32.895  1.00  0.00     0.190 C 
BRANCH   5   6
ATOM      6  O   UNL     1      54.583  90.020  33.482  1.00  0.00    -0.394 OA
ATOM      7  H   UNL     1      54.289  90.611  34.223  1.00  0.00     0.210 HD
ENDBRANCH   5   6
ENDBRANCH   1   5
BRANCH   1   8
ATOM      8  O   UNL     1      57.240  91.244  34.642  1.00  0.00    -0.388 OA
ATOM      9  H   UNL     1      57.222  90.777  35.518  1.00  0.00     0.211 HD
ENDBRANCH   1   8
TORSDOF 5
ENDMDL
MODEL 9
REMARK VINA RESULT:    -3.087      7.623      8.390
REMARK INTER + INTRA:          -3.933
REMARK INTER:                  -3.710
REMARK INTRA:                  -0.223
REMARK UNBOUND:                -0.214
REMARK SMILES OCC(O)CO
REMARK SMILES IDX 3 1 5 2 6 3 2 5 1 6 4 8
REMARK H PARENT 6 4 1 7 4 9
REMARK Flexibility Score: inf
ROOT
ATOM      1  C   UNL     1      55.691  89.619  33.049  1.00  0.00     0.165 C 
ENDROOT
BRANCH   1   2
ATOM      2  C   UNL     1      56.508  89.185  34.268  1.00  0.00     0.190 C 
BRANCH   2   3
ATOM      3  O   UNL     1      55.649  88.699  35.263  1.00  0.00    -0.394 OA
ATOM      4  H   UNL     1      55.795  87.718  35.296  1.00  0.00     0.210 HD
ENDBRANCH   2   3
ENDBRANCH   1   2
BRANCH   1   5
ATOM      5  C   UNL     1      55.563  88.461  32.046  1.00  0.00     0.190 C 
BRANCH   5   6
ATOM      6  O   UNL     1      55.704  87.227  32.697  1.00  0.00    -0.394 OA
ATOM      7  H   UNL     1      56.527  87.289  33.247  1.00  0.00     0.210 HD
ENDBRANCH   5   6
ENDBRANCH   1   5
BRANCH   1   8
ATOM      8  O   UNL     1      54.415  90.029  33.472  1.00  0.00    -0.388 OA
ATOM      9  H   UNL     1      54.551  90.735  34.157  1.00  0.00     0.211 HD
ENDBRANCH   1   8
TORSDOF 5
ENDMDL
