MODEL 1
REMARK VINA RESULT:    -6.684      0.000      0.000
REMARK INTER + INTRA:          -6.879
REMARK INTER:                  -6.879
REMARK INTRA:                   0.000
REMARK UNBOUND:                 0.000
REMARK SMILES Oc1ccc2[nH]ccc2c1
REMARK SMILES IDX 3 1 4 2 5 3 9 4 8 5 7 6 6 7 10 8 2 9 1 11
REMARK H PARENT 6 10 1 12
REMARK Flexibility Score: inf
ROOT
ATOM      1  C   UNL     1      -5.022 -15.207   7.272  1.00  0.00     0.048 A 
ATOM      2  C   UNL     1      -4.316 -13.996   7.389  1.00  0.00     0.030 A 
ATOM      3  C   UNL     1      -3.430 -13.860   8.457  1.00  0.00     0.046 A 
ATOM      4  C   UNL     1      -3.242 -14.865   9.368  1.00  0.00     0.003 A 
ATOM      5  C   UNL     1      -2.314 -14.422  10.285  1.00  0.00     0.028 A 
ATOM      6  C   UNL     1      -1.979 -13.137   9.870  1.00  0.00     0.083 A 
ATOM      7  N   UNL     1      -2.663 -12.799   8.752  1.00  0.00    -0.361 N 
ATOM      8  C   UNL     1      -3.925 -16.077   9.280  1.00  0.00     0.056 A 
ATOM      9  C   UNL     1      -4.829 -16.248   8.214  1.00  0.00     0.116 A 
ATOM     10  H   UNL     1      -2.604 -11.896   8.230  1.00  0.00     0.166 HD
ENDROOT
BRANCH   9  11
ATOM     11  O   UNL     1      -5.528 -17.446   8.096  1.00  0.00    -0.508 OA
ATOM     12  H   UNL     1      -6.289 -17.551   7.435  1.00  0.00     0.293 HD
ENDBRANCH   9  11
TORSDOF 1
ENDMDL
MODEL 2
REMARK VINA RESULT:    -6.318      2.682      3.566
REMARK INTER + INTRA:          -6.503
REMARK INTER:                  -6.503
REMARK INTRA:                   0.000
REMARK UNBOUND:                 0.000
REMARK SMILES Oc1ccc2[nH]ccc2c1
REMARK SMILES IDX 3 1 4 2 5 3 9 4 8 5 7 6 6 7 10 8 2 9 1 11
REMARK H PARENT 6 10 1 12
REMARK Flexibility Score: inf
ROOT
ATOM      1  C   UNL     1      -4.401 -14.013   7.660  1.00  0.00     0.048 A 
ATOM      2  C   UNL     1      -4.896 -15.309   7.427  1.00  0.00     0.030 A 
ATOM      3  C   UNL     1      -4.196 -16.382   7.978  1.00  0.00     0.046 A 
ATOM      4  C   UNL     1      -3.064 -16.194   8.725  1.00  0.00     0.003 A 
ATOM      5  C   UNL     1      -2.620 -17.438   9.119  1.00  0.00     0.028 A 
ATOM      6  C   UNL     1      -3.531 -18.338   8.575  1.00  0.00     0.083 A 
ATOM      7  N   UNL     1      -4.493 -17.688   7.880  1.00  0.00    -0.361 N 
ATOM      8  C   UNL     1      -2.548 -14.924   8.975  1.00  0.00     0.056 A 
ATOM      9  C   UNL     1      -3.229 -13.817   8.432  1.00  0.00     0.116 A 
ATOM     10  H   UNL     1      -5.297 -18.117   7.372  1.00  0.00     0.166 HD
ENDROOT
BRANCH   9  11
ATOM     11  O   UNL     1      -2.741 -12.535   8.662  1.00  0.00    -0.508 OA
ATOM     12  H   UNL     1      -1.747 -12.339   8.659  1.00  0.00     0.293 HD
ENDBRANCH   9  11
TORSDOF 1
ENDMDL
MODEL 3
REMARK VINA RESULT:    -6.195      2.725      4.118
REMARK INTER + INTRA:          -6.376
REMARK INTER:                  -6.376
REMARK INTRA:                   0.000
REMARK UNBOUND:                 0.000
REMARK SMILES Oc1ccc2[nH]ccc2c1
REMARK SMILES IDX 3 1 4 2 5 3 9 4 8 5 7 6 6 7 10 8 2 9 1 11
REMARK H PARENT 6 10 1 12
REMARK Flexibility Score: inf
ROOT
ATOM      1  C   UNL     1      -2.289 -14.351  10.522  1.00  0.00     0.048 A 
ATOM      2  C   UNL     1      -2.523 -15.729  10.680  1.00  0.00     0.030 A 
ATOM      3  C   UNL     1      -3.067 -16.425   9.601  1.00  0.00     0.046 A 
ATOM      4  C   UNL     1      -3.368 -15.801   8.420  1.00  0.00     0.003 A 
ATOM      5  C   UNL     1      -3.882 -16.754   7.569  1.00  0.00     0.028 A 
ATOM      6  C   UNL     1      -3.866 -17.939   8.299  1.00  0.00     0.083 A 
ATOM      7  N   UNL     1      -3.366 -17.733   9.540  1.00  0.00    -0.361 N 
ATOM      8  C   UNL     1      -3.149 -14.437   8.231  1.00  0.00     0.056 A 
ATOM      9  C   UNL     1      -2.600 -13.703   9.301  1.00  0.00     0.116 A 
ATOM     10  H   UNL     1      -3.241 -18.446  10.292  1.00  0.00     0.166 HD
ENDROOT
BRANCH   9  11
ATOM     11  O   UNL     1      -2.369 -12.340   9.145  1.00  0.00    -0.508 OA
ATOM     12  H   UNL     1      -1.822 -11.816   9.819  1.00  0.00     0.293 HD
ENDBRANCH   9  11
TORSDOF 1
ENDMDL
MODEL 4
REMARK VINA RESULT:    -6.127      7.263      8.419
REMARK INTER + INTRA:          -6.307
REMARK INTER:                  -6.307
REMARK INTRA:                   0.000
REMARK UNBOUND:                 0.000
REMARK SMILES Oc1ccc2[nH]ccc2c1
REMARK SMILES IDX 3 1 4 2 5 3 9 4 8 5 7 6 6 7 10 8 2 9 1 11
REMARK H PARENT 6 10 1 12
REMARK Flexibility Score: inf
ROOT
ATOM      1  C   UNL     1      -1.145 -18.103  13.722  1.00  0.00     0.048 A 
ATOM      2  C   UNL     1       0.147 -18.500  13.334  1.00  0.00     0.030 A 
ATOM      3  C   UNL     1       1.160 -18.444  14.290  1.00  0.00     0.046 A 
ATOM      4  C   UNL     1       0.918 -18.020  15.570  1.00  0.00     0.003 A 
ATOM      5  C   UNL     1       2.111 -18.084  16.257  1.00  0.00     0.028 A 
ATOM      6  C   UNL     1       3.038 -18.555  15.333  1.00  0.00     0.083 A 
ATOM      7  N   UNL     1       2.452 -18.775  14.133  1.00  0.00    -0.361 N 
ATOM      8  C   UNL     1      -0.351 -17.621  15.986  1.00  0.00     0.056 A 
ATOM      9  C   UNL     1      -1.397 -17.664  15.045  1.00  0.00     0.116 A 
ATOM     10  H   UNL     1       2.913 -19.128  13.266  1.00  0.00     0.166 HD
ENDROOT
BRANCH   9  11
ATOM     11  O   UNL     1      -2.677 -17.271  15.427  1.00  0.00    -0.508 OA
ATOM     12  H   UNL     1      -3.077 -17.562  16.312  1.00  0.00     0.293 HD
ENDBRANCH   9  11
TORSDOF 1
ENDMDL
MODEL 5
REMARK VINA RESULT:    -5.949      2.394      3.521
REMARK INTER + INTRA:          -6.123
REMARK INTER:                  -6.123
REMARK INTRA:                   0.000
REMARK UNBOUND:                 0.000
REMARK SMILES Oc1ccc2[nH]ccc2c1
REMARK SMILES IDX 3 1 4 2 5 3 9 4 8 5 7 6 6 7 10 8 2 9 1 11
REMARK H PARENT 6 10 1 12
REMARK Flexibility Score: inf
ROOT
ATOM      1  C   UNL     1      -1.552 -15.405   8.922  1.00  0.00     0.048 A 
ATOM      2  C   UNL     1      -2.032 -15.058   7.646  1.00  0.00     0.030 A 
ATOM      3  C   UNL     1      -3.344 -15.404   7.327  1.00  0.00     0.046 A 
ATOM      4  C   UNL     1      -4.152 -16.059   8.218  1.00  0.00     0.003 A 
ATOM      5  C   UNL     1      -5.371 -16.250   7.606  1.00  0.00     0.028 A 
ATOM      6  C   UNL     1      -5.234 -15.686   6.341  1.00  0.00     0.083 A 
ATOM      7  N   UNL     1      -3.995 -15.170   6.176  1.00  0.00    -0.361 N 
ATOM      8  C   UNL     1      -3.708 -16.417   9.490  1.00  0.00     0.056 A 
ATOM      9  C   UNL     1      -2.386 -16.083   9.845  1.00  0.00     0.116 A 
ATOM     10  H   UNL     1      -3.624 -14.689   5.327  1.00  0.00     0.166 HD
ENDROOT
BRANCH   9  11
ATOM     11  O   UNL     1      -1.911 -16.426  11.107  1.00  0.00    -0.508 OA
ATOM     12  H   UNL     1      -1.048 -16.944  11.225  1.00  0.00     0.293 HD
ENDBRANCH   9  11
TORSDOF 1
ENDMDL
MODEL 6
REMARK VINA RESULT:    -5.941      2.673      4.055
REMARK INTER + INTRA:          -6.115
REMARK INTER:                  -6.115
REMARK INTRA:                   0.000
REMARK UNBOUND:                 0.000
REMARK SMILES Oc1ccc2[nH]ccc2c1
REMARK SMILES IDX 3 1 4 2 5 3 9 4 8 5 7 6 6 7 10 8 2 9 1 11
REMARK H PARENT 6 10 1 12
REMARK Flexibility Score: inf
ROOT
ATOM      1  C   UNL     1      -1.852 -14.732   9.828  1.00  0.00     0.048 A 
ATOM      2  C   UNL     1      -2.272 -15.883   9.137  1.00  0.00     0.030 A 
ATOM      3  C   UNL     1      -3.196 -15.723   8.106  1.00  0.00     0.046 A 
ATOM      4  C   UNL     1      -3.687 -14.491   7.766  1.00  0.00     0.003 A 
ATOM      5  C   UNL     1      -4.568 -14.673   6.722  1.00  0.00     0.028 A 
ATOM      6  C   UNL     1      -4.565 -16.043   6.478  1.00  0.00     0.083 A 
ATOM      7  N   UNL     1      -3.724 -16.680   7.326  1.00  0.00    -0.361 N 
ATOM      8  C   UNL     1      -3.292 -13.331   8.429  1.00  0.00     0.056 A 
ATOM      9  C   UNL     1      -2.359 -13.456   9.477  1.00  0.00     0.116 A 
ATOM     10  H   UNL     1      -3.530 -17.705   7.363  1.00  0.00     0.166 HD
ENDROOT
BRANCH   9  11
ATOM     11  O   UNL     1      -1.943 -12.318  10.161  1.00  0.00    -0.508 OA
ATOM     12  H   UNL     1      -1.180 -12.351  10.828  1.00  0.00     0.293 HD
ENDBRANCH   9  11
TORSDOF 1
ENDMDL
MODEL 7
REMARK VINA RESULT:    -5.883      1.932      2.477
REMARK INTER + INTRA:          -6.055
REMARK INTER:                  -6.055
REMARK INTRA:                   0.000
REMARK UNBOUND:                 0.000
REMARK SMILES Oc1ccc2[nH]ccc2c1
REMARK SMILES IDX 3 1 4 2 5 3 9 4 8 5 7 6 6 7 10 8 2 9 1 11
REMARK H PARENT 6 10 1 12
REMARK Flexibility Score: inf
ROOT
ATOM      1  C   UNL     1      -4.592 -16.622  10.029  1.00  0.00     0.048 A 
ATOM      2  C   UNL     1      -3.459 -16.110  10.688  1.00  0.00     0.030 A 
ATOM      3  C   UNL     1      -2.372 -15.722   9.907  1.00  0.00     0.046 A 
ATOM      4  C   UNL     1      -2.392 -15.829   8.542  1.00  0.00     0.003 A 
ATOM      5  C   UNL     1      -1.181 -15.367   8.074  1.00  0.00     0.028 A 
ATOM      6  C   UNL     1      -0.471 -14.994   9.212  1.00  0.00     0.083 A 
ATOM      7  N   UNL     1      -1.203 -15.212  10.329  1.00  0.00    -0.361 N 
ATOM      8  C   UNL     1      -3.497 -16.332   7.858  1.00  0.00     0.056 A 
ATOM      9  C   UNL     1      -4.614 -16.735   8.616  1.00  0.00     0.116 A 
ATOM     10  H   UNL     1      -0.915 -15.022  11.314  1.00  0.00     0.166 HD
ENDROOT
BRANCH   9  11
ATOM     11  O   UNL     1      -5.735 -17.242   7.966  1.00  0.00    -0.508 OA
ATOM     12  H   UNL     1      -5.795 -17.262   6.954  1.00  0.00     0.293 HD
ENDBRANCH   9  11
TORSDOF 1
ENDMDL
MODEL 8
REMARK VINA RESULT:    -5.793      2.147      2.721
REMARK INTER + INTRA:          -5.963
REMARK INTER:                  -5.963
REMARK INTRA:                   0.000
REMARK UNBOUND:                 0.000
REMARK SMILES Oc1ccc2[nH]ccc2c1
REMARK SMILES IDX 3 1 4 2 5 3 9 4 8 5 7 6 6 7 10 8 2 9 1 11
REMARK H PARENT 6 10 1 12
REMARK Flexibility Score: inf
ROOT
ATOM      1  C   UNL     1      -5.006 -16.344   7.934  1.00  0.00     0.048 A 
ATOM      2  C   UNL     1      -5.139 -16.690   9.290  1.00  0.00     0.030 A 
ATOM      3  C   UNL     1      -4.222 -16.151  10.192  1.00  0.00     0.046 A 
ATOM      4  C   UNL     1      -3.222 -15.310   9.784  1.00  0.00     0.003 A 
ATOM      5  C   UNL     1      -2.498 -14.957  10.903  1.00  0.00     0.028 A 
ATOM      6  C   UNL     1      -3.115 -15.621  11.958  1.00  0.00     0.083 A 
ATOM      7  N   UNL     1      -4.168 -16.349  11.519  1.00  0.00    -0.361 N 
ATOM      8  C   UNL     1      -3.063 -14.948   8.448  1.00  0.00     0.056 A 
ATOM      9  C   UNL     1      -3.971 -15.475   7.509  1.00  0.00     0.116 A 
ATOM     10  H   UNL     1      -4.805 -16.941  12.097  1.00  0.00     0.166 HD
ENDROOT
BRANCH   9  11
ATOM     11  O   UNL     1      -3.841 -15.133   6.166  1.00  0.00    -0.508 OA
ATOM     12  H   UNL     1      -2.994 -15.336   5.649  1.00  0.00     0.293 HD
ENDBRANCH   9  11
TORSDOF 1
ENDMDL
MODEL 9
REMARK VINA RESULT:    -5.776      2.782      4.032
REMARK INTER + INTRA:          -5.945
REMARK INTER:                  -5.945
REMARK INTRA:                   0.000
REMARK UNBOUND:                 0.000
REMARK SMILES Oc1ccc2[nH]ccc2c1
REMARK SMILES IDX 3 1 4 2 5 3 9 4 8 5 7 6 6 7 10 8 2 9 1 11
REMARK H PARENT 6 10 1 12
REMARK Flexibility Score: inf
ROOT
ATOM      1  C   UNL     1      -2.409 -16.491   9.848  1.00  0.00     0.048 A 
ATOM      2  C   UNL     1      -3.703 -16.899   9.475  1.00  0.00     0.030 A 
ATOM      3  C   UNL     1      -4.236 -16.377   8.298  1.00  0.00     0.046 A 
ATOM      4  C   UNL     1      -3.534 -15.496   7.519  1.00  0.00     0.003 A 
ATOM      5  C   UNL     1      -4.329 -15.176   6.440  1.00  0.00     0.028 A 
ATOM      6  C   UNL     1      -5.503 -15.899   6.628  1.00  0.00     0.083 A 
ATOM      7  N   UNL     1      -5.441 -16.632   7.763  1.00  0.00    -0.361 N 
ATOM      8  C   UNL     1      -2.251 -15.072   7.860  1.00  0.00     0.056 A 
ATOM      9  C   UNL     1      -1.682 -15.579   9.044  1.00  0.00     0.116 A 
ATOM     10  H   UNL     1      -6.180 -17.264   8.142  1.00  0.00     0.166 HD
ENDROOT
BRANCH   9  11
ATOM     11  O   UNL     1      -0.402 -15.176   9.414  1.00  0.00    -0.508 OA
ATOM     12  H   UNL     1       0.421 -15.681   9.106  1.00  0.00     0.293 HD
ENDBRANCH   9  11
TORSDOF 1
ENDMDL
