MODEL 1
REMARK VINA RESULT:    -6.791      0.000      0.000
REMARK INTER + INTRA:          -8.927
REMARK INTER:                  -8.379
REMARK INTRA:                  -0.547
REMARK UNBOUND:                -0.547
REMARK SMILES COc1ccc(-c2cc3cc(O)c(OC)cc3o2)c(O)c1
REMARK SMILES IDX 7 1 8 2 9 3 10 4 11 5 13 6 16 7 17 8 18 9 6 10 3 11 21 12
REMARK SMILES IDX 4 13 19 14 5 15 2 16 1 17 20 18 12 20 14 22 15 23
REMARK H PARENT 20 19 12 21
REMARK Flexibility Score: inf
ROOT
ATOM      1  C   UNL     1      -2.416   1.517   2.887  1.00  0.00     0.139 A 
ATOM      2  C   UNL     1      -1.605   2.291   3.724  1.00  0.00     0.060 A 
ATOM      3  C   UNL     1      -2.072   3.575   3.567  1.00  0.00     0.025 A 
ATOM      4  C   UNL     1      -1.662   4.771   4.145  1.00  0.00     0.062 A 
ATOM      5  C   UNL     1      -2.347   5.949   3.784  1.00  0.00     0.158 A 
ATOM      6  C   UNL     1      -3.422   5.902   2.859  1.00  0.00     0.164 A 
ATOM      7  C   UNL     1      -3.807   4.660   2.294  1.00  0.00     0.098 A 
ATOM      8  C   UNL     1      -3.105   3.521   2.676  1.00  0.00     0.138 A 
ATOM      9  O   UNL     1      -3.301   2.288   2.278  1.00  0.00    -0.456 OA
ENDROOT
BRANCH   1  10
ATOM     10  C   UNL     1      -2.328   0.046   2.686  1.00  0.00     0.059 A 
ATOM     11  C   UNL     1      -2.146  -2.748   2.286  1.00  0.00     0.122 A 
ATOM     12  C   UNL     1      -3.281  -2.190   2.899  1.00  0.00     0.093 A 
ATOM     13  C   UNL     1      -1.111  -1.904   1.875  1.00  0.00     0.047 A 
ATOM     14  C   UNL     1      -3.376  -0.805   3.100  1.00  0.00     0.130 A 
ATOM     15  C   UNL     1      -1.197  -0.525   2.070  1.00  0.00     0.020 A 
BRANCH  11  16
ATOM     16  O   UNL     1      -2.008  -4.126   2.065  1.00  0.00    -0.497 OA
ATOM     17  C   UNL     1      -3.098  -5.023   1.875  1.00  0.00     0.278 C 
ENDBRANCH  11  16
BRANCH  14  18
ATOM     18  O   UNL     1      -4.512  -0.281   3.718  1.00  0.00    -0.507 OA
ATOM     19  H   UNL     1      -4.514  -0.016   4.696  1.00  0.00     0.293 HD
ENDBRANCH  14  18
ENDBRANCH   1  10
BRANCH   5  20
ATOM     20  O   UNL     1      -1.972   7.173   4.336  1.00  0.00    -0.504 OA
ATOM     21  H   UNL     1      -1.922   8.014   3.773  1.00  0.00     0.293 HD
ENDBRANCH   5  20
BRANCH   6  22
ATOM     22  O   UNL     1      -4.073   7.101   2.531  1.00  0.00    -0.493 OA
ATOM     23  C   UNL     1      -5.438   7.192   2.138  1.00  0.00     0.278 C 
ENDBRANCH   6  22
TORSDOF 5
ENDMDL
MODEL 2
REMARK VINA RESULT:    -6.443      1.650      7.936
REMARK INTER + INTRA:          -8.497
REMARK INTER:                  -8.009
REMARK INTRA:                  -0.488
REMARK UNBOUND:                -0.547
REMARK SMILES COc1ccc(-c2cc3cc(O)c(OC)cc3o2)c(O)c1
REMARK SMILES IDX 7 1 8 2 9 3 10 4 11 5 13 6 16 7 17 8 18 9 6 10 3 11 21 12
REMARK SMILES IDX 4 13 19 14 5 15 2 16 1 17 20 18 12 20 14 22 15 23
REMARK H PARENT 20 19 12 21
REMARK Flexibility Score: inf
ROOT
ATOM      1  C   UNL     1      -4.100   3.445   3.139  1.00  0.00     0.139 A 
ATOM      2  C   UNL     1      -4.503   2.784   4.305  1.00  0.00     0.060 A 
ATOM      3  C   UNL     1      -4.118   1.478   4.112  1.00  0.00     0.025 A 
ATOM      4  C   UNL     1      -4.250   0.360   4.927  1.00  0.00     0.062 A 
ATOM      5  C   UNL     1      -3.747  -0.868   4.451  1.00  0.00     0.158 A 
ATOM      6  C   UNL     1      -3.126  -0.947   3.178  1.00  0.00     0.164 A 
ATOM      7  C   UNL     1      -3.012   0.219   2.380  1.00  0.00     0.098 A 
ATOM      8  C   UNL     1      -3.522   1.412   2.885  1.00  0.00     0.138 A 
ATOM      9  O   UNL     1      -3.517   2.591   2.315  1.00  0.00    -0.456 OA
ENDROOT
BRANCH   1  10
ATOM     10  C   UNL     1      -4.281   4.890   2.836  1.00  0.00     0.059 A 
ATOM     11  C   UNL     1      -4.644   7.632   2.246  1.00  0.00     0.122 A 
ATOM     12  C   UNL     1      -3.373   7.141   2.593  1.00  0.00     0.093 A 
ATOM     13  C   UNL     1      -5.724   6.748   2.195  1.00  0.00     0.047 A 
ATOM     14  C   UNL     1      -3.187   5.783   2.887  1.00  0.00     0.130 A 
ATOM     15  C   UNL     1      -5.549   5.393   2.485  1.00  0.00     0.020 A 
BRANCH  11  16
ATOM     16  O   UNL     1      -4.875   8.982   1.945  1.00  0.00    -0.497 OA
ATOM     17  C   UNL     1      -3.858   9.977   1.878  1.00  0.00     0.278 C 
ENDBRANCH  11  16
BRANCH  14  18
ATOM     18  O   UNL     1      -1.916   5.326   3.235  1.00  0.00    -0.507 OA
ATOM     19  H   UNL     1      -1.207   5.136   2.536  1.00  0.00     0.293 HD
ENDBRANCH  14  18
ENDBRANCH   1  10
BRANCH   5  20
ATOM     20  O   UNL     1      -3.855  -2.018   5.231  1.00  0.00    -0.504 OA
ATOM     21  H   UNL     1      -3.111  -2.704   5.269  1.00  0.00     0.293 HD
ENDBRANCH   5  20
BRANCH   6  22
ATOM     22  O   UNL     1      -2.640  -2.191   2.748  1.00  0.00    -0.493 OA
ATOM     23  C   UNL     1      -1.528  -2.361   1.875  1.00  0.00     0.278 C 
ENDBRANCH   6  22
TORSDOF 5
ENDMDL
MODEL 3
REMARK VINA RESULT:    -5.876      1.862      2.810
REMARK INTER + INTRA:          -7.798
REMARK INTER:                  -7.299
REMARK INTRA:                  -0.498
REMARK UNBOUND:                -0.547
REMARK SMILES COc1ccc(-c2cc3cc(O)c(OC)cc3o2)c(O)c1
REMARK SMILES IDX 7 1 8 2 9 3 10 4 11 5 13 6 16 7 17 8 18 9 6 10 3 11 21 12
REMARK SMILES IDX 4 13 19 14 5 15 2 16 1 17 20 18 12 20 14 22 15 23
REMARK H PARENT 20 19 12 21
REMARK Flexibility Score: inf
ROOT
ATOM      1  C   UNL     1      -2.064   1.340   3.115  1.00  0.00     0.139 A 
ATOM      2  C   UNL     1      -2.832   2.304   3.778  1.00  0.00     0.060 A 
ATOM      3  C   UNL     1      -2.090   3.458   3.689  1.00  0.00     0.025 A 
ATOM      4  C   UNL     1      -2.343   4.742   4.160  1.00  0.00     0.062 A 
ATOM      5  C   UNL     1      -1.378   5.739   3.909  1.00  0.00     0.158 A 
ATOM      6  C   UNL     1      -0.191   5.430   3.196  1.00  0.00     0.164 A 
ATOM      7  C   UNL     1       0.025   4.108   2.734  1.00  0.00     0.098 A 
ATOM      8  C   UNL     1      -0.951   3.152   3.002  1.00  0.00     0.138 A 
ATOM      9  O   UNL     1      -0.947   1.886   2.665  1.00  0.00    -0.456 OA
ENDROOT
BRANCH   1  10
ATOM     10  C   UNL     1      -2.416  -0.092   2.923  1.00  0.00     0.059 A 
ATOM     11  C   UNL     1      -3.103  -2.813   2.575  1.00  0.00     0.122 A 
ATOM     12  C   UNL     1      -1.851  -2.336   2.151  1.00  0.00     0.093 A 
ATOM     13  C   UNL     1      -4.002  -1.927   3.172  1.00  0.00     0.047 A 
ATOM     14  C   UNL     1      -1.505  -0.987   2.320  1.00  0.00     0.130 A 
ATOM     15  C   UNL     1      -3.667  -0.582   3.346  1.00  0.00     0.020 A 
BRANCH  11  16
ATOM     16  O   UNL     1      -3.490  -4.153   2.426  1.00  0.00    -0.497 OA
ATOM     17  C   UNL     1      -2.663  -5.173   1.875  1.00  0.00     0.278 C 
ENDBRANCH  11  16
BRANCH  14  18
ATOM     18  O   UNL     1      -0.258  -0.541   1.882  1.00  0.00    -0.507 OA
ATOM     19  H   UNL     1       0.432  -0.169   2.525  1.00  0.00     0.293 HD
ENDBRANCH  14  18
ENDBRANCH   1  10
BRANCH   5  20
ATOM     20  O   UNL     1      -1.585   7.041   4.362  1.00  0.00    -0.504 OA
ATOM     21  H   UNL     1      -2.517   7.399   4.535  1.00  0.00     0.293 HD
ENDBRANCH   5  20
BRANCH   6  22
ATOM     22  O   UNL     1       0.739   6.457   2.972  1.00  0.00    -0.493 OA
ATOM     23  C   UNL     1       1.745   6.422   1.966  1.00  0.00     0.278 C 
ENDBRANCH   6  22
TORSDOF 5
ENDMDL
MODEL 4
REMARK VINA RESULT:    -5.834      1.790      7.789
REMARK INTER + INTRA:          -7.745
REMARK INTER:                  -7.245
REMARK INTRA:                  -0.500
REMARK UNBOUND:                -0.547
REMARK SMILES COc1ccc(-c2cc3cc(O)c(OC)cc3o2)c(O)c1
REMARK SMILES IDX 7 1 8 2 9 3 10 4 11 5 13 6 16 7 17 8 18 9 6 10 3 11 21 12
REMARK SMILES IDX 4 13 19 14 5 15 2 16 1 17 20 18 12 20 14 22 15 23
REMARK H PARENT 20 19 12 21
REMARK Flexibility Score: inf
ROOT
ATOM      1  C   UNL     1      -2.770   3.913   2.260  1.00  0.00     0.139 A 
ATOM      2  C   UNL     1      -1.420   3.543   2.274  1.00  0.00     0.060 A 
ATOM      3  C   UNL     1      -1.438   2.168   2.242  1.00  0.00     0.025 A 
ATOM      4  C   UNL     1      -0.400   1.244   2.236  1.00  0.00     0.062 A 
ATOM      5  C   UNL     1      -0.736  -0.125   2.197  1.00  0.00     0.158 A 
ATOM      6  C   UNL     1      -2.094  -0.534   2.165  1.00  0.00     0.164 A 
ATOM      7  C   UNL     1      -3.120   0.444   2.172  1.00  0.00     0.098 A 
ATOM      8  C   UNL     1      -2.748   1.785   2.211  1.00  0.00     0.138 A 
ATOM      9  O   UNL     1      -3.532   2.834   2.222  1.00  0.00    -0.456 OA
ENDROOT
BRANCH   1  10
ATOM     10  C   UNL     1      -3.305   5.300   2.282  1.00  0.00     0.059 A 
ATOM     11  C   UNL     1      -4.304   7.946   2.334  1.00  0.00     0.122 A 
ATOM     12  C   UNL     1      -5.187   6.853   2.301  1.00  0.00     0.093 A 
ATOM     13  C   UNL     1      -2.928   7.708   2.343  1.00  0.00     0.047 A 
ATOM     14  C   UNL     1      -4.697   5.539   2.274  1.00  0.00     0.130 A 
ATOM     15  C   UNL     1      -2.431   6.404   2.318  1.00  0.00     0.020 A 
BRANCH  11  16
ATOM     16  O   UNL     1      -4.749   9.276   2.361  1.00  0.00    -0.497 OA
ATOM     17  C   UNL     1      -4.000  10.385   1.876  1.00  0.00     0.278 C 
ENDBRANCH  11  16
BRANCH  14  18
ATOM     18  O   UNL     1      -5.598   4.474   2.234  1.00  0.00    -0.507 OA
ATOM     19  H   UNL     1      -6.361   4.395   2.896  1.00  0.00     0.293 HD
ENDBRANCH  14  18
ENDBRANCH   1  10
BRANCH   5  20
ATOM     20  O   UNL     1       0.270  -1.091   2.190  1.00  0.00    -0.504 OA
ATOM     21  H   UNL     1       0.999  -1.101   2.893  1.00  0.00     0.293 HD
ENDBRANCH   5  20
BRANCH   6  22
ATOM     22  O   UNL     1      -2.377  -1.907   2.127  1.00  0.00    -0.493 OA
ATOM     23  C   UNL     1      -3.408  -2.536   2.882  1.00  0.00     0.278 C 
ENDBRANCH   6  22
TORSDOF 5
ENDMDL
MODEL 5
REMARK VINA RESULT:    -5.469      2.780      7.669
REMARK INTER + INTRA:          -7.295
REMARK INTER:                  -6.895
REMARK INTRA:                  -0.399
REMARK UNBOUND:                -0.547
REMARK SMILES COc1ccc(-c2cc3cc(O)c(OC)cc3o2)c(O)c1
REMARK SMILES IDX 7 1 8 2 9 3 10 4 11 5 13 6 16 7 17 8 18 9 6 10 3 11 21 12
REMARK SMILES IDX 4 13 19 14 5 15 2 16 1 17 20 18 12 20 14 22 15 23
REMARK H PARENT 20 19 12 21
REMARK Flexibility Score: inf
ROOT
ATOM      1  C   UNL     1      -0.666   3.036   3.337  1.00  0.00     0.139 A 
ATOM      2  C   UNL     1      -1.649   2.848   4.314  1.00  0.00     0.060 A 
ATOM      3  C   UNL     1      -2.151   1.592   4.062  1.00  0.00     0.025 A 
ATOM      4  C   UNL     1      -3.146   0.863   4.704  1.00  0.00     0.062 A 
ATOM      5  C   UNL     1      -3.446  -0.423   4.209  1.00  0.00     0.158 A 
ATOM      6  C   UNL     1      -2.746  -0.946   3.091  1.00  0.00     0.164 A 
ATOM      7  C   UNL     1      -1.739  -0.167   2.467  1.00  0.00     0.098 A 
ATOM      8  C   UNL     1      -1.474   1.097   2.985  1.00  0.00     0.138 A 
ATOM      9  O   UNL     1      -0.590   1.967   2.562  1.00  0.00    -0.456 OA
ENDROOT
BRANCH   1  10
ATOM     10  C   UNL     1       0.189   4.241   3.164  1.00  0.00     0.059 A 
ATOM     11  C   UNL     1       1.825   6.526   2.854  1.00  0.00     0.122 A 
ATOM     12  C   UNL     1       0.535   6.494   2.297  1.00  0.00     0.093 A 
ATOM     13  C   UNL     1       2.287   5.415   3.564  1.00  0.00     0.047 A 
ATOM     14  C   UNL     1      -0.280   5.364   2.447  1.00  0.00     0.130 A 
ATOM     15  C   UNL     1       1.482   4.285   3.720  1.00  0.00     0.020 A 
BRANCH  11  16
ATOM     16  O   UNL     1       2.675   7.635   2.729  1.00  0.00    -0.497 OA
ATOM     17  C   UNL     1       3.582   8.072   3.737  1.00  0.00     0.278 C 
ENDBRANCH  11  16
BRANCH  14  18
ATOM     18  O   UNL     1      -1.553   5.358   1.876  1.00  0.00    -0.507 OA
ATOM     19  H   UNL     1      -2.249   4.666   2.128  1.00  0.00     0.293 HD
ENDBRANCH  14  18
ENDBRANCH   1  10
BRANCH   5  20
ATOM     20  O   UNL     1      -4.435  -1.193   4.819  1.00  0.00    -0.504 OA
ATOM     21  H   UNL     1      -5.374  -0.837   4.953  1.00  0.00     0.293 HD
ENDBRANCH   5  20
BRANCH   6  22
ATOM     22  O   UNL     1      -3.081  -2.230   2.636  1.00  0.00    -0.493 OA
ATOM     23  C   UNL     1      -2.131  -3.220   2.256  1.00  0.00     0.278 C 
ENDBRANCH   6  22
TORSDOF 5
ENDMDL
MODEL 6
REMARK VINA RESULT:    -4.952     15.103     17.100
REMARK INTER + INTRA:          -6.658
REMARK INTER:                  -6.072
REMARK INTRA:                  -0.586
REMARK UNBOUND:                -0.547
REMARK SMILES COc1ccc(-c2cc3cc(O)c(OC)cc3o2)c(O)c1
REMARK SMILES IDX 7 1 8 2 9 3 10 4 11 5 13 6 16 7 17 8 18 9 6 10 3 11 21 12
REMARK SMILES IDX 4 13 19 14 5 15 2 16 1 17 20 18 12 20 14 22 15 23
REMARK H PARENT 20 19 12 21
REMARK Flexibility Score: inf
ROOT
ATOM      1  C   UNL     1      -5.769  -4.682  16.820  1.00  0.00     0.139 A 
ATOM      2  C   UNL     1      -5.018  -5.590  17.574  1.00  0.00     0.060 A 
ATOM      3  C   UNL     1      -5.708  -5.712  18.757  1.00  0.00     0.025 A 
ATOM      4  C   UNL     1      -5.447  -6.475  19.890  1.00  0.00     0.062 A 
ATOM      5  C   UNL     1      -6.355  -6.392  20.965  1.00  0.00     0.158 A 
ATOM      6  C   UNL     1      -7.496  -5.554  20.882  1.00  0.00     0.164 A 
ATOM      7  C   UNL     1      -7.723  -4.794  19.707  1.00  0.00     0.098 A 
ATOM      8  C   UNL     1      -6.804  -4.903  18.668  1.00  0.00     0.138 A 
ATOM      9  O   UNL     1      -6.829  -4.294  17.508  1.00  0.00    -0.456 OA
ENDROOT
BRANCH   1  10
ATOM     10  C   UNL     1      -5.456  -4.201  15.448  1.00  0.00     0.059 A 
ATOM     11  C   UNL     1      -4.839  -3.283  12.845  1.00  0.00     0.122 A 
ATOM     12  C   UNL     1      -6.161  -3.237  13.320  1.00  0.00     0.093 A 
ATOM     13  C   UNL     1      -3.835  -3.786  13.675  1.00  0.00     0.047 A 
ATOM     14  C   UNL     1      -6.473  -3.692  14.610  1.00  0.00     0.130 A 
ATOM     15  C   UNL     1      -4.135  -4.240  14.961  1.00  0.00     0.020 A 
BRANCH  11  16
ATOM     16  O   UNL     1      -4.482  -2.840  11.563  1.00  0.00    -0.497 OA
ATOM     17  C   UNL     1      -3.337  -3.291  10.846  1.00  0.00     0.278 C 
ENDBRANCH  11  16
BRANCH  14  18
ATOM     18  O   UNL     1      -7.796  -3.640  15.052  1.00  0.00    -0.507 OA
ATOM     19  H   UNL     1      -8.250  -2.763  15.275  1.00  0.00     0.293 HD
ENDBRANCH  14  18
ENDBRANCH   1  10
BRANCH   5  20
ATOM     20  O   UNL     1      -6.136  -7.138  22.123  1.00  0.00    -0.504 OA
ATOM     21  H   UNL     1      -5.203  -7.407  22.410  1.00  0.00     0.293 HD
ENDBRANCH   5  20
BRANCH   6  22
ATOM     22  O   UNL     1      -8.370  -5.505  21.978  1.00  0.00    -0.493 OA
ATOM     23  C   UNL     1      -9.555  -6.286  22.096  1.00  0.00     0.278 C 
ENDBRANCH   6  22
TORSDOF 5
ENDMDL
MODEL 7
REMARK VINA RESULT:    -4.859     16.733     18.798
REMARK INTER + INTRA:          -6.543
REMARK INTER:                  -5.934
REMARK INTRA:                  -0.610
REMARK UNBOUND:                -0.547
REMARK SMILES COc1ccc(-c2cc3cc(O)c(OC)cc3o2)c(O)c1
REMARK SMILES IDX 7 1 8 2 9 3 10 4 11 5 13 6 16 7 17 8 18 9 6 10 3 11 21 12
REMARK SMILES IDX 4 13 19 14 5 15 2 16 1 17 20 18 12 20 14 22 15 23
REMARK H PARENT 20 19 12 21
REMARK Flexibility Score: inf
ROOT
ATOM      1  C   UNL     1      -6.555  -5.399  18.777  1.00  0.00     0.139 A 
ATOM      2  C   UNL     1      -7.171  -6.269  19.684  1.00  0.00     0.060 A 
ATOM      3  C   UNL     1      -8.413  -6.507  19.144  1.00  0.00     0.025 A 
ATOM      4  C   UNL     1      -9.467  -7.294  19.596  1.00  0.00     0.062 A 
ATOM      5  C   UNL     1     -10.638  -7.344  18.812  1.00  0.00     0.158 A 
ATOM      6  C   UNL     1     -10.725  -6.610  17.601  1.00  0.00     0.164 A 
ATOM      7  C   UNL     1      -9.627  -5.821  17.179  1.00  0.00     0.098 A 
ATOM      8  C   UNL     1      -8.489  -5.797  17.981  1.00  0.00     0.138 A 
ATOM      9  O   UNL     1      -7.375  -5.141  17.772  1.00  0.00    -0.456 OA
ENDROOT
BRANCH   1  10
ATOM     10  C   UNL     1      -5.186  -4.829  18.890  1.00  0.00     0.059 A 
ATOM     11  C   UNL     1      -2.576  -3.764  19.119  1.00  0.00     0.122 A 
ATOM     12  C   UNL     1      -3.662  -2.926  18.809  1.00  0.00     0.093 A 
ATOM     13  C   UNL     1      -2.804  -5.128  19.314  1.00  0.00     0.047 A 
ATOM     14  C   UNL     1      -4.958  -3.449  18.694  1.00  0.00     0.130 A 
ATOM     15  C   UNL     1      -4.091  -5.658  19.202  1.00  0.00     0.020 A 
BRANCH  11  16
ATOM     16  O   UNL     1      -1.264  -3.285  19.244  1.00  0.00    -0.497 OA
ATOM     17  C   UNL     1      -0.712  -2.236  18.454  1.00  0.00     0.278 C 
ENDBRANCH  11  16
BRANCH  14  18
ATOM     18  O   UNL     1      -6.014  -2.594  18.379  1.00  0.00    -0.507 OA
ATOM     19  H   UNL     1      -6.302  -2.432  17.421  1.00  0.00     0.293 HD
ENDBRANCH  14  18
ENDBRANCH   1  10
BRANCH   5  20
ATOM     20  O   UNL     1     -11.721  -8.118  19.223  1.00  0.00    -0.504 OA
ATOM     21  H   UNL     1     -12.271  -7.869  20.037  1.00  0.00     0.293 HD
ENDBRANCH   5  20
BRANCH   6  22
ATOM     22  O   UNL     1     -11.911  -6.692  16.856  1.00  0.00    -0.493 OA
ATOM     23  C   UNL     1     -12.073  -7.490  15.688  1.00  0.00     0.278 C 
ENDBRANCH   6  22
TORSDOF 5
ENDMDL
MODEL 8
REMARK VINA RESULT:    -4.773     16.374     18.082
REMARK INTER + INTRA:          -6.437
REMARK INTER:                  -5.829
REMARK INTRA:                  -0.608
REMARK UNBOUND:                -0.547
REMARK SMILES COc1ccc(-c2cc3cc(O)c(OC)cc3o2)c(O)c1
REMARK SMILES IDX 7 1 8 2 9 3 10 4 11 5 13 6 16 7 17 8 18 9 6 10 3 11 21 12
REMARK SMILES IDX 4 13 19 14 5 15 2 16 1 17 20 18 12 20 14 22 15 23
REMARK H PARENT 20 19 12 21
REMARK Flexibility Score: inf
ROOT
ATOM      1  C   UNL     1      -6.345  -5.524  18.541  1.00  0.00     0.139 A 
ATOM      2  C   UNL     1      -5.460  -6.324  19.273  1.00  0.00     0.060 A 
ATOM      3  C   UNL     1      -4.304  -5.582  19.346  1.00  0.00     0.025 A 
ATOM      4  C   UNL     1      -3.082  -5.857  19.949  1.00  0.00     0.062 A 
ATOM      5  C   UNL     1      -2.065  -4.884  19.856  1.00  0.00     0.158 A 
ATOM      6  C   UNL     1      -2.296  -3.666  19.167  1.00  0.00     0.164 A 
ATOM      7  C   UNL     1      -3.558  -3.427  18.567  1.00  0.00     0.098 A 
ATOM      8  C   UNL     1      -4.534  -4.413  18.680  1.00  0.00     0.138 A 
ATOM      9  O   UNL     1      -5.755  -4.389  18.206  1.00  0.00    -0.456 OA
ENDROOT
BRANCH   1  10
ATOM     10  C   UNL     1      -7.747  -5.863  18.177  1.00  0.00     0.059 A 
ATOM     11  C   UNL     1     -10.412  -6.524  17.501  1.00  0.00     0.122 A 
ATOM     12  C   UNL     1      -9.571  -5.908  16.558  1.00  0.00     0.093 A 
ATOM     13  C   UNL     1      -9.913  -6.807  18.775  1.00  0.00     0.047 A 
ATOM     14  C   UNL     1      -8.249  -5.577  16.888  1.00  0.00     0.130 A 
ATOM     15  C   UNL     1      -8.598  -6.482  19.113  1.00  0.00     0.020 A 
BRANCH  11  16
ATOM     16  O   UNL     1     -11.741  -6.872  17.215  1.00  0.00    -0.497 OA
ATOM     17  C   UNL     1     -12.125  -7.929  16.342  1.00  0.00     0.278 C 
ENDBRANCH  11  16
BRANCH  14  18
ATOM     18  O   UNL     1      -7.440  -4.960  15.933  1.00  0.00    -0.507 OA
ATOM     19  H   UNL     1      -7.788  -4.723  15.012  1.00  0.00     0.293 HD
ENDBRANCH  14  18
ENDBRANCH   1  10
BRANCH   5  20
ATOM     20  O   UNL     1      -0.823  -5.114  20.444  1.00  0.00    -0.504 OA
ATOM     21  H   UNL     1      -0.037  -4.496  20.278  1.00  0.00     0.293 HD
ENDBRANCH   5  20
BRANCH   6  22
ATOM     22  O   UNL     1      -1.253  -2.729  19.102  1.00  0.00    -0.493 OA
ATOM     23  C   UNL     1      -0.460  -2.490  17.944  1.00  0.00     0.278 C 
ENDBRANCH   6  22
TORSDOF 5
ENDMDL
