MODEL 1
REMARK VINA RESULT:    -4.455      0.000      0.000
REMARK INTER + INTRA:          -5.488
REMARK INTER:                  -5.366
REMARK INTRA:                  -0.122
REMARK UNBOUND:                -0.122
REMARK SMILES CC[C@H](C)[C@H]([NH3+])C(=O)[O-]
REMARK SMILES IDX 3 1 4 2 5 3 6 4 7 8 8 9 9 10 2 11 1 12
REMARK H PARENT 6 5 6 6 6 7
REMARK Flexibility Score: inf
ROOT
ATOM      1  C   UNL     1       2.096  -6.181   7.879  1.00  0.00     0.050 C 
ATOM      2  C   UNL     1       0.728  -6.689   8.374  1.00  0.00     0.014 C 
ENDROOT
BRANCH   1   3
ATOM      3  C   UNL     1       3.169  -7.312   7.797  1.00  0.00     0.230 C 
BRANCH   3   4
ATOM      4  N   UNL     1       4.500  -6.784   7.458  1.00  0.00    -0.350 N 
ATOM      5  H   UNL     1       4.447  -5.806   7.097  1.00  0.00     0.345 HD
ATOM      6  H   UNL     1       4.933  -7.385   6.719  1.00  0.00     0.345 HD
ATOM      7  H   UNL     1       5.121  -6.808   8.299  1.00  0.00     0.345 HD
ENDBRANCH   3   4
BRANCH   3   8
ATOM      8  C   UNL     1       2.776  -8.417   6.846  1.00  0.00     0.099 C 
ATOM      9  O   UNL     1       2.770  -9.613   7.240  1.00  0.00    -0.544 OA
ATOM     10  O   UNL     1       2.384  -8.125   5.545  1.00  0.00    -0.544 OA
ENDBRANCH   3   8
ENDBRANCH   1   3
BRANCH   1  11
ATOM     11  C   UNL     1       2.607  -5.006   8.753  1.00  0.00     0.006 C 
ATOM     12  C   UNL     1       2.549  -5.305  10.252  1.00  0.00     0.004 C 
ENDBRANCH   1  11
TORSDOF 4
ENDMDL
MODEL 2
REMARK VINA RESULT:    -4.234      3.024      4.308
REMARK INTER + INTRA:          -5.222
REMARK INTER:                  -5.136
REMARK INTRA:                  -0.085
REMARK UNBOUND:                -0.122
REMARK SMILES CC[C@H](C)[C@H]([NH3+])C(=O)[O-]
REMARK SMILES IDX 3 1 4 2 5 3 6 4 7 8 8 9 9 10 2 11 1 12
REMARK H PARENT 6 5 6 6 6 7
REMARK Flexibility Score: inf
ROOT
ATOM      1  C   UNL     1       2.669  -6.851   7.506  1.00  0.00     0.050 C 
ATOM      2  C   UNL     1       4.206  -6.749   7.553  1.00  0.00     0.014 C 
ENDROOT
BRANCH   1   3
ATOM      3  C   UNL     1       1.989  -6.370   8.826  1.00  0.00     0.230 C 
BRANCH   3   4
ATOM      4  N   UNL     1       0.526  -6.521   8.779  1.00  0.00    -0.350 N 
ATOM      5  H   UNL     1       0.070  -5.719   8.292  1.00  0.00     0.345 HD
ATOM      6  H   UNL     1       0.151  -6.571   9.754  1.00  0.00     0.345 HD
ATOM      7  H   UNL     1       0.273  -7.411   8.291  1.00  0.00     0.345 HD
ENDBRANCH   3   4
BRANCH   3   8
ATOM      8  C   UNL     1       2.366  -4.954   9.190  1.00  0.00     0.099 C 
ATOM      9  O   UNL     1       2.175  -4.020   8.367  1.00  0.00    -0.544 OA
ATOM     10  O   UNL     1       2.893  -4.661  10.443  1.00  0.00    -0.544 OA
ENDBRANCH   3   8
ENDBRANCH   1   3
BRANCH   1  11
ATOM     11  C   UNL     1       2.214  -8.290   7.151  1.00  0.00     0.006 C 
ATOM     12  C   UNL     1       2.544  -8.686   5.711  1.00  0.00     0.004 C 
ENDBRANCH   1  11
TORSDOF 4
ENDMDL
MODEL 3
REMARK VINA RESULT:    -4.145      2.192      3.858
REMARK INTER + INTRA:          -5.115
REMARK INTER:                  -5.024
REMARK INTRA:                  -0.090
REMARK UNBOUND:                -0.122
REMARK SMILES CC[C@H](C)[C@H]([NH3+])C(=O)[O-]
REMARK SMILES IDX 3 1 4 2 5 3 6 4 7 8 8 9 9 10 2 11 1 12
REMARK H PARENT 6 5 6 6 6 7
REMARK Flexibility Score: inf
ROOT
ATOM      1  C   UNL     1       2.940  -7.744   6.741  1.00  0.00     0.050 C 
ATOM      2  C   UNL     1       4.263  -8.142   6.057  1.00  0.00     0.014 C 
ENDROOT
BRANCH   1   3
ATOM      3  C   UNL     1       3.134  -6.672   7.859  1.00  0.00     0.230 C 
BRANCH   3   4
ATOM      4  N   UNL     1       3.970  -7.172   8.962  1.00  0.00    -0.350 N 
ATOM      5  H   UNL     1       3.973  -6.514   9.772  1.00  0.00     0.345 HD
ATOM      6  H   UNL     1       4.954  -7.287   8.625  1.00  0.00     0.345 HD
ATOM      7  H   UNL     1       3.626  -8.108   9.278  1.00  0.00     0.345 HD
ENDBRANCH   3   4
BRANCH   3   8
ATOM      8  C   UNL     1       1.822  -6.139   8.384  1.00  0.00     0.099 C 
ATOM      9  O   UNL     1       0.962  -5.683   7.584  1.00  0.00    -0.544 OA
ATOM     10  O   UNL     1       1.535  -6.178   9.744  1.00  0.00    -0.544 OA
ENDBRANCH   3   8
ENDBRANCH   1   3
BRANCH   1  11
ATOM     11  C   UNL     1       2.202  -8.988   7.300  1.00  0.00     0.006 C 
ATOM     12  C   UNL     1       1.825 -10.000   6.216  1.00  0.00     0.004 C 
ENDBRANCH   1  11
TORSDOF 4
ENDMDL
MODEL 4
REMARK VINA RESULT:    -4.019      2.805      3.780
REMARK INTER + INTRA:          -4.963
REMARK INTER:                  -4.976
REMARK INTRA:                   0.013
REMARK UNBOUND:                -0.122
REMARK SMILES CC[C@H](C)[C@H]([NH3+])C(=O)[O-]
REMARK SMILES IDX 3 1 4 2 5 3 6 4 7 8 8 9 9 10 2 11 1 12
REMARK H PARENT 6 5 6 6 6 7
REMARK Flexibility Score: inf
ROOT
ATOM      1  C   UNL     1       1.922  -3.855  10.127  1.00  0.00     0.050 C 
ATOM      2  C   UNL     1       3.097  -4.156  11.078  1.00  0.00     0.014 C 
ENDROOT
BRANCH   1   3
ATOM      3  C   UNL     1       1.080  -5.124   9.781  1.00  0.00     0.230 C 
BRANCH   3   4
ATOM      4  N   UNL     1       0.841  -5.965  10.965  1.00  0.00    -0.350 N 
ATOM      5  H   UNL     1      -0.138  -5.871  11.313  1.00  0.00     0.345 HD
ATOM      6  H   UNL     1       1.493  -5.677  11.731  1.00  0.00     0.345 HD
ATOM      7  H   UNL     1       1.033  -6.967  10.737  1.00  0.00     0.345 HD
ENDBRANCH   3   4
BRANCH   3   8
ATOM      8  C   UNL     1       1.689  -5.937   8.664  1.00  0.00     0.099 C 
ATOM      9  O   UNL     1       1.179  -5.906   7.512  1.00  0.00    -0.544 OA
ATOM     10  O   UNL     1       2.833  -6.695   8.882  1.00  0.00    -0.544 OA
ENDBRANCH   3   8
ENDBRANCH   1   3
BRANCH   1  11
ATOM     11  C   UNL     1       2.414  -3.158   8.832  1.00  0.00     0.006 C 
ATOM     12  C   UNL     1       2.211  -1.643   8.852  1.00  0.00     0.004 C 
ENDBRANCH   1  11
TORSDOF 4
ENDMDL
MODEL 5
REMARK VINA RESULT:    -3.830      2.978      5.030
REMARK INTER + INTRA:          -4.736
REMARK INTER:                  -4.641
REMARK INTRA:                  -0.095
REMARK UNBOUND:                -0.122
REMARK SMILES CC[C@H](C)[C@H]([NH3+])C(=O)[O-]
REMARK SMILES IDX 3 1 4 2 5 3 6 4 7 8 8 9 9 10 2 11 1 12
REMARK H PARENT 6 5 6 6 6 7
REMARK Flexibility Score: inf
ROOT
ATOM      1  C   UNL     1       2.401  -9.108   4.572  1.00  0.00     0.050 C 
ATOM      2  C   UNL     1       3.642  -9.134   3.659  1.00  0.00     0.014 C 
ENDROOT
BRANCH   1   3
ATOM      3  C   UNL     1       2.762  -9.186   6.089  1.00  0.00     0.230 C 
BRANCH   3   4
ATOM      4  N   UNL     1       1.793  -9.995   6.845  1.00  0.00    -0.350 N 
ATOM      5  H   UNL     1       1.438 -10.798   6.281  1.00  0.00     0.345 HD
ATOM      6  H   UNL     1       0.978  -9.396   7.115  1.00  0.00     0.345 HD
ATOM      7  H   UNL     1       2.233 -10.356   7.722  1.00  0.00     0.345 HD
ENDBRANCH   3   4
BRANCH   3   8
ATOM      8  C   UNL     1       2.923  -7.822   6.718  1.00  0.00     0.099 C 
ATOM      9  O   UNL     1       1.912  -7.195   7.129  1.00  0.00    -0.544 OA
ATOM     10  O   UNL     1       4.185  -7.263   6.882  1.00  0.00    -0.544 OA
ENDBRANCH   3   8
ENDBRANCH   1   3
BRANCH   1  11
ATOM     11  C   UNL     1       1.402 -10.230   4.192  1.00  0.00     0.006 C 
ATOM     12  C   UNL     1       2.027 -11.319   3.319  1.00  0.00     0.004 C 
ENDBRANCH   1  11
TORSDOF 4
ENDMDL
MODEL 6
REMARK VINA RESULT:    -3.816      1.168      2.054
REMARK INTER + INTRA:          -4.719
REMARK INTER:                  -4.681
REMARK INTRA:                  -0.038
REMARK UNBOUND:                -0.122
REMARK SMILES CC[C@H](C)[C@H]([NH3+])C(=O)[O-]
REMARK SMILES IDX 3 1 4 2 5 3 6 4 7 8 8 9 9 10 2 11 1 12
REMARK H PARENT 6 5 6 6 6 7
REMARK Flexibility Score: inf
ROOT
ATOM      1  C   UNL     1       2.869  -7.518   8.283  1.00  0.00     0.050 C 
ATOM      2  C   UNL     1       3.971  -6.715   9.001  1.00  0.00     0.014 C 
ENDROOT
BRANCH   1   3
ATOM      3  C   UNL     1       3.426  -8.433   7.148  1.00  0.00     0.230 C 
BRANCH   3   4
ATOM      4  N   UNL     1       4.475  -7.762   6.365  1.00  0.00    -0.350 N 
ATOM      5  H   UNL     1       5.425  -7.939   6.760  1.00  0.00     0.345 HD
ATOM      6  H   UNL     1       4.304  -6.730   6.369  1.00  0.00     0.345 HD
ATOM      7  H   UNL     1       4.448  -8.090   5.372  1.00  0.00     0.345 HD
ENDBRANCH   3   4
BRANCH   3   8
ATOM      8  C   UNL     1       2.339  -8.960   6.241  1.00  0.00     0.099 C 
ATOM      9  O   UNL     1       2.250  -8.542   5.056  1.00  0.00    -0.544 OA
ATOM     10  O   UNL     1       1.451  -9.931   6.690  1.00  0.00    -0.544 OA
ENDBRANCH   3   8
ENDBRANCH   1   3
BRANCH   1  11
ATOM     11  C   UNL     1       1.762  -6.582   7.734  1.00  0.00     0.006 C 
ATOM     12  C   UNL     1       1.685  -5.245   8.475  1.00  0.00     0.004 C 
ENDBRANCH   1  11
TORSDOF 4
ENDMDL
MODEL 7
REMARK VINA RESULT:    -3.815      1.527      2.309
REMARK INTER + INTRA:          -4.717
REMARK INTER:                  -4.645
REMARK INTRA:                  -0.072
REMARK UNBOUND:                -0.122
REMARK SMILES CC[C@H](C)[C@H]([NH3+])C(=O)[O-]
REMARK SMILES IDX 3 1 4 2 5 3 6 4 7 8 8 9 9 10 2 11 1 12
REMARK H PARENT 6 5 6 6 6 7
REMARK Flexibility Score: inf
ROOT
ATOM      1  C   UNL     1       3.253  -6.841   8.451  1.00  0.00     0.050 C 
ATOM      2  C   UNL     1       4.539  -6.477   7.684  1.00  0.00     0.014 C 
ENDROOT
BRANCH   1   3
ATOM      3  C   UNL     1       2.075  -7.237   7.506  1.00  0.00     0.230 C 
BRANCH   3   4
ATOM      4  N   UNL     1       0.819  -7.438   8.245  1.00  0.00    -0.350 N 
ATOM      5  H   UNL     1       0.685  -6.712   8.982  1.00  0.00     0.345 HD
ATOM      6  H   UNL     1       0.836  -8.377   8.707  1.00  0.00     0.345 HD
ATOM      7  H   UNL     1       0.007  -7.417   7.587  1.00  0.00     0.345 HD
ENDBRANCH   3   4
BRANCH   3   8
ATOM      8  C   UNL     1       2.394  -8.445   6.658  1.00  0.00     0.099 C 
ATOM      9  O   UNL     1       2.349  -8.362   5.401  1.00  0.00    -0.544 OA
ATOM     10  O   UNL     1       2.772  -9.645   7.248  1.00  0.00    -0.544 OA
ENDBRANCH   3   8
ENDBRANCH   1   3
BRANCH   1  11
ATOM     11  C   UNL     1       2.825  -5.694   9.403  1.00  0.00     0.006 C 
ATOM     12  C   UNL     1       2.448  -4.409   8.664  1.00  0.00     0.004 C 
ENDBRANCH   1  11
TORSDOF 4
ENDMDL
MODEL 8
REMARK VINA RESULT:    -3.808      3.331      4.201
REMARK INTER + INTRA:          -4.709
REMARK INTER:                  -4.711
REMARK INTRA:                   0.002
REMARK UNBOUND:                -0.122
REMARK SMILES CC[C@H](C)[C@H]([NH3+])C(=O)[O-]
REMARK SMILES IDX 3 1 4 2 5 3 6 4 7 8 8 9 9 10 2 11 1 12
REMARK H PARENT 6 5 6 6 6 7
REMARK Flexibility Score: inf
ROOT
ATOM      1  C   UNL     1       2.444  -6.464   8.900  1.00  0.00     0.050 C 
ATOM      2  C   UNL     1       1.063  -6.266   8.246  1.00  0.00     0.014 C 
ENDROOT
BRANCH   1   3
ATOM      3  C   UNL     1       2.834  -5.297   9.860  1.00  0.00     0.230 C 
BRANCH   3   4
ATOM      4  N   UNL     1       2.571  -5.631  11.269  1.00  0.00    -0.350 N 
ATOM      5  H   UNL     1       3.444  -5.610  11.840  1.00  0.00     0.345 HD
ATOM      6  H   UNL     1       2.163  -6.593  11.326  1.00  0.00     0.345 HD
ATOM      7  H   UNL     1       1.878  -4.961  11.673  1.00  0.00     0.345 HD
ENDBRANCH   3   4
BRANCH   3   8
ATOM      8  C   UNL     1       2.168  -3.994   9.489  1.00  0.00     0.099 C 
ATOM      9  O   UNL     1       1.309  -3.484  10.257  1.00  0.00    -0.544 OA
ATOM     10  O   UNL     1       2.517  -3.327   8.320  1.00  0.00    -0.544 OA
ENDBRANCH   3   8
ENDBRANCH   1   3
BRANCH   1  11
ATOM     11  C   UNL     1       3.545  -6.680   7.829  1.00  0.00     0.006 C 
ATOM     12  C   UNL     1       3.254  -7.859   6.899  1.00  0.00     0.004 C 
ENDBRANCH   1  11
TORSDOF 4
ENDMDL
MODEL 9
REMARK VINA RESULT:    -3.754      4.042      4.882
REMARK INTER + INTRA:          -4.644
REMARK INTER:                  -4.536
REMARK INTRA:                  -0.108
REMARK UNBOUND:                -0.122
REMARK SMILES CC[C@H](C)[C@H]([NH3+])C(=O)[O-]
REMARK SMILES IDX 3 1 4 2 5 3 6 4 7 8 8 9 9 10 2 11 1 12
REMARK H PARENT 6 5 6 6 6 7
REMARK Flexibility Score: inf
ROOT
ATOM      1  C   UNL     1       1.675  -4.903   9.228  1.00  0.00     0.050 C 
ATOM      2  C   UNL     1       2.242  -5.961   8.261  1.00  0.00     0.014 C 
ENDROOT
BRANCH   1   3
ATOM      3  C   UNL     1       2.684  -3.750   9.526  1.00  0.00     0.230 C 
BRANCH   3   4
ATOM      4  N   UNL     1       2.990  -3.644  10.961  1.00  0.00    -0.350 N 
ATOM      5  H   UNL     1       2.133  -3.751  11.548  1.00  0.00     0.345 HD
ATOM      6  H   UNL     1       3.409  -2.706  11.158  1.00  0.00     0.345 HD
ATOM      7  H   UNL     1       3.688  -4.373  11.235  1.00  0.00     0.345 HD
ENDBRANCH   3   4
BRANCH   3   8
ATOM      8  C   UNL     1       2.224  -2.421   8.979  1.00  0.00     0.099 C 
ATOM      9  O   UNL     1       1.470  -1.683   9.669  1.00  0.00    -0.544 OA
ATOM     10  O   UNL     1       2.652  -1.981   7.732  1.00  0.00    -0.544 OA
ENDBRANCH   3   8
ENDBRANCH   1   3
BRANCH   1  11
ATOM     11  C   UNL     1       1.187  -5.555  10.547  1.00  0.00     0.006 C 
ATOM     12  C   UNL     1      -0.260  -5.199  10.894  1.00  0.00     0.004 C 
ENDBRANCH   1  11
TORSDOF 4
ENDMDL
