MODEL 1
REMARK VINA RESULT:    -6.728      0.000      0.000
REMARK INTER + INTRA:          -7.318
REMARK INTER:                  -7.318
REMARK INTRA:                   0.000
REMARK UNBOUND:                 0.000
REMARK SMILES Cc1cc(O)c2c(c1)C(=O)c1cc(O)cc(O)c1C2=O
REMARK SMILES IDX 1 1 2 2 8 3 7 4 6 5 4 6 3 7 19 8 20 9 18 10 11 11 9 12 10 13
REMARK SMILES IDX 12 14 13 15 15 16 16 17 5 18 17 20 14 22
REMARK H PARENT 5 19 17 21 14 23
REMARK Flexibility Score: inf
ROOT
ATOM      1  C   UNL     1     -14.999   7.374 -17.631  1.00  0.00     0.044 C 
ATOM      2  C   UNL     1     -13.921   7.089 -16.625  1.00  0.00    -0.047 A 
ATOM      3  C   UNL     1     -13.310   5.831 -16.584  1.00  0.00     0.016 A 
ATOM      4  C   UNL     1     -12.271   5.568 -15.677  1.00  0.00     0.038 A 
ATOM      5  C   UNL     1     -11.816   6.590 -14.813  1.00  0.00     0.076 A 
ATOM      6  C   UNL     1     -12.468   7.849 -14.827  1.00  0.00     0.127 A 
ATOM      7  C   UNL     1     -13.488   8.093 -15.753  1.00  0.00     0.050 A 
ATOM      8  C   UNL     1     -10.619   6.318 -13.975  1.00  0.00     0.201 C 
ATOM      9  O   UNL     1      -9.849   7.263 -13.655  1.00  0.00    -0.288 OA
ATOM     10  C   UNL     1     -10.232   4.915 -13.674  1.00  0.00     0.076 A 
ATOM     11  C   UNL     1     -10.689   3.896 -14.541  1.00  0.00     0.041 A 
ATOM     12  C   UNL     1     -11.652   4.222 -15.619  1.00  0.00     0.194 C 
ATOM     13  O   UNL     1     -11.964   3.346 -16.472  1.00  0.00    -0.289 OA
ATOM     14  C   UNL     1     -10.232   2.578 -14.371  1.00  0.00     0.059 A 
ATOM     15  C   UNL     1      -9.340   2.263 -13.343  1.00  0.00     0.120 A 
ATOM     16  C   UNL     1      -8.918   3.258 -12.462  1.00  0.00     0.093 A 
ATOM     17  C   UNL     1      -9.373   4.574 -12.596  1.00  0.00     0.131 A 
ENDROOT
BRANCH   6  18
ATOM     18  O   UNL     1     -12.161   8.869 -13.924  1.00  0.00    -0.507 OA
ATOM     19  H   UNL     1     -11.326   9.435 -13.983  1.00  0.00     0.293 HD
ENDBRANCH   6  18
BRANCH  17  20
ATOM     20  O   UNL     1      -8.979   5.495 -11.622  1.00  0.00    -0.507 OA
ATOM     21  H   UNL     1      -8.760   5.240 -10.670  1.00  0.00     0.293 HD
ENDBRANCH  17  20
BRANCH  15  22
ATOM     22  O   UNL     1      -8.875   0.960 -13.180  1.00  0.00    -0.508 OA
ATOM     23  H   UNL     1      -9.408   0.268 -12.666  1.00  0.00     0.293 HD
ENDBRANCH  15  22
TORSDOF 3
ENDMDL
MODEL 2
REMARK VINA RESULT:    -6.320     17.697     18.523
REMARK INTER + INTRA:          -6.874
REMARK INTER:                  -6.874
REMARK INTRA:                   0.000
REMARK UNBOUND:                 0.000
REMARK SMILES Cc1cc(O)c2c(c1)C(=O)c1cc(O)cc(O)c1C2=O
REMARK SMILES IDX 1 1 2 2 8 3 7 4 6 5 4 6 3 7 19 8 20 9 18 10 11 11 9 12 10 13
REMARK SMILES IDX 12 14 13 15 15 16 16 17 5 18 17 20 14 22
REMARK H PARENT 5 19 17 21 14 23
REMARK Flexibility Score: inf
ROOT
ATOM      1  C   UNL     1     -27.867   0.265 -21.685  1.00  0.00     0.044 C 
ATOM      2  C   UNL     1     -27.765   1.759 -21.788  1.00  0.00    -0.047 A 
ATOM      3  C   UNL     1     -27.995   2.560 -20.664  1.00  0.00     0.016 A 
ATOM      4  C   UNL     1     -27.859   3.956 -20.739  1.00  0.00     0.038 A 
ATOM      5  C   UNL     1     -27.459   4.559 -21.953  1.00  0.00     0.076 A 
ATOM      6  C   UNL     1     -27.271   3.747 -23.100  1.00  0.00     0.127 A 
ATOM      7  C   UNL     1     -27.393   2.358 -22.996  1.00  0.00     0.050 A 
ATOM      8  C   UNL     1     -27.183   6.020 -21.953  1.00  0.00     0.201 C 
ATOM      9  O   UNL     1     -26.327   6.497 -22.745  1.00  0.00    -0.288 OA
ATOM     10  C   UNL     1     -27.774   6.882 -20.897  1.00  0.00     0.076 A 
ATOM     11  C   UNL     1     -28.172   6.274 -19.684  1.00  0.00     0.041 A 
ATOM     12  C   UNL     1     -28.136   4.799 -19.552  1.00  0.00     0.194 C 
ATOM     13  O   UNL     1     -28.368   4.260 -18.435  1.00  0.00    -0.289 OA
ATOM     14  C   UNL     1     -28.605   7.073 -18.612  1.00  0.00     0.059 A 
ATOM     15  C   UNL     1     -28.660   8.463 -18.739  1.00  0.00     0.120 A 
ATOM     16  C   UNL     1     -28.306   9.063 -19.947  1.00  0.00     0.093 A 
ATOM     17  C   UNL     1     -27.890   8.290 -21.036  1.00  0.00     0.131 A 
ENDROOT
BRANCH   6  18
ATOM     18  O   UNL     1     -26.995   4.276 -24.363  1.00  0.00    -0.507 OA
ATOM     19  H   UNL     1     -26.093   4.644 -24.630  1.00  0.00     0.293 HD
ENDBRANCH   6  18
BRANCH  17  20
ATOM     20  O   UNL     1     -27.640   8.954 -22.240  1.00  0.00    -0.507 OA
ATOM     21  H   UNL     1     -28.301   8.995 -23.002  1.00  0.00     0.293 HD
ENDBRANCH  17  20
BRANCH  15  22
ATOM     22  O   UNL     1     -29.077   9.259 -17.675  1.00  0.00    -0.508 OA
ATOM     23  H   UNL     1     -28.489   9.995 -17.301  1.00  0.00     0.293 HD
ENDBRANCH  15  22
TORSDOF 3
ENDMDL
MODEL 3
REMARK VINA RESULT:    -6.296     17.139     18.362
REMARK INTER + INTRA:          -6.848
REMARK INTER:                  -6.848
REMARK INTRA:                   0.000
REMARK UNBOUND:                 0.000
REMARK SMILES Cc1cc(O)c2c(c1)C(=O)c1cc(O)cc(O)c1C2=O
REMARK SMILES IDX 1 1 2 2 8 3 7 4 6 5 4 6 3 7 19 8 20 9 18 10 11 11 9 12 10 13
REMARK SMILES IDX 12 14 13 15 15 16 16 17 5 18 17 20 14 22
REMARK H PARENT 5 19 17 21 14 23
REMARK Flexibility Score: inf
ROOT
ATOM      1  C   UNL     1     -29.125  -0.586 -19.533  1.00  0.00     0.044 C 
ATOM      2  C   UNL     1     -28.756   0.867 -19.596  1.00  0.00    -0.047 A 
ATOM      3  C   UNL     1     -28.527   1.484 -20.830  1.00  0.00     0.016 A 
ATOM      4  C   UNL     1     -28.225   2.854 -20.903  1.00  0.00     0.038 A 
ATOM      5  C   UNL     1     -28.176   3.626 -19.721  1.00  0.00     0.076 A 
ATOM      6  C   UNL     1     -28.364   2.988 -18.468  1.00  0.00     0.127 A 
ATOM      7  C   UNL     1     -28.683   1.627 -18.423  1.00  0.00     0.050 A 
ATOM      8  C   UNL     1     -28.000   5.096 -19.850  1.00  0.00     0.201 C 
ATOM      9  O   UNL     1     -28.499   5.867 -18.987  1.00  0.00    -0.288 OA
ATOM     10  C   UNL     1     -27.404   5.662 -21.088  1.00  0.00     0.076 A 
ATOM     11  C   UNL     1     -27.454   4.885 -22.268  1.00  0.00     0.041 A 
ATOM     12  C   UNL     1     -27.952   3.491 -22.213  1.00  0.00     0.194 C 
ATOM     13  O   UNL     1     -28.120   2.838 -23.280  1.00  0.00    -0.289 OA
ATOM     14  C   UNL     1     -27.027   5.439 -23.487  1.00  0.00     0.059 A 
ATOM     15  C   UNL     1     -26.538   6.746 -23.540  1.00  0.00     0.120 A 
ATOM     16  C   UNL     1     -26.449   7.502 -22.371  1.00  0.00     0.093 A 
ATOM     17  C   UNL     1     -26.849   6.968 -21.142  1.00  0.00     0.131 A 
ENDROOT
BRANCH   6  18
ATOM     18  O   UNL     1     -28.212   3.654 -17.250  1.00  0.00    -0.507 OA
ATOM     19  H   UNL     1     -28.115   3.180 -16.362  1.00  0.00     0.293 HD
ENDBRANCH   6  18
BRANCH  17  20
ATOM     20  O   UNL     1     -26.645   7.750 -20.002  1.00  0.00    -0.507 OA
ATOM     21  H   UNL     1     -27.328   8.404 -19.645  1.00  0.00     0.293 HD
ENDBRANCH  17  20
BRANCH  15  22
ATOM     22  O   UNL     1     -26.125   7.303 -24.749  1.00  0.00    -0.508 OA
ATOM     23  H   UNL     1     -25.216   7.094 -25.146  1.00  0.00     0.293 HD
ENDBRANCH  15  22
TORSDOF 3
ENDMDL
MODEL 4
REMARK VINA RESULT:    -6.147     17.515     19.266
REMARK INTER + INTRA:          -6.686
REMARK INTER:                  -6.686
REMARK INTRA:                   0.000
REMARK UNBOUND:                 0.000
REMARK SMILES Cc1cc(O)c2c(c1)C(=O)c1cc(O)cc(O)c1C2=O
REMARK SMILES IDX 1 1 2 2 8 3 7 4 6 5 4 6 3 7 19 8 20 9 18 10 11 11 9 12 10 13
REMARK SMILES IDX 12 14 13 15 15 16 16 17 5 18 17 20 14 22
REMARK H PARENT 5 19 17 21 14 23
REMARK Flexibility Score: inf
ROOT
ATOM      1  C   UNL     1     -28.366   4.511 -18.466  1.00  0.00     0.044 C 
ATOM      2  C   UNL     1     -28.047   5.419 -19.617  1.00  0.00    -0.047 A 
ATOM      3  C   UNL     1     -28.380   6.777 -19.558  1.00  0.00     0.016 A 
ATOM      4  C   UNL     1     -28.046   7.644 -20.611  1.00  0.00     0.038 A 
ATOM      5  C   UNL     1     -27.342   7.149 -21.733  1.00  0.00     0.076 A 
ATOM      6  C   UNL     1     -27.047   5.764 -21.809  1.00  0.00     0.127 A 
ATOM      7  C   UNL     1     -27.372   4.925 -20.739  1.00  0.00     0.050 A 
ATOM      8  C   UNL     1     -26.878   8.123 -22.755  1.00  0.00     0.201 C 
ATOM      9  O   UNL     1     -25.829   7.890 -23.413  1.00  0.00    -0.288 OA
ATOM     10  C   UNL     1     -27.540   9.449 -22.866  1.00  0.00     0.076 A 
ATOM     11  C   UNL     1     -28.243   9.940 -21.741  1.00  0.00     0.041 A 
ATOM     12  C   UNL     1     -28.431   9.074 -20.554  1.00  0.00     0.194 C 
ATOM     13  O   UNL     1     -28.944   9.548 -19.503  1.00  0.00    -0.289 OA
ATOM     14  C   UNL     1     -28.763  11.245 -21.758  1.00  0.00     0.059 A 
ATOM     15  C   UNL     1     -28.606  12.057 -22.884  1.00  0.00     0.120 A 
ATOM     16  C   UNL     1     -27.948  11.562 -24.010  1.00  0.00     0.093 A 
ATOM     17  C   UNL     1     -27.437  10.260 -24.026  1.00  0.00     0.131 A 
ENDROOT
BRANCH   6  18
ATOM     18  O   UNL     1     -26.465   5.176 -22.934  1.00  0.00    -0.507 OA
ATOM     19  H   UNL     1     -26.811   4.329 -23.364  1.00  0.00     0.293 HD
ENDBRANCH   6  18
BRANCH  17  20
ATOM     20  O   UNL     1     -26.873   9.804 -25.220  1.00  0.00    -0.507 OA
ATOM     21  H   UNL     1     -25.925   9.462 -25.294  1.00  0.00     0.293 HD
ENDBRANCH  17  20
BRANCH  15  22
ATOM     22  O   UNL     1     -29.109  13.356 -22.900  1.00  0.00    -0.508 OA
ATOM     23  H   UNL     1     -29.707  13.683 -23.650  1.00  0.00     0.293 HD
ENDBRANCH  15  22
TORSDOF 3
ENDMDL
MODEL 5
REMARK VINA RESULT:    -6.108      1.624      6.074
REMARK INTER + INTRA:          -6.643
REMARK INTER:                  -6.643
REMARK INTRA:                   0.000
REMARK UNBOUND:                 0.000
REMARK SMILES Cc1cc(O)c2c(c1)C(=O)c1cc(O)cc(O)c1C2=O
REMARK SMILES IDX 1 1 2 2 8 3 7 4 6 5 4 6 3 7 19 8 20 9 18 10 11 11 9 12 10 13
REMARK SMILES IDX 12 14 13 15 15 16 16 17 5 18 17 20 14 22
REMARK H PARENT 5 19 17 21 14 23
REMARK Flexibility Score: inf
ROOT
ATOM      1  C   UNL     1      -8.875   1.390 -12.494  1.00  0.00     0.044 C 
ATOM      2  C   UNL     1      -9.686   2.419 -13.227  1.00  0.00    -0.047 A 
ATOM      3  C   UNL     1      -9.531   3.778 -12.934  1.00  0.00     0.016 A 
ATOM      4  C   UNL     1     -10.253   4.751 -13.645  1.00  0.00     0.038 A 
ATOM      5  C   UNL     1     -11.125   4.359 -14.686  1.00  0.00     0.076 A 
ATOM      6  C   UNL     1     -11.312   2.978 -14.948  1.00  0.00     0.127 A 
ATOM      7  C   UNL     1     -10.568   2.029 -14.241  1.00  0.00     0.050 A 
ATOM      8  C   UNL     1     -11.756   5.423 -15.510  1.00  0.00     0.201 C 
ATOM      9  O   UNL     1     -12.039   5.196 -16.717  1.00  0.00    -0.288 OA
ATOM     10  C   UNL     1     -11.877   6.801 -14.969  1.00  0.00     0.076 A 
ATOM     11  C   UNL     1     -11.003   7.189 -13.928  1.00  0.00     0.041 A 
ATOM     12  C   UNL     1     -10.107   6.187 -13.306  1.00  0.00     0.194 C 
ATOM     13  O   UNL     1      -9.237   6.552 -12.468  1.00  0.00    -0.289 OA
ATOM     14  C   UNL     1     -10.993   8.523 -13.486  1.00  0.00     0.059 A 
ATOM     15  C   UNL     1     -11.850   9.466 -14.056  1.00  0.00     0.120 A 
ATOM     16  C   UNL     1     -12.742   9.079 -15.055  1.00  0.00     0.093 A 
ATOM     17  C   UNL     1     -12.787   7.753 -15.500  1.00  0.00     0.131 A 
ENDROOT
BRANCH   6  18
ATOM     18  O   UNL     1     -12.244   2.504 -15.875  1.00  0.00    -0.507 OA
ATOM     19  H   UNL     1     -12.015   2.280 -16.833  1.00  0.00     0.293 HD
ENDBRANCH   6  18
BRANCH  17  20
ATOM     20  O   UNL     1     -13.768   7.421 -16.438  1.00  0.00    -0.507 OA
ATOM     21  H   UNL     1     -13.821   6.521 -16.894  1.00  0.00     0.293 HD
ENDBRANCH  17  20
BRANCH  15  22
ATOM     22  O   UNL     1     -11.834  10.792 -13.628  1.00  0.00    -0.508 OA
ATOM     23  H   UNL     1     -12.662  11.237 -13.249  1.00  0.00     0.293 HD
ENDBRANCH  15  22
TORSDOF 3
ENDMDL
MODEL 6
REMARK VINA RESULT:    -6.014     17.364     18.923
REMARK INTER + INTRA:          -6.541
REMARK INTER:                  -6.541
REMARK INTRA:                   0.000
REMARK UNBOUND:                 0.000
REMARK SMILES Cc1cc(O)c2c(c1)C(=O)c1cc(O)cc(O)c1C2=O
REMARK SMILES IDX 1 1 2 2 8 3 7 4 6 5 4 6 3 7 19 8 20 9 18 10 11 11 9 12 10 13
REMARK SMILES IDX 12 14 13 15 15 16 16 17 5 18 17 20 14 22
REMARK H PARENT 5 19 17 21 14 23
REMARK Flexibility Score: inf
ROOT
ATOM      1  C   UNL     1     -28.480  13.576 -24.000  1.00  0.00     0.044 C 
ATOM      2  C   UNL     1     -28.209  12.115 -23.793  1.00  0.00    -0.047 A 
ATOM      3  C   UNL     1     -28.501  11.511 -22.566  1.00  0.00     0.016 A 
ATOM      4  C   UNL     1     -28.292  10.135 -22.376  1.00  0.00     0.038 A 
ATOM      5  C   UNL     1     -27.808   9.343 -23.442  1.00  0.00     0.076 A 
ATOM      6  C   UNL     1     -27.472   9.968 -24.670  1.00  0.00     0.127 A 
ATOM      7  C   UNL     1     -27.706  11.335 -24.841  1.00  0.00     0.050 A 
ATOM      8  C   UNL     1     -27.742   7.871 -23.248  1.00  0.00     0.201 C 
ATOM      9  O   UNL     1     -27.886   7.101 -24.235  1.00  0.00    -0.288 OA
ATOM     10  C   UNL     1     -27.694   7.309 -21.874  1.00  0.00     0.076 A 
ATOM     11  C   UNL     1     -28.179   8.104 -20.810  1.00  0.00     0.041 A 
ATOM     12  C   UNL     1     -28.573   9.510 -21.061  1.00  0.00     0.194 C 
ATOM     13  O   UNL     1     -29.125  10.183 -20.147  1.00  0.00    -0.289 OA
ATOM     14  C   UNL     1     -28.280   7.558 -19.520  1.00  0.00     0.059 A 
ATOM     15  C   UNL     1     -27.890   6.239 -19.275  1.00  0.00     0.120 A 
ATOM     16  C   UNL     1     -27.374   5.464 -20.313  1.00  0.00     0.093 A 
ATOM     17  C   UNL     1     -27.244   5.990 -21.603  1.00  0.00     0.131 A 
ENDROOT
BRANCH   6  18
ATOM     18  O   UNL     1     -26.875   9.280 -25.729  1.00  0.00    -0.507 OA
ATOM     19  H   UNL     1     -27.362   8.602 -26.300  1.00  0.00     0.293 HD
ENDBRANCH   6  18
BRANCH  17  20
ATOM     20  O   UNL     1     -26.635   5.185 -22.569  1.00  0.00    -0.507 OA
ATOM     21  H   UNL     1     -27.058   4.349 -22.946  1.00  0.00     0.293 HD
ENDBRANCH  17  20
BRANCH  15  22
ATOM     22  O   UNL     1     -28.000   5.690 -17.999  1.00  0.00    -0.508 OA
ATOM     23  H   UNL     1     -27.259   5.787 -17.314  1.00  0.00     0.293 HD
ENDBRANCH  15  22
TORSDOF 3
ENDMDL
MODEL 7
REMARK VINA RESULT:    -5.958     17.886     18.988
REMARK INTER + INTRA:          -6.481
REMARK INTER:                  -6.481
REMARK INTRA:                   0.000
REMARK UNBOUND:                 0.000
REMARK SMILES Cc1cc(O)c2c(c1)C(=O)c1cc(O)cc(O)c1C2=O
REMARK SMILES IDX 1 1 2 2 8 3 7 4 6 5 4 6 3 7 19 8 20 9 18 10 11 11 9 12 10 13
REMARK SMILES IDX 12 14 13 15 15 16 16 17 5 18 17 20 14 22
REMARK H PARENT 5 19 17 21 14 23
REMARK Flexibility Score: inf
ROOT
ATOM      1  C   UNL     1     -28.186   6.836 -19.124  1.00  0.00     0.044 C 
ATOM      2  C   UNL     1     -28.145   5.470 -19.744  1.00  0.00    -0.047 A 
ATOM      3  C   UNL     1     -27.813   5.318 -21.095  1.00  0.00     0.016 A 
ATOM      4  C   UNL     1     -27.729   4.041 -21.673  1.00  0.00     0.038 A 
ATOM      5  C   UNL     1     -27.956   2.893 -20.880  1.00  0.00     0.076 A 
ATOM      6  C   UNL     1     -28.336   3.054 -19.523  1.00  0.00     0.127 A 
ATOM      7  C   UNL     1     -28.394   4.335 -18.965  1.00  0.00     0.050 A 
ATOM      8  C   UNL     1     -27.713   1.560 -21.490  1.00  0.00     0.201 C 
ATOM      9  O   UNL     1     -27.338   0.598 -20.768  1.00  0.00    -0.288 OA
ATOM     10  C   UNL     1     -27.730   1.411 -22.968  1.00  0.00     0.076 A 
ATOM     11  C   UNL     1     -27.503   2.561 -23.758  1.00  0.00     0.041 A 
ATOM     12  C   UNL     1     -27.408   3.891 -23.112  1.00  0.00     0.194 C 
ATOM     13  O   UNL     1     -27.079   4.901 -23.794  1.00  0.00    -0.289 OA
ATOM     14  C   UNL     1     -27.373   2.437 -25.152  1.00  0.00     0.059 A 
ATOM     15  C   UNL     1     -27.482   1.187 -25.766  1.00  0.00     0.120 A 
ATOM     16  C   UNL     1     -27.746   0.056 -24.994  1.00  0.00     0.093 A 
ATOM     17  C   UNL     1     -27.899   0.154 -23.608  1.00  0.00     0.131 A 
ENDROOT
BRANCH   6  18
ATOM     18  O   UNL     1     -28.696   1.980 -18.707  1.00  0.00    -0.507 OA
ATOM     19  H   UNL     1     -28.051   1.256 -18.419  1.00  0.00     0.293 HD
ENDBRANCH   6  18
BRANCH  17  20
ATOM     20  O   UNL     1     -28.252  -1.006 -22.914  1.00  0.00    -0.507 OA
ATOM     21  H   UNL     1     -29.202  -1.238 -22.662  1.00  0.00     0.293 HD
ENDBRANCH  17  20
BRANCH  15  22
ATOM     22  O   UNL     1     -27.342   1.059 -27.146  1.00  0.00    -0.508 OA
ATOM     23  H   UNL     1     -27.289   0.149 -27.591  1.00  0.00     0.293 HD
ENDBRANCH  15  22
TORSDOF 3
ENDMDL
MODEL 8
REMARK VINA RESULT:    -5.827     17.621     18.080
REMARK INTER + INTRA:          -6.337
REMARK INTER:                  -6.337
REMARK INTRA:                   0.000
REMARK UNBOUND:                 0.000
REMARK SMILES Cc1cc(O)c2c(c1)C(=O)c1cc(O)cc(O)c1C2=O
REMARK SMILES IDX 1 1 2 2 8 3 7 4 6 5 4 6 3 7 19 8 20 9 18 10 11 11 9 12 10 13
REMARK SMILES IDX 12 14 13 15 15 16 16 17 5 18 17 20 14 22
REMARK H PARENT 5 19 17 21 14 23
REMARK Flexibility Score: inf
ROOT
ATOM      1  C   UNL     1     -26.988   9.758 -22.151  1.00  0.00     0.044 C 
ATOM      2  C   UNL     1     -27.161   8.269 -22.079  1.00  0.00    -0.047 A 
ATOM      3  C   UNL     1     -27.537   7.661 -20.876  1.00  0.00     0.016 A 
ATOM      4  C   UNL     1     -27.745   6.273 -20.809  1.00  0.00     0.038 A 
ATOM      5  C   UNL     1     -27.600   5.483 -21.971  1.00  0.00     0.076 A 
ATOM      6  C   UNL     1     -27.175   6.097 -23.177  1.00  0.00     0.127 A 
ATOM      7  C   UNL     1     -26.993   7.483 -23.224  1.00  0.00     0.050 A 
ATOM      8  C   UNL     1     -27.972   4.046 -21.894  1.00  0.00     0.201 C 
ATOM      9  O   UNL     1     -28.412   3.455 -22.916  1.00  0.00    -0.288 OA
ATOM     10  C   UNL     1     -28.003   3.362 -20.575  1.00  0.00     0.076 A 
ATOM     11  C   UNL     1     -28.148   4.157 -19.414  1.00  0.00     0.041 A 
ATOM     12  C   UNL     1     -28.112   5.634 -19.523  1.00  0.00     0.194 C 
ATOM     13  O   UNL     1     -28.368   6.347 -18.513  1.00  0.00    -0.289 OA
ATOM     14  C   UNL     1     -28.322   3.540 -18.163  1.00  0.00     0.059 A 
ATOM     15  C   UNL     1     -28.336   2.148 -18.054  1.00  0.00     0.120 A 
ATOM     16  C   UNL     1     -28.153   1.361 -19.191  1.00  0.00     0.093 A 
ATOM     17  C   UNL     1     -27.959   1.949 -20.445  1.00  0.00     0.131 A 
ENDROOT
BRANCH   6  18
ATOM     18  O   UNL     1     -26.891   5.371 -24.335  1.00  0.00    -0.507 OA
ATOM     19  H   UNL     1     -27.035   5.730 -25.269  1.00  0.00     0.293 HD
ENDBRANCH   6  18
BRANCH  17  20
ATOM     20  O   UNL     1     -27.692   1.099 -21.521  1.00  0.00    -0.507 OA
ATOM     21  H   UNL     1     -28.411   0.632 -22.055  1.00  0.00     0.293 HD
ENDBRANCH  17  20
BRANCH  15  22
ATOM     22  O   UNL     1     -28.520   1.533 -16.818  1.00  0.00    -0.508 OA
ATOM     23  H   UNL     1     -29.418   1.546 -16.348  1.00  0.00     0.293 HD
ENDBRANCH  15  22
TORSDOF 3
ENDMDL
MODEL 9
REMARK VINA RESULT:    -5.752     17.970     19.143
REMARK INTER + INTRA:          -6.257
REMARK INTER:                  -6.257
REMARK INTRA:                   0.000
REMARK UNBOUND:                 0.000
REMARK SMILES Cc1cc(O)c2c(c1)C(=O)c1cc(O)cc(O)c1C2=O
REMARK SMILES IDX 1 1 2 2 8 3 7 4 6 5 4 6 3 7 19 8 20 9 18 10 11 11 9 12 10 13
REMARK SMILES IDX 12 14 13 15 15 16 16 17 5 18 17 20 14 22
REMARK H PARENT 5 19 17 21 14 23
REMARK Flexibility Score: inf
ROOT
ATOM      1  C   UNL     1     -28.357   1.714 -19.065  1.00  0.00     0.044 C 
ATOM      2  C   UNL     1     -28.260   2.934 -19.934  1.00  0.00    -0.047 A 
ATOM      3  C   UNL     1     -28.373   4.210 -19.373  1.00  0.00     0.016 A 
ATOM      4  C   UNL     1     -28.240   5.359 -20.171  1.00  0.00     0.038 A 
ATOM      5  C   UNL     1     -27.962   5.228 -21.550  1.00  0.00     0.076 A 
ATOM      6  C   UNL     1     -27.892   3.933 -22.122  1.00  0.00     0.127 A 
ATOM      7  C   UNL     1     -28.009   2.804 -21.304  1.00  0.00     0.050 A 
ATOM      8  C   UNL     1     -27.681   6.463 -22.329  1.00  0.00     0.201 C 
ATOM      9  O   UNL     1     -26.907   6.416 -23.322  1.00  0.00    -0.288 OA
ATOM     10  C   UNL     1     -28.160   7.777 -21.827  1.00  0.00     0.076 A 
ATOM     11  C   UNL     1     -28.438   7.903 -20.446  1.00  0.00     0.041 A 
ATOM     12  C   UNL     1     -28.394   6.706 -19.573  1.00  0.00     0.194 C 
ATOM     13  O   UNL     1     -28.514   6.833 -18.323  1.00  0.00    -0.289 OA
ATOM     14  C   UNL     1     -28.758   9.162 -19.910  1.00  0.00     0.059 A 
ATOM     15  C   UNL     1     -28.820  10.288 -20.734  1.00  0.00     0.120 A 
ATOM     16  C   UNL     1     -28.586  10.161 -22.103  1.00  0.00     0.093 A 
ATOM     17  C   UNL     1     -28.284   8.916 -22.664  1.00  0.00     0.131 A 
ENDROOT
BRANCH   6  18
ATOM     18  O   UNL     1     -27.743   3.719 -23.495  1.00  0.00    -0.507 OA
ATOM     19  H   UNL     1     -26.856   3.780 -23.976  1.00  0.00     0.293 HD
ENDBRANCH   6  18
BRANCH  17  20
ATOM     20  O   UNL     1     -28.153   8.851 -24.054  1.00  0.00    -0.507 OA
ATOM     21  H   UNL     1     -28.879   9.134 -24.697  1.00  0.00     0.293 HD
ENDBRANCH  17  20
BRANCH  15  22
ATOM     22  O   UNL     1     -29.125  11.540 -20.204  1.00  0.00    -0.508 OA
ATOM     23  H   UNL     1     -28.609  12.370 -20.473  1.00  0.00     0.293 HD
ENDBRANCH  15  22
TORSDOF 3
ENDMDL
