MODEL 1
REMARK VINA RESULT:    -6.037      0.000      0.000
REMARK INTER + INTRA:         -13.148
REMARK INTER:                 -10.978
REMARK INTRA:                  -2.170
REMARK UNBOUND:                -2.170
REMARK SMILES CCCCCC=CCC=CCCCCCCCC(=O)[O-]
REMARK SMILES IDX 11 1 12 2 13 3 14 4 15 5 16 6 17 7 18 8 19 9 20 10 10 11
REMARK SMILES IDX 9 12 8 13 7 14 6 15 5 16 4 17 3 18 2 19 1 20
REMARK H PARENT
REMARK Flexibility Score: inf
ROOT
ATOM      1  C   UNL     1       1.971  27.758  42.888  1.00  0.00     0.027 C 
ENDROOT
BRANCH   1   2
ATOM      2  C   UNL     1       1.482  26.503  43.627  1.00  0.00     0.004 C 
BRANCH   2   3
ATOM      3  C   UNL     1       2.613  25.496  43.892  1.00  0.00     0.000 C 
BRANCH   3   4
ATOM      4  C   UNL     1       3.882  25.804  43.084  1.00  0.00     0.000 C 
BRANCH   4   5
ATOM      5  C   UNL     1       5.127  25.249  43.786  1.00  0.00     0.000 C 
BRANCH   5   6
ATOM      6  C   UNL     1       4.766  24.621  45.138  1.00  0.00     0.006 C 
BRANCH   6   7
ATOM      7  C   UNL     1       5.605  23.369  45.405  1.00  0.00     0.053 C 
BRANCH   7   8
ATOM      8  C   UNL     1       5.379  22.348  44.335  1.00  0.00     0.041 C 
ATOM      9  O   UNL     1       6.358  21.827  43.739  1.00  0.00    -0.550 OA
ATOM     10  O   UNL     1       4.089  21.935  44.030  1.00  0.00    -0.550 OA
ENDBRANCH   7   8
ENDBRANCH   6   7
ENDBRANCH   5   6
ENDBRANCH   4   5
ENDBRANCH   3   4
ENDBRANCH   2   3
ENDBRANCH   1   2
BRANCH   1  11
ATOM     11  C   UNL     1       0.981  28.191  41.842  1.00  0.00    -0.031 C 
ATOM     12  C   UNL     1       1.008  29.426  41.317  1.00  0.00    -0.027 C 
BRANCH  12  13
ATOM     13  C   UNL     1       0.011  29.862  40.280  1.00  0.00     0.054 C 
BRANCH  13  14
ATOM     14  C   UNL     1      -1.301  29.138  40.446  1.00  0.00    -0.027 C 
ATOM     15  C   UNL     1      -2.337  29.591  41.176  1.00  0.00    -0.031 C 
BRANCH  15  16
ATOM     16  C   UNL     1      -2.370  30.927  41.878  1.00  0.00     0.027 C 
BRANCH  16  17
ATOM     17  C   UNL     1      -2.389  30.772  43.406  1.00  0.00     0.004 C 
BRANCH  17  18
ATOM     18  C   UNL     1      -1.004  31.000  44.029  1.00  0.00     0.000 C 
BRANCH  18  19
ATOM     19  C   UNL     1      -0.548  29.768  44.818  1.00  0.00    -0.003 C 
ATOM     20  C   UNL     1      -1.611  28.674  44.795  1.00  0.00     0.004 C 
ENDBRANCH  18  19
ENDBRANCH  17  18
ENDBRANCH  16  17
ENDBRANCH  15  16
ENDBRANCH  13  14
ENDBRANCH  12  13
ENDBRANCH   1  11
TORSDOF 14
ENDMDL
MODEL 2
REMARK VINA RESULT:    -5.976      1.217      2.954
REMARK INTER + INTRA:         -13.036
REMARK INTER:                 -11.179
REMARK INTRA:                  -1.857
REMARK UNBOUND:                -2.170
REMARK SMILES CCCCCC=CCC=CCCCCCCCC(=O)[O-]
REMARK SMILES IDX 11 1 12 2 13 3 14 4 15 5 16 6 17 7 18 8 19 9 20 10 10 11
REMARK SMILES IDX 9 12 8 13 7 14 6 15 5 16 4 17 3 18 2 19 1 20
REMARK H PARENT
REMARK Flexibility Score: inf
ROOT
ATOM      1  C   UNL     1       0.881  26.772  43.611  1.00  0.00     0.027 C 
ENDROOT
BRANCH   1   2
ATOM      2  C   UNL     1       2.177  27.183  42.896  1.00  0.00     0.004 C 
BRANCH   2   3
ATOM      3  C   UNL     1       3.277  26.117  43.010  1.00  0.00     0.000 C 
BRANCH   3   4
ATOM      4  C   UNL     1       2.988  25.082  44.107  1.00  0.00     0.000 C 
BRANCH   4   5
ATOM      5  C   UNL     1       3.503  23.695  43.702  1.00  0.00     0.000 C 
BRANCH   5   6
ATOM      6  C   UNL     1       4.219  23.008  44.871  1.00  0.00     0.006 C 
BRANCH   6   7
ATOM      7  C   UNL     1       4.466  21.527  44.571  1.00  0.00     0.053 C 
BRANCH   7   8
ATOM      8  C   UNL     1       5.908  21.290  44.251  1.00  0.00     0.041 C 
ATOM      9  O   UNL     1       6.321  20.124  44.016  1.00  0.00    -0.550 OA
ATOM     10  O   UNL     1       6.787  22.362  44.166  1.00  0.00    -0.550 OA
ENDBRANCH   7   8
ENDBRANCH   6   7
ENDBRANCH   5   6
ENDBRANCH   4   5
ENDBRANCH   3   4
ENDBRANCH   2   3
ENDBRANCH   1   2
BRANCH   1  11
ATOM     11  C   UNL     1       0.117  27.978  44.085  1.00  0.00    -0.031 C 
ATOM     12  C   UNL     1      -1.159  27.886  44.491  1.00  0.00    -0.027 C 
BRANCH  12  13
ATOM     13  C   UNL     1      -1.926  29.094  44.954  1.00  0.00     0.054 C 
BRANCH  13  14
ATOM     14  C   UNL     1      -1.137  30.359  44.733  1.00  0.00    -0.027 C 
ATOM     15  C   UNL     1      -1.334  31.212  43.710  1.00  0.00    -0.031 C 
BRANCH  15  16
ATOM     16  C   UNL     1      -2.423  31.071  42.674  1.00  0.00     0.027 C 
BRANCH  16  17
ATOM     17  C   UNL     1      -1.853  30.763  41.281  1.00  0.00     0.004 C 
BRANCH  17  18
ATOM     18  C   UNL     1      -1.889  29.261  40.960  1.00  0.00     0.000 C 
BRANCH  18  19
ATOM     19  C   UNL     1      -0.505  28.759  40.534  1.00  0.00    -0.003 C 
ATOM     20  C   UNL     1       0.524  29.884  40.564  1.00  0.00     0.004 C 
ENDBRANCH  18  19
ENDBRANCH  17  18
ENDBRANCH  16  17
ENDBRANCH  15  16
ENDBRANCH  13  14
ENDBRANCH  12  13
ENDBRANCH   1  11
TORSDOF 14
ENDMDL
MODEL 3
REMARK VINA RESULT:    -5.950      3.408      9.291
REMARK INTER + INTRA:         -12.989
REMARK INTER:                 -10.966
REMARK INTRA:                  -2.023
REMARK UNBOUND:                -2.170
REMARK SMILES CCCCCC=CCC=CCCCCCCCC(=O)[O-]
REMARK SMILES IDX 11 1 12 2 13 3 14 4 15 5 16 6 17 7 18 8 19 9 20 10 10 11
REMARK SMILES IDX 9 12 8 13 7 14 6 15 5 16 4 17 3 18 2 19 1 20
REMARK H PARENT
REMARK Flexibility Score: inf
ROOT
ATOM      1  C   UNL     1       4.360  24.760  44.838  1.00  0.00     0.027 C 
ENDROOT
BRANCH   1   2
ATOM      2  C   UNL     1       4.659  25.486  43.517  1.00  0.00     0.004 C 
BRANCH   2   3
ATOM      3  C   UNL     1       3.410  26.141  42.908  1.00  0.00     0.000 C 
BRANCH   3   4
ATOM      4  C   UNL     1       2.138  25.862  43.722  1.00  0.00     0.000 C 
BRANCH   4   5
ATOM      5  C   UNL     1       1.167  27.046  43.645  1.00  0.00     0.000 C 
BRANCH   5   6
ATOM      6  C   UNL     1       1.580  28.028  42.542  1.00  0.00     0.006 C 
BRANCH   6   7
ATOM      7  C   UNL     1       0.439  28.996  42.212  1.00  0.00     0.053 C 
BRANCH   7   8
ATOM      8  C   UNL     1       0.051  28.878  40.773  1.00  0.00     0.041 C 
ATOM      9  O   UNL     1      -1.153  29.008  40.429  1.00  0.00    -0.550 OA
ATOM     10  O   UNL     1       1.025  28.673  39.804  1.00  0.00    -0.550 OA
ENDBRANCH   7   8
ENDBRANCH   6   7
ENDBRANCH   5   6
ENDBRANCH   4   5
ENDBRANCH   3   4
ENDBRANCH   2   3
ENDBRANCH   1   2
BRANCH   1  11
ATOM     11  C   UNL     1       4.278  23.272  44.632  1.00  0.00    -0.031 C 
ATOM     12  C   UNL     1       5.045  22.422  45.334  1.00  0.00    -0.027 C 
BRANCH  12  13
ATOM     13  C   UNL     1       4.971  20.936  45.119  1.00  0.00     0.054 C 
BRANCH  13  14
ATOM     14  C   UNL     1       6.317  20.372  44.742  1.00  0.00    -0.027 C 
ATOM     15  C   UNL     1       6.736  20.179  43.477  1.00  0.00    -0.031 C 
BRANCH  15  16
ATOM     16  C   UNL     1       5.954  20.567  42.246  1.00  0.00     0.027 C 
BRANCH  16  17
ATOM     17  C   UNL     1       6.306  21.982  41.764  1.00  0.00     0.004 C 
BRANCH  17  18
ATOM     18  C   UNL     1       7.743  22.379  42.136  1.00  0.00     0.000 C 
BRANCH  18  19
ATOM     19  C   UNL     1       7.790  23.803  42.700  1.00  0.00    -0.003 C 
ATOM     20  C   UNL     1       8.286  23.809  44.143  1.00  0.00     0.004 C 
ENDBRANCH  18  19
ENDBRANCH  17  18
ENDBRANCH  16  17
ENDBRANCH  15  16
ENDBRANCH  13  14
ENDBRANCH  12  13
ENDBRANCH   1  11
TORSDOF 14
ENDMDL
MODEL 4
REMARK VINA RESULT:    -5.938      8.347     11.289
REMARK INTER + INTRA:         -12.968
REMARK INTER:                 -11.061
REMARK INTRA:                  -1.907
REMARK UNBOUND:                -2.170
REMARK SMILES CCCCCC=CCC=CCCCCCCCC(=O)[O-]
REMARK SMILES IDX 11 1 12 2 13 3 14 4 15 5 16 6 17 7 18 8 19 9 20 10 10 11
REMARK SMILES IDX 9 12 8 13 7 14 6 15 5 16 4 17 3 18 2 19 1 20
REMARK H PARENT
REMARK Flexibility Score: inf
ROOT
ATOM      1  C   UNL     1       9.639  21.207  45.171  1.00  0.00     0.027 C 
ENDROOT
BRANCH   1   2
ATOM      2  C   UNL     1      10.460  19.946  45.484  1.00  0.00     0.004 C 
BRANCH   2   3
ATOM      3  C   UNL     1       9.934  18.703  44.750  1.00  0.00     0.000 C 
BRANCH   3   4
ATOM      4  C   UNL     1      11.027  17.651  44.508  1.00  0.00     0.000 C 
BRANCH   4   5
ATOM      5  C   UNL     1      11.987  17.572  45.700  1.00  0.00     0.000 C 
BRANCH   5   6
ATOM      6  C   UNL     1      12.816  16.282  45.658  1.00  0.00     0.006 C 
BRANCH   6   7
ATOM      7  C   UNL     1      12.527  15.483  44.384  1.00  0.00     0.053 C 
BRANCH   7   8
ATOM      8  C   UNL     1      13.613  14.486  44.133  1.00  0.00     0.041 C 
ATOM      9  O   UNL     1      14.320  14.569  43.094  1.00  0.00    -0.550 OA
ATOM     10  O   UNL     1      13.876  13.494  45.068  1.00  0.00    -0.550 OA
ENDBRANCH   7   8
ENDBRANCH   6   7
ENDBRANCH   5   6
ENDBRANCH   4   5
ENDBRANCH   3   4
ENDBRANCH   2   3
ENDBRANCH   1   2
BRANCH   1  11
ATOM     11  C   UNL     1       8.202  21.032  45.578  1.00  0.00    -0.031 C 
ATOM     12  C   UNL     1       7.426  22.083  45.884  1.00  0.00    -0.027 C 
BRANCH  12  13
ATOM     13  C   UNL     1       5.992  21.908  46.302  1.00  0.00     0.054 C 
BRANCH  13  14
ATOM     14  C   UNL     1       5.052  22.519  45.295  1.00  0.00    -0.027 C 
ATOM     15  C   UNL     1       4.645  21.912  44.164  1.00  0.00    -0.031 C 
BRANCH  15  16
ATOM     16  C   UNL     1       5.010  20.502  43.769  1.00  0.00     0.027 C 
BRANCH  16  17
ATOM     17  C   UNL     1       6.072  20.472  42.661  1.00  0.00     0.004 C 
BRANCH  17  18
ATOM     18  C   UNL     1       6.242  21.841  41.986  1.00  0.00     0.000 C 
BRANCH  18  19
ATOM     19  C   UNL     1       7.689  22.334  42.102  1.00  0.00    -0.003 C 
ATOM     20  C   UNL     1       7.742  23.791  42.551  1.00  0.00     0.004 C 
ENDBRANCH  18  19
ENDBRANCH  17  18
ENDBRANCH  16  17
ENDBRANCH  15  16
ENDBRANCH  13  14
ENDBRANCH  12  13
ENDBRANCH   1  11
TORSDOF 14
ENDMDL
MODEL 5
REMARK VINA RESULT:    -5.884      3.823      9.322
REMARK INTER + INTRA:         -12.870
REMARK INTER:                 -10.928
REMARK INTRA:                  -1.942
REMARK UNBOUND:                -2.170
REMARK SMILES CCCCCC=CCC=CCCCCCCCC(=O)[O-]
REMARK SMILES IDX 11 1 12 2 13 3 14 4 15 5 16 6 17 7 18 8 19 9 20 10 10 11
REMARK SMILES IDX 9 12 8 13 7 14 6 15 5 16 4 17 3 18 2 19 1 20
REMARK H PARENT
REMARK Flexibility Score: inf
ROOT
ATOM      1  C   UNL     1       3.206  24.490  44.258  1.00  0.00     0.027 C 
ENDROOT
BRANCH   1   2
ATOM      2  C   UNL     1       3.829  25.435  43.219  1.00  0.00     0.004 C 
BRANCH   2   3
ATOM      3  C   UNL     1       2.896  26.596  42.843  1.00  0.00     0.000 C 
BRANCH   3   4
ATOM      4  C   UNL     1       1.574  26.571  43.625  1.00  0.00     0.000 C 
BRANCH   4   5
ATOM      5  C   UNL     1       0.538  27.500  42.980  1.00  0.00     0.000 C 
BRANCH   5   6
ATOM      6  C   UNL     1       1.002  27.970  41.596  1.00  0.00     0.006 C 
BRANCH   6   7
ATOM      7  C   UNL     1       1.129  29.495  41.547  1.00  0.00     0.053 C 
BRANCH   7   8
ATOM      8  C   UNL     1      -0.218  30.137  41.653  1.00  0.00     0.041 C 
ATOM      9  O   UNL     1      -0.443  30.991  42.550  1.00  0.00    -0.550 OA
ATOM     10  O   UNL     1      -1.210  29.828  40.732  1.00  0.00    -0.550 OA
ENDBRANCH   7   8
ENDBRANCH   6   7
ENDBRANCH   5   6
ENDBRANCH   4   5
ENDBRANCH   3   4
ENDBRANCH   2   3
ENDBRANCH   1   2
BRANCH   1  11
ATOM     11  C   UNL     1       4.269  23.768  45.040  1.00  0.00    -0.031 C 
ATOM     12  C   UNL     1       4.374  22.430  45.013  1.00  0.00    -0.027 C 
BRANCH  12  13
ATOM     13  C   UNL     1       5.429  21.707  45.803  1.00  0.00     0.054 C 
BRANCH  13  14
ATOM     14  C   UNL     1       6.261  22.670  46.611  1.00  0.00    -0.027 C 
ATOM     15  C   UNL     1       7.472  23.129  46.241  1.00  0.00    -0.031 C 
BRANCH  15  16
ATOM     16  C   UNL     1       8.146  22.807  44.929  1.00  0.00     0.027 C 
BRANCH  16  17
ATOM     17  C   UNL     1       8.188  24.022  43.992  1.00  0.00     0.004 C 
BRANCH  17  18
ATOM     18  C   UNL     1       7.208  23.882  42.818  1.00  0.00     0.000 C 
BRANCH  18  19
ATOM     19  C   UNL     1       7.351  22.512  42.145  1.00  0.00    -0.003 C 
ATOM     20  C   UNL     1       5.987  21.915  41.813  1.00  0.00     0.004 C 
ENDBRANCH  18  19
ENDBRANCH  17  18
ENDBRANCH  16  17
ENDBRANCH  15  16
ENDBRANCH  13  14
ENDBRANCH  12  13
ENDBRANCH   1  11
TORSDOF 14
ENDMDL
MODEL 6
REMARK VINA RESULT:    -5.883      8.435     11.589
REMARK INTER + INTRA:         -12.867
REMARK INTER:                 -11.005
REMARK INTRA:                  -1.862
REMARK UNBOUND:                -2.170
REMARK SMILES CCCCCC=CCC=CCCCCCCCC(=O)[O-]
REMARK SMILES IDX 11 1 12 2 13 3 14 4 15 5 16 6 17 7 18 8 19 9 20 10 10 11
REMARK SMILES IDX 9 12 8 13 7 14 6 15 5 16 4 17 3 18 2 19 1 20
REMARK H PARENT
REMARK Flexibility Score: inf
ROOT
ATOM      1  C   UNL     1       9.376  19.740  43.757  1.00  0.00     0.027 C 
ENDROOT
BRANCH   1   2
ATOM      2  C   UNL     1       9.959  18.471  44.398  1.00  0.00     0.004 C 
BRANCH   2   3
ATOM      3  C   UNL     1      11.015  18.783  45.469  1.00  0.00     0.000 C 
BRANCH   3   4
ATOM      4  C   UNL     1      11.854  17.554  45.852  1.00  0.00     0.000 C 
BRANCH   4   5
ATOM      5  C   UNL     1      11.751  16.465  44.778  1.00  0.00     0.000 C 
BRANCH   5   6
ATOM      6  C   UNL     1      13.120  16.175  44.152  1.00  0.00     0.006 C 
BRANCH   6   7
ATOM      7  C   UNL     1      13.314  14.672  43.925  1.00  0.00     0.053 C 
BRANCH   7   8
ATOM      8  C   UNL     1      14.339  14.128  44.869  1.00  0.00     0.041 C 
ATOM      9  O   UNL     1      14.660  12.912  44.822  1.00  0.00    -0.550 OA
ATOM     10  O   UNL     1      14.975  14.973  45.769  1.00  0.00    -0.550 OA
ENDBRANCH   7   8
ENDBRANCH   6   7
ENDBRANCH   5   6
ENDBRANCH   4   5
ENDBRANCH   3   4
ENDBRANCH   2   3
ENDBRANCH   1   2
BRANCH   1  11
ATOM     11  C   UNL     1       7.874  19.681  43.709  1.00  0.00    -0.031 C 
ATOM     12  C   UNL     1       7.156  20.604  43.050  1.00  0.00    -0.027 C 
BRANCH  12  13
ATOM     13  C   UNL     1       5.654  20.552  43.012  1.00  0.00     0.054 C 
BRANCH  13  14
ATOM     14  C   UNL     1       5.051  21.851  43.484  1.00  0.00    -0.027 C 
ATOM     15  C   UNL     1       4.626  22.083  44.741  1.00  0.00    -0.031 C 
BRANCH  15  16
ATOM     16  C   UNL     1       4.756  21.106  45.884  1.00  0.00     0.027 C 
BRANCH  16  17
ATOM     17  C   UNL     1       6.092  21.264  46.624  1.00  0.00     0.004 C 
BRANCH  17  18
ATOM     18  C   UNL     1       6.601  22.713  46.597  1.00  0.00     0.000 C 
BRANCH  18  19
ATOM     19  C   UNL     1       8.052  22.776  46.106  1.00  0.00    -0.003 C 
ATOM     20  C   UNL     1       8.178  23.658  44.869  1.00  0.00     0.004 C 
ENDBRANCH  18  19
ENDBRANCH  17  18
ENDBRANCH  16  17
ENDBRANCH  15  16
ENDBRANCH  13  14
ENDBRANCH  12  13
ENDBRANCH   1  11
TORSDOF 14
ENDMDL
MODEL 7
REMARK VINA RESULT:    -5.867      8.742     11.541
REMARK INTER + INTRA:         -12.838
REMARK INTER:                 -11.111
REMARK INTRA:                  -1.726
REMARK UNBOUND:                -2.170
REMARK SMILES CCCCCC=CCC=CCCCCCCCC(=O)[O-]
REMARK SMILES IDX 11 1 12 2 13 3 14 4 15 5 16 6 17 7 18 8 19 9 20 10 10 11
REMARK SMILES IDX 9 12 8 13 7 14 6 15 5 16 4 17 3 18 2 19 1 20
REMARK H PARENT
REMARK Flexibility Score: inf
ROOT
ATOM      1  C   UNL     1      10.000  20.666  45.049  1.00  0.00     0.027 C 
ENDROOT
BRANCH   1   2
ATOM      2  C   UNL     1      10.341  19.263  45.576  1.00  0.00     0.004 C 
BRANCH   2   3
ATOM      3  C   UNL     1      10.444  18.220  44.452  1.00  0.00     0.000 C 
BRANCH   3   4
ATOM      4  C   UNL     1      11.481  17.127  44.750  1.00  0.00     0.000 C 
BRANCH   4   5
ATOM      5  C   UNL     1      12.428  17.562  45.874  1.00  0.00     0.000 C 
BRANCH   5   6
ATOM      6  C   UNL     1      12.855  16.365  46.732  1.00  0.00     0.006 C 
BRANCH   6   7
ATOM      7  C   UNL     1      14.246  16.587  47.334  1.00  0.00     0.053 C 
BRANCH   7   8
ATOM      8  C   UNL     1      15.231  15.625  46.747  1.00  0.00     0.041 C 
ATOM      9  O   UNL     1      15.441  15.613  45.506  1.00  0.00    -0.550 OA
ATOM     10  O   UNL     1      15.952  14.776  47.576  1.00  0.00    -0.550 OA
ENDBRANCH   7   8
ENDBRANCH   6   7
ENDBRANCH   5   6
ENDBRANCH   4   5
ENDBRANCH   3   4
ENDBRANCH   2   3
ENDBRANCH   1   2
BRANCH   1  11
ATOM     11  C   UNL     1       8.892  20.609  44.034  1.00  0.00    -0.031 C 
ATOM     12  C   UNL     1       8.331  21.725  43.543  1.00  0.00    -0.027 C 
BRANCH  12  13
ATOM     13  C   UNL     1       7.216  21.667  42.536  1.00  0.00     0.054 C 
BRANCH  13  14
ATOM     14  C   UNL     1       6.370  20.434  42.729  1.00  0.00    -0.027 C 
ATOM     15  C   UNL     1       5.300  20.361  43.543  1.00  0.00    -0.031 C 
BRANCH  15  16
ATOM     16  C   UNL     1       4.742  21.523  44.329  1.00  0.00     0.027 C 
BRANCH  16  17
ATOM     17  C   UNL     1       4.751  21.250  45.840  1.00  0.00     0.004 C 
BRANCH  17  18
ATOM     18  C   UNL     1       6.105  21.590  46.482  1.00  0.00     0.000 C 
BRANCH  18  19
ATOM     19  C   UNL     1       6.279  23.107  46.623  1.00  0.00    -0.003 C 
ATOM     20  C   UNL     1       7.751  23.501  46.563  1.00  0.00     0.004 C 
ENDBRANCH  18  19
ENDBRANCH  17  18
ENDBRANCH  16  17
ENDBRANCH  15  16
ENDBRANCH  13  14
ENDBRANCH  12  13
ENDBRANCH   1  11
TORSDOF 14
ENDMDL
MODEL 8
REMARK VINA RESULT:    -5.834      8.264     11.241
REMARK INTER + INTRA:         -12.778
REMARK INTER:                 -10.726
REMARK INTRA:                  -2.052
REMARK UNBOUND:                -2.170
REMARK SMILES CCCCCC=CCC=CCCCCCCCC(=O)[O-]
REMARK SMILES IDX 11 1 12 2 13 3 14 4 15 5 16 6 17 7 18 8 19 9 20 10 10 11
REMARK SMILES IDX 9 12 8 13 7 14 6 15 5 16 4 17 3 18 2 19 1 20
REMARK H PARENT
REMARK Flexibility Score: inf
ROOT
ATOM      1  C   UNL     1       8.348  19.997  45.956  1.00  0.00     0.027 C 
ENDROOT
BRANCH   1   2
ATOM      2  C   UNL     1       8.576  19.084  44.742  1.00  0.00     0.004 C 
BRANCH   2   3
ATOM      3  C   UNL     1      10.048  19.043  44.303  1.00  0.00     0.000 C 
BRANCH   3   4
ATOM      4  C   UNL     1      10.967  18.426  45.367  1.00  0.00     0.000 C 
BRANCH   4   5
ATOM      5  C   UNL     1      11.626  17.144  44.845  1.00  0.00     0.000 C 
BRANCH   5   6
ATOM      6  C   UNL     1      12.271  16.349  45.988  1.00  0.00     0.006 C 
BRANCH   6   7
ATOM      7  C   UNL     1      13.321  15.371  45.453  1.00  0.00     0.053 C 
BRANCH   7   8
ATOM      8  C   UNL     1      14.379  15.122  46.481  1.00  0.00     0.041 C 
ATOM      9  O   UNL     1      15.484  15.720  46.409  1.00  0.00    -0.550 OA
ATOM     10  O   UNL     1      14.126  14.267  47.546  1.00  0.00    -0.550 OA
ENDBRANCH   7   8
ENDBRANCH   6   7
ENDBRANCH   5   6
ENDBRANCH   4   5
ENDBRANCH   3   4
ENDBRANCH   2   3
ENDBRANCH   1   2
BRANCH   1  11
ATOM     11  C   UNL     1       8.527  21.444  45.588  1.00  0.00    -0.031 C 
ATOM     12  C   UNL     1       7.622  22.374  45.931  1.00  0.00    -0.027 C 
BRANCH  12  13
ATOM     13  C   UNL     1       7.796  23.819  45.552  1.00  0.00     0.054 C 
BRANCH  13  14
ATOM     14  C   UNL     1       6.723  24.264  44.591  1.00  0.00    -0.027 C 
ATOM     15  C   UNL     1       6.870  24.318  43.254  1.00  0.00    -0.031 C 
BRANCH  15  16
ATOM     16  C   UNL     1       8.105  23.873  42.510  1.00  0.00     0.027 C 
BRANCH  16  17
ATOM     17  C   UNL     1       8.017  22.401  42.081  1.00  0.00     0.004 C 
BRANCH  17  18
ATOM     18  C   UNL     1       6.573  21.972  41.777  1.00  0.00     0.000 C 
BRANCH  18  19
ATOM     19  C   UNL     1       6.248  20.631  42.445  1.00  0.00    -0.003 C 
ATOM     20  C   UNL     1       5.234  20.808  43.571  1.00  0.00     0.004 C 
ENDBRANCH  18  19
ENDBRANCH  17  18
ENDBRANCH  16  17
ENDBRANCH  15  16
ENDBRANCH  13  14
ENDBRANCH  12  13
ENDBRANCH   1  11
TORSDOF 14
ENDMDL
MODEL 9
REMARK VINA RESULT:    -5.825      3.439      9.193
REMARK INTER + INTRA:         -12.762
REMARK INTER:                 -10.464
REMARK INTRA:                  -2.298
REMARK UNBOUND:                -2.170
REMARK SMILES CCCCCC=CCC=CCCCCCCCC(=O)[O-]
REMARK SMILES IDX 11 1 12 2 13 3 14 4 15 5 16 6 17 7 18 8 19 9 20 10 10 11
REMARK SMILES IDX 9 12 8 13 7 14 6 15 5 16 4 17 3 18 2 19 1 20
REMARK H PARENT
REMARK Flexibility Score: inf
ROOT
ATOM      1  C   UNL     1       3.660  23.112  44.149  1.00  0.00     0.027 C 
ENDROOT
BRANCH   1   2
ATOM      2  C   UNL     1       4.109  24.466  44.719  1.00  0.00     0.004 C 
BRANCH   2   3
ATOM      3  C   UNL     1       4.641  25.416  43.634  1.00  0.00     0.000 C 
BRANCH   3   4
ATOM      4  C   UNL     1       3.536  25.916  42.691  1.00  0.00     0.000 C 
BRANCH   4   5
ATOM      5  C   UNL     1       2.318  26.404  43.483  1.00  0.00     0.000 C 
BRANCH   5   6
ATOM      6  C   UNL     1       1.732  27.679  42.866  1.00  0.00     0.006 C 
BRANCH   6   7
ATOM      7  C   UNL     1       0.228  27.528  42.615  1.00  0.00     0.053 C 
BRANCH   7   8
ATOM      8  C   UNL     1      -0.552  28.342  43.598  1.00  0.00     0.041 C 
ATOM      9  O   UNL     1       0.010  28.803  44.626  1.00  0.00    -0.550 OA
ATOM     10  O   UNL     1      -1.888  28.632  43.356  1.00  0.00    -0.550 OA
ENDBRANCH   7   8
ENDBRANCH   6   7
ENDBRANCH   5   6
ENDBRANCH   4   5
ENDBRANCH   3   4
ENDBRANCH   2   3
ENDBRANCH   1   2
BRANCH   1  11
ATOM     11  C   UNL     1       4.709  22.531  43.241  1.00  0.00    -0.031 C 
ATOM     12  C   UNL     1       5.109  21.255  43.355  1.00  0.00    -0.027 C 
BRANCH  12  13
ATOM     13  C   UNL     1       6.166  20.678  42.454  1.00  0.00     0.054 C 
BRANCH  13  14
ATOM     14  C   UNL     1       7.455  20.451  43.202  1.00  0.00    -0.027 C 
ATOM     15  C   UNL     1       8.474  21.329  43.249  1.00  0.00    -0.031 C 
BRANCH  15  16
ATOM     16  C   UNL     1       8.452  22.703  42.623  1.00  0.00     0.027 C 
BRANCH  16  17
ATOM     17  C   UNL     1       8.059  23.789  43.635  1.00  0.00     0.004 C 
BRANCH  17  18
ATOM     18  C   UNL     1       8.537  23.456  45.056  1.00  0.00     0.000 C 
BRANCH  18  19
ATOM     19  C   UNL     1       7.418  23.685  46.079  1.00  0.00    -0.003 C 
ATOM     20  C   UNL     1       6.730  22.375  46.447  1.00  0.00     0.004 C 
ENDBRANCH  18  19
ENDBRANCH  17  18
ENDBRANCH  16  17
ENDBRANCH  15  16
ENDBRANCH  13  14
ENDBRANCH  12  13
ENDBRANCH   1  11
TORSDOF 14
ENDMDL
