MODEL 1
REMARK VINA RESULT:    -6.458      0.000      0.000
REMARK INTER + INTRA:          -9.770
REMARK INTER:                  -8.913
REMARK INTRA:                  -0.858
REMARK UNBOUND:                -0.858
REMARK SMILES CCCCc1cccc(O)c1CCCC
REMARK SMILES IDX 5 1 11 2 9 3 8 4 7 5 6 6 4 7 3 8 2 9 1 10 12 11 13 12 14 13
REMARK SMILES IDX 15 14 10 15
REMARK H PARENT 10 16
REMARK Flexibility Score: inf
ROOT
ATOM      1  C   UNL     1      37.296  -6.687 106.878  1.00  0.00    -0.041 A 
ATOM      2  C   UNL     1      37.614  -8.076 106.811  1.00  0.00    -0.003 A 
ATOM      3  C   UNL     1      37.768  -8.681 105.533  1.00  0.00     0.119 A 
ATOM      4  C   UNL     1      37.677  -7.905 104.375  1.00  0.00     0.046 A 
ATOM      5  C   UNL     1      37.413  -6.542 104.452  1.00  0.00     0.004 A 
ATOM      6  C   UNL     1      37.220  -5.938 105.691  1.00  0.00     0.004 A 
ENDROOT
BRANCH   1   7
ATOM      7  C   UNL     1      37.079  -5.953 108.184  1.00  0.00     0.036 C 
BRANCH   7   8
ATOM      8  C   UNL     1      35.640  -5.422 108.277  1.00  0.00     0.004 C 
BRANCH   8   9
ATOM      9  C   UNL     1      35.057  -5.543 109.693  1.00  0.00    -0.003 C 
ATOM     10  C   UNL     1      35.244  -6.937 110.293  1.00  0.00     0.004 C 
ENDBRANCH   8   9
ENDBRANCH   7   8
ENDBRANCH   1   7
BRANCH   2  11
ATOM     11  C   UNL     1      37.753  -8.911 108.071  1.00  0.00     0.040 C 
BRANCH  11  12
ATOM     12  C   UNL     1      36.460  -9.685 108.359  1.00  0.00     0.005 C 
BRANCH  12  13
ATOM     13  C   UNL     1      36.734 -11.188 108.477  1.00  0.00    -0.003 C 
ATOM     14  C   UNL     1      35.673 -11.877 109.331  1.00  0.00     0.004 C 
ENDBRANCH  12  13
ENDBRANCH  11  12
ENDBRANCH   2  11
BRANCH   3  15
ATOM     15  O   UNL     1      38.004 -10.050 105.369  1.00  0.00    -0.508 OA
ATOM     16  H   UNL     1      38.792 -10.435 104.869  1.00  0.00     0.293 HD
ENDBRANCH   3  15
TORSDOF 7
ENDMDL
MODEL 2
REMARK VINA RESULT:    -6.405      9.465     12.261
REMARK INTER + INTRA:          -9.696
REMARK INTER:                  -8.988
REMARK INTRA:                  -0.708
REMARK UNBOUND:                -0.858
REMARK SMILES CCCCc1cccc(O)c1CCCC
REMARK SMILES IDX 5 1 11 2 9 3 8 4 7 5 6 6 4 7 3 8 2 9 1 10 12 11 13 12 14 13
REMARK SMILES IDX 15 14 10 15
REMARK H PARENT 10 16
REMARK Flexibility Score: inf
ROOT
ATOM      1  C   UNL     1      38.639   1.084 104.846  1.00  0.00    -0.041 A 
ATOM      2  C   UNL     1      39.221   2.386 104.867  1.00  0.00    -0.003 A 
ATOM      3  C   UNL     1      39.457   3.010 106.123  1.00  0.00     0.119 A 
ATOM      4  C   UNL     1      39.185   2.321 107.308  1.00  0.00     0.046 A 
ATOM      5  C   UNL     1      38.661   1.034 107.278  1.00  0.00     0.004 A 
ATOM      6  C   UNL     1      38.387   0.420 106.060  1.00  0.00     0.004 A 
ENDROOT
BRANCH   1   7
ATOM      7  C   UNL     1      38.317   0.346 103.564  1.00  0.00     0.036 C 
BRANCH   7   8
ATOM      8  C   UNL     1      36.911   0.712 103.065  1.00  0.00     0.004 C 
BRANCH   8   9
ATOM      9  C   UNL     1      36.929   1.358 101.671  1.00  0.00    -0.003 C 
ATOM     10  C   UNL     1      35.545   1.414 101.027  1.00  0.00     0.004 C 
ENDBRANCH   8   9
ENDBRANCH   7   8
ENDBRANCH   1   7
BRANCH   2  11
ATOM     11  C   UNL     1      39.553   3.118 103.579  1.00  0.00     0.040 C 
BRANCH  11  12
ATOM     12  C   UNL     1      38.478   4.162 103.250  1.00  0.00     0.005 C 
BRANCH  12  13
ATOM     13  C   UNL     1      39.101   5.545 103.035  1.00  0.00    -0.003 C 
ATOM     14  C   UNL     1      38.177   6.445 102.220  1.00  0.00     0.004 C 
ENDBRANCH  12  13
ENDBRANCH  11  12
ENDBRANCH   2  11
BRANCH   3  15
ATOM     15  O   UNL     1      39.951   4.313 106.239  1.00  0.00    -0.508 OA
ATOM     16  H   UNL     1      39.930   4.996 105.496  1.00  0.00     0.293 HD
ENDBRANCH   3  15
TORSDOF 7
ENDMDL
MODEL 3
REMARK VINA RESULT:    -6.287      9.380     11.302
REMARK INTER + INTRA:          -9.534
REMARK INTER:                  -8.586
REMARK INTRA:                  -0.948
REMARK UNBOUND:                -0.858
REMARK SMILES CCCCc1cccc(O)c1CCCC
REMARK SMILES IDX 5 1 11 2 9 3 8 4 7 5 6 6 4 7 3 8 2 9 1 10 12 11 13 12 14 13
REMARK SMILES IDX 15 14 10 15
REMARK H PARENT 10 16
REMARK Flexibility Score: inf
ROOT
ATOM      1  C   UNL     1      38.337   1.969 103.378  1.00  0.00    -0.041 A 
ATOM      2  C   UNL     1      39.067   2.408 104.523  1.00  0.00    -0.003 A 
ATOM      3  C   UNL     1      39.346   3.796 104.664  1.00  0.00     0.119 A 
ATOM      4  C   UNL     1      38.848   4.708 103.730  1.00  0.00     0.046 A 
ATOM      5  C   UNL     1      38.098   4.275 102.643  1.00  0.00     0.004 A 
ATOM      6  C   UNL     1      37.846   2.918 102.465  1.00  0.00     0.004 A 
ENDROOT
BRANCH   1   7
ATOM      7  C   UNL     1      38.016   0.513 103.116  1.00  0.00     0.036 C 
BRANCH   7   8
ATOM      8  C   UNL     1      38.778   0.001 101.884  1.00  0.00     0.004 C 
BRANCH   8   9
ATOM      9  C   UNL     1      40.300  -0.015 102.097  1.00  0.00    -0.003 C 
ATOM     10  C   UNL     1      40.763  -1.187 102.962  1.00  0.00     0.004 C 
ENDBRANCH   8   9
ENDBRANCH   7   8
ENDBRANCH   1   7
BRANCH   2  11
ATOM     11  C   UNL     1      39.573   1.420 105.558  1.00  0.00     0.040 C 
BRANCH  11  12
ATOM     12  C   UNL     1      38.532   1.209 106.666  1.00  0.00     0.005 C 
BRANCH  12  13
ATOM     13  C   UNL     1      39.061   1.699 108.018  1.00  0.00    -0.003 C 
ATOM     14  C   UNL     1      38.291   1.067 109.174  1.00  0.00     0.004 C 
ENDBRANCH  12  13
ENDBRANCH  11  12
ENDBRANCH   2  11
BRANCH   3  15
ATOM     15  O   UNL     1      40.119   4.308 105.711  1.00  0.00    -0.508 OA
ATOM     16  H   UNL     1      40.930   3.847 106.097  1.00  0.00     0.293 HD
ENDBRANCH   3  15
TORSDOF 7
ENDMDL
MODEL 4
REMARK VINA RESULT:    -6.259      1.912      4.997
REMARK INTER + INTRA:          -9.494
REMARK INTER:                  -8.776
REMARK INTRA:                  -0.719
REMARK UNBOUND:                -0.858
REMARK SMILES CCCCc1cccc(O)c1CCCC
REMARK SMILES IDX 5 1 11 2 9 3 8 4 7 5 6 6 4 7 3 8 2 9 1 10 12 11 13 12 14 13
REMARK SMILES IDX 15 14 10 15
REMARK H PARENT 10 16
REMARK Flexibility Score: inf
ROOT
ATOM      1  C   UNL     1      36.507  -7.376 108.596  1.00  0.00    -0.041 A 
ATOM      2  C   UNL     1      36.847  -6.201 107.861  1.00  0.00    -0.003 A 
ATOM      3  C   UNL     1      36.239  -4.968 108.225  1.00  0.00     0.119 A 
ATOM      4  C   UNL     1      35.383  -4.908 109.328  1.00  0.00     0.046 A 
ATOM      5  C   UNL     1      35.094  -6.050 110.067  1.00  0.00     0.004 A 
ATOM      6  C   UNL     1      35.648  -7.274 109.704  1.00  0.00     0.004 A 
ENDROOT
BRANCH   1   7
ATOM      7  C   UNL     1      37.071  -8.743 108.271  1.00  0.00     0.036 C 
BRANCH   7   8
ATOM      8  C   UNL     1      36.235  -9.848 108.935  1.00  0.00     0.004 C 
BRANCH   8   9
ATOM      9  C   UNL     1      36.687 -11.257 108.523  1.00  0.00    -0.003 C 
ATOM     10  C   UNL     1      35.918 -12.360 109.250  1.00  0.00     0.004 C 
ENDBRANCH   8   9
ENDBRANCH   7   8
ENDBRANCH   1   7
BRANCH   2  11
ATOM     11  C   UNL     1      37.808  -6.260 106.688  1.00  0.00     0.040 C 
BRANCH  11  12
ATOM     12  C   UNL     1      37.045  -6.298 105.357  1.00  0.00     0.005 C 
BRANCH  12  13
ATOM     13  C   UNL     1      37.833  -7.070 104.294  1.00  0.00    -0.003 C 
ATOM     14  C   UNL     1      37.983  -8.540 104.676  1.00  0.00     0.004 C 
ENDBRANCH  12  13
ENDBRANCH  11  12
ENDBRANCH   2  11
BRANCH   3  15
ATOM     15  O   UNL     1      36.452  -3.782 107.514  1.00  0.00    -0.508 OA
ATOM     16  H   UNL     1      36.837  -2.940 107.917  1.00  0.00     0.293 HD
ENDBRANCH   3  15
TORSDOF 7
ENDMDL
MODEL 5
REMARK VINA RESULT:    -6.213      8.664     11.125
REMARK INTER + INTRA:          -9.432
REMARK INTER:                  -8.553
REMARK INTRA:                  -0.879
REMARK UNBOUND:                -0.858
REMARK SMILES CCCCc1cccc(O)c1CCCC
REMARK SMILES IDX 5 1 11 2 9 3 8 4 7 5 6 6 4 7 3 8 2 9 1 10 12 11 13 12 14 13
REMARK SMILES IDX 15 14 10 15
REMARK H PARENT 10 16
REMARK Flexibility Score: inf
ROOT
ATOM      1  C   UNL     1      39.069   2.052 104.805  1.00  0.00    -0.041 A 
ATOM      2  C   UNL     1      38.257   0.984 104.320  1.00  0.00    -0.003 A 
ATOM      3  C   UNL     1      37.725   0.053 105.255  1.00  0.00     0.119 A 
ATOM      4  C   UNL     1      37.941   0.234 106.624  1.00  0.00     0.046 A 
ATOM      5  C   UNL     1      38.695   1.305 107.089  1.00  0.00     0.004 A 
ATOM      6  C   UNL     1      39.257   2.205 106.189  1.00  0.00     0.004 A 
ENDROOT
BRANCH   1   7
ATOM      7  C   UNL     1      39.711   3.077 103.893  1.00  0.00     0.036 C 
BRANCH   7   8
ATOM      8  C   UNL     1      38.981   4.425 103.993  1.00  0.00     0.004 C 
BRANCH   8   9
ATOM      9  C   UNL     1      38.250   4.798 102.694  1.00  0.00    -0.003 C 
ATOM     10  C   UNL     1      38.258   6.302 102.421  1.00  0.00     0.004 C 
ENDBRANCH   8   9
ENDBRANCH   7   8
ENDBRANCH   1   7
BRANCH   2  11
ATOM     11  C   UNL     1      37.990   0.811 102.836  1.00  0.00     0.040 C 
BRANCH  11  12
ATOM     12  C   UNL     1      36.712   1.554 102.422  1.00  0.00     0.005 C 
BRANCH  12  13
ATOM     13  C   UNL     1      35.948   0.775 101.346  1.00  0.00    -0.003 C 
ATOM     14  C   UNL     1      36.353  -0.697 101.339  1.00  0.00     0.004 C 
ENDBRANCH  12  13
ENDBRANCH  11  12
ENDBRANCH   2  11
BRANCH   3  15
ATOM     15  O   UNL     1      36.983  -1.068 104.866  1.00  0.00    -0.508 OA
ATOM     16  H   UNL     1      36.288  -1.062 104.134  1.00  0.00     0.293 HD
ENDBRANCH   3  15
TORSDOF 7
ENDMDL
MODEL 6
REMARK VINA RESULT:    -6.169      9.652     11.379
REMARK INTER + INTRA:          -9.371
REMARK INTER:                  -8.657
REMARK INTRA:                  -0.714
REMARK UNBOUND:                -0.858
REMARK SMILES CCCCc1cccc(O)c1CCCC
REMARK SMILES IDX 5 1 11 2 9 3 8 4 7 5 6 6 4 7 3 8 2 9 1 10 12 11 13 12 14 13
REMARK SMILES IDX 15 14 10 15
REMARK H PARENT 10 16
REMARK Flexibility Score: inf
ROOT
ATOM      1  C   UNL     1      38.393   2.043 103.405  1.00  0.00    -0.041 A 
ATOM      2  C   UNL     1      39.095   2.514 104.555  1.00  0.00    -0.003 A 
ATOM      3  C   UNL     1      39.341   3.910 104.681  1.00  0.00     0.119 A 
ATOM      4  C   UNL     1      38.838   4.798 103.727  1.00  0.00     0.046 A 
ATOM      5  C   UNL     1      38.115   4.334 102.634  1.00  0.00     0.004 A 
ATOM      6  C   UNL     1      37.897   2.969 102.471  1.00  0.00     0.004 A 
ENDROOT
BRANCH   1   7
ATOM      7  C   UNL     1      38.108   0.577 103.158  1.00  0.00     0.036 C 
BRANCH   7   8
ATOM      8  C   UNL     1      36.609   0.349 102.912  1.00  0.00     0.004 C 
BRANCH   8   9
ATOM      9  C   UNL     1      36.311  -0.133 101.484  1.00  0.00    -0.003 C 
ATOM     10  C   UNL     1      37.217  -1.284 101.048  1.00  0.00     0.004 C 
ENDBRANCH   8   9
ENDBRANCH   7   8
ENDBRANCH   1   7
BRANCH   2  11
ATOM     11  C   UNL     1      39.605   1.552 105.611  1.00  0.00     0.040 C 
BRANCH  11  12
ATOM     12  C   UNL     1      38.508   1.233 106.636  1.00  0.00     0.005 C 
BRANCH  12  13
ATOM     13  C   UNL     1      39.073   1.222 108.060  1.00  0.00    -0.003 C 
ATOM     14  C   UNL     1      39.356   2.639 108.552  1.00  0.00     0.004 C 
ENDBRANCH  12  13
ENDBRANCH  11  12
ENDBRANCH   2  11
BRANCH   3  15
ATOM     15  O   UNL     1      40.086   4.453 105.732  1.00  0.00    -0.508 OA
ATOM     16  H   UNL     1      39.947   5.381 106.107  1.00  0.00     0.293 HD
ENDBRANCH   3  15
TORSDOF 7
ENDMDL
MODEL 7
REMARK VINA RESULT:    -6.158      9.012     11.106
REMARK INTER + INTRA:          -9.355
REMARK INTER:                  -8.440
REMARK INTRA:                  -0.916
REMARK UNBOUND:                -0.858
REMARK SMILES CCCCc1cccc(O)c1CCCC
REMARK SMILES IDX 5 1 11 2 9 3 8 4 7 5 6 6 4 7 3 8 2 9 1 10 12 11 13 12 14 13
REMARK SMILES IDX 15 14 10 15
REMARK H PARENT 10 16
REMARK Flexibility Score: inf
ROOT
ATOM      1  C   UNL     1      38.227   2.188 103.250  1.00  0.00    -0.041 A 
ATOM      2  C   UNL     1      38.060   0.887 103.813  1.00  0.00    -0.003 A 
ATOM      3  C   UNL     1      37.029   0.050 103.303  1.00  0.00     0.119 A 
ATOM      4  C   UNL     1      36.249   0.477 102.226  1.00  0.00     0.046 A 
ATOM      5  C   UNL     1      36.451   1.727 101.653  1.00  0.00     0.004 A 
ATOM      6  C   UNL     1      37.428   2.578 102.161  1.00  0.00     0.004 A 
ENDROOT
BRANCH   1   7
ATOM      7  C   UNL     1      39.272   3.169 103.739  1.00  0.00     0.036 C 
BRANCH   7   8
ATOM      8  C   UNL     1      38.656   4.561 103.942  1.00  0.00     0.004 C 
BRANCH   8   9
ATOM      9  C   UNL     1      39.255   5.615 102.997  1.00  0.00    -0.003 C 
ATOM     10  C   UNL     1      38.188   6.422 102.259  1.00  0.00     0.004 C 
ENDBRANCH   8   9
ENDBRANCH   7   8
ENDBRANCH   1   7
BRANCH   2  11
ATOM     11  C   UNL     1      38.935   0.409 104.957  1.00  0.00     0.040 C 
BRANCH  11  12
ATOM     12  C   UNL     1      38.257   0.671 106.309  1.00  0.00     0.005 C 
BRANCH  12  13
ATOM     13  C   UNL     1      38.977   1.784 107.078  1.00  0.00    -0.003 C 
ATOM     14  C   UNL     1      40.431   1.411 107.355  1.00  0.00     0.004 C 
ENDBRANCH  12  13
ENDBRANCH  11  12
ENDBRANCH   2  11
BRANCH   3  15
ATOM     15  O   UNL     1      36.741  -1.207 103.844  1.00  0.00    -0.508 OA
ATOM     16  H   UNL     1      37.298  -1.661 104.554  1.00  0.00     0.293 HD
ENDBRANCH   3  15
TORSDOF 7
ENDMDL
MODEL 8
REMARK VINA RESULT:    -6.060      1.992      4.164
REMARK INTER + INTRA:          -9.220
REMARK INTER:                  -8.633
REMARK INTRA:                  -0.587
REMARK UNBOUND:                -0.858
REMARK SMILES CCCCc1cccc(O)c1CCCC
REMARK SMILES IDX 5 1 11 2 9 3 8 4 7 5 6 6 4 7 3 8 2 9 1 10 12 11 13 12 14 13
REMARK SMILES IDX 15 14 10 15
REMARK H PARENT 10 16
REMARK Flexibility Score: inf
ROOT
ATOM      1  C   UNL     1      36.994  -6.342 106.771  1.00  0.00    -0.041 A 
ATOM      2  C   UNL     1      36.997  -6.853 108.103  1.00  0.00    -0.003 A 
ATOM      3  C   UNL     1      36.573  -6.003 109.162  1.00  0.00     0.119 A 
ATOM      4  C   UNL     1      36.098  -4.720 108.882  1.00  0.00     0.046 A 
ATOM      5  C   UNL     1      36.055  -4.247 107.575  1.00  0.00     0.004 A 
ATOM      6  C   UNL     1      36.501  -5.048 106.528  1.00  0.00     0.004 A 
ENDROOT
BRANCH   1   7
ATOM      7  C   UNL     1      37.456  -7.151 105.577  1.00  0.00     0.036 C 
BRANCH   7   8
ATOM      8  C   UNL     1      37.307  -6.340 104.281  1.00  0.00     0.004 C 
BRANCH   8   9
ATOM      9  C   UNL     1      37.616  -7.171 103.026  1.00  0.00    -0.003 C 
ATOM     10  C   UNL     1      37.839  -8.650 103.338  1.00  0.00     0.004 C 
ENDBRANCH   8   9
ENDBRANCH   7   8
ENDBRANCH   1   7
BRANCH   2  11
ATOM     11  C   UNL     1      37.476  -8.262 108.402  1.00  0.00     0.040 C 
BRANCH  11  12
ATOM     12  C   UNL     1      36.288  -9.197 108.666  1.00  0.00     0.005 C 
BRANCH  12  13
ATOM     13  C   UNL     1      36.630 -10.641 108.283  1.00  0.00    -0.003 C 
ATOM     14  C   UNL     1      35.879 -11.637 109.162  1.00  0.00     0.004 C 
ENDBRANCH  12  13
ENDBRANCH  11  12
ENDBRANCH   2  11
BRANCH   3  15
ATOM     15  O   UNL     1      36.615  -6.392 110.505  1.00  0.00    -0.508 OA
ATOM     16  H   UNL     1      36.423  -7.328 110.832  1.00  0.00     0.293 HD
ENDBRANCH   3  15
TORSDOF 7
ENDMDL
MODEL 9
REMARK VINA RESULT:    -5.995      1.675      4.004
REMARK INTER + INTRA:          -9.131
REMARK INTER:                  -8.315
REMARK INTRA:                  -0.816
REMARK UNBOUND:                -0.858
REMARK SMILES CCCCc1cccc(O)c1CCCC
REMARK SMILES IDX 5 1 11 2 9 3 8 4 7 5 6 6 4 7 3 8 2 9 1 10 12 11 13 12 14 13
REMARK SMILES IDX 15 14 10 15
REMARK H PARENT 10 16
REMARK Flexibility Score: inf
ROOT
ATOM      1  C   UNL     1      37.563  -7.487 106.931  1.00  0.00    -0.041 A 
ATOM      2  C   UNL     1      37.176  -6.114 106.986  1.00  0.00    -0.003 A 
ATOM      3  C   UNL     1      37.049  -5.391 105.767  1.00  0.00     0.119 A 
ATOM      4  C   UNL     1      37.232  -6.042 104.545  1.00  0.00     0.046 A 
ATOM      5  C   UNL     1      37.564  -7.391 104.500  1.00  0.00     0.004 A 
ATOM      6  C   UNL     1      37.731  -8.108 105.681  1.00  0.00     0.004 A 
ENDROOT
BRANCH   1   7
ATOM      7  C   UNL     1      37.759  -8.337 108.168  1.00  0.00     0.036 C 
BRANCH   7   8
ATOM      8  C   UNL     1      36.494  -9.156 108.470  1.00  0.00     0.004 C 
BRANCH   8   9
ATOM      9  C   UNL     1      36.681 -10.654 108.188  1.00  0.00    -0.003 C 
ATOM     10  C   UNL     1      35.867 -11.539 109.132  1.00  0.00     0.004 C 
ENDBRANCH   8   9
ENDBRANCH   7   8
ENDBRANCH   1   7
BRANCH   2  11
ATOM     11  C   UNL     1      36.938  -5.418 108.313  1.00  0.00     0.040 C 
BRANCH  11  12
ATOM     12  C   UNL     1      35.437  -5.217 108.562  1.00  0.00     0.005 C 
BRANCH  12  13
ATOM     13  C   UNL     1      35.112  -5.301 110.057  1.00  0.00    -0.003 C 
ATOM     14  C   UNL     1      34.873  -6.745 110.489  1.00  0.00     0.004 C 
ENDBRANCH  12  13
ENDBRANCH  11  12
ENDBRANCH   2  11
BRANCH   3  15
ATOM     15  O   UNL     1      36.750  -4.026 105.727  1.00  0.00    -0.508 OA
ATOM     16  H   UNL     1      36.055  -3.614 105.121  1.00  0.00     0.293 HD
ENDBRANCH   3  15
TORSDOF 7
ENDMDL
