MODEL 1
REMARK VINA RESULT:    -5.012      0.000      0.000
REMARK INTER + INTRA:          -5.696
REMARK INTER:                  -5.452
REMARK INTRA:                  -0.245
REMARK UNBOUND:                -0.245
REMARK SMILES O=C([O-])c1ccccc1O
REMARK SMILES IDX 4 1 9 2 5 3 8 4 6 5 7 6 2 7 1 8 3 9 10 10
REMARK H PARENT 10 11
REMARK Flexibility Score: inf
ROOT
ATOM      1  C   UNL     1      26.327   6.991   7.306  1.00  0.00     0.039 A 
ATOM      2  C   UNL     1      26.487   6.122   6.196  1.00  0.00     0.124 A 
ATOM      3  C   UNL     1      27.006   6.698   8.504  1.00  0.00     0.014 A 
ATOM      4  C   UNL     1      27.260   4.962   6.331  1.00  0.00     0.047 A 
ATOM      5  C   UNL     1      27.790   5.548   8.614  1.00  0.00     0.001 A 
ATOM      6  C   UNL     1      27.910   4.676   7.532  1.00  0.00     0.004 A 
ENDROOT
BRANCH   1   7
ATOM      7  C   UNL     1      25.442   8.177   7.264  1.00  0.00     0.075 C 
ATOM      8  O   UNL     1      25.646   9.146   8.043  1.00  0.00    -0.545 OA
ATOM      9  O   UNL     1      24.339   8.212   6.420  1.00  0.00    -0.545 OA
ENDBRANCH   1   7
BRANCH   2  10
ATOM     10  O   UNL     1      25.930   6.391   4.944  1.00  0.00    -0.507 OA
ATOM     11  H   UNL     1      26.147   7.218   4.405  1.00  0.00     0.293 HD
ENDBRANCH   2  10
TORSDOF 2
ENDMDL
MODEL 2
REMARK VINA RESULT:    -4.997      1.410      2.552
REMARK INTER + INTRA:          -5.680
REMARK INTER:                  -5.482
REMARK INTRA:                  -0.198
REMARK UNBOUND:                -0.245
REMARK SMILES O=C([O-])c1ccccc1O
REMARK SMILES IDX 4 1 9 2 5 3 8 4 6 5 7 6 2 7 1 8 3 9 10 10
REMARK H PARENT 10 11
REMARK Flexibility Score: inf
ROOT
ATOM      1  C   UNL     1      25.325   7.217   6.555  1.00  0.00     0.039 A 
ATOM      2  C   UNL     1      26.001   7.706   7.702  1.00  0.00     0.124 A 
ATOM      3  C   UNL     1      25.895   6.153   5.831  1.00  0.00     0.014 A 
ATOM      4  C   UNL     1      27.245   7.169   8.055  1.00  0.00     0.047 A 
ATOM      5  C   UNL     1      27.126   5.614   6.209  1.00  0.00     0.001 A 
ATOM      6  C   UNL     1      27.805   6.127   7.314  1.00  0.00     0.004 A 
ENDROOT
BRANCH   1   7
ATOM      7  C   UNL     1      24.059   7.808   6.067  1.00  0.00     0.075 C 
ATOM      8  O   UNL     1      24.026   9.009   5.687  1.00  0.00    -0.545 OA
ATOM      9  O   UNL     1      22.878   7.076   6.086  1.00  0.00    -0.545 OA
ENDBRANCH   1   7
BRANCH   2  10
ATOM     10  O   UNL     1      25.458   8.690   8.532  1.00  0.00    -0.507 OA
ATOM     11  H   UNL     1      24.936   9.484   8.186  1.00  0.00     0.293 HD
ENDBRANCH   2  10
TORSDOF 2
ENDMDL
MODEL 3
REMARK VINA RESULT:    -4.983      1.486      2.047
REMARK INTER + INTRA:          -5.664
REMARK INTER:                  -5.467
REMARK INTRA:                  -0.197
REMARK UNBOUND:                -0.245
REMARK SMILES O=C([O-])c1ccccc1O
REMARK SMILES IDX 4 1 9 2 5 3 8 4 6 5 7 6 2 7 1 8 3 9 10 10
REMARK H PARENT 10 11
REMARK Flexibility Score: inf
ROOT
ATOM      1  C   UNL     1      25.247   7.636   6.740  1.00  0.00     0.039 A 
ATOM      2  C   UNL     1      26.057   6.576   6.257  1.00  0.00     0.124 A 
ATOM      3  C   UNL     1      25.646   8.322   7.903  1.00  0.00     0.014 A 
ATOM      4  C   UNL     1      27.196   6.192   6.976  1.00  0.00     0.047 A 
ATOM      5  C   UNL     1      26.796   7.940   8.596  1.00  0.00     0.001 A 
ATOM      6  C   UNL     1      27.565   6.870   8.138  1.00  0.00     0.004 A 
ENDROOT
BRANCH   1   7
ATOM      7  C   UNL     1      23.977   8.025   6.087  1.00  0.00     0.075 C 
ATOM      8  O   UNL     1      23.025   7.203   6.016  1.00  0.00    -0.545 OA
ATOM      9  O   UNL     1      23.839   9.270   5.485  1.00  0.00    -0.545 OA
ENDBRANCH   1   7
BRANCH   2  10
ATOM     10  O   UNL     1      25.788   5.910   5.060  1.00  0.00    -0.507 OA
ATOM     11  H   UNL     1      26.477   5.365   4.559  1.00  0.00     0.293 HD
ENDBRANCH   2  10
TORSDOF 2
ENDMDL
MODEL 4
REMARK VINA RESULT:    -4.441      1.366      2.180
REMARK INTER + INTRA:          -5.076
REMARK INTER:                  -4.853
REMARK INTRA:                  -0.223
REMARK UNBOUND:                -0.245
REMARK SMILES O=C([O-])c1ccccc1O
REMARK SMILES IDX 4 1 9 2 5 3 8 4 6 5 7 6 2 7 1 8 3 9 10 10
REMARK H PARENT 10 11
REMARK Flexibility Score: inf
ROOT
ATOM      1  C   UNL     1      26.850   7.468   7.956  1.00  0.00     0.039 A 
ATOM      2  C   UNL     1      25.739   7.156   7.132  1.00  0.00     0.124 A 
ATOM      3  C   UNL     1      28.044   6.740   7.793  1.00  0.00     0.014 A 
ATOM      4  C   UNL     1      25.827   6.096   6.222  1.00  0.00     0.047 A 
ATOM      5  C   UNL     1      28.122   5.699   6.865  1.00  0.00     0.001 A 
ATOM      6  C   UNL     1      27.012   5.371   6.087  1.00  0.00     0.004 A 
ENDROOT
BRANCH   1   7
ATOM      7  C   UNL     1      26.792   8.506   9.009  1.00  0.00     0.075 C 
ATOM      8  O   UNL     1      27.848   8.891   9.577  1.00  0.00    -0.545 OA
ATOM      9  O   UNL     1      25.573   9.020   9.434  1.00  0.00    -0.545 OA
ENDBRANCH   1   7
BRANCH   2  10
ATOM     10  O   UNL     1      24.552   7.892   7.160  1.00  0.00    -0.507 OA
ATOM     11  H   UNL     1      23.688   7.571   6.745  1.00  0.00     0.293 HD
ENDBRANCH   2  10
TORSDOF 2
ENDMDL
MODEL 5
REMARK VINA RESULT:    -4.393      2.131      2.917
REMARK INTER + INTRA:          -5.024
REMARK INTER:                  -4.776
REMARK INTRA:                  -0.248
REMARK UNBOUND:                -0.245
REMARK SMILES O=C([O-])c1ccccc1O
REMARK SMILES IDX 4 1 9 2 5 3 8 4 6 5 7 6 2 7 1 8 3 9 10 10
REMARK H PARENT 10 11
REMARK Flexibility Score: inf
ROOT
ATOM      1  C   UNL     1      25.879   8.173   7.815  1.00  0.00     0.039 A 
ATOM      2  C   UNL     1      26.734   7.046   7.923  1.00  0.00     0.124 A 
ATOM      3  C   UNL     1      25.003   8.260   6.716  1.00  0.00     0.014 A 
ATOM      4  C   UNL     1      26.738   6.080   6.909  1.00  0.00     0.047 A 
ATOM      5  C   UNL     1      25.005   7.277   5.724  1.00  0.00     0.001 A 
ATOM      6  C   UNL     1      25.878   6.193   5.816  1.00  0.00     0.004 A 
ENDROOT
BRANCH   1   7
ATOM      7  C   UNL     1      25.897   9.281   8.796  1.00  0.00     0.075 C 
ATOM      8  O   UNL     1      25.833   9.034  10.030  1.00  0.00    -0.545 OA
ATOM      9  O   UNL     1      25.915  10.604   8.374  1.00  0.00    -0.545 OA
ENDBRANCH   1   7
BRANCH   2  10
ATOM     10  O   UNL     1      27.560   6.833   9.028  1.00  0.00    -0.507 OA
ATOM     11  H   UNL     1      28.241   6.087   9.078  1.00  0.00     0.293 HD
ENDBRANCH   2  10
TORSDOF 2
ENDMDL
MODEL 6
REMARK VINA RESULT:    -4.341     14.089     15.027
REMARK INTER + INTRA:          -4.966
REMARK INTER:                  -4.755
REMARK INTRA:                  -0.211
REMARK UNBOUND:                -0.245
REMARK SMILES O=C([O-])c1ccccc1O
REMARK SMILES IDX 4 1 9 2 5 3 8 4 6 5 7 6 2 7 1 8 3 9 10 10
REMARK H PARENT 10 11
REMARK Flexibility Score: inf
ROOT
ATOM      1  C   UNL     1      14.916   2.245  -1.186  1.00  0.00     0.039 A 
ATOM      2  C   UNL     1      16.145   1.691  -1.628  1.00  0.00     0.124 A 
ATOM      3  C   UNL     1      13.716   1.587  -1.514  1.00  0.00     0.014 A 
ATOM      4  C   UNL     1      16.139   0.544  -2.431  1.00  0.00     0.047 A 
ATOM      5  C   UNL     1      13.728   0.431  -2.298  1.00  0.00     0.001 A 
ATOM      6  C   UNL     1      14.938  -0.085  -2.764  1.00  0.00     0.004 A 
ENDROOT
BRANCH   1   7
ATOM      7  C   UNL     1      14.845   3.510  -0.422  1.00  0.00     0.075 C 
ATOM      8  O   UNL     1      15.857   4.257  -0.339  1.00  0.00    -0.545 OA
ATOM      9  O   UNL     1      13.691   3.861   0.268  1.00  0.00    -0.545 OA
ENDBRANCH   1   7
BRANCH   2  10
ATOM     10  O   UNL     1      17.384   2.224  -1.265  1.00  0.00    -0.507 OA
ATOM     11  H   UNL     1      17.496   2.943  -0.563  1.00  0.00     0.293 HD
ENDBRANCH   2  10
TORSDOF 2
ENDMDL
MODEL 7
REMARK VINA RESULT:    -4.326     11.655     13.145
REMARK INTER + INTRA:          -4.951
REMARK INTER:                  -4.702
REMARK INTRA:                  -0.249
REMARK UNBOUND:                -0.245
REMARK SMILES O=C([O-])c1ccccc1O
REMARK SMILES IDX 4 1 9 2 5 3 8 4 6 5 7 6 2 7 1 8 3 9 10 10
REMARK H PARENT 10 11
REMARK Flexibility Score: inf
ROOT
ATOM      1  C   UNL     1      19.480  17.107   7.086  1.00  0.00     0.039 A 
ATOM      2  C   UNL     1      18.436  16.875   8.018  1.00  0.00     0.124 A 
ATOM      3  C   UNL     1      20.312  18.229   7.261  1.00  0.00     0.014 A 
ATOM      4  C   UNL     1      18.212  17.794   9.050  1.00  0.00     0.047 A 
ATOM      5  C   UNL     1      20.089  19.124   8.309  1.00  0.00     0.001 A 
ATOM      6  C   UNL     1      19.034  18.913   9.197  1.00  0.00     0.004 A 
ENDROOT
BRANCH   1   7
ATOM      7  C   UNL     1      19.706  16.232   5.914  1.00  0.00     0.075 C 
ATOM      8  O   UNL     1      19.719  14.980   6.052  1.00  0.00    -0.545 OA
ATOM      9  O   UNL     1      19.976  16.775   4.663  1.00  0.00    -0.545 OA
ENDBRANCH   1   7
BRANCH   2  10
ATOM     10  O   UNL     1      17.629  15.736   7.975  1.00  0.00    -0.507 OA
ATOM     11  H   UNL     1      17.899  14.848   8.375  1.00  0.00     0.293 HD
ENDBRANCH   2  10
TORSDOF 2
ENDMDL
MODEL 8
REMARK VINA RESULT:    -4.297     14.650     16.109
REMARK INTER + INTRA:          -4.918
REMARK INTER:                  -4.669
REMARK INTRA:                  -0.249
REMARK UNBOUND:                -0.245
REMARK SMILES O=C([O-])c1ccccc1O
REMARK SMILES IDX 4 1 9 2 5 3 8 4 6 5 7 6 2 7 1 8 3 9 10 10
REMARK H PARENT 10 11
REMARK Flexibility Score: inf
ROOT
ATOM      1  C   UNL     1      16.853  17.093   0.530  1.00  0.00     0.039 A 
ATOM      2  C   UNL     1      16.427  16.728  -0.773  1.00  0.00     0.124 A 
ATOM      3  C   UNL     1      15.882  17.325   1.523  1.00  0.00     0.014 A 
ATOM      4  C   UNL     1      15.059  16.667  -1.064  1.00  0.00     0.047 A 
ATOM      5  C   UNL     1      14.521  17.240   1.222  1.00  0.00     0.001 A 
ATOM      6  C   UNL     1      14.110  16.920  -0.072  1.00  0.00     0.004 A 
ENDROOT
BRANCH   1   7
ATOM      7  C   UNL     1      18.280  17.276   0.877  1.00  0.00     0.075 C 
ATOM      8  O   UNL     1      19.132  16.418   0.524  1.00  0.00    -0.545 OA
ATOM      9  O   UNL     1      18.691  18.354   1.652  1.00  0.00    -0.545 OA
ENDBRANCH   1   7
BRANCH   2  10
ATOM     10  O   UNL     1      17.324  16.384  -1.788  1.00  0.00    -0.507 OA
ATOM     11  H   UNL     1      17.035  16.012  -2.682  1.00  0.00     0.293 HD
ENDBRANCH   2  10
TORSDOF 2
ENDMDL
MODEL 9
REMARK VINA RESULT:    -4.276     12.450     13.253
REMARK INTER + INTRA:          -4.895
REMARK INTER:                  -4.645
REMARK INTRA:                  -0.250
REMARK UNBOUND:                -0.245
REMARK SMILES O=C([O-])c1ccccc1O
REMARK SMILES IDX 4 1 9 2 5 3 8 4 6 5 7 6 2 7 1 8 3 9 10 10
REMARK H PARENT 10 11
REMARK Flexibility Score: inf
ROOT
ATOM      1  C   UNL     1      19.562  17.982   7.779  1.00  0.00     0.039 A 
ATOM      2  C   UNL     1      18.709  16.884   7.500  1.00  0.00     0.124 A 
ATOM      3  C   UNL     1      20.555  18.328   6.843  1.00  0.00     0.014 A 
ATOM      4  C   UNL     1      18.909  16.129   6.337  1.00  0.00     0.047 A 
ATOM      5  C   UNL     1      20.727  17.578   5.678  1.00  0.00     0.001 A 
ATOM      6  C   UNL     1      19.911  16.474   5.429  1.00  0.00     0.004 A 
ENDROOT
BRANCH   1   7
ATOM      7  C   UNL     1      19.473  18.757   9.037  1.00  0.00     0.075 C 
ATOM      8  O   UNL     1      20.522  19.125   9.629  1.00  0.00    -0.545 OA
ATOM      9  O   UNL     1      18.241  19.030   9.618  1.00  0.00    -0.545 OA
ENDBRANCH   1   7
BRANCH   2  10
ATOM     10  O   UNL     1      17.638  16.535   8.326  1.00  0.00    -0.507 OA
ATOM     11  H   UNL     1      16.710  16.335   7.978  1.00  0.00     0.293 HD
ENDBRANCH   2  10
TORSDOF 2
ENDMDL
