MODEL 1
REMARK VINA RESULT:    -3.088      0.000      0.000
REMARK INTER + INTRA:          -3.088
REMARK INTER:                  -3.088
REMARK INTRA:                   0.000
REMARK UNBOUND:                 0.000
REMARK SMILES CC1=CC(=O)[C@H]2C[C@@H]1C2(C)C
REMARK SMILES IDX 1 1 2 2 3 3 4 4 5 5 6 6 7 7 8 8 9 9 10 10 11 11
REMARK H PARENT
REMARK Flexibility Score: inf
ROOT
ATOM      1  C   UNL     1     -11.057 -21.359  22.166  1.00  0.00     0.040 C 
ATOM      2  C   UNL     1     -10.147 -22.149  23.052  1.00  0.00    -0.066 C 
ATOM      3  C   UNL     1      -9.352 -23.137  22.550  1.00  0.00     0.047 C 
ATOM      4  C   UNL     1      -8.508 -23.877  23.543  1.00  0.00     0.159 C 
ATOM      5  O   UNL     1      -7.764 -24.835  23.211  1.00  0.00    -0.295 OA
ATOM      6  C   UNL     1      -8.618 -23.387  24.988  1.00  0.00     0.067 C 
ATOM      7  C   UNL     1      -8.533 -21.849  24.874  1.00  0.00     0.021 C 
ATOM      8  C   UNL     1     -10.048 -21.876  24.567  1.00  0.00     0.022 C 
ATOM      9  C   UNL     1     -10.123 -23.223  25.343  1.00  0.00    -0.019 C 
ATOM     10  C   UNL     1     -10.352 -23.016  26.862  1.00  0.00     0.012 C 
ATOM     11  C   UNL     1     -11.123 -24.304  24.843  1.00  0.00     0.012 C 
ENDROOT
TORSDOF 0
ENDMDL
MODEL 2
REMARK VINA RESULT:    -2.881      1.652      2.986
REMARK INTER + INTRA:          -2.881
REMARK INTER:                  -2.881
REMARK INTRA:                   0.000
REMARK UNBOUND:                 0.000
REMARK SMILES CC1=CC(=O)[C@H]2C[C@@H]1C2(C)C
REMARK SMILES IDX 1 1 2 2 3 3 4 4 5 5 6 6 7 7 8 8 9 9 10 10 11 11
REMARK H PARENT
REMARK Flexibility Score: inf
ROOT
ATOM      1  C   UNL     1      -7.800 -25.031  22.906  1.00  0.00     0.040 C 
ATOM      2  C   UNL     1      -8.882 -24.052  23.237  1.00  0.00    -0.066 C 
ATOM      3  C   UNL     1      -9.267 -23.094  22.348  1.00  0.00     0.047 C 
ATOM      4  C   UNL     1     -10.340 -22.155  22.809  1.00  0.00     0.159 C 
ATOM      5  O   UNL     1     -10.753 -21.204  22.096  1.00  0.00    -0.295 OA
ATOM      6  C   UNL     1     -10.894 -22.431  24.207  1.00  0.00     0.067 C 
ATOM      7  C   UNL     1     -11.123 -23.958  24.229  1.00  0.00     0.021 C 
ATOM      8  C   UNL     1      -9.626 -24.090  24.589  1.00  0.00     0.022 C 
ATOM      9  C   UNL     1      -9.701 -22.651  25.179  1.00  0.00    -0.019 C 
ATOM     10  C   UNL     1     -10.141 -22.647  26.665  1.00  0.00     0.012 C 
ATOM     11  C   UNL     1      -8.453 -21.734  25.038  1.00  0.00     0.012 C 
ENDROOT
TORSDOF 0
ENDMDL
MODEL 3
REMARK VINA RESULT:    -2.537      1.522      3.501
REMARK INTER + INTRA:          -2.537
REMARK INTER:                  -2.537
REMARK INTRA:                   0.000
REMARK UNBOUND:                 0.000
REMARK SMILES CC1=CC(=O)[C@H]2C[C@@H]1C2(C)C
REMARK SMILES IDX 1 1 2 2 3 3 4 4 5 5 6 6 7 7 8 8 9 9 10 10 11 11
REMARK H PARENT
REMARK Flexibility Score: inf
ROOT
ATOM      1  C   UNL     1     -10.399 -21.594  24.762  1.00  0.00     0.040 C 
ATOM      2  C   UNL     1     -10.022 -22.683  23.807  1.00  0.00    -0.066 C 
ATOM      3  C   UNL     1      -8.867 -23.390  23.959  1.00  0.00     0.047 C 
ATOM      4  C   UNL     1      -8.588 -24.434  22.921  1.00  0.00     0.159 C 
ATOM      5  O   UNL     1      -7.537 -25.125  22.928  1.00  0.00    -0.295 OA
ATOM      6  C   UNL     1      -9.667 -24.597  21.850  1.00  0.00     0.067 C 
ATOM      7  C   UNL     1     -10.991 -24.615  22.647  1.00  0.00     0.021 C 
ATOM      8  C   UNL     1     -10.927 -23.071  22.618  1.00  0.00     0.022 C 
ATOM      9  C   UNL     1     -10.065 -23.188  21.328  1.00  0.00    -0.019 C 
ATOM     10  C   UNL     1     -10.932 -23.256  20.045  1.00  0.00     0.012 C 
ATOM     11  C   UNL     1      -8.939 -22.140  21.099  1.00  0.00     0.012 C 
ENDROOT
TORSDOF 0
ENDMDL
MODEL 4
REMARK VINA RESULT:    -2.494      2.482      4.093
REMARK INTER + INTRA:          -2.494
REMARK INTER:                  -2.494
REMARK INTRA:                   0.000
REMARK UNBOUND:                 0.000
REMARK SMILES CC1=CC(=O)[C@H]2C[C@@H]1C2(C)C
REMARK SMILES IDX 1 1 2 2 3 3 4 4 5 5 6 6 7 7 8 8 9 9 10 10 11 11
REMARK H PARENT
REMARK Flexibility Score: inf
ROOT
ATOM      1  C   UNL     1      -6.218 -25.022  21.148  1.00  0.00     0.040 C 
ATOM      2  C   UNL     1      -7.689 -24.801  21.309  1.00  0.00    -0.066 C 
ATOM      3  C   UNL     1      -8.567 -25.125  20.318  1.00  0.00     0.047 C 
ATOM      4  C   UNL     1     -10.011 -24.828  20.589  1.00  0.00     0.159 C 
ATOM      5  O   UNL     1     -10.912 -25.043  19.738  1.00  0.00    -0.295 OA
ATOM      6  C   UNL     1     -10.310 -24.242  21.969  1.00  0.00     0.067 C 
ATOM      7  C   UNL     1      -9.493 -25.122  22.940  1.00  0.00     0.021 C 
ATOM      8  C   UNL     1      -8.286 -24.216  22.607  1.00  0.00     0.022 C 
ATOM      9  C   UNL     1      -9.301 -23.092  22.249  1.00  0.00    -0.019 C 
ATOM     10  C   UNL     1      -9.700 -22.244  23.484  1.00  0.00     0.012 C 
ATOM     11  C   UNL     1      -8.944 -22.122  21.087  1.00  0.00     0.012 C 
ENDROOT
TORSDOF 0
ENDMDL
MODEL 5
REMARK VINA RESULT:    -2.431      2.439      4.037
REMARK INTER + INTRA:          -2.431
REMARK INTER:                  -2.431
REMARK INTRA:                   0.000
REMARK UNBOUND:                 0.000
REMARK SMILES CC1=CC(=O)[C@H]2C[C@@H]1C2(C)C
REMARK SMILES IDX 1 1 2 2 3 3 4 4 5 5 6 6 7 7 8 8 9 9 10 10 11 11
REMARK H PARENT
REMARK Flexibility Score: inf
ROOT
ATOM      1  C   UNL     1      -6.946 -24.763  21.095  1.00  0.00     0.040 C 
ATOM      2  C   UNL     1      -8.233 -24.214  21.626  1.00  0.00    -0.066 C 
ATOM      3  C   UNL     1      -9.010 -24.935  22.483  1.00  0.00     0.047 C 
ATOM      4  C   UNL     1     -10.290 -24.289  22.919  1.00  0.00     0.159 C 
ATOM      5  O   UNL     1     -11.112 -24.867  23.676  1.00  0.00    -0.295 OA
ATOM      6  C   UNL     1     -10.528 -22.878  22.378  1.00  0.00     0.067 C 
ATOM      7  C   UNL     1      -9.175 -22.161  22.581  1.00  0.00     0.021 C 
ATOM      8  C   UNL     1      -8.733 -22.805  21.247  1.00  0.00     0.022 C 
ATOM      9  C   UNL     1     -10.237 -22.878  20.851  1.00  0.00    -0.019 C 
ATOM     10  C   UNL     1     -10.726 -21.581  20.157  1.00  0.00     0.012 C 
ATOM     11  C   UNL     1     -10.715 -24.092  20.006  1.00  0.00     0.012 C 
ENDROOT
TORSDOF 0
ENDMDL
MODEL 6
REMARK VINA RESULT:    -2.387      2.218      4.052
REMARK INTER + INTRA:          -2.387
REMARK INTER:                  -2.387
REMARK INTRA:                   0.000
REMARK UNBOUND:                 0.000
REMARK SMILES CC1=CC(=O)[C@H]2C[C@@H]1C2(C)C
REMARK SMILES IDX 1 1 2 2 3 3 4 4 5 5 6 6 7 7 8 8 9 9 10 10 11 11
REMARK H PARENT
REMARK Flexibility Score: inf
ROOT
ATOM      1  C   UNL     1      -8.244 -24.239  24.838  1.00  0.00     0.040 C 
ATOM      2  C   UNL     1      -8.855 -23.609  23.626  1.00  0.00    -0.066 C 
ATOM      3  C   UNL     1      -9.719 -22.560  23.731  1.00  0.00     0.047 C 
ATOM      4  C   UNL     1     -10.287 -22.038  22.447  1.00  0.00     0.159 C 
ATOM      5  O   UNL     1     -11.125 -21.100  22.415  1.00  0.00    -0.295 OA
ATOM      6  C   UNL     1      -9.780 -22.726  21.180  1.00  0.00     0.067 C 
ATOM      7  C   UNL     1      -8.252 -22.817  21.384  1.00  0.00     0.021 C 
ATOM      8  C   UNL     1      -8.526 -24.101  22.201  1.00  0.00     0.022 C 
ATOM      9  C   UNL     1      -9.845 -24.265  21.391  1.00  0.00    -0.019 C 
ATOM     10  C   UNL     1      -9.633 -25.052  20.073  1.00  0.00     0.012 C 
ATOM     11  C   UNL     1     -11.084 -24.859  22.119  1.00  0.00     0.012 C 
ENDROOT
TORSDOF 0
ENDMDL
MODEL 7
REMARK VINA RESULT:    -2.355     16.121     17.101
REMARK INTER + INTRA:          -2.355
REMARK INTER:                  -2.355
REMARK INTRA:                   0.000
REMARK UNBOUND:                 0.000
REMARK SMILES CC1=CC(=O)[C@H]2C[C@@H]1C2(C)C
REMARK SMILES IDX 1 1 2 2 3 3 4 4 5 5 6 6 7 7 8 8 9 9 10 10 11 11
REMARK H PARENT
REMARK Flexibility Score: inf
ROOT
ATOM      1  C   UNL     1      -9.380  -5.252  23.083  1.00  0.00     0.040 C 
ATOM      2  C   UNL     1      -8.927  -5.481  24.490  1.00  0.00    -0.066 C 
ATOM      3  C   UNL     1      -7.763  -4.947  24.956  1.00  0.00     0.047 C 
ATOM      4  C   UNL     1      -7.404  -5.275  26.373  1.00  0.00     0.159 C 
ATOM      5  O   UNL     1      -6.337  -4.875  26.906  1.00  0.00    -0.295 OA
ATOM      6  C   UNL     1      -8.423  -6.131  27.125  1.00  0.00     0.067 C 
ATOM      7  C   UNL     1      -9.784  -5.483  26.788  1.00  0.00     0.021 C 
ATOM      8  C   UNL     1      -9.760  -6.316  25.486  1.00  0.00     0.022 C 
ATOM      9  C   UNL     1      -8.831  -7.327  26.218  1.00  0.00    -0.019 C 
ATOM     10  C   UNL     1      -9.629  -8.409  26.990  1.00  0.00     0.012 C 
ATOM     11  C   UNL     1      -7.723  -8.039  25.391  1.00  0.00     0.012 C 
ENDROOT
TORSDOF 0
ENDMDL
MODEL 8
REMARK VINA RESULT:    -2.250     15.737     16.801
REMARK INTER + INTRA:          -2.250
REMARK INTER:                  -2.250
REMARK INTRA:                   0.000
REMARK UNBOUND:                 0.000
REMARK SMILES CC1=CC(=O)[C@H]2C[C@@H]1C2(C)C
REMARK SMILES IDX 1 1 2 2 3 3 4 4 5 5 6 6 7 7 8 8 9 9 10 10 11 11
REMARK H PARENT
REMARK Flexibility Score: inf
ROOT
ATOM      1  C   UNL     1      -9.701  -5.042  23.232  1.00  0.00     0.040 C 
ATOM      2  C   UNL     1      -9.487  -5.929  24.417  1.00  0.00    -0.066 C 
ATOM      3  C   UNL     1     -10.533  -6.527  25.054  1.00  0.00     0.047 C 
ATOM      4  C   UNL     1     -10.191  -7.367  26.246  1.00  0.00     0.159 C 
ATOM      5  O   UNL     1     -11.071  -7.938  26.942  1.00  0.00    -0.295 OA
ATOM      6  C   UNL     1      -8.699  -7.481  26.561  1.00  0.00     0.067 C 
ATOM      7  C   UNL     1      -8.043  -7.756  25.190  1.00  0.00     0.021 C 
ATOM      8  C   UNL     1      -8.075  -6.227  24.965  1.00  0.00     0.022 C 
ATOM      9  C   UNL     1      -8.073  -6.058  26.513  1.00  0.00    -0.019 C 
ATOM     10  C   UNL     1      -6.639  -6.023  27.099  1.00  0.00     0.012 C 
ATOM     11  C   UNL     1      -8.877  -4.875  27.123  1.00  0.00     0.012 C 
ENDROOT
TORSDOF 0
ENDMDL
