MODEL 1
REMARK VINA RESULT:    -4.965      0.000      0.000
REMARK INTER + INTRA:          -5.767
REMARK INTER:                  -6.706
REMARK INTRA:                   0.939
REMARK UNBOUND:                 0.939
REMARK SMILES C=C1C(=O)O[C@H]2[C@@H]1CCC(C)=CCC[C@@]1(C)O[C@H]21
REMARK SMILES IDX 6 1 7 2 2 3 1 4 3 5 4 6 5 7 8 8 9 9 10 10 11 11 12 12 18 14
REMARK SMILES IDX 15 15 17 16 16 17 14 18 13 19
REMARK H PARENT
REMARK Flexibility Score: 70.00
ROOT
ATOM      1  C   UNL     1       2.271   6.339  21.450  1.00  0.00     0.216 C 
ATOM      2  C   UNL     1       1.885   7.693  20.752  1.00  0.00     0.070 C 
ATOM      3  C   UNL     1       2.961   8.642  21.184  1.00  0.00     0.037 C 
ATOM      4  C   UNL     1       3.118   9.906  20.790  1.00  0.00     0.021 C 
ATOM      5  C   UNL     1       3.681   7.996  22.254  1.00  0.00     0.334 C 
ATOM      6  O   UNL     1       4.593   8.522  22.947  1.00  0.00    -0.247 OA
ATOM      7  O   UNL     1       3.217   6.713  22.453  1.00  0.00    -0.455 OA
ENDROOT
BRANCH   2   8
ATOM      8  C   UNL     1       1.594   7.670  19.231  1.00  0.00     0.017 C 
BRANCH   8   9
ATOM      9  C   UNL     1       2.812   7.445  18.309  1.00  0.00     0.031 C 
BRANCH   9  10
ATOM     10  C   UNL     1       2.400   6.661  17.073  1.00  0.00    -0.077 C 
ATOM     11  C   UNL     1       1.486   7.339  16.083  1.00  0.00     0.039 C 
ATOM     12  C   UNL     1       2.739   5.369  16.839  1.00  0.00    -0.028 CG0
ATOM     13  G   UNL     1       3.673   4.522  17.672  1.00  0.00     0.000 G0
ENDBRANCH   9  10
ENDBRANCH   8   9
ENDBRANCH   2   8
BRANCH   1  14
ATOM     14  C   UNL     1       2.972   5.316  20.539  1.00  0.00     0.192 C 
ATOM     15  C   UNL     1       2.213   4.273  19.778  1.00  0.00     0.096 C 
ATOM     16  O   UNL     1       2.819   4.003  21.026  1.00  0.00    -0.362 OA
ATOM     17  C   UNL     1       0.700   4.051  19.888  1.00  0.00     0.045 C 
BRANCH  15  18
ATOM     18  C   UNL     1       2.957   3.558  18.632  1.00  0.00     0.042 C 
BRANCH  18  19
ATOM     19  C   UNL     1       3.683   4.518  17.675  1.00  0.00     0.030 CG0
ATOM     20  G   UNL     1       2.737   5.360  16.850  1.00  0.00     0.000 G0
ENDBRANCH  18  19
ENDBRANCH  15  18
ENDBRANCH   1  14
TORSDOF 0
ENDMDL
MODEL 2
REMARK VINA RESULT:    -4.756      2.333      4.742
REMARK INTER + INTRA:          -5.486
REMARK INTER:                  -6.453
REMARK INTRA:                   0.967
REMARK UNBOUND:                 0.939
REMARK SMILES C=C1C(=O)O[C@H]2[C@@H]1CCC(C)=CCC[C@@]1(C)O[C@H]21
REMARK SMILES IDX 6 1 7 2 2 3 1 4 3 5 4 6 5 7 8 8 9 9 10 10 11 11 12 12 18 14
REMARK SMILES IDX 15 15 17 16 16 17 14 18 13 19
REMARK H PARENT
REMARK Flexibility Score: 70.00
ROOT
ATOM      1  C   UNL     1       2.008   4.738  20.229  1.00  0.00     0.216 C 
ATOM      2  C   UNL     1       2.859   4.267  18.994  1.00  0.00     0.070 C 
ATOM      3  C   UNL     1       1.836   3.998  17.932  1.00  0.00     0.037 C 
ATOM      4  C   UNL     1       2.071   3.647  16.668  1.00  0.00     0.021 C 
ATOM      5  C   UNL     1       0.549   3.999  18.584  1.00  0.00     0.334 C 
ATOM      6  O   UNL     1      -0.548   3.706  18.039  1.00  0.00    -0.247 OA
ATOM      7  O   UNL     1       0.674   4.338  19.915  1.00  0.00    -0.455 OA
ENDROOT
BRANCH   2   8
ATOM      8  C   UNL     1       4.053   5.150  18.555  1.00  0.00     0.017 C 
BRANCH   8   9
ATOM      9  C   UNL     1       3.697   6.527  17.955  1.00  0.00     0.031 C 
BRANCH   9  10
ATOM     10  C   UNL     1       4.740   7.560  18.349  1.00  0.00    -0.077 C 
ATOM     11  C   UNL     1       6.136   7.393  17.806  1.00  0.00     0.039 C 
ATOM     12  C   UNL     1       4.516   8.579  19.216  1.00  0.00    -0.028 CG0
ATOM     13  G   UNL     1       3.191   8.953  19.839  1.00  0.00     0.000 G0
ENDBRANCH   9  10
ENDBRANCH   8   9
ENDBRANCH   2   8
BRANCH   1  14
ATOM     14  C   UNL     1       1.974   6.259  20.451  1.00  0.00     0.192 C 
ATOM     15  C   UNL     1       2.888   6.946  21.418  1.00  0.00     0.096 C 
ATOM     16  O   UNL     1       1.566   6.580  21.761  1.00  0.00    -0.362 OA
ATOM     17  C   UNL     1       3.873   6.220  22.342  1.00  0.00     0.045 C 
BRANCH  15  18
ATOM     18  C   UNL     1       3.026   8.477  21.292  1.00  0.00     0.042 C 
BRANCH  18  19
ATOM     19  C   UNL     1       3.181   8.963  19.841  1.00  0.00     0.030 CG0
ATOM     20  G   UNL     1       4.506   8.575  19.224  1.00  0.00     0.000 G0
ENDBRANCH  18  19
ENDBRANCH  15  18
ENDBRANCH   1  14
TORSDOF 0
ENDMDL
MODEL 3
REMARK VINA RESULT:    -4.629      2.652      4.593
REMARK INTER + INTRA:          -5.315
REMARK INTER:                  -6.330
REMARK INTRA:                   1.015
REMARK UNBOUND:                 0.939
REMARK SMILES C=C1C(=O)O[C@H]2[C@@H]1CCC(C)=CCC[C@@]1(C)O[C@H]21
REMARK SMILES IDX 6 1 7 2 2 3 1 4 3 5 4 6 5 7 8 8 9 9 10 10 11 11 12 12 18 14
REMARK SMILES IDX 15 15 17 16 16 17 14 18 13 19
REMARK H PARENT
REMARK Flexibility Score: 70.00
ROOT
ATOM      1  C   UNL     1       2.652   4.076  18.643  1.00  0.00     0.216 C 
ATOM      2  C   UNL     1       2.655   4.322  20.195  1.00  0.00     0.070 C 
ATOM      3  C   UNL     1       3.764   3.447  20.698  1.00  0.00     0.037 C 
ATOM      4  C   UNL     1       4.211   3.365  21.950  1.00  0.00     0.021 C 
ATOM      5  C   UNL     1       4.125   2.570  19.612  1.00  0.00     0.334 C 
ATOM      6  O   UNL     1       4.950   1.619  19.681  1.00  0.00    -0.247 OA
ATOM      7  O   UNL     1       3.419   2.884  18.470  1.00  0.00    -0.455 OA
ENDROOT
BRANCH   2   8
ATOM      8  C   UNL     1       2.686   5.786  20.700  1.00  0.00     0.017 C 
BRANCH   8   9
ATOM      9  C   UNL     1       4.042   6.516  20.588  1.00  0.00     0.031 C 
BRANCH   9  10
ATOM     10  C   UNL     1       3.823   8.004  20.370  1.00  0.00    -0.077 C 
ATOM     11  C   UNL     1       3.292   8.814  21.526  1.00  0.00     0.039 C 
ATOM     12  C   UNL     1       4.003   8.638  19.185  1.00  0.00    -0.028 CG0
ATOM     13  G   UNL     1       4.565   8.032  17.919  1.00  0.00     0.000 G0
ENDBRANCH   9  10
ENDBRANCH   8   9
ENDBRANCH   2   8
BRANCH   1  14
ATOM     14  C   UNL     1       3.341   5.171  17.811  1.00  0.00     0.192 C 
ATOM     15  C   UNL     1       2.632   6.421  17.392  1.00  0.00     0.096 C 
ATOM     16  O   UNL     1       2.752   5.300  16.539  1.00  0.00    -0.362 OA
ATOM     17  C   UNL     1       1.148   6.704  17.656  1.00  0.00     0.045 C 
BRANCH  15  18
ATOM     18  C   UNL     1       3.503   7.594  16.896  1.00  0.00     0.042 C 
BRANCH  18  19
ATOM     19  C   UNL     1       4.580   8.030  17.904  1.00  0.00     0.030 CG0
ATOM     20  G   UNL     1       4.002   8.610  19.174  1.00  0.00     0.000 G0
ENDBRANCH  18  19
ENDBRANCH  15  18
ENDBRANCH   1  14
TORSDOF 0
ENDMDL
MODEL 4
REMARK VINA RESULT:    -4.498      2.816      5.279
REMARK INTER + INTRA:          -5.137
REMARK INTER:                  -6.917
REMARK INTRA:                   1.781
REMARK UNBOUND:                 0.939
REMARK SMILES C=C1C(=O)O[C@H]2[C@@H]1CCC(C)=CCC[C@@]1(C)O[C@H]21
REMARK SMILES IDX 6 1 7 2 2 3 1 4 3 5 4 6 5 7 8 8 9 9 10 10 11 11 12 12 18 14
REMARK SMILES IDX 15 15 17 16 16 17 14 18 13 19
REMARK H PARENT
REMARK Flexibility Score: 70.00
ROOT
ATOM      1  C   UNL     1       2.752   4.762  19.758  1.00  0.00     0.216 C 
ATOM      2  C   UNL     1       3.066   4.163  21.177  1.00  0.00     0.070 C 
ATOM      3  C   UNL     1       4.129   3.139  20.909  1.00  0.00     0.037 C 
ATOM      4  C   UNL     1       4.781   2.410  21.813  1.00  0.00     0.021 C 
ATOM      5  C   UNL     1       4.174   2.951  19.480  1.00  0.00     0.334 C 
ATOM      6  O   UNL     1       4.871   2.093  18.875  1.00  0.00    -0.247 OA
ATOM      7  O   UNL     1       3.318   3.825  18.842  1.00  0.00    -0.455 OA
ENDROOT
BRANCH   2   8
ATOM      8  C   UNL     1       3.372   5.148  22.331  1.00  0.00     0.017 C 
BRANCH   8   9
ATOM      9  C   UNL     1       2.941   6.613  22.108  1.00  0.00     0.031 C 
BRANCH   9  10
ATOM     10  C   UNL     1       4.136   7.542  22.242  1.00  0.00    -0.077 C 
ATOM     11  C   UNL     1       5.258   7.117  23.155  1.00  0.00     0.039 C 
ATOM     12  C   UNL     1       4.228   8.760  21.653  1.00  0.00    -0.028 CG0
ATOM     13  G   UNL     1       3.246   9.359  20.672  1.00  0.00     0.000 G0
ENDBRANCH   9  10
ENDBRANCH   8   9
ENDBRANCH   2   8
BRANCH   1  14
ATOM     14  C   UNL     1       3.412   6.121  19.467  1.00  0.00     0.192 C 
ATOM     15  C   UNL     1       2.611   7.347  19.153  1.00  0.00     0.096 C 
ATOM     16  O   UNL     1       3.175   6.535  18.142  1.00  0.00    -0.362 OA
ATOM     17  C   UNL     1       1.086   7.368  18.998  1.00  0.00     0.045 C 
BRANCH  15  18
ATOM     18  C   UNL     1       3.337   8.705  19.246  1.00  0.00     0.042 C 
BRANCH  18  19
ATOM     19  C   UNL     1       3.259   9.350  20.640  1.00  0.00     0.030 CG0
ATOM     20  G   UNL     1       4.227   8.742  21.629  1.00  0.00     0.000 G0
ENDBRANCH  18  19
ENDBRANCH  15  18
ENDBRANCH   1  14
TORSDOF 0
ENDMDL
MODEL 5
REMARK VINA RESULT:    -4.403      2.902      5.446
REMARK INTER + INTRA:          -5.008
REMARK INTER:                  -6.867
REMARK INTRA:                   1.859
REMARK UNBOUND:                 0.939
REMARK SMILES C=C1C(=O)O[C@H]2[C@@H]1CCC(C)=CCC[C@@]1(C)O[C@H]21
REMARK SMILES IDX 6 1 7 2 2 3 1 4 3 5 4 6 5 7 8 8 9 9 10 10 11 11 12 12 18 14
REMARK SMILES IDX 15 15 17 16 16 17 14 18 13 19
REMARK H PARENT
REMARK Flexibility Score: 70.00
ROOT
ATOM      1  C   UNL     1       3.128   7.132  18.793  1.00  0.00     0.216 C 
ATOM      2  C   UNL     1       2.426   5.734  18.635  1.00  0.00     0.070 C 
ATOM      3  C   UNL     1       3.187   5.072  17.525  1.00  0.00     0.037 C 
ATOM      4  C   UNL     1       3.018   3.831  17.070  1.00  0.00     0.021 C 
ATOM      5  C   UNL     1       4.001   6.093  16.913  1.00  0.00     0.334 C 
ATOM      6  O   UNL     1       4.704   5.946  15.877  1.00  0.00    -0.247 OA
ATOM      7  O   UNL     1       3.889   7.286  17.596  1.00  0.00    -0.455 OA
ENDROOT
BRANCH   2   8
ATOM      8  C   UNL     1       2.226   4.872  19.906  1.00  0.00     0.017 C 
BRANCH   8   9
ATOM      9  C   UNL     1       2.368   5.606  21.256  1.00  0.00     0.031 C 
BRANCH   9  10
ATOM     10  C   UNL     1       3.513   5.013  22.061  1.00  0.00    -0.077 C 
ATOM     11  C   UNL     1       3.832   3.553  21.859  1.00  0.00     0.039 C 
ATOM     12  C   UNL     1       4.217   5.689  23.002  1.00  0.00    -0.028 CG0
ATOM     13  G   UNL     1       4.092   7.159  23.332  1.00  0.00     0.000 G0
ENDBRANCH   9  10
ENDBRANCH   8   9
ENDBRANCH   2   8
BRANCH   1  14
ATOM     14  C   UNL     1       4.119   7.230  19.965  1.00  0.00     0.192 C 
ATOM     15  C   UNL     1       4.018   8.298  21.010  1.00  0.00     0.096 C 
ATOM     16  O   UNL     1       4.881   8.413  19.897  1.00  0.00    -0.362 OA
ATOM     17  C   UNL     1       2.996   9.441  20.983  1.00  0.00     0.045 C 
BRANCH  15  18
ATOM     18  C   UNL     1       4.815   8.086  22.314  1.00  0.00     0.042 C 
BRANCH  18  19
ATOM     19  C   UNL     1       4.103   7.177  23.330  1.00  0.00     0.030 CG0
ATOM     20  G   UNL     1       4.218   5.709  22.992  1.00  0.00     0.000 G0
ENDBRANCH  18  19
ENDBRANCH  15  18
ENDBRANCH   1  14
TORSDOF 0
ENDMDL
MODEL 6
REMARK VINA RESULT:    -4.190     17.201     18.768
REMARK INTER + INTRA:          -4.721
REMARK INTER:                  -5.632
REMARK INTRA:                   0.911
REMARK UNBOUND:                 0.939
REMARK SMILES C=C1C(=O)O[C@H]2[C@@H]1CCC(C)=CCC[C@@]1(C)O[C@H]21
REMARK SMILES IDX 6 1 7 2 2 3 1 4 3 5 4 6 5 7 8 8 9 9 10 10 11 11 12 12 18 14
REMARK SMILES IDX 15 15 17 16 16 17 14 18 13 19
REMARK H PARENT
REMARK Flexibility Score: 70.00
ROOT
ATOM      1  C   UNL     1      13.255  -1.413  30.690  1.00  0.00     0.216 C 
ATOM      2  C   UNL     1      14.587  -1.558  31.514  1.00  0.00     0.070 C 
ATOM      3  C   UNL     1      15.186  -0.185  31.476  1.00  0.00     0.037 C 
ATOM      4  C   UNL     1      16.290   0.223  32.102  1.00  0.00     0.021 C 
ATOM      5  C   UNL     1      14.454   0.562  30.482  1.00  0.00     0.334 C 
ATOM      6  O   UNL     1      14.732   1.727  30.089  1.00  0.00    -0.247 OA
ATOM      7  O   UNL     1      13.409  -0.184  29.980  1.00  0.00    -0.455 OA
ENDROOT
BRANCH   2   8
ATOM      8  C   UNL     1      14.507  -2.208  32.918  1.00  0.00     0.017 C 
BRANCH   8   9
ATOM      9  C   UNL     1      13.800  -1.379  34.012  1.00  0.00     0.031 C 
BRANCH   9  10
ATOM     10  C   UNL     1      13.056  -2.295  34.969  1.00  0.00    -0.077 C 
ATOM     11  C   UNL     1      13.874  -3.199  35.857  1.00  0.00     0.039 C 
ATOM     12  C   UNL     1      11.706  -2.407  35.026  1.00  0.00    -0.028 CG0
ATOM     13  G   UNL     1      10.703  -1.572  34.262  1.00  0.00     0.000 G0
ENDBRANCH   9  10
ENDBRANCH   8   9
ENDBRANCH   2   8
BRANCH   1  14
ATOM     14  C   UNL     1      11.980  -1.278  31.539  1.00  0.00     0.192 C 
ATOM     15  C   UNL     1      11.123  -2.456  31.886  1.00  0.00     0.096 C 
ATOM     16  O   UNL     1      10.829  -1.605  30.796  1.00  0.00    -0.362 OA
ATOM     17  C   UNL     1      11.361  -3.880  31.371  1.00  0.00     0.045 C 
BRANCH  15  18
ATOM     18  C   UNL     1      10.100  -2.272  33.026  1.00  0.00     0.042 C 
BRANCH  18  19
ATOM     19  C   UNL     1      10.680  -1.571  34.266  1.00  0.00     0.030 CG0
ATOM     20  G   UNL     1      11.694  -2.415  35.003  1.00  0.00     0.000 G0
ENDBRANCH  18  19
ENDBRANCH  15  18
ENDBRANCH   1  14
TORSDOF 0
ENDMDL
MODEL 7
REMARK VINA RESULT:    -4.144      2.143      3.498
REMARK INTER + INTRA:          -4.658
REMARK INTER:                  -5.560
REMARK INTRA:                   0.902
REMARK UNBOUND:                 0.939
REMARK SMILES C=C1C(=O)O[C@H]2[C@@H]1CCC(C)=CCC[C@@]1(C)O[C@H]21
REMARK SMILES IDX 6 1 7 2 2 3 1 4 3 5 4 6 5 7 8 8 9 9 10 10 11 11 12 12 18 14
REMARK SMILES IDX 15 15 17 16 16 17 14 18 13 19
REMARK H PARENT
REMARK Flexibility Score: 70.00
ROOT
ATOM      1  C   UNL     1       2.913   8.195  18.715  1.00  0.00     0.216 C 
ATOM      2  C   UNL     1       4.135   7.452  19.367  1.00  0.00     0.070 C 
ATOM      3  C   UNL     1       4.116   7.909  20.794  1.00  0.00     0.037 C 
ATOM      4  C   UNL     1       4.915   7.495  21.777  1.00  0.00     0.021 C 
ATOM      5  C   UNL     1       3.200   9.021  20.863  1.00  0.00     0.334 C 
ATOM      6  O   UNL     1       2.995   9.740  21.877  1.00  0.00    -0.247 OA
ATOM      7  O   UNL     1       2.587   9.227  19.645  1.00  0.00    -0.455 OA
ENDROOT
BRANCH   2   8
ATOM      8  C   UNL     1       4.249   5.921  19.163  1.00  0.00     0.017 C 
BRANCH   8   9
ATOM      9  C   UNL     1       3.235   5.054  19.939  1.00  0.00     0.031 C 
BRANCH   9  10
ATOM     10  C   UNL     1       2.872   3.818  19.133  1.00  0.00    -0.077 C 
ATOM     11  C   UNL     1       3.935   2.765  18.941  1.00  0.00     0.039 C 
ATOM     12  C   UNL     1       1.680   3.633  18.513  1.00  0.00    -0.028 CG0
ATOM     13  G   UNL     1       0.470   4.533  18.609  1.00  0.00     0.000 G0
ENDBRANCH   9  10
ENDBRANCH   8   9
ENDBRANCH   2   8
BRANCH   1  14
ATOM     14  C   UNL     1       1.648   7.336  18.545  1.00  0.00     0.192 C 
ATOM     15  C   UNL     1       1.376   6.554  17.297  1.00  0.00     0.096 C 
ATOM     16  O   UNL     1       0.821   7.835  17.520  1.00  0.00    -0.362 OA
ATOM     17  C   UNL     1       2.256   6.592  16.042  1.00  0.00     0.045 C 
BRANCH  15  18
ATOM     18  C   UNL     1       0.294   5.458  17.374  1.00  0.00     0.042 C 
BRANCH  18  19
ATOM     19  C   UNL     1       0.450   4.523  18.585  1.00  0.00     0.030 CG0
ATOM     20  G   UNL     1       1.678   3.646  18.502  1.00  0.00     0.000 G0
ENDBRANCH  18  19
ENDBRANCH  15  18
ENDBRANCH   1  14
TORSDOF 0
ENDMDL
MODEL 8
REMARK VINA RESULT:    -4.027      2.094      3.201
REMARK INTER + INTRA:          -4.501
REMARK INTER:                  -6.403
REMARK INTRA:                   1.903
REMARK UNBOUND:                 0.939
REMARK SMILES C=C1C(=O)O[C@H]2[C@@H]1CCC(C)=CCC[C@@]1(C)O[C@H]21
REMARK SMILES IDX 6 1 7 2 2 3 1 4 3 5 4 6 5 7 8 8 9 9 10 10 11 11 12 12 18 14
REMARK SMILES IDX 15 15 17 16 16 17 14 18 13 19
REMARK H PARENT
REMARK Flexibility Score: 70.00
ROOT
ATOM      1  C   UNL     1       2.017   4.798  20.685  1.00  0.00     0.216 C 
ATOM      2  C   UNL     1       2.479   5.888  21.719  1.00  0.00     0.070 C 
ATOM      3  C   UNL     1       3.748   5.329  22.290  1.00  0.00     0.037 C 
ATOM      4  C   UNL     1       4.563   5.925  23.160  1.00  0.00     0.021 C 
ATOM      5  C   UNL     1       3.820   3.950  21.873  1.00  0.00     0.334 C 
ATOM      6  O   UNL     1       4.691   3.118  22.242  1.00  0.00    -0.247 OA
ATOM      7  O   UNL     1       2.777   3.638  21.027  1.00  0.00    -0.455 OA
ENDROOT
BRANCH   2   8
ATOM      8  C   UNL     1       2.560   7.358  21.240  1.00  0.00     0.017 C 
BRANCH   8   9
ATOM      9  C   UNL     1       1.817   7.688  19.928  1.00  0.00     0.031 C 
BRANCH   9  10
ATOM     10  C   UNL     1       2.801   8.148  18.865  1.00  0.00    -0.077 C 
ATOM     11  C   UNL     1       4.050   8.857  19.323  1.00  0.00     0.039 C 
ATOM     12  C   UNL     1       2.595   8.029  17.530  1.00  0.00    -0.028 CG0
ATOM     13  G   UNL     1       1.441   7.319  16.859  1.00  0.00     0.000 G0
ENDBRANCH   9  10
ENDBRANCH   8   9
ENDBRANCH   2   8
BRANCH   1  14
ATOM     14  C   UNL     1       2.339   5.121  19.216  1.00  0.00     0.192 C 
ATOM     15  C   UNL     1       1.293   5.097  18.145  1.00  0.00     0.096 C 
ATOM     16  O   UNL     1       2.148   3.998  18.388  1.00  0.00    -0.362 OA
ATOM     17  C   UNL     1      -0.162   4.668  18.367  1.00  0.00     0.045 C 
BRANCH  15  18
ATOM     18  C   UNL     1       1.636   5.785  16.808  1.00  0.00     0.042 C 
BRANCH  18  19
ATOM     19  C   UNL     1       1.451   7.311  16.836  1.00  0.00     0.030 CG0
ATOM     20  G   UNL     1       2.586   8.033  17.526  1.00  0.00     0.000 G0
ENDBRANCH  18  19
ENDBRANCH  15  18
ENDBRANCH   1  14
TORSDOF 0
ENDMDL
MODEL 9
REMARK VINA RESULT:    -3.895     16.995     18.624
REMARK INTER + INTRA:          -4.322
REMARK INTER:                  -5.380
REMARK INTRA:                   1.058
REMARK UNBOUND:                 0.939
REMARK SMILES C=C1C(=O)O[C@H]2[C@@H]1CCC(C)=CCC[C@@]1(C)O[C@H]21
REMARK SMILES IDX 6 1 7 2 2 3 1 4 3 5 4 6 5 7 8 8 9 9 10 10 11 11 12 12 18 14
REMARK SMILES IDX 15 15 17 16 16 17 14 18 13 19
REMARK H PARENT
REMARK Flexibility Score: 70.00
ROOT
ATOM      1  C   UNL     1      13.507  -1.941  33.414  1.00  0.00     0.216 C 
ATOM      2  C   UNL     1      12.919  -2.466  32.054  1.00  0.00     0.070 C 
ATOM      3  C   UNL     1      11.447  -2.205  32.173  1.00  0.00     0.037 C 
ATOM      4  C   UNL     1      10.522  -2.409  31.236  1.00  0.00     0.021 C 
ATOM      5  C   UNL     1      11.193  -1.878  33.555  1.00  0.00     0.334 C 
ATOM      6  O   UNL     1      10.056  -1.697  34.068  1.00  0.00    -0.247 OA
ATOM      7  O   UNL     1      12.371  -1.817  34.269  1.00  0.00    -0.455 OA
ENDROOT
BRANCH   2   8
ATOM      8  C   UNL     1      13.574  -1.974  30.740  1.00  0.00     0.017 C 
BRANCH   8   9
ATOM      9  C   UNL     1      13.456  -0.464  30.443  1.00  0.00     0.031 C 
BRANCH   9  10
ATOM     10  C   UNL     1      14.737   0.050  29.807  1.00  0.00    -0.077 C 
ATOM     11  C   UNL     1      15.124  -0.503  28.459  1.00  0.00     0.039 C 
ATOM     12  C   UNL     1      15.592   0.918  30.403  1.00  0.00    -0.028 CG0
ATOM     13  G   UNL     1      15.379   1.623  31.723  1.00  0.00     0.000 G0
ENDBRANCH   9  10
ENDBRANCH   8   9
ENDBRANCH   2   8
BRANCH   1  14
ATOM     14  C   UNL     1      14.163  -0.551  33.343  1.00  0.00     0.192 C 
ATOM     15  C   UNL     1      15.649  -0.369  33.328  1.00  0.00     0.096 C 
ATOM     16  O   UNL     1      14.889  -0.264  34.515  1.00  0.00    -0.362 OA
ATOM     17  C   UNL     1      16.662  -1.511  33.472  1.00  0.00     0.045 C 
BRANCH  15  18
ATOM     18  C   UNL     1      16.186   1.008  32.887  1.00  0.00     0.042 C 
BRANCH  18  19
ATOM     19  C   UNL     1      15.395   1.634  31.726  1.00  0.00     0.030 CG0
ATOM     20  G   UNL     1      15.601   0.915  30.414  1.00  0.00     0.000 G0
ENDBRANCH  18  19
ENDBRANCH  15  18
ENDBRANCH   1  14
TORSDOF 0
ENDMDL
