MODEL 1
REMARK VINA RESULT:    -3.235      0.000      0.000
REMARK INTER + INTRA:          -3.620
REMARK INTER:                  -3.614
REMARK INTRA:                  -0.007
REMARK UNBOUND:                -0.007
REMARK SMILES CCCC(=O)[O-]
REMARK SMILES IDX 3 1 4 2 5 3 6 4 2 5 1 6
REMARK H PARENT
REMARK Flexibility Score: inf
ROOT
ATOM      1  C   UNL     1      20.649  15.130  19.646  1.00  0.00     0.052 C 
ENDROOT
BRANCH   1   2
ATOM      2  C   UNL     1      21.861  15.592  20.396  1.00  0.00     0.041 C 
ATOM      3  O   UNL     1      22.070  15.190  21.571  1.00  0.00    -0.550 OA
ATOM      4  O   UNL     1      22.777  16.439  19.785  1.00  0.00    -0.550 OA
ENDBRANCH   1   2
BRANCH   1   5
ATOM      5  C   UNL     1      19.496  16.136  19.754  1.00  0.00     0.003 C 
ATOM      6  C   UNL     1      18.583  16.108  18.529  1.00  0.00     0.004 C 
ENDBRANCH   1   5
TORSDOF 2
ENDMDL
MODEL 2
REMARK VINA RESULT:    -3.189      2.160      3.415
REMARK INTER + INTRA:          -3.569
REMARK INTER:                  -3.532
REMARK INTRA:                  -0.037
REMARK UNBOUND:                -0.007
REMARK SMILES CCCC(=O)[O-]
REMARK SMILES IDX 3 1 4 2 5 3 6 4 2 5 1 6
REMARK H PARENT
REMARK Flexibility Score: inf
ROOT
ATOM      1  C   UNL     1      21.199  15.130  19.891  1.00  0.00     0.052 C 
ENDROOT
BRANCH   1   2
ATOM      2  C   UNL     1      19.892  15.863  19.879  1.00  0.00     0.041 C 
ATOM      3  O   UNL     1      19.092  15.716  18.919  1.00  0.00    -0.550 OA
ATOM      4  O   UNL     1      19.545  16.680  20.947  1.00  0.00    -0.550 OA
ENDBRANCH   1   2
BRANCH   1   5
ATOM      5  C   UNL     1      21.865  15.176  21.272  1.00  0.00     0.003 C 
ATOM      6  C   UNL     1      23.170  15.971  21.262  1.00  0.00     0.004 C 
ENDBRANCH   1   5
TORSDOF 2
ENDMDL
MODEL 3
REMARK VINA RESULT:    -3.002     13.460     14.198
REMARK INTER + INTRA:          -3.360
REMARK INTER:                  -3.350
REMARK INTRA:                  -0.010
REMARK UNBOUND:                -0.007
REMARK SMILES CCCC(=O)[O-]
REMARK SMILES IDX 3 1 4 2 5 3 6 4 2 5 1 6
REMARK H PARENT
REMARK Flexibility Score: inf
ROOT
ATOM      1  C   UNL     1      12.112   9.532  10.230  1.00  0.00     0.052 C 
ENDROOT
BRANCH   1   2
ATOM      2  C   UNL     1      12.501  10.979  10.225  1.00  0.00     0.041 C 
ATOM      3  O   UNL     1      12.767  11.560   9.141  1.00  0.00    -0.550 OA
ATOM      4  O   UNL     1      12.535  11.693  11.416  1.00  0.00    -0.550 OA
ENDBRANCH   1   2
BRANCH   1   5
ATOM      5  C   UNL     1      11.416   9.134  11.538  1.00  0.00     0.003 C 
ATOM      6  C   UNL     1      11.343   7.619  11.721  1.00  0.00     0.004 C 
ENDBRANCH   1   5
TORSDOF 2
ENDMDL
MODEL 4
REMARK VINA RESULT:    -2.997     13.809     14.348
REMARK INTER + INTRA:          -3.354
REMARK INTER:                  -3.334
REMARK INTRA:                  -0.020
REMARK UNBOUND:                -0.007
REMARK SMILES CCCC(=O)[O-]
REMARK SMILES IDX 3 1 4 2 5 3 6 4 2 5 1 6
REMARK H PARENT
REMARK Flexibility Score: inf
ROOT
ATOM      1  C   UNL     1      12.062   9.629  10.257  1.00  0.00     0.052 C 
ENDROOT
BRANCH   1   2
ATOM      2  C   UNL     1      11.371   9.146  11.496  1.00  0.00     0.041 C 
ATOM      3  O   UNL     1      10.733   9.954  12.221  1.00  0.00    -0.550 OA
ATOM      4  O   UNL     1      11.403   7.798  11.830  1.00  0.00    -0.550 OA
ENDBRANCH   1   2
BRANCH   1   5
ATOM      5  C   UNL     1      12.642  11.037  10.442  1.00  0.00     0.003 C 
ATOM      6  C   UNL     1      12.554  11.874   9.167  1.00  0.00     0.004 C 
ENDBRANCH   1   5
TORSDOF 2
ENDMDL
MODEL 5
REMARK VINA RESULT:    -2.996     13.732     14.194
REMARK INTER + INTRA:          -3.353
REMARK INTER:                  -3.340
REMARK INTRA:                  -0.013
REMARK UNBOUND:                -0.007
REMARK SMILES CCCC(=O)[O-]
REMARK SMILES IDX 3 1 4 2 5 3 6 4 2 5 1 6
REMARK H PARENT
REMARK Flexibility Score: inf
ROOT
ATOM      1  C   UNL     1      12.721  10.805   9.816  1.00  0.00     0.052 C 
ENDROOT
BRANCH   1   2
ATOM      2  C   UNL     1      12.453  12.214   9.383  1.00  0.00     0.041 C 
ATOM      3  O   UNL     1      12.817  12.606   8.243  1.00  0.00    -0.550 OA
ATOM      4  O   UNL     1      11.769  13.083  10.224  1.00  0.00    -0.550 OA
ENDBRANCH   1   2
BRANCH   1   5
ATOM      5  C   UNL     1      12.024  10.476  11.143  1.00  0.00     0.003 C 
ATOM      6  C   UNL     1      11.527   9.032  11.198  1.00  0.00     0.004 C 
ENDBRANCH   1   5
TORSDOF 2
ENDMDL
MODEL 6
REMARK VINA RESULT:    -2.942     14.469     14.891
REMARK INTER + INTRA:          -3.293
REMARK INTER:                  -3.282
REMARK INTRA:                  -0.011
REMARK UNBOUND:                -0.007
REMARK SMILES CCCC(=O)[O-]
REMARK SMILES IDX 3 1 4 2 5 3 6 4 2 5 1 6
REMARK H PARENT
REMARK Flexibility Score: inf
ROOT
ATOM      1  C   UNL     1      11.458   9.090  11.602  1.00  0.00     0.052 C 
ENDROOT
BRANCH   1   2
ATOM      2  C   UNL     1      11.254   7.634  11.892  1.00  0.00     0.041 C 
ATOM      3  O   UNL     1      11.761   6.761  11.139  1.00  0.00    -0.550 OA
ATOM      4  O   UNL     1      10.534   7.242  13.013  1.00  0.00    -0.550 OA
ENDBRANCH   1   2
BRANCH   1   5
ATOM      5  C   UNL     1      12.090   9.312  10.222  1.00  0.00     0.003 C 
ATOM      6  C   UNL     1      12.531  10.759  10.010  1.00  0.00     0.004 C 
ENDBRANCH   1   5
TORSDOF 2
ENDMDL
MODEL 7
REMARK VINA RESULT:    -2.787     12.270     13.321
REMARK INTER + INTRA:          -3.119
REMARK INTER:                  -3.111
REMARK INTRA:                  -0.008
REMARK UNBOUND:                -0.007
REMARK SMILES CCCC(=O)[O-]
REMARK SMILES IDX 3 1 4 2 5 3 6 4 2 5 1 6
REMARK H PARENT
REMARK Flexibility Score: inf
ROOT
ATOM      1  C   UNL     1      12.213  11.385  11.477  1.00  0.00     0.052 C 
ENDROOT
BRANCH   1   2
ATOM      2  C   UNL     1      12.297  12.868  11.280  1.00  0.00     0.041 C 
ATOM      3  O   UNL     1      12.952  13.578  12.087  1.00  0.00    -0.550 OA
ATOM      4  O   UNL     1      11.681  13.461  10.185  1.00  0.00    -0.550 OA
ENDBRANCH   1   2
BRANCH   1   5
ATOM      5  C   UNL     1      12.468  10.623  10.170  1.00  0.00     0.003 C 
ATOM      6  C   UNL     1      12.054   9.155  10.263  1.00  0.00     0.004 C 
ENDBRANCH   1   5
TORSDOF 2
ENDMDL
MODEL 8
REMARK VINA RESULT:    -2.755     14.932     15.630
REMARK INTER + INTRA:          -3.084
REMARK INTER:                  -3.079
REMARK INTRA:                  -0.006
REMARK UNBOUND:                -0.007
REMARK SMILES CCCC(=O)[O-]
REMARK SMILES IDX 3 1 4 2 5 3 6 4 2 5 1 6
REMARK H PARENT
REMARK Flexibility Score: inf
ROOT
ATOM      1  C   UNL     1      12.078   7.388  10.233  1.00  0.00     0.052 C 
ENDROOT
BRANCH   1   2
ATOM      2  C   UNL     1      11.703   6.178  11.034  1.00  0.00     0.041 C 
ATOM      3  O   UNL     1      12.574   5.318  11.327  1.00  0.00    -0.550 OA
ATOM      4  O   UNL     1      10.399   6.021  11.487  1.00  0.00    -0.550 OA
ENDBRANCH   1   2
BRANCH   1   5
ATOM      5  C   UNL     1      11.710   8.688  10.960  1.00  0.00     0.003 C 
ATOM      6  C   UNL     1      12.211   9.929  10.223  1.00  0.00     0.004 C 
ENDBRANCH   1   5
TORSDOF 2
ENDMDL
MODEL 9
REMARK VINA RESULT:    -2.753     15.407     15.906
REMARK INTER + INTRA:          -3.081
REMARK INTER:                  -3.076
REMARK INTRA:                  -0.006
REMARK UNBOUND:                -0.007
REMARK SMILES CCCC(=O)[O-]
REMARK SMILES IDX 3 1 4 2 5 3 6 4 2 5 1 6
REMARK H PARENT
REMARK Flexibility Score: inf
ROOT
ATOM      1  C   UNL     1      10.840   6.098  11.425  1.00  0.00     0.052 C 
ENDROOT
BRANCH   1   2
ATOM      2  C   UNL     1      12.020   6.260  10.516  1.00  0.00     0.041 C 
ATOM      3  O   UNL     1      12.760   5.275  10.258  1.00  0.00    -0.550 OA
ATOM      4  O   UNL     1      12.280   7.490   9.926  1.00  0.00    -0.550 OA
ENDBRANCH   1   2
BRANCH   1   5
ATOM      5  C   UNL     1      10.893   7.077  12.605  1.00  0.00     0.003 C 
ATOM      6  C   UNL     1      10.247   6.505  13.866  1.00  0.00     0.004 C 
ENDBRANCH   1   5
TORSDOF 2
ENDMDL
