MODEL 1
REMARK VINA RESULT:    -4.332      0.000      0.000
REMARK INTER + INTRA:          -8.143
REMARK INTER:                  -6.484
REMARK INTRA:                  -1.659
REMARK UNBOUND:                -1.659
REMARK SMILES COC(=O)C1=CO[C@@H](O[C@@H]2O[C@@H](CO)[C@@H](O)[C@@H](O)[C@@H]2O)[C@@H]2C(CO)=CC[C@H]12
REMARK SMILES IDX 9 1 8 2 5 3 6 4 27 5 7 6 21 7 26 8 22 9 25 10 3 11 4 12 2 13
REMARK SMILES IDX 1 14 23 15 24 16 10 18 19 19 11 20 17 21 12 22 15 23 20 24
REMARK SMILES IDX 18 26 13 28 14 29 16 31
REMARK H PARENT 24 17 20 25 18 27 14 30 16 32
REMARK Flexibility Score: inf
ROOT
ATOM      1  O   UNL     1      45.122  16.078  84.186  1.00  0.00    -0.310 OA
ENDROOT
BRANCH   1   2
ATOM      2  C   UNL     1      44.971  14.678  84.375  1.00  0.00     0.316 C 
ATOM      3  C   UNL     1      44.227  12.222  85.671  1.00  0.00     0.076 C 
ATOM      4  C   UNL     1      43.295  13.053  85.182  1.00  0.00     0.202 C 
ATOM      5  C   UNL     1      45.677  12.663  85.789  1.00  0.00     0.047 C 
ATOM      6  O   UNL     1      43.629  14.321  84.706  1.00  0.00    -0.471 OA
ATOM      7  C   UNL     1      45.966  14.140  85.429  1.00  0.00     0.094 C 
ATOM      8  C   UNL     1      46.626  11.848  84.900  1.00  0.00     0.037 C 
ATOM      9  C   UNL     1      47.348  14.066  84.853  1.00  0.00    -0.039 C 
ATOM     10  C   UNL     1      47.698  12.820  84.558  1.00  0.00    -0.024 C 
BRANCH   3  11
ATOM     11  C   UNL     1      43.836  10.879  86.163  1.00  0.00     0.337 C 
ATOM     12  O   UNL     1      43.673  10.686  87.399  1.00  0.00    -0.246 OA
BRANCH  11  13
ATOM     13  O   UNL     1      43.647   9.825  85.261  1.00  0.00    -0.466 OA
ATOM     14  C   UNL     1      44.367   8.601  85.347  1.00  0.00     0.282 C 
ENDBRANCH  11  13
ENDBRANCH   3  11
BRANCH   9  15
ATOM     15  C   UNL     1      48.250  15.255  84.647  1.00  0.00     0.187 C 
BRANCH  15  16
ATOM     16  O   UNL     1      47.863  16.303  85.492  1.00  0.00    -0.392 OA
ATOM     17  H   UNL     1      48.264  17.131  85.118  1.00  0.00     0.211 HD
ENDBRANCH  15  16
ENDBRANCH   9  15
ENDBRANCH   1   2
BRANCH   1  18
ATOM     18  C   UNL     1      44.073  16.836  84.778  1.00  0.00     0.286 C 
ATOM     19  C   UNL     1      44.655  17.852  85.785  1.00  0.00     0.202 C 
ATOM     20  O   UNL     1      43.292  17.489  83.786  1.00  0.00    -0.341 OA
ATOM     21  C   UNL     1      45.456  18.940  85.048  1.00  0.00     0.179 C 
ATOM     22  C   UNL     1      44.070  18.403  83.027  1.00  0.00     0.178 C 
ATOM     23  C   UNL     1      44.604  19.546  83.921  1.00  0.00     0.177 C 
BRANCH  19  24
ATOM     24  O   UNL     1      45.488  17.197  86.706  1.00  0.00    -0.385 OA
ATOM     25  H   UNL     1      46.018  16.534  86.192  1.00  0.00     0.211 HD
ENDBRANCH  19  24
BRANCH  21  26
ATOM     26  O   UNL     1      45.842  19.951  85.945  1.00  0.00    -0.387 OA
ATOM     27  H   UNL     1      46.399  20.594  85.433  1.00  0.00     0.211 HD
ENDBRANCH  21  26
BRANCH  22  28
ATOM     28  C   UNL     1      43.228  18.935  81.859  1.00  0.00     0.191 C 
BRANCH  28  29
ATOM     29  O   UNL     1      41.916  19.201  82.273  1.00  0.00    -0.394 OA
ATOM     30  H   UNL     1      41.989  19.618  83.171  1.00  0.00     0.210 HD
ENDBRANCH  28  29
ENDBRANCH  22  28
BRANCH  23  31
ATOM     31  O   UNL     1      43.530  20.276  84.463  1.00  0.00    -0.387 OA
ATOM     32  H   UNL     1      42.823  19.619  84.699  1.00  0.00     0.211 HD
ENDBRANCH  23  31
ENDBRANCH   1  18
TORSDOF 11
ENDMDL
MODEL 2
REMARK VINA RESULT:    -4.059      3.471      6.077
REMARK INTER + INTRA:          -7.735
REMARK INTER:                  -6.057
REMARK INTRA:                  -1.678
REMARK UNBOUND:                -1.659
REMARK SMILES COC(=O)C1=CO[C@@H](O[C@@H]2O[C@@H](CO)[C@@H](O)[C@@H](O)[C@@H]2O)[C@@H]2C(CO)=CC[C@H]12
REMARK SMILES IDX 9 1 8 2 5 3 6 4 27 5 7 6 21 7 26 8 22 9 25 10 3 11 4 12 2 13
REMARK SMILES IDX 1 14 23 15 24 16 10 18 19 19 11 20 17 21 12 22 15 23 20 24
REMARK SMILES IDX 18 26 13 28 14 29 16 31
REMARK H PARENT 24 17 20 25 18 27 14 30 16 32
REMARK Flexibility Score: inf
ROOT
ATOM      1  O   UNL     1      46.410  11.911  85.370  1.00  0.00    -0.310 OA
ENDROOT
BRANCH   1   2
ATOM      2  C   UNL     1      46.098  10.963  84.359  1.00  0.00     0.316 C 
ATOM      3  C   UNL     1      45.126   9.958  81.846  1.00  0.00     0.076 C 
ATOM      4  C   UNL     1      46.238  10.707  81.906  1.00  0.00     0.202 C 
ATOM      5  C   UNL     1      44.209   9.831  83.052  1.00  0.00     0.047 C 
ATOM      6  O   UNL     1      46.625  11.341  83.086  1.00  0.00    -0.471 OA
ATOM      7  C   UNL     1      44.577  10.703  84.276  1.00  0.00     0.094 C 
ATOM      8  C   UNL     1      44.132   8.398  83.597  1.00  0.00     0.037 C 
ATOM      9  C   UNL     1      44.130   9.849  85.425  1.00  0.00    -0.039 C 
ATOM     10  C   UNL     1      43.899   8.596  85.053  1.00  0.00    -0.024 C 
BRANCH   3  11
ATOM     11  C   UNL     1      44.749   9.294  80.576  1.00  0.00     0.337 C 
ATOM     12  O   UNL     1      43.636   9.551  80.040  1.00  0.00    -0.246 OA
BRANCH  11  13
ATOM     13  O   UNL     1      45.624   8.384  79.968  1.00  0.00    -0.466 OA
ATOM     14  C   UNL     1      46.005   7.159  80.581  1.00  0.00     0.282 C 
ENDBRANCH  11  13
ENDBRANCH   3  11
BRANCH   9  15
ATOM     15  C   UNL     1      43.941  10.348  86.834  1.00  0.00     0.187 C 
BRANCH  15  16
ATOM     16  O   UNL     1      43.809  11.742  86.836  1.00  0.00    -0.392 OA
ATOM     17  H   UNL     1      43.965  12.043  85.903  1.00  0.00     0.211 HD
ENDBRANCH  15  16
ENDBRANCH   9  15
ENDBRANCH   1   2
BRANCH   1  18
ATOM     18  C   UNL     1      46.889  13.145  84.848  1.00  0.00     0.286 C 
ATOM     19  C   UNL     1      46.215  14.328  85.577  1.00  0.00     0.202 C 
ATOM     20  O   UNL     1      48.306  13.224  84.945  1.00  0.00    -0.341 OA
ATOM     21  C   UNL     1      46.688  14.397  87.040  1.00  0.00     0.179 C 
ATOM     22  C   UNL     1      48.741  13.162  86.295  1.00  0.00     0.178 C 
ATOM     23  C   UNL     1      48.225  14.379  87.096  1.00  0.00     0.177 C 
BRANCH  19  24
ATOM     24  O   UNL     1      44.819  14.187  85.540  1.00  0.00    -0.385 OA
ATOM     25  H   UNL     1      44.525  14.485  84.640  1.00  0.00     0.211 HD
ENDBRANCH  19  24
BRANCH  21  26
ATOM     26  O   UNL     1      46.207  15.567  87.653  1.00  0.00    -0.387 OA
ATOM     27  H   UNL     1      45.288  15.369  87.972  1.00  0.00     0.211 HD
ENDBRANCH  21  26
BRANCH  22  28
ATOM     28  C   UNL     1      50.272  13.062  86.328  1.00  0.00     0.191 C 
BRANCH  28  29
ATOM     29  O   UNL     1      50.785  13.680  87.477  1.00  0.00    -0.394 OA
ATOM     30  H   UNL     1      51.339  12.995  87.934  1.00  0.00     0.210 HD
ENDBRANCH  28  29
ENDBRANCH  22  28
BRANCH  23  31
ATOM     31  O   UNL     1      48.744  15.569  86.554  1.00  0.00    -0.387 OA
ATOM     32  H   UNL     1      49.404  15.307  85.859  1.00  0.00     0.211 HD
ENDBRANCH  23  31
ENDBRANCH   1  18
TORSDOF 11
ENDMDL
MODEL 3
REMARK VINA RESULT:    -4.059      2.139      2.761
REMARK INTER + INTRA:          -7.735
REMARK INTER:                  -6.586
REMARK INTRA:                  -1.149
REMARK UNBOUND:                -1.659
REMARK SMILES COC(=O)C1=CO[C@@H](O[C@@H]2O[C@@H](CO)[C@@H](O)[C@@H](O)[C@@H]2O)[C@@H]2C(CO)=CC[C@H]12
REMARK SMILES IDX 9 1 8 2 5 3 6 4 27 5 7 6 21 7 26 8 22 9 25 10 3 11 4 12 2 13
REMARK SMILES IDX 1 14 23 15 24 16 10 18 19 19 11 20 17 21 12 22 15 23 20 24
REMARK SMILES IDX 18 26 13 28 14 29 16 31
REMARK H PARENT 24 17 20 25 18 27 14 30 16 32
REMARK Flexibility Score: inf
ROOT
ATOM      1  O   UNL     1      46.791  16.682  84.953  1.00  0.00    -0.310 OA
ENDROOT
BRANCH   1   2
ATOM      2  C   UNL     1      46.218  15.385  84.866  1.00  0.00     0.316 C 
ATOM      3  C   UNL     1      44.393  13.229  85.400  1.00  0.00     0.076 C 
ATOM      4  C   UNL     1      44.000  14.309  84.708  1.00  0.00     0.202 C 
ATOM      5  C   UNL     1      45.721  13.220  86.139  1.00  0.00     0.047 C 
ATOM      6  O   UNL     1      44.818  15.433  84.588  1.00  0.00    -0.471 OA
ATOM      7  C   UNL     1      46.505  14.554  86.137  1.00  0.00     0.094 C 
ATOM      8  C   UNL     1      46.707  12.182  85.587  1.00  0.00     0.037 C 
ATOM      9  C   UNL     1      47.931  14.089  86.146  1.00  0.00    -0.039 C 
ATOM     10  C   UNL     1      48.035  12.802  85.837  1.00  0.00    -0.024 C 
BRANCH   3  11
ATOM     11  C   UNL     1      43.499  12.051  85.501  1.00  0.00     0.337 C 
ATOM     12  O   UNL     1      43.221  11.383  84.467  1.00  0.00    -0.246 OA
BRANCH  11  13
ATOM     13  O   UNL     1      42.963  11.676  86.739  1.00  0.00    -0.466 OA
ATOM     14  C   UNL     1      43.564  10.690  87.569  1.00  0.00     0.282 C 
ENDBRANCH  11  13
ENDBRANCH   3  11
BRANCH   9  15
ATOM     15  C   UNL     1      49.110  14.963  86.483  1.00  0.00     0.187 C 
BRANCH  15  16
ATOM     16  O   UNL     1      49.203  15.130  87.871  1.00  0.00    -0.392 OA
ATOM     17  H   UNL     1      48.499  14.556  88.273  1.00  0.00     0.211 HD
ENDBRANCH  15  16
ENDBRANCH   9  15
ENDBRANCH   1   2
BRANCH   1  18
ATOM     18  C   UNL     1      45.994  17.685  84.334  1.00  0.00     0.286 C 
ATOM     19  C   UNL     1      45.839  18.899  85.277  1.00  0.00     0.202 C 
ATOM     20  O   UNL     1      46.547  18.077  83.083  1.00  0.00    -0.341 OA
ATOM     21  C   UNL     1      47.186  19.623  85.446  1.00  0.00     0.179 C 
ATOM     22  C   UNL     1      47.844  18.633  83.237  1.00  0.00     0.178 C 
ATOM     23  C   UNL     1      47.791  19.936  84.067  1.00  0.00     0.177 C 
BRANCH  19  24
ATOM     24  O   UNL     1      45.369  18.479  86.532  1.00  0.00    -0.385 OA
ATOM     25  H   UNL     1      45.123  19.299  87.034  1.00  0.00     0.211 HD
ENDBRANCH  19  24
BRANCH  21  26
ATOM     26  O   UNL     1      47.010  20.818  86.166  1.00  0.00    -0.387 OA
ATOM     27  H   UNL     1      47.785  20.902  86.780  1.00  0.00     0.211 HD
ENDBRANCH  21  26
BRANCH  22  28
ATOM     28  C   UNL     1      48.463  18.861  81.851  1.00  0.00     0.191 C 
BRANCH  28  29
ATOM     29  O   UNL     1      49.333  19.960  81.871  1.00  0.00    -0.394 OA
ATOM     30  H   UNL     1      48.756  20.768  81.884  1.00  0.00     0.210 HD
ENDBRANCH  28  29
ENDBRANCH  22  28
BRANCH  23  31
ATOM     31  O   UNL     1      47.010  20.899  83.402  1.00  0.00    -0.387 OA
ATOM     32  H   UNL     1      46.706  21.550  84.088  1.00  0.00     0.211 HD
ENDBRANCH  23  31
ENDBRANCH   1  18
TORSDOF 11
ENDMDL
MODEL 4
REMARK VINA RESULT:    -3.905      1.806      2.569
REMARK INTER + INTRA:          -7.505
REMARK INTER:                  -6.211
REMARK INTRA:                  -1.294
REMARK UNBOUND:                -1.659
REMARK SMILES COC(=O)C1=CO[C@@H](O[C@@H]2O[C@@H](CO)[C@@H](O)[C@@H](O)[C@@H]2O)[C@@H]2C(CO)=CC[C@H]12
REMARK SMILES IDX 9 1 8 2 5 3 6 4 27 5 7 6 21 7 26 8 22 9 25 10 3 11 4 12 2 13
REMARK SMILES IDX 1 14 23 15 24 16 10 18 19 19 11 20 17 21 12 22 15 23 20 24
REMARK SMILES IDX 18 26 13 28 14 29 16 31
REMARK H PARENT 24 17 20 25 18 27 14 30 16 32
REMARK Flexibility Score: inf
ROOT
ATOM      1  O   UNL     1      44.757  15.635  85.276  1.00  0.00    -0.310 OA
ENDROOT
BRANCH   1   2
ATOM      2  C   UNL     1      44.805  14.297  84.799  1.00  0.00     0.316 C 
ATOM      3  C   UNL     1      44.051  11.539  84.497  1.00  0.00     0.076 C 
ATOM      4  C   UNL     1      43.282  12.522  84.005  1.00  0.00     0.202 C 
ATOM      5  C   UNL     1      45.199  11.851  85.444  1.00  0.00     0.047 C 
ATOM      6  O   UNL     1      43.543  13.862  84.289  1.00  0.00    -0.471 OA
ATOM      7  C   UNL     1      45.332  13.329  85.882  1.00  0.00     0.094 C 
ATOM      8  C   UNL     1      46.571  11.487  84.861  1.00  0.00     0.037 C 
ATOM      9  C   UNL     1      46.815  13.484  86.044  1.00  0.00    -0.039 C 
ATOM     10  C   UNL     1      47.483  12.486  85.480  1.00  0.00    -0.024 C 
BRANCH   3  11
ATOM     11  C   UNL     1      43.746  10.126  84.168  1.00  0.00     0.337 C 
ATOM     12  O   UNL     1      43.267   9.834  83.039  1.00  0.00    -0.246 OA
BRANCH  11  13
ATOM     13  O   UNL     1      43.988   9.116  85.107  1.00  0.00    -0.466 OA
ATOM     14  C   UNL     1      44.813   7.991  84.829  1.00  0.00     0.282 C 
ENDBRANCH  11  13
ENDBRANCH   3  11
BRANCH   9  15
ATOM     15  C   UNL     1      47.477  14.621  86.776  1.00  0.00     0.187 C 
BRANCH  15  16
ATOM     16  O   UNL     1      46.566  15.222  87.655  1.00  0.00    -0.392 OA
ATOM     17  H   UNL     1      45.679  14.823  87.459  1.00  0.00     0.211 HD
ENDBRANCH  15  16
ENDBRANCH   9  15
ENDBRANCH   1   2
BRANCH   1  18
ATOM     18  C   UNL     1      44.546  16.588  84.240  1.00  0.00     0.286 C 
ATOM     19  C   UNL     1      44.433  18.007  84.839  1.00  0.00     0.202 C 
ATOM     20  O   UNL     1      45.583  16.524  83.269  1.00  0.00    -0.341 OA
ATOM     21  C   UNL     1      45.787  18.457  85.414  1.00  0.00     0.179 C 
ATOM     22  C   UNL     1      46.850  16.821  83.837  1.00  0.00     0.178 C 
ATOM     23  C   UNL     1      46.892  18.275  84.360  1.00  0.00     0.177 C 
BRANCH  19  24
ATOM     24  O   UNL     1      43.461  18.028  85.852  1.00  0.00    -0.385 OA
ATOM     25  H   UNL     1      42.620  18.349  85.435  1.00  0.00     0.211 HD
ENDBRANCH  19  24
BRANCH  21  26
ATOM     26  O   UNL     1      45.726  19.806  85.806  1.00  0.00    -0.387 OA
ATOM     27  H   UNL     1      46.626  20.049  86.145  1.00  0.00     0.211 HD
ENDBRANCH  21  26
BRANCH  22  28
ATOM     28  C   UNL     1      47.946  16.555  82.796  1.00  0.00     0.191 C 
BRANCH  28  29
ATOM     29  O   UNL     1      49.040  17.406  82.998  1.00  0.00    -0.394 OA
ATOM     30  H   UNL     1      49.070  18.008  82.210  1.00  0.00     0.210 HD
ENDBRANCH  28  29
ENDBRANCH  22  28
BRANCH  23  31
ATOM     31  O   UNL     1      46.700  19.176  83.296  1.00  0.00    -0.387 OA
ATOM     32  H   UNL     1      47.134  18.776  82.497  1.00  0.00     0.211 HD
ENDBRANCH  23  31
ENDBRANCH   1  18
TORSDOF 11
ENDMDL
MODEL 5
REMARK VINA RESULT:    -3.840      2.566      5.303
REMARK INTER + INTRA:          -7.408
REMARK INTER:                  -6.264
REMARK INTRA:                  -1.144
REMARK UNBOUND:                -1.659
REMARK SMILES COC(=O)C1=CO[C@@H](O[C@@H]2O[C@@H](CO)[C@@H](O)[C@@H](O)[C@@H]2O)[C@@H]2C(CO)=CC[C@H]12
REMARK SMILES IDX 9 1 8 2 5 3 6 4 27 5 7 6 21 7 26 8 22 9 25 10 3 11 4 12 2 13
REMARK SMILES IDX 1 14 23 15 24 16 10 18 19 19 11 20 17 21 12 22 15 23 20 24
REMARK SMILES IDX 18 26 13 28 14 29 16 31
REMARK H PARENT 24 17 20 25 18 27 14 30 16 32
REMARK Flexibility Score: inf
ROOT
ATOM      1  O   UNL     1      45.126  12.957  84.431  1.00  0.00    -0.310 OA
ENDROOT
BRANCH   1   2
ATOM      2  C   UNL     1      45.069  11.641  83.897  1.00  0.00     0.316 C 
ATOM      3  C   UNL     1      44.212   9.477  82.210  1.00  0.00     0.076 C 
ATOM      4  C   UNL     1      44.931  10.495  81.714  1.00  0.00     0.202 C 
ATOM      5  C   UNL     1      43.611   9.557  83.603  1.00  0.00     0.047 C 
ATOM      6  O   UNL     1      45.207  11.630  82.476  1.00  0.00    -0.471 OA
ATOM      7  C   UNL     1      43.781  10.908  84.336  1.00  0.00     0.094 C 
ATOM      8  C   UNL     1      44.189   8.510  84.566  1.00  0.00     0.037 C 
ATOM      9  C   UNL     1      43.884  10.485  85.772  1.00  0.00    -0.039 C 
ATOM     10  C   UNL     1      44.116   9.183  85.890  1.00  0.00    -0.024 C 
BRANCH   3  11
ATOM     11  C   UNL     1      43.944   8.284  81.372  1.00  0.00     0.337 C 
ATOM     12  O   UNL     1      42.771   8.048  80.973  1.00  0.00    -0.246 OA
BRANCH  11  13
ATOM     13  O   UNL     1      44.988   7.419  81.021  1.00  0.00    -0.466 OA
ATOM     14  C   UNL     1      45.297   6.247  81.765  1.00  0.00     0.282 C 
ENDBRANCH  11  13
ENDBRANCH   3  11
BRANCH   9  15
ATOM     15  C   UNL     1      43.726  11.413  86.947  1.00  0.00     0.187 C 
BRANCH  15  16
ATOM     16  O   UNL     1      42.372  11.534  87.284  1.00  0.00    -0.392 OA
ATOM     17  H   UNL     1      41.927  10.702  86.976  1.00  0.00     0.211 HD
ENDBRANCH  15  16
ENDBRANCH   9  15
ENDBRANCH   1   2
BRANCH   1  18
ATOM     18  C   UNL     1      46.160  13.746  83.854  1.00  0.00     0.286 C 
ATOM     19  C   UNL     1      45.688  15.208  83.696  1.00  0.00     0.202 C 
ATOM     20  O   UNL     1      47.350  13.674  84.630  1.00  0.00    -0.341 OA
ATOM     21  C   UNL     1      45.515  15.869  85.075  1.00  0.00     0.179 C 
ATOM     22  C   UNL     1      47.148  14.173  85.943  1.00  0.00     0.178 C 
ATOM     23  C   UNL     1      46.791  15.677  85.912  1.00  0.00     0.177 C 
BRANCH  19  24
ATOM     24  O   UNL     1      44.470  15.250  82.998  1.00  0.00    -0.385 OA
ATOM     25  H   UNL     1      44.447  14.449  82.414  1.00  0.00     0.211 HD
ENDBRANCH  19  24
BRANCH  21  26
ATOM     26  O   UNL     1      45.249  17.241  84.928  1.00  0.00    -0.387 OA
ATOM     27  H   UNL     1      45.475  17.674  85.792  1.00  0.00     0.211 HD
ENDBRANCH  21  26
BRANCH  22  28
ATOM     28  C   UNL     1      48.401  13.900  86.786  1.00  0.00     0.191 C 
BRANCH  28  29
ATOM     29  O   UNL     1      48.604  14.924  87.721  1.00  0.00    -0.394 OA
ATOM     30  H   UNL     1      48.010  14.718  88.489  1.00  0.00     0.210 HD
ENDBRANCH  28  29
ENDBRANCH  22  28
BRANCH  23  31
ATOM     31  O   UNL     1      47.852  16.414  85.354  1.00  0.00    -0.387 OA
ATOM     32  H   UNL     1      48.096  15.969  84.500  1.00  0.00     0.211 HD
ENDBRANCH  23  31
ENDBRANCH   1  18
TORSDOF 11
ENDMDL
MODEL 6
REMARK VINA RESULT:    -3.837      2.050      2.609
REMARK INTER + INTRA:          -7.404
REMARK INTER:                  -5.896
REMARK INTRA:                  -1.508
REMARK UNBOUND:                -1.659
REMARK SMILES COC(=O)C1=CO[C@@H](O[C@@H]2O[C@@H](CO)[C@@H](O)[C@@H](O)[C@@H]2O)[C@@H]2C(CO)=CC[C@H]12
REMARK SMILES IDX 9 1 8 2 5 3 6 4 27 5 7 6 21 7 26 8 22 9 25 10 3 11 4 12 2 13
REMARK SMILES IDX 1 14 23 15 24 16 10 18 19 19 11 20 17 21 12 22 15 23 20 24
REMARK SMILES IDX 18 26 13 28 14 29 16 31
REMARK H PARENT 24 17 20 25 18 27 14 30 16 32
REMARK Flexibility Score: inf
ROOT
ATOM      1  O   UNL     1      45.728  16.070  84.437  1.00  0.00    -0.310 OA
ENDROOT
BRANCH   1   2
ATOM      2  C   UNL     1      45.014  14.862  84.218  1.00  0.00     0.316 C 
ATOM      3  C   UNL     1      42.790  13.039  84.187  1.00  0.00     0.076 C 
ATOM      4  C   UNL     1      42.833  14.089  83.353  1.00  0.00     0.202 C 
ATOM      5  C   UNL     1      43.774  12.922  85.340  1.00  0.00     0.047 C 
ATOM      6  O   UNL     1      43.815  15.073  83.471  1.00  0.00    -0.471 OA
ATOM      7  C   UNL     1      44.720  14.129  85.547  1.00  0.00     0.094 C 
ATOM      8  C   UNL     1      44.705  11.709  85.211  1.00  0.00     0.037 C 
ATOM      9  C   UNL     1      45.965  13.476  86.069  1.00  0.00    -0.039 C 
ATOM     10  C   UNL     1      45.956  12.163  85.876  1.00  0.00    -0.024 C 
BRANCH   3  11
ATOM     11  C   UNL     1      41.735  12.011  84.027  1.00  0.00     0.337 C 
ATOM     12  O   UNL     1      41.895  11.070  83.202  1.00  0.00    -0.246 OA
BRANCH  11  13
ATOM     13  O   UNL     1      40.562  12.079  84.789  1.00  0.00    -0.466 OA
ATOM     14  C   UNL     1      39.420  12.820  84.376  1.00  0.00     0.282 C 
ENDBRANCH  11  13
ENDBRANCH   3  11
BRANCH   9  15
ATOM     15  C   UNL     1      47.089  14.209  86.753  1.00  0.00     0.187 C 
BRANCH  15  16
ATOM     16  O   UNL     1      46.580  15.273  87.507  1.00  0.00    -0.392 OA
ATOM     17  H   UNL     1      47.363  15.787  87.836  1.00  0.00     0.211 HD
ENDBRANCH  15  16
ENDBRANCH   9  15
ENDBRANCH   1   2
BRANCH   1  18
ATOM     18  C   UNL     1      44.907  17.228  84.334  1.00  0.00     0.286 C 
ATOM     19  C   UNL     1      45.218  18.204  85.490  1.00  0.00     0.202 C 
ATOM     20  O   UNL     1      45.073  17.860  83.072  1.00  0.00    -0.341 OA
ATOM     21  C   UNL     1      46.628  18.799  85.326  1.00  0.00     0.179 C 
ATOM     22  C   UNL     1      46.410  18.297  82.878  1.00  0.00     0.178 C 
ATOM     23  C   UNL     1      46.791  19.381  83.912  1.00  0.00     0.177 C 
BRANCH  19  24
ATOM     24  O   UNL     1      45.129  17.539  86.723  1.00  0.00    -0.385 OA
ATOM     25  H   UNL     1      45.909  17.831  87.263  1.00  0.00     0.211 HD
ENDBRANCH  19  24
BRANCH  21  26
ATOM     26  O   UNL     1      46.845  19.808  86.280  1.00  0.00    -0.387 OA
ATOM     27  H   UNL     1      46.149  19.700  86.979  1.00  0.00     0.211 HD
ENDBRANCH  21  26
BRANCH  22  28
ATOM     28  C   UNL     1      46.574  18.798  81.436  1.00  0.00     0.191 C 
BRANCH  28  29
ATOM     29  O   UNL     1      45.444  19.523  81.031  1.00  0.00    -0.394 OA
ATOM     30  H   UNL     1      45.302  20.220  81.723  1.00  0.00     0.210 HD
ENDBRANCH  28  29
ENDBRANCH  22  28
BRANCH  23  31
ATOM     31  O   UNL     1      45.966  20.510  83.754  1.00  0.00    -0.387 OA
ATOM     32  H   UNL     1      46.539  21.309  83.894  1.00  0.00     0.211 HD
ENDBRANCH  23  31
ENDBRANCH   1  18
TORSDOF 11
ENDMDL
MODEL 7
REMARK VINA RESULT:    -3.837      2.063      3.946
REMARK INTER + INTRA:          -7.403
REMARK INTER:                  -5.712
REMARK INTRA:                  -1.691
REMARK UNBOUND:                -1.659
REMARK SMILES COC(=O)C1=CO[C@@H](O[C@@H]2O[C@@H](CO)[C@@H](O)[C@@H](O)[C@@H]2O)[C@@H]2C(CO)=CC[C@H]12
REMARK SMILES IDX 9 1 8 2 5 3 6 4 27 5 7 6 21 7 26 8 22 9 25 10 3 11 4 12 2 13
REMARK SMILES IDX 1 14 23 15 24 16 10 18 19 19 11 20 17 21 12 22 15 23 20 24
REMARK SMILES IDX 18 26 13 28 14 29 16 31
REMARK H PARENT 24 17 20 25 18 27 14 30 16 32
REMARK Flexibility Score: inf
ROOT
ATOM      1  O   UNL     1      45.997  14.663  84.296  1.00  0.00    -0.310 OA
ENDROOT
BRANCH   1   2
ATOM      2  C   UNL     1      45.352  13.426  84.566  1.00  0.00     0.316 C 
ATOM      3  C   UNL     1      44.551  10.691  84.188  1.00  0.00     0.076 C 
ATOM      4  C   UNL     1      45.818  11.002  84.504  1.00  0.00     0.202 C 
ATOM      5  C   UNL     1      43.567  11.771  83.769  1.00  0.00     0.047 C 
ATOM      6  O   UNL     1      46.259  12.324  84.523  1.00  0.00    -0.471 OA
ATOM      7  C   UNL     1      44.151  13.196  83.620  1.00  0.00     0.094 C 
ATOM      8  C   UNL     1      42.395  11.926  84.748  1.00  0.00     0.037 C 
ATOM      9  C   UNL     1      42.995  14.062  84.024  1.00  0.00    -0.039 C 
ATOM     10  C   UNL     1      42.048  13.368  84.644  1.00  0.00    -0.024 C 
BRANCH   3  11
ATOM     11  C   UNL     1      44.116   9.274  84.184  1.00  0.00     0.337 C 
ATOM     12  O   UNL     1      43.335   8.860  83.285  1.00  0.00    -0.246 OA
BRANCH  11  13
ATOM     13  O   UNL     1      44.571   8.394  85.174  1.00  0.00    -0.466 OA
ATOM     14  C   UNL     1      45.519   7.366  84.911  1.00  0.00     0.282 C 
ENDBRANCH  11  13
ENDBRANCH   3  11
BRANCH   9  15
ATOM     15  C   UNL     1      42.898  15.538  83.745  1.00  0.00     0.187 C 
BRANCH  15  16
ATOM     16  O   UNL     1      43.287  16.268  84.876  1.00  0.00    -0.392 OA
ATOM     17  H   UNL     1      42.452  16.583  85.310  1.00  0.00     0.211 HD
ENDBRANCH  15  16
ENDBRANCH   9  15
ENDBRANCH   1   2
BRANCH   1  18
ATOM     18  C   UNL     1      46.620  15.228  85.444  1.00  0.00     0.286 C 
ATOM     19  C   UNL     1      48.155  15.201  85.284  1.00  0.00     0.202 C 
ATOM     20  O   UNL     1      46.152  16.550  85.679  1.00  0.00    -0.341 OA
ATOM     21  C   UNL     1      48.596  16.172  84.174  1.00  0.00     0.179 C 
ATOM     22  C   UNL     1      46.455  17.412  84.593  1.00  0.00     0.178 C 
ATOM     23  C   UNL     1      47.984  17.562  84.418  1.00  0.00     0.177 C 
BRANCH  19  24
ATOM     24  O   UNL     1      48.587  13.903  84.971  1.00  0.00    -0.385 OA
ATOM     25  H   UNL     1      47.834  13.292  85.181  1.00  0.00     0.211 HD
ENDBRANCH  19  24
BRANCH  21  26
ATOM     26  O   UNL     1      49.998  16.273  84.142  1.00  0.00    -0.387 OA
ATOM     27  H   UNL     1      50.249  17.006  84.762  1.00  0.00     0.211 HD
ENDBRANCH  21  26
BRANCH  22  28
ATOM     28  C   UNL     1      45.769  18.766  84.816  1.00  0.00     0.191 C 
BRANCH  28  29
ATOM     29  O   UNL     1      45.851  19.149  86.162  1.00  0.00    -0.394 OA
ATOM     30  H   UNL     1      45.471  18.397  86.686  1.00  0.00     0.210 HD
ENDBRANCH  28  29
ENDBRANCH  22  28
BRANCH  23  31
ATOM     31  O   UNL     1      48.546  18.144  85.570  1.00  0.00    -0.387 OA
ATOM     32  H   UNL     1      48.848  17.399  86.153  1.00  0.00     0.211 HD
ENDBRANCH  23  31
ENDBRANCH   1  18
TORSDOF 11
ENDMDL
MODEL 8
REMARK VINA RESULT:    -3.740      1.522      2.982
REMARK INTER + INTRA:          -7.258
REMARK INTER:                  -5.651
REMARK INTRA:                  -1.607
REMARK UNBOUND:                -1.659
REMARK SMILES COC(=O)C1=CO[C@@H](O[C@@H]2O[C@@H](CO)[C@@H](O)[C@@H](O)[C@@H]2O)[C@@H]2C(CO)=CC[C@H]12
REMARK SMILES IDX 9 1 8 2 5 3 6 4 27 5 7 6 21 7 26 8 22 9 25 10 3 11 4 12 2 13
REMARK SMILES IDX 1 14 23 15 24 16 10 18 19 19 11 20 17 21 12 22 15 23 20 24
REMARK SMILES IDX 18 26 13 28 14 29 16 31
REMARK H PARENT 24 17 20 25 18 27 14 30 16 32
REMARK Flexibility Score: inf
ROOT
ATOM      1  O   UNL     1      44.284  16.151  84.268  1.00  0.00    -0.310 OA
ENDROOT
BRANCH   1   2
ATOM      2  C   UNL     1      43.918  14.868  84.755  1.00  0.00     0.316 C 
ATOM      3  C   UNL     1      44.076  12.031  85.194  1.00  0.00     0.076 C 
ATOM      4  C   UNL     1      44.955  12.868  85.767  1.00  0.00     0.202 C 
ATOM      5  C   UNL     1      43.138  12.518  84.102  1.00  0.00     0.047 C 
ATOM      6  O   UNL     1      44.997  14.220  85.430  1.00  0.00    -0.471 OA
ATOM      7  C   UNL     1      43.351  13.975  83.628  1.00  0.00     0.094 C 
ATOM      8  C   UNL     1      41.659  12.448  84.507  1.00  0.00     0.037 C 
ATOM      9  C   UNL     1      41.959  14.405  83.272  1.00  0.00    -0.039 C 
ATOM     10  C   UNL     1      41.044  13.577  83.761  1.00  0.00    -0.024 C 
BRANCH   3  11
ATOM     11  C   UNL     1      44.057  10.600  85.582  1.00  0.00     0.337 C 
ATOM     12  O   UNL     1      43.712  10.271  86.750  1.00  0.00    -0.246 OA
BRANCH  11  13
ATOM     13  O   UNL     1      44.419   9.614  84.656  1.00  0.00    -0.466 OA
ATOM     14  C   UNL     1      44.325   8.224  84.939  1.00  0.00     0.282 C 
ENDBRANCH  11  13
ENDBRANCH   3  11
BRANCH   9  15
ATOM     15  C   UNL     1      41.627  15.617  82.443  1.00  0.00     0.187 C 
BRANCH  15  16
ATOM     16  O   UNL     1      40.919  16.548  83.214  1.00  0.00    -0.392 OA
ATOM     17  H   UNL     1      39.984  16.541  82.878  1.00  0.00     0.211 HD
ENDBRANCH  15  16
ENDBRANCH   9  15
ENDBRANCH   1   2
BRANCH   1  18
ATOM     18  C   UNL     1      43.781  17.215  85.067  1.00  0.00     0.286 C 
ATOM     19  C   UNL     1      44.924  17.851  85.888  1.00  0.00     0.202 C 
ATOM     20  O   UNL     1      43.124  18.188  84.266  1.00  0.00    -0.341 OA
ATOM     21  C   UNL     1      45.906  18.589  84.960  1.00  0.00     0.179 C 
ATOM     22  C   UNL     1      44.010  18.777  83.327  1.00  0.00     0.178 C 
ATOM     23  C   UNL     1      45.136  19.556  84.045  1.00  0.00     0.177 C 
BRANCH  19  24
ATOM     24  O   UNL     1      45.612  16.861  86.608  1.00  0.00    -0.385 OA
ATOM     25  H   UNL     1      46.572  16.952  86.374  1.00  0.00     0.211 HD
ENDBRANCH  19  24
BRANCH  21  26
ATOM     26  O   UNL     1      46.848  19.304  85.718  1.00  0.00    -0.387 OA
ATOM     27  H   UNL     1      46.564  20.255  85.709  1.00  0.00     0.211 HD
ENDBRANCH  21  26
BRANCH  22  28
ATOM     28  C   UNL     1      43.212  19.675  82.372  1.00  0.00     0.191 C 
BRANCH  28  29
ATOM     29  O   UNL     1      41.865  19.289  82.336  1.00  0.00    -0.394 OA
ATOM     30  H   UNL     1      41.541  19.502  81.423  1.00  0.00     0.210 HD
ENDBRANCH  28  29
ENDBRANCH  22  28
BRANCH  23  31
ATOM     31  O   UNL     1      44.588  20.607  84.803  1.00  0.00    -0.387 OA
ATOM     32  H   UNL     1      43.698  20.813  84.411  1.00  0.00     0.211 HD
ENDBRANCH  23  31
ENDBRANCH   1  18
TORSDOF 11
ENDMDL
MODEL 9
REMARK VINA RESULT:    -3.637      2.182      3.767
REMARK INTER + INTRA:          -7.103
REMARK INTER:                  -5.487
REMARK INTRA:                  -1.616
REMARK UNBOUND:                -1.659
REMARK SMILES COC(=O)C1=CO[C@@H](O[C@@H]2O[C@@H](CO)[C@@H](O)[C@@H](O)[C@@H]2O)[C@@H]2C(CO)=CC[C@H]12
REMARK SMILES IDX 9 1 8 2 5 3 6 4 27 5 7 6 21 7 26 8 22 9 25 10 3 11 4 12 2 13
REMARK SMILES IDX 1 14 23 15 24 16 10 18 19 19 11 20 17 21 12 22 15 23 20 24
REMARK SMILES IDX 18 26 13 28 14 29 16 31
REMARK H PARENT 24 17 20 25 18 27 14 30 16 32
REMARK Flexibility Score: inf
ROOT
ATOM      1  O   UNL     1      45.837  16.662  84.799  1.00  0.00    -0.310 OA
ENDROOT
BRANCH   1   2
ATOM      2  C   UNL     1      46.503  15.593  85.456  1.00  0.00     0.316 C 
ATOM      3  C   UNL     1      48.544  13.639  85.986  1.00  0.00     0.076 C 
ATOM      4  C   UNL     1      48.773  14.946  86.183  1.00  0.00     0.202 C 
ATOM      5  C   UNL     1      47.305  13.171  85.241  1.00  0.00     0.047 C 
ATOM      6  O   UNL     1      47.858  15.915  85.772  1.00  0.00    -0.471 OA
ATOM      7  C   UNL     1      46.418  14.285  84.637  1.00  0.00     0.094 C 
ATOM      8  C   UNL     1      46.355  12.343  86.118  1.00  0.00     0.037 C 
ATOM      9  C   UNL     1      45.044  13.693  84.739  1.00  0.00    -0.039 C 
ATOM     10  C   UNL     1      45.014  12.644  85.552  1.00  0.00    -0.024 C 
BRANCH   3  11
ATOM     11  C   UNL     1      49.537  12.637  86.443  1.00  0.00     0.337 C 
ATOM     12  O   UNL     1      49.578  12.302  87.658  1.00  0.00    -0.246 OA
BRANCH  11  13
ATOM     13  O   UNL     1      50.429  12.061  85.529  1.00  0.00    -0.466 OA
ATOM     14  C   UNL     1      51.669  11.488  85.924  1.00  0.00     0.282 C 
ENDBRANCH  11  13
ENDBRANCH   3  11
BRANCH   9  15
ATOM     15  C   UNL     1      43.838  14.206  83.996  1.00  0.00     0.187 C 
BRANCH  15  16
ATOM     16  O   UNL     1      43.136  15.120  84.792  1.00  0.00    -0.392 OA
ATOM     17  H   UNL     1      42.447  14.600  85.281  1.00  0.00     0.211 HD
ENDBRANCH  15  16
ENDBRANCH   9  15
ENDBRANCH   1   2
BRANCH   1  18
ATOM     18  C   UNL     1      45.485  17.723  85.680  1.00  0.00     0.286 C 
ATOM     19  C   UNL     1      46.282  18.997  85.324  1.00  0.00     0.202 C 
ATOM     20  O   UNL     1      44.085  17.970  85.646  1.00  0.00    -0.341 OA
ATOM     21  C   UNL     1      45.829  19.551  83.962  1.00  0.00     0.179 C 
ATOM     22  C   UNL     1      43.654  18.363  84.351  1.00  0.00     0.178 C 
ATOM     23  C   UNL     1      44.299  19.706  83.940  1.00  0.00     0.177 C 
BRANCH  19  24
ATOM     24  O   UNL     1      47.656  18.712  85.282  1.00  0.00    -0.385 OA
ATOM     25  H   UNL     1      48.098  19.338  85.913  1.00  0.00     0.211 HD
ENDBRANCH  19  24
BRANCH  21  26
ATOM     26  O   UNL     1      46.433  20.797  83.717  1.00  0.00    -0.387 OA
ATOM     27  H   UNL     1      47.132  20.649  83.028  1.00  0.00     0.211 HD
ENDBRANCH  21  26
BRANCH  22  28
ATOM     28  C   UNL     1      42.121  18.432  84.328  1.00  0.00     0.191 C 
BRANCH  28  29
ATOM     29  O   UNL     1      41.630  18.973  85.524  1.00  0.00    -0.394 OA
ATOM     30  H   UNL     1      40.885  19.576  85.268  1.00  0.00     0.210 HD
ENDBRANCH  28  29
ENDBRANCH  22  28
BRANCH  23  31
ATOM     31  O   UNL     1      43.902  20.723  84.828  1.00  0.00    -0.387 OA
ATOM     32  H   UNL     1      43.131  21.188  84.410  1.00  0.00     0.211 HD
ENDBRANCH  23  31
ENDBRANCH   1  18
TORSDOF 11
ENDMDL
