MODEL 1
REMARK VINA RESULT:    -5.905      0.000      0.000
REMARK INTER + INTRA:          -6.488
REMARK INTER:                  -6.423
REMARK INTRA:                  -0.065
REMARK UNBOUND:                -0.065
REMARK SMILES COc1cc2ccc(=O)oc2cc1O
REMARK SMILES IDX 3 1 13 2 12 3 11 4 5 5 4 6 6 7 7 8 8 9 9 10 10 11 2 12 1 13
REMARK SMILES IDX 14 14
REMARK H PARENT 14 15
REMARK Flexibility Score: inf
ROOT
ATOM      1  C   UNL     1      53.614  62.411  -0.007  1.00  0.00     0.161 A 
ATOM      2  C   UNL     1      52.762  63.004  -0.959  1.00  0.00     0.161 A 
ATOM      3  C   UNL     1      52.063  64.175  -0.647  1.00  0.00     0.098 A 
ATOM      4  C   UNL     1      52.201  64.767   0.611  1.00  0.00     0.142 A 
ATOM      5  C   UNL     1      53.051  64.180   1.571  1.00  0.00     0.022 A 
ATOM      6  C   UNL     1      53.753  63.008   1.262  1.00  0.00     0.062 A 
ATOM      7  C   UNL     1      53.168  64.796   2.821  1.00  0.00     0.019 A 
ATOM      8  C   UNL     1      52.448  65.962   3.081  1.00  0.00     0.094 A 
ATOM      9  C   UNL     1      51.624  66.486   2.080  1.00  0.00     0.336 A 
ATOM     10  O   UNL     1      50.966  67.538   2.294  1.00  0.00    -0.246 OA
ATOM     11  O   UNL     1      51.531  65.881   0.898  1.00  0.00    -0.423 OA
ENDROOT
BRANCH   1  12
ATOM     12  O   UNL     1      54.302  61.236  -0.355  1.00  0.00    -0.493 OA
ATOM     13  C   UNL     1      53.881  59.921  -0.007  1.00  0.00     0.278 C 
ENDBRANCH   1  12
BRANCH   2  14
ATOM     14  O   UNL     1      52.598  62.443  -2.226  1.00  0.00    -0.504 OA
ATOM     15  H   UNL     1      51.807  62.665  -2.817  1.00  0.00     0.293 HD
ENDBRANCH   2  14
TORSDOF 2
ENDMDL
MODEL 2
REMARK VINA RESULT:    -5.862      8.978      9.919
REMARK INTER + INTRA:          -6.441
REMARK INTER:                  -6.377
REMARK INTRA:                  -0.065
REMARK UNBOUND:                -0.065
REMARK SMILES COc1cc2ccc(=O)oc2cc1O
REMARK SMILES IDX 3 1 13 2 12 3 11 4 5 5 4 6 6 7 7 8 8 9 9 10 10 11 2 12 1 13
REMARK SMILES IDX 14 14
REMARK H PARENT 14 15
REMARK Flexibility Score: inf
ROOT
ATOM      1  C   UNL     1      50.284  57.767   7.247  1.00  0.00     0.161 A 
ATOM      2  C   UNL     1      49.072  58.210   7.811  1.00  0.00     0.161 A 
ATOM      3  C   UNL     1      47.903  58.232   7.042  1.00  0.00     0.098 A 
ATOM      4  C   UNL     1      47.926  57.816   5.709  1.00  0.00     0.142 A 
ATOM      5  C   UNL     1      49.135  57.370   5.136  1.00  0.00     0.022 A 
ATOM      6  C   UNL     1      50.308  57.346   5.902  1.00  0.00     0.062 A 
ATOM      7  C   UNL     1      49.126  56.960   3.799  1.00  0.00     0.019 A 
ATOM      8  C   UNL     1      47.934  57.002   3.076  1.00  0.00     0.094 A 
ATOM      9  C   UNL     1      46.774  57.456   3.712  1.00  0.00     0.336 A 
ATOM     10  O   UNL     1      45.687  57.503   3.078  1.00  0.00    -0.246 OA
ATOM     11  O   UNL     1      46.809  57.841   4.985  1.00  0.00    -0.423 OA
ENDROOT
BRANCH   1  12
ATOM     12  O   UNL     1      51.438  57.757   8.049  1.00  0.00    -0.493 OA
ATOM     13  C   UNL     1      52.485  58.719   7.969  1.00  0.00     0.278 C 
ENDBRANCH   1  12
BRANCH   2  14
ATOM     14  O   UNL     1      49.009  58.634   9.139  1.00  0.00    -0.504 OA
ATOM     15  H   UNL     1      49.541  59.425   9.479  1.00  0.00     0.293 HD
ENDBRANCH   2  14
TORSDOF 2
ENDMDL
MODEL 3
REMARK VINA RESULT:    -5.814      9.091      9.798
REMARK INTER + INTRA:          -6.389
REMARK INTER:                  -6.325
REMARK INTRA:                  -0.064
REMARK UNBOUND:                -0.065
REMARK SMILES COc1cc2ccc(=O)oc2cc1O
REMARK SMILES IDX 3 1 13 2 12 3 11 4 5 5 4 6 6 7 7 8 8 9 9 10 10 11 2 12 1 13
REMARK SMILES IDX 14 14
REMARK H PARENT 14 15
REMARK Flexibility Score: inf
ROOT
ATOM      1  C   UNL     1      46.063  58.080   4.429  1.00  0.00     0.161 A 
ATOM      2  C   UNL     1      46.828  57.418   3.448  1.00  0.00     0.161 A 
ATOM      3  C   UNL     1      48.157  57.067   3.711  1.00  0.00     0.098 A 
ATOM      4  C   UNL     1      48.738  57.369   4.944  1.00  0.00     0.142 A 
ATOM      5  C   UNL     1      47.980  58.031   5.932  1.00  0.00     0.022 A 
ATOM      6  C   UNL     1      46.649  58.384   5.674  1.00  0.00     0.062 A 
ATOM      7  C   UNL     1      48.589  58.319   7.157  1.00  0.00     0.019 A 
ATOM      8  C   UNL     1      49.917  57.948   7.367  1.00  0.00     0.094 A 
ATOM      9  C   UNL     1      50.607  57.294   6.340  1.00  0.00     0.336 A 
ATOM     10  O   UNL     1      51.806  56.950   6.509  1.00  0.00    -0.246 OA
ATOM     11  O   UNL     1      50.004  57.031   5.184  1.00  0.00    -0.423 OA
ENDROOT
BRANCH   1  12
ATOM     12  O   UNL     1      44.731  58.417   4.132  1.00  0.00    -0.493 OA
ATOM     13  C   UNL     1      44.280  59.732   3.828  1.00  0.00     0.278 C 
ENDBRANCH   1  12
BRANCH   2  14
ATOM     14  O   UNL     1      46.283  57.100   2.204  1.00  0.00    -0.504 OA
ATOM     15  H   UNL     1      45.568  56.393   2.093  1.00  0.00     0.293 HD
ENDBRANCH   2  14
TORSDOF 2
ENDMDL
MODEL 4
REMARK VINA RESULT:    -5.684      1.317      5.422
REMARK INTER + INTRA:          -6.248
REMARK INTER:                  -6.185
REMARK INTRA:                  -0.063
REMARK UNBOUND:                -0.065
REMARK SMILES COc1cc2ccc(=O)oc2cc1O
REMARK SMILES IDX 3 1 13 2 12 3 11 4 5 5 4 6 6 7 7 8 8 9 9 10 10 11 2 12 1 13
REMARK SMILES IDX 14 14
REMARK H PARENT 14 15
REMARK Flexibility Score: inf
ROOT
ATOM      1  C   UNL     1      51.439  66.142   2.053  1.00  0.00     0.161 A 
ATOM      2  C   UNL     1      52.373  65.723   3.021  1.00  0.00     0.161 A 
ATOM      3  C   UNL     1      53.233  64.652   2.754  1.00  0.00     0.098 A 
ATOM      4  C   UNL     1      53.174  63.986   1.528  1.00  0.00     0.142 A 
ATOM      5  C   UNL     1      52.242  64.398   0.552  1.00  0.00     0.022 A 
ATOM      6  C   UNL     1      51.379  65.470   0.815  1.00  0.00     0.062 A 
ATOM      7  C   UNL     1      52.208  63.712  -0.666  1.00  0.00     0.019 A 
ATOM      8  C   UNL     1      53.086  62.651  -0.881  1.00  0.00     0.094 A 
ATOM      9  C   UNL     1      53.983  62.299   0.134  1.00  0.00     0.336 A 
ATOM     10  O   UNL     1      54.785  61.344  -0.039  1.00  0.00    -0.246 OA
ATOM     11  O   UNL     1      53.997  62.968   1.284  1.00  0.00    -0.423 OA
ENDROOT
BRANCH   1  12
ATOM     12  O   UNL     1      50.591  67.221   2.354  1.00  0.00    -0.493 OA
ATOM     13  C   UNL     1      49.195  67.105   2.608  1.00  0.00     0.278 C 
ENDBRANCH   1  12
BRANCH   2  14
ATOM     14  O   UNL     1      52.462  66.363   4.258  1.00  0.00    -0.504 OA
ATOM     15  H   UNL     1      53.163  67.065   4.454  1.00  0.00     0.293 HD
ENDBRANCH   2  14
TORSDOF 2
ENDMDL
MODEL 5
REMARK VINA RESULT:    -5.490      1.263      4.792
REMARK INTER + INTRA:          -6.037
REMARK INTER:                  -5.991
REMARK INTRA:                  -0.046
REMARK UNBOUND:                -0.065
REMARK SMILES COc1cc2ccc(=O)oc2cc1O
REMARK SMILES IDX 3 1 13 2 12 3 11 4 5 5 4 6 6 7 7 8 8 9 9 10 10 11 2 12 1 13
REMARK SMILES IDX 14 14
REMARK H PARENT 14 15
REMARK Flexibility Score: inf
ROOT
ATOM      1  C   UNL     1      52.710  65.311   2.607  1.00  0.00     0.161 A 
ATOM      2  C   UNL     1      51.980  65.892   1.551  1.00  0.00     0.161 A 
ATOM      3  C   UNL     1      51.931  65.266   0.300  1.00  0.00     0.098 A 
ATOM      4  C   UNL     1      52.605  64.062   0.085  1.00  0.00     0.142 A 
ATOM      5  C   UNL     1      53.338  63.473   1.136  1.00  0.00     0.022 A 
ATOM      6  C   UNL     1      53.390  64.096   2.389  1.00  0.00     0.062 A 
ATOM      7  C   UNL     1      54.002  62.267   0.889  1.00  0.00     0.019 A 
ATOM      8  C   UNL     1      53.922  61.686  -0.376  1.00  0.00     0.094 A 
ATOM      9  C   UNL     1      53.174  62.328  -1.369  1.00  0.00     0.336 A 
ATOM     10  O   UNL     1      53.088  61.820  -2.518  1.00  0.00    -0.246 OA
ATOM     11  O   UNL     1      52.552  63.475  -1.109  1.00  0.00    -0.423 OA
ENDROOT
BRANCH   1  12
ATOM     12  O   UNL     1      52.737  65.966   3.849  1.00  0.00    -0.493 OA
ATOM     13  C   UNL     1      52.837  65.307   5.107  1.00  0.00     0.278 C 
ENDBRANCH   1  12
BRANCH   2  14
ATOM     14  O   UNL     1      51.294  67.094   1.727  1.00  0.00    -0.504 OA
ATOM     15  H   UNL     1      50.810  67.556   0.967  1.00  0.00     0.293 HD
ENDBRANCH   2  14
TORSDOF 2
ENDMDL
MODEL 6
REMARK VINA RESULT:    -5.471      4.828      6.730
REMARK INTER + INTRA:          -6.016
REMARK INTER:                  -5.960
REMARK INTRA:                  -0.056
REMARK UNBOUND:                -0.065
REMARK SMILES COc1cc2ccc(=O)oc2cc1O
REMARK SMILES IDX 3 1 13 2 12 3 11 4 5 5 4 6 6 7 7 8 8 9 9 10 10 11 2 12 1 13
REMARK SMILES IDX 14 14
REMARK H PARENT 14 15
REMARK Flexibility Score: inf
ROOT
ATOM      1  C   UNL     1      49.435  66.435   2.398  1.00  0.00     0.161 A 
ATOM      2  C   UNL     1      48.876  65.148   2.268  1.00  0.00     0.161 A 
ATOM      3  C   UNL     1      47.548  64.916   2.641  1.00  0.00     0.098 A 
ATOM      4  C   UNL     1      46.763  65.955   3.147  1.00  0.00     0.142 A 
ATOM      5  C   UNL     1      47.314  67.247   3.280  1.00  0.00     0.022 A 
ATOM      6  C   UNL     1      48.643  67.484   2.908  1.00  0.00     0.062 A 
ATOM      7  C   UNL     1      46.503  68.266   3.789  1.00  0.00     0.019 A 
ATOM      8  C   UNL     1      45.185  67.981   4.147  1.00  0.00     0.094 A 
ATOM      9  C   UNL     1      44.708  66.676   3.986  1.00  0.00     0.336 A 
ATOM     10  O   UNL     1      43.522  66.397   4.303  1.00  0.00    -0.246 OA
ATOM     11  O   UNL     1      45.500  65.723   3.499  1.00  0.00    -0.423 OA
ENDROOT
BRANCH   1  12
ATOM     12  O   UNL     1      50.771  66.633   2.013  1.00  0.00    -0.493 OA
ATOM     13  C   UNL     1      51.890  66.517   2.886  1.00  0.00     0.278 C 
ENDBRANCH   1  12
BRANCH   2  14
ATOM     14  O   UNL     1      49.628  64.085   1.767  1.00  0.00    -0.504 OA
ATOM     15  H   UNL     1      49.216  63.185   1.555  1.00  0.00     0.293 HD
ENDBRANCH   2  14
TORSDOF 2
ENDMDL
MODEL 7
REMARK VINA RESULT:    -5.464      1.702      1.707
REMARK INTER + INTRA:          -6.008
REMARK INTER:                  -5.944
REMARK INTRA:                  -0.064
REMARK UNBOUND:                -0.065
REMARK SMILES COc1cc2ccc(=O)oc2cc1O
REMARK SMILES IDX 3 1 13 2 12 3 11 4 5 5 4 6 6 7 7 8 8 9 9 10 10 11 2 12 1 13
REMARK SMILES IDX 14 14
REMARK H PARENT 14 15
REMARK Flexibility Score: inf
ROOT
ATOM      1  C   UNL     1      52.076  62.115   0.321  1.00  0.00     0.161 A 
ATOM      2  C   UNL     1      50.712  62.279   0.007  1.00  0.00     0.161 A 
ATOM      3  C   UNL     1      50.024  63.421   0.429  1.00  0.00     0.098 A 
ATOM      4  C   UNL     1      50.680  64.410   1.166  1.00  0.00     0.142 A 
ATOM      5  C   UNL     1      52.045  64.256   1.485  1.00  0.00     0.022 A 
ATOM      6  C   UNL     1      52.738  63.113   1.064  1.00  0.00     0.062 A 
ATOM      7  C   UNL     1      52.674  65.263   2.224  1.00  0.00     0.019 A 
ATOM      8  C   UNL     1      51.941  66.382   2.621  1.00  0.00     0.094 A 
ATOM      9  C   UNL     1      50.591  66.466   2.267  1.00  0.00     0.336 A 
ATOM     10  O   UNL     1      49.911  67.467   2.615  1.00  0.00    -0.246 OA
ATOM     11  O   UNL     1      50.016  65.494   1.563  1.00  0.00    -0.423 OA
ENDROOT
BRANCH   1  12
ATOM     12  O   UNL     1      52.737  60.956  -0.120  1.00  0.00    -0.493 OA
ATOM     13  C   UNL     1      53.692  60.922  -1.175  1.00  0.00     0.278 C 
ENDBRANCH   1  12
BRANCH   2  14
ATOM     14  O   UNL     1      50.023  61.313  -0.727  1.00  0.00    -0.504 OA
ATOM     15  H   UNL     1      49.728  61.470  -1.682  1.00  0.00     0.293 HD
ENDBRANCH   2  14
TORSDOF 2
ENDMDL
MODEL 8
REMARK VINA RESULT:    -5.393      8.297      9.033
REMARK INTER + INTRA:          -5.931
REMARK INTER:                  -5.883
REMARK INTRA:                  -0.048
REMARK UNBOUND:                -0.065
REMARK SMILES COc1cc2ccc(=O)oc2cc1O
REMARK SMILES IDX 3 1 13 2 12 3 11 4 5 5 4 6 6 7 7 8 8 9 9 10 10 11 2 12 1 13
REMARK SMILES IDX 14 14
REMARK H PARENT 14 15
REMARK Flexibility Score: inf
ROOT
ATOM      1  C   UNL     1      49.944  58.982   6.488  1.00  0.00     0.161 A 
ATOM      2  C   UNL     1      49.396  60.261   6.709  1.00  0.00     0.161 A 
ATOM      3  C   UNL     1      48.133  60.583   6.203  1.00  0.00     0.098 A 
ATOM      4  C   UNL     1      47.402  59.642   5.472  1.00  0.00     0.142 A 
ATOM      5  C   UNL     1      47.943  58.360   5.246  1.00  0.00     0.022 A 
ATOM      6  C   UNL     1      49.208  58.032   5.752  1.00  0.00     0.062 A 
ATOM      7  C   UNL     1      47.187  57.440   4.512  1.00  0.00     0.019 A 
ATOM      8  C   UNL     1      45.933  57.812   4.029  1.00  0.00     0.094 A 
ATOM      9  C   UNL     1      45.462  59.102   4.293  1.00  0.00     0.336 A 
ATOM     10  O   UNL     1      44.333  59.459   3.866  1.00  0.00    -0.246 OA
ATOM     11  O   UNL     1      46.200  59.959   4.994  1.00  0.00    -0.423 OA
ENDROOT
BRANCH   1  12
ATOM     12  O   UNL     1      51.215  58.692   7.012  1.00  0.00    -0.493 OA
ATOM     13  C   UNL     1      52.217  57.941   6.334  1.00  0.00     0.278 C 
ENDBRANCH   1  12
BRANCH   2  14
ATOM     14  O   UNL     1      50.095  61.228   7.433  1.00  0.00    -0.504 OA
ATOM     15  H   UNL     1      50.053  61.281   8.443  1.00  0.00     0.293 HD
ENDBRANCH   2  14
TORSDOF 2
ENDMDL
MODEL 9
REMARK VINA RESULT:    -5.352      4.991      7.666
REMARK INTER + INTRA:          -5.886
REMARK INTER:                  -5.822
REMARK INTRA:                  -0.065
REMARK UNBOUND:                -0.065
REMARK SMILES COc1cc2ccc(=O)oc2cc1O
REMARK SMILES IDX 3 1 13 2 12 3 11 4 5 5 4 6 6 7 7 8 8 9 9 10 10 11 2 12 1 13
REMARK SMILES IDX 14 14
REMARK H PARENT 14 15
REMARK Flexibility Score: inf
ROOT
ATOM      1  C   UNL     1      45.509  65.990   3.600  1.00  0.00     0.161 A 
ATOM      2  C   UNL     1      45.767  67.366   3.767  1.00  0.00     0.161 A 
ATOM      3  C   UNL     1      47.032  67.886   3.475  1.00  0.00     0.098 A 
ATOM      4  C   UNL     1      48.052  67.050   3.015  1.00  0.00     0.142 A 
ATOM      5  C   UNL     1      47.804  65.672   2.844  1.00  0.00     0.022 A 
ATOM      6  C   UNL     1      46.538  65.146   3.136  1.00  0.00     0.062 A 
ATOM      7  C   UNL     1      48.845  64.861   2.383  1.00  0.00     0.019 A 
ATOM      8  C   UNL     1      50.088  65.430   2.107  1.00  0.00     0.094 A 
ATOM      9  C   UNL     1      50.260  66.805   2.300  1.00  0.00     0.336 A 
ATOM     10  O   UNL     1      51.374  67.339   2.056  1.00  0.00    -0.246 OA
ATOM     11  O   UNL     1      49.253  67.555   2.740  1.00  0.00    -0.423 OA
ENDROOT
BRANCH   1  12
ATOM     12  O   UNL     1      44.227  65.502   3.902  1.00  0.00    -0.493 OA
ATOM     13  C   UNL     1      43.197  65.288   2.943  1.00  0.00     0.278 C 
ENDBRANCH   1  12
BRANCH   2  14
ATOM     14  O   UNL     1      44.774  68.233   4.224  1.00  0.00    -0.504 OA
ATOM     15  H   UNL     1      43.803  68.129   3.958  1.00  0.00     0.293 HD
ENDBRANCH   2  14
TORSDOF 2
ENDMDL
