MODEL 1
REMARK VINA RESULT:    -4.977      0.000      0.000
REMARK INTER + INTRA:          -5.441
REMARK INTER:                  -5.414
REMARK INTRA:                  -0.028
REMARK UNBOUND:                -0.028
REMARK SMILES O=C([O-])c1ccc(O)cc1
REMARK SMILES IDX 7 1 6 2 9 3 5 4 10 5 4 6 8 7 2 9 1 10 3 11
REMARK H PARENT 8 8
REMARK Flexibility Score: inf
ROOT
ATOM      1  C   UNL     1     102.965 105.918 233.675  1.00  0.00     0.115 A 
ATOM      2  C   UNL     1     104.356 106.077 233.703  1.00  0.00     0.047 A 
ATOM      3  C   UNL     1     102.241 106.351 232.559  1.00  0.00     0.047 A 
ATOM      4  C   UNL     1     105.019 106.665 232.622  1.00  0.00     0.014 A 
ATOM      5  C   UNL     1     102.900 106.939 231.476  1.00  0.00     0.014 A 
ATOM      6  C   UNL     1     104.296 107.104 231.496  1.00  0.00    -0.003 A 
ENDROOT
BRANCH   1   7
ATOM      7  O   UNL     1     102.294 105.333 234.745  1.00  0.00    -0.508 OA
ATOM      8  H   UNL     1     101.573 104.634 234.601  1.00  0.00     0.293 HD
ENDBRANCH   1   7
BRANCH   6   9
ATOM      9  C   UNL     1     104.992 107.727 230.349  1.00  0.00     0.071 C 
ATOM     10  O   UNL     1     105.489 108.881 230.450  1.00  0.00    -0.545 OA
ATOM     11  O   UNL     1     105.106 107.048 229.141  1.00  0.00    -0.545 OA
ENDBRANCH   6   9
TORSDOF 2
ENDMDL
MODEL 2
REMARK VINA RESULT:    -4.962      2.117      2.919
REMARK INTER + INTRA:          -5.424
REMARK INTER:                  -5.388
REMARK INTRA:                  -0.036
REMARK UNBOUND:                -0.028
REMARK SMILES O=C([O-])c1ccc(O)cc1
REMARK SMILES IDX 7 1 6 2 9 3 5 4 10 5 4 6 8 7 2 9 1 10 3 11
REMARK H PARENT 8 8
REMARK Flexibility Score: inf
ROOT
ATOM      1  C   UNL     1     100.850 106.409 233.026  1.00  0.00     0.115 A 
ATOM      2  C   UNL     1     101.487 106.438 231.779  1.00  0.00     0.047 A 
ATOM      3  C   UNL     1     101.610 106.243 234.188  1.00  0.00     0.047 A 
ATOM      4  C   UNL     1     102.875 106.301 231.695  1.00  0.00     0.014 A 
ATOM      5  C   UNL     1     102.999 106.107 234.109  1.00  0.00     0.014 A 
ATOM      6  C   UNL     1     103.647 106.133 232.861  1.00  0.00    -0.003 A 
ENDROOT
BRANCH   1   7
ATOM      7  O   UNL     1      99.467 106.545 233.122  1.00  0.00    -0.508 OA
ATOM      8  H   UNL     1      99.020 107.454 233.076  1.00  0.00     0.293 HD
ENDBRANCH   1   7
BRANCH   6   9
ATOM      9  C   UNL     1     105.116 105.988 232.779  1.00  0.00     0.071 C 
ATOM     10  O   UNL     1     105.822 105.999 233.823  1.00  0.00    -0.545 OA
ATOM     11  O   UNL     1     105.742 105.840 231.545  1.00  0.00    -0.545 OA
ENDBRANCH   6   9
TORSDOF 2
ENDMDL
MODEL 3
REMARK VINA RESULT:    -4.957      2.115      2.703
REMARK INTER + INTRA:          -5.419
REMARK INTER:                  -5.383
REMARK INTRA:                  -0.036
REMARK UNBOUND:                -0.028
REMARK SMILES O=C([O-])c1ccc(O)cc1
REMARK SMILES IDX 7 1 6 2 9 3 5 4 10 5 4 6 8 7 2 9 1 10 3 11
REMARK H PARENT 8 8
REMARK Flexibility Score: inf
ROOT
ATOM      1  C   UNL     1     100.822 106.429 232.994  1.00  0.00     0.115 A 
ATOM      2  C   UNL     1     101.571 106.251 234.164  1.00  0.00     0.047 A 
ATOM      3  C   UNL     1     101.472 106.478 231.756  1.00  0.00     0.047 A 
ATOM      4  C   UNL     1     102.961 106.123 234.096  1.00  0.00     0.014 A 
ATOM      5  C   UNL     1     102.862 106.349 231.684  1.00  0.00     0.014 A 
ATOM      6  C   UNL     1     103.622 106.172 232.854  1.00  0.00    -0.003 A 
ENDROOT
BRANCH   1   7
ATOM      7  O   UNL     1      99.437 106.557 233.048  1.00  0.00    -0.508 OA
ATOM      8  H   UNL     1      98.943 106.602 233.933  1.00  0.00     0.293 HD
ENDBRANCH   1   7
BRANCH   6   9
ATOM      9  C   UNL     1     105.093 106.037 232.776  1.00  0.00     0.071 C 
ATOM     10  O   UNL     1     105.797 106.070 233.821  1.00  0.00    -0.545 OA
ATOM     11  O   UNL     1     105.721 105.872 231.546  1.00  0.00    -0.545 OA
ENDBRANCH   6   9
TORSDOF 2
ENDMDL
MODEL 4
REMARK VINA RESULT:    -4.792      3.475      5.228
REMARK INTER + INTRA:          -5.239
REMARK INTER:                  -5.207
REMARK INTRA:                  -0.033
REMARK UNBOUND:                -0.028
REMARK SMILES O=C([O-])c1ccc(O)cc1
REMARK SMILES IDX 7 1 6 2 9 3 5 4 10 5 4 6 8 7 2 9 1 10 3 11
REMARK H PARENT 8 8
REMARK Flexibility Score: inf
ROOT
ATOM      1  C   UNL     1     105.432 104.306 226.962  1.00  0.00     0.115 A 
ATOM      2  C   UNL     1     106.105 104.293 228.191  1.00  0.00     0.047 A 
ATOM      3  C   UNL     1     104.325 105.142 226.787  1.00  0.00     0.047 A 
ATOM      4  C   UNL     1     105.672 105.113 229.237  1.00  0.00     0.014 A 
ATOM      5  C   UNL     1     103.890 105.963 227.832  1.00  0.00     0.014 A 
ATOM      6  C   UNL     1     104.558 105.957 229.069  1.00  0.00    -0.003 A 
ENDROOT
BRANCH   1   7
ATOM      7  O   UNL     1     105.854 103.494 225.912  1.00  0.00    -0.508 OA
ATOM      8  H   UNL     1     106.457 102.694 226.070  1.00  0.00     0.293 HD
ENDBRANCH   1   7
BRANCH   6   9
ATOM      9  C   UNL     1     104.097 106.826 230.172  1.00  0.00     0.071 C 
ATOM     10  O   UNL     1     103.648 107.980 229.936  1.00  0.00    -0.545 OA
ATOM     11  O   UNL     1     104.152 106.382 231.489  1.00  0.00    -0.545 OA
ENDBRANCH   6   9
TORSDOF 2
ENDMDL
MODEL 5
REMARK VINA RESULT:    -4.790      6.522      8.036
REMARK INTER + INTRA:          -5.238
REMARK INTER:                  -5.204
REMARK INTRA:                  -0.035
REMARK UNBOUND:                -0.028
REMARK SMILES O=C([O-])c1ccc(O)cc1
REMARK SMILES IDX 7 1 6 2 9 3 5 4 10 5 4 6 8 7 2 9 1 10 3 11
REMARK H PARENT 8 8
REMARK Flexibility Score: inf
ROOT
ATOM      1  C   UNL     1     112.095 104.146 229.914  1.00  0.00     0.115 A 
ATOM      2  C   UNL     1     111.373 103.257 229.108  1.00  0.00     0.047 A 
ATOM      3  C   UNL     1     111.438 104.853 230.925  1.00  0.00     0.047 A 
ATOM      4  C   UNL     1     110.003 103.076 229.313  1.00  0.00     0.014 A 
ATOM      5  C   UNL     1     110.066 104.674 231.134  1.00  0.00     0.014 A 
ATOM      6  C   UNL     1     109.334 103.785 230.329  1.00  0.00    -0.003 A 
ENDROOT
BRANCH   1   7
ATOM      7  O   UNL     1     113.461 104.335 229.719  1.00  0.00    -0.508 OA
ATOM      8  H   UNL     1     113.914 104.068 228.852  1.00  0.00     0.293 HD
ENDBRANCH   1   7
BRANCH   6   9
ATOM      9  C   UNL     1     107.884 103.597 230.551  1.00  0.00     0.071 C 
ATOM     10  O   UNL     1     107.142 103.173 229.624  1.00  0.00    -0.545 OA
ATOM     11  O   UNL     1     107.317 103.887 231.788  1.00  0.00    -0.545 OA
ENDBRANCH   6   9
TORSDOF 2
ENDMDL
MODEL 6
REMARK VINA RESULT:    -4.731      2.420      4.512
REMARK INTER + INTRA:          -5.173
REMARK INTER:                  -5.145
REMARK INTRA:                  -0.028
REMARK UNBOUND:                -0.028
REMARK SMILES O=C([O-])c1ccc(O)cc1
REMARK SMILES IDX 7 1 6 2 9 3 5 4 10 5 4 6 8 7 2 9 1 10 3 11
REMARK H PARENT 8 8
REMARK Flexibility Score: inf
ROOT
ATOM      1  C   UNL     1     105.148 108.535 229.689  1.00  0.00     0.115 A 
ATOM      2  C   UNL     1     105.006 107.498 228.759  1.00  0.00     0.047 A 
ATOM      3  C   UNL     1     105.080 108.252 231.057  1.00  0.00     0.047 A 
ATOM      4  C   UNL     1     104.797 106.186 229.194  1.00  0.00     0.014 A 
ATOM      5  C   UNL     1     104.872 106.941 231.497  1.00  0.00     0.014 A 
ATOM      6  C   UNL     1     104.727 105.894 230.569  1.00  0.00    -0.003 A 
ENDROOT
BRANCH   1   7
ATOM      7  O   UNL     1     105.356 109.846 229.268  1.00  0.00    -0.508 OA
ATOM      8  H   UNL     1     105.909 110.496 229.815  1.00  0.00     0.293 HD
ENDBRANCH   1   7
BRANCH   6   9
ATOM      9  C   UNL     1     104.507 104.508 231.036  1.00  0.00     0.071 C 
ATOM     10  O   UNL     1     103.394 103.941 230.862  1.00  0.00    -0.545 OA
ATOM     11  O   UNL     1     105.526 103.810 231.675  1.00  0.00    -0.545 OA
ENDBRANCH   6   9
TORSDOF 2
ENDMDL
MODEL 7
REMARK VINA RESULT:    -4.715      2.331      4.361
REMARK INTER + INTRA:          -5.157
REMARK INTER:                  -5.130
REMARK INTRA:                  -0.027
REMARK UNBOUND:                -0.028
REMARK SMILES O=C([O-])c1ccc(O)cc1
REMARK SMILES IDX 7 1 6 2 9 3 5 4 10 5 4 6 8 7 2 9 1 10 3 11
REMARK H PARENT 8 8
REMARK Flexibility Score: inf
ROOT
ATOM      1  C   UNL     1     105.141 108.469 229.714  1.00  0.00     0.115 A 
ATOM      2  C   UNL     1     105.045 108.217 231.088  1.00  0.00     0.047 A 
ATOM      3  C   UNL     1     105.025 107.411 228.807  1.00  0.00     0.047 A 
ATOM      4  C   UNL     1     104.836 106.915 231.552  1.00  0.00     0.014 A 
ATOM      5  C   UNL     1     104.815 106.107 229.267  1.00  0.00     0.014 A 
ATOM      6  C   UNL     1     104.719 105.845 230.645  1.00  0.00    -0.003 A 
ENDROOT
BRANCH   1   7
ATOM      7  O   UNL     1     105.349 109.761 229.240  1.00  0.00    -0.508 OA
ATOM      8  H   UNL     1     106.172 110.000 228.697  1.00  0.00     0.293 HD
ENDBRANCH   1   7
BRANCH   6   9
ATOM      9  C   UNL     1     104.497 104.466 231.129  1.00  0.00     0.071 C 
ATOM     10  O   UNL     1     105.462 103.767 231.543  1.00  0.00    -0.545 OA
ATOM     11  O   UNL     1     103.218 103.918 231.134  1.00  0.00    -0.545 OA
ENDBRANCH   6   9
TORSDOF 2
ENDMDL
MODEL 8
REMARK VINA RESULT:    -4.607      4.151      4.545
REMARK INTER + INTRA:          -5.039
REMARK INTER:                  -5.011
REMARK INTRA:                  -0.028
REMARK UNBOUND:                -0.028
REMARK SMILES O=C([O-])c1ccc(O)cc1
REMARK SMILES IDX 7 1 6 2 9 3 5 4 10 5 4 6 8 7 2 9 1 10 3 11
REMARK H PARENT 8 8
REMARK Flexibility Score: inf
ROOT
ATOM      1  C   UNL     1     101.800 101.800 230.742  1.00  0.00     0.115 A 
ATOM      2  C   UNL     1     103.160 102.131 230.683  1.00  0.00     0.047 A 
ATOM      3  C   UNL     1     100.861 102.613 230.100  1.00  0.00     0.047 A 
ATOM      4  C   UNL     1     103.577 103.268 229.985  1.00  0.00     0.014 A 
ATOM      5  C   UNL     1     101.274 103.751 229.401  1.00  0.00     0.014 A 
ATOM      6  C   UNL     1     102.637 104.092 229.337  1.00  0.00    -0.003 A 
ENDROOT
BRANCH   1   7
ATOM      7  O   UNL     1     101.373 100.670 231.435  1.00  0.00    -0.508 OA
ATOM      8  H   UNL     1     100.656 100.058 231.059  1.00  0.00     0.293 HD
ENDBRANCH   1   7
BRANCH   6   9
ATOM      9  C   UNL     1     103.072 105.296 228.596  1.00  0.00     0.071 C 
ATOM     10  O   UNL     1     103.015 105.330 227.337  1.00  0.00    -0.545 OA
ATOM     11  O   UNL     1     103.552 106.408 229.280  1.00  0.00    -0.545 OA
ENDBRANCH   6   9
TORSDOF 2
ENDMDL
MODEL 9
REMARK VINA RESULT:    -4.598      4.023      4.515
REMARK INTER + INTRA:          -5.029
REMARK INTER:                  -5.001
REMARK INTRA:                  -0.027
REMARK UNBOUND:                -0.028
REMARK SMILES O=C([O-])c1ccc(O)cc1
REMARK SMILES IDX 7 1 6 2 9 3 5 4 10 5 4 6 8 7 2 9 1 10 3 11
REMARK H PARENT 8 8
REMARK Flexibility Score: inf
ROOT
ATOM      1  C   UNL     1     102.097 101.956 230.683  1.00  0.00     0.115 A 
ATOM      2  C   UNL     1     101.201 102.770 229.979  1.00  0.00     0.047 A 
ATOM      3  C   UNL     1     103.459 102.273 230.694  1.00  0.00     0.047 A 
ATOM      4  C   UNL     1     101.665 103.894 229.290  1.00  0.00     0.014 A 
ATOM      5  C   UNL     1     103.927 103.397 230.007  1.00  0.00     0.014 A 
ATOM      6  C   UNL     1     103.035 104.219 229.296  1.00  0.00    -0.003 A 
ENDROOT
BRANCH   1   7
ATOM      7  O   UNL     1     101.646 100.834 231.374  1.00  0.00    -0.508 OA
ATOM      8  H   UNL     1     101.295 100.018 230.886  1.00  0.00     0.293 HD
ENDBRANCH   1   7
BRANCH   6   9
ATOM      9  C   UNL     1     103.532 105.408 228.569  1.00  0.00     0.071 C 
ATOM     10  O   UNL     1     103.888 106.441 229.196  1.00  0.00    -0.545 OA
ATOM     11  O   UNL     1     103.611 105.402 227.180  1.00  0.00    -0.545 OA
ENDBRANCH   6   9
TORSDOF 2
ENDMDL
