MODEL 1
REMARK VINA RESULT:    -0.792      0.000      0.000
REMARK INTER + INTRA:          -1.148
REMARK INTER:                  -1.069
REMARK INTRA:                  -0.078
REMARK UNBOUND:                -0.078
REMARK SMILES O=C[C@@H](O)[C@@H](O)[C@H](O)CO
REMARK SMILES IDX 7 1 9 2 10 3 5 5 3 6 2 7 1 8 4 9 6 11 8 13
REMARK H PARENT 10 4 4 10 6 12 8 14
REMARK Flexibility Score: inf
ROOT
ATOM      1  C   UNL     1      -7.058  -3.748  19.840  1.00  0.00     0.171 C 
ENDROOT
BRANCH   1   2
ATOM      2  C   UNL     1      -6.211  -3.238  21.022  1.00  0.00     0.190 C 
BRANCH   2   3
ATOM      3  O   UNL     1      -6.181  -1.836  21.032  1.00  0.00    -0.394 OA
ATOM      4  H   UNL     1      -5.612  -1.569  21.801  1.00  0.00     0.210 HD
ENDBRANCH   2   3
ENDBRANCH   1   2
BRANCH   1   5
ATOM      5  C   UNL     1      -7.236  -5.286  19.887  1.00  0.00     0.181 C 
BRANCH   5   6
ATOM      6  C   UNL     1      -8.398  -5.702  20.821  1.00  0.00     0.209 C 
BRANCH   6   7
ATOM      7  C   UNL     1      -9.124  -6.901  20.277  1.00  0.00     0.258 C 
ATOM      8  O   UNL     1      -9.125  -7.959  20.887  1.00  0.00    -0.300 OA
ENDBRANCH   6   7
BRANCH   6   9
ATOM      9  O   UNL     1      -7.910  -6.022  22.100  1.00  0.00    -0.383 OA
ATOM     10  H   UNL     1      -7.142  -5.421  22.281  1.00  0.00     0.211 HD
ENDBRANCH   6   9
ENDBRANCH   5   6
BRANCH   5  11
ATOM     11  O   UNL     1      -7.476  -5.771  18.587  1.00  0.00    -0.387 OA
ATOM     12  H   UNL     1      -6.606  -6.076  18.221  1.00  0.00     0.211 HD
ENDBRANCH   5  11
ENDBRANCH   1   5
BRANCH   1  13
ATOM     13  O   UNL     1      -6.503  -3.334  18.615  1.00  0.00    -0.388 OA
ATOM     14  H   UNL     1      -6.544  -4.102  17.988  1.00  0.00     0.211 HD
ENDBRANCH   1  13
TORSDOF 8
ENDMDL
MODEL 2
REMARK VINA RESULT:    -0.387      1.184      4.335
REMARK INTER + INTRA:          -0.601
REMARK INTER:                  -0.259
REMARK INTRA:                  -0.342
REMARK UNBOUND:                -0.078
REMARK SMILES O=C[C@@H](O)[C@@H](O)[C@H](O)CO
REMARK SMILES IDX 7 1 9 2 10 3 5 5 3 6 2 7 1 8 4 9 6 11 8 13
REMARK H PARENT 10 4 4 10 6 12 8 14
REMARK Flexibility Score: inf
ROOT
ATOM      1  C   UNL     1      -8.289  -6.746  20.370  1.00  0.00     0.171 C 
ENDROOT
BRANCH   1   2
ATOM      2  C   UNL     1      -9.125  -6.962  21.647  1.00  0.00     0.190 C 
BRANCH   2   3
ATOM      3  O   UNL     1      -8.915  -8.250  22.156  1.00  0.00    -0.394 OA
ATOM      4  H   UNL     1      -8.318  -8.152  22.944  1.00  0.00     0.210 HD
ENDBRANCH   2   3
ENDBRANCH   1   2
BRANCH   1   5
ATOM      5  C   UNL     1      -7.297  -5.568  20.529  1.00  0.00     0.181 C 
BRANCH   5   6
ATOM      6  C   UNL     1      -7.471  -4.514  19.409  1.00  0.00     0.209 C 
BRANCH   6   7
ATOM      7  C   UNL     1      -6.498  -3.381  19.579  1.00  0.00     0.258 C 
ATOM      8  O   UNL     1      -6.479  -2.725  20.609  1.00  0.00    -0.300 OA
ENDBRANCH   6   7
BRANCH   6   9
ATOM      9  O   UNL     1      -7.258  -5.096  18.148  1.00  0.00    -0.383 OA
ATOM     10  H   UNL     1      -6.386  -5.570  18.186  1.00  0.00     0.211 HD
ENDBRANCH   6   9
ENDBRANCH   5   6
BRANCH   5  11
ATOM     11  O   UNL     1      -7.486  -4.961  21.785  1.00  0.00    -0.387 OA
ATOM     12  H   UNL     1      -7.943  -5.623  22.366  1.00  0.00     0.211 HD
ENDBRANCH   5  11
ENDBRANCH   1   5
BRANCH   1  13
ATOM     13  O   UNL     1      -9.125  -6.565  19.253  1.00  0.00    -0.388 OA
ATOM     14  H   UNL     1      -8.874  -5.707  18.822  1.00  0.00     0.211 HD
ENDBRANCH   1  13
TORSDOF 8
ENDMDL
MODEL 3
REMARK VINA RESULT:    -0.322      1.084      1.511
REMARK INTER + INTRA:          -0.514
REMARK INTER:                  -0.085
REMARK INTRA:                  -0.428
REMARK UNBOUND:                -0.078
REMARK SMILES O=C[C@@H](O)[C@@H](O)[C@H](O)CO
REMARK SMILES IDX 7 1 9 2 10 3 5 5 3 6 2 7 1 8 4 9 6 11 8 13
REMARK H PARENT 10 4 4 10 6 12 8 14
REMARK Flexibility Score: inf
ROOT
ATOM      1  C   UNL     1      -7.157  -3.800  20.008  1.00  0.00     0.171 C 
ENDROOT
BRANCH   1   2
ATOM      2  C   UNL     1      -6.397  -2.960  21.053  1.00  0.00     0.190 C 
BRANCH   2   3
ATOM      3  O   UNL     1      -6.115  -1.685  20.543  1.00  0.00    -0.394 OA
ATOM      4  H   UNL     1      -6.571  -1.033  21.137  1.00  0.00     0.210 HD
ENDBRANCH   2   3
ENDBRANCH   1   2
BRANCH   1   5
ATOM      5  C   UNL     1      -7.358  -5.260  20.486  1.00  0.00     0.181 C 
BRANCH   5   6
ATOM      6  C   UNL     1      -8.238  -6.070  19.505  1.00  0.00     0.209 C 
BRANCH   6   7
ATOM      7  C   UNL     1      -9.125  -7.032  20.245  1.00  0.00     0.258 C 
ATOM      8  O   UNL     1      -8.871  -7.352  21.397  1.00  0.00    -0.300 OA
ENDBRANCH   6   7
BRANCH   6   9
ATOM      9  O   UNL     1      -9.053  -5.209  18.749  1.00  0.00    -0.383 OA
ATOM     10  H   UNL     1      -9.484  -4.579  19.384  1.00  0.00     0.211 HD
ENDBRANCH   6   9
ENDBRANCH   5   6
BRANCH   5  11
ATOM     11  O   UNL     1      -6.104  -5.885  20.624  1.00  0.00    -0.387 OA
ATOM     12  H   UNL     1      -6.268  -6.861  20.706  1.00  0.00     0.211 HD
ENDBRANCH   5  11
ENDBRANCH   1   5
BRANCH   1  13
ATOM     13  O   UNL     1      -6.504  -3.754  18.763  1.00  0.00    -0.388 OA
ATOM     14  H   UNL     1      -6.779  -2.917  18.307  1.00  0.00     0.211 HD
ENDBRANCH   1  13
TORSDOF 8
ENDMDL
MODEL 4
REMARK VINA RESULT:    -0.188      1.319      4.111
REMARK INTER + INTRA:          -0.332
REMARK INTER:                  -2.283
REMARK INTRA:                   1.951
REMARK UNBOUND:                -0.078
REMARK SMILES O=C[C@@H](O)[C@@H](O)[C@H](O)CO
REMARK SMILES IDX 7 1 9 2 10 3 5 5 3 6 2 7 1 8 4 9 6 11 8 13
REMARK H PARENT 10 4 4 10 6 12 8 14
REMARK Flexibility Score: inf
ROOT
ATOM      1  C   UNL     1      -8.982  -6.253  21.282  1.00  0.00     0.171 C 
ENDROOT
BRANCH   1   2
ATOM      2  C   UNL     1      -9.125  -7.728  21.702  1.00  0.00     0.190 C 
BRANCH   2   3
ATOM      3  O   UNL     1      -8.746  -7.894  23.041  1.00  0.00    -0.394 OA
ATOM      4  H   UNL     1      -9.151  -8.747  23.349  1.00  0.00     0.210 HD
ENDBRANCH   2   3
ENDBRANCH   1   2
BRANCH   1   5
ATOM      5  C   UNL     1      -9.125  -6.078  19.749  1.00  0.00     0.181 C 
BRANCH   5   6
ATOM      6  C   UNL     1      -8.020  -5.163  19.169  1.00  0.00     0.209 C 
BRANCH   6   7
ATOM      7  C   UNL     1      -7.104  -4.671  20.254  1.00  0.00     0.258 C 
ATOM      8  O   UNL     1      -6.585  -3.568  20.178  1.00  0.00    -0.300 OA
ENDBRANCH   6   7
BRANCH   6   9
ATOM      9  O   UNL     1      -7.252  -5.860  18.221  1.00  0.00    -0.383 OA
ATOM     10  H   UNL     1      -6.309  -5.570  18.335  1.00  0.00     0.211 HD
ENDBRANCH   6   9
ENDBRANCH   5   6
BRANCH   5  11
ATOM     11  O   UNL     1      -9.071  -7.340  19.127  1.00  0.00    -0.387 OA
ATOM     12  H   UNL     1     -10.005  -7.660  19.029  1.00  0.00     0.211 HD
ENDBRANCH   5  11
ENDBRANCH   1   5
BRANCH   1  13
ATOM     13  O   UNL     1      -7.766  -5.719  21.747  1.00  0.00    -0.388 OA
ATOM     14  H   UNL     1      -7.114  -5.751  20.999  1.00  0.00     0.211 HD
ENDBRANCH   1  13
TORSDOF 8
ENDMDL
MODEL 5
REMARK VINA RESULT:     0.093      1.258      4.110
REMARK INTER + INTRA:           0.047
REMARK INTER:                  -0.138
REMARK INTRA:                   0.185
REMARK UNBOUND:                -0.078
REMARK SMILES O=C[C@@H](O)[C@@H](O)[C@H](O)CO
REMARK SMILES IDX 7 1 9 2 10 3 5 5 3 6 2 7 1 8 4 9 6 11 8 13
REMARK H PARENT 10 4 4 10 6 12 8 14
REMARK Flexibility Score: inf
ROOT
ATOM      1  C   UNL     1      -8.407  -6.717  20.374  1.00  0.00     0.171 C 
ENDROOT
BRANCH   1   2
ATOM      2  C   UNL     1      -9.125  -6.692  21.737  1.00  0.00     0.190 C 
BRANCH   2   3
ATOM      3  O   UNL     1      -8.828  -7.850  22.468  1.00  0.00    -0.394 OA
ATOM      4  H   UNL     1      -8.035  -8.264  22.036  1.00  0.00     0.210 HD
ENDBRANCH   2   3
ENDBRANCH   1   2
BRANCH   1   5
ATOM      5  C   UNL     1      -8.155  -5.287  19.834  1.00  0.00     0.181 C 
BRANCH   5   6
ATOM      6  C   UNL     1      -6.858  -4.673  20.414  1.00  0.00     0.209 C 
BRANCH   6   7
ATOM      7  C   UNL     1      -6.609  -3.305  19.844  1.00  0.00     0.258 C 
ATOM      8  O   UNL     1      -6.282  -2.378  20.570  1.00  0.00    -0.300 OA
ENDBRANCH   6   7
BRANCH   6   9
ATOM      9  O   UNL     1      -6.950  -4.561  21.812  1.00  0.00    -0.383 OA
ATOM     10  H   UNL     1      -6.056  -4.779  22.185  1.00  0.00     0.211 HD
ENDBRANCH   6   9
ENDBRANCH   5   6
BRANCH   5  11
ATOM     11  O   UNL     1      -8.075  -5.324  18.429  1.00  0.00    -0.387 OA
ATOM     12  H   UNL     1      -7.507  -6.101  18.186  1.00  0.00     0.211 HD
ENDBRANCH   5  11
ENDBRANCH   1   5
BRANCH   1  13
ATOM     13  O   UNL     1      -9.125  -7.496  19.448  1.00  0.00    -0.388 OA
ATOM     14  H   UNL     1      -8.928  -8.450  19.636  1.00  0.00     0.211 HD
ENDBRANCH   1  13
TORSDOF 8
ENDMDL
MODEL 6
REMARK VINA RESULT:     0.180      3.186      5.288
REMARK INTER + INTRA:           0.165
REMARK INTER:                   0.156
REMARK INTRA:                   0.010
REMARK UNBOUND:                -0.078
REMARK SMILES O=C[C@@H](O)[C@@H](O)[C@H](O)CO
REMARK SMILES IDX 7 1 9 2 10 3 5 5 3 6 2 7 1 8 4 9 6 11 8 13
REMARK H PARENT 10 4 4 10 6 12 8 14
REMARK Flexibility Score: inf
ROOT
ATOM      1  C   UNL     1      -9.125  -7.941  24.119  1.00  0.00     0.171 C 
ENDROOT
BRANCH   1   2
ATOM      2  C   UNL     1      -8.806  -9.142  25.030  1.00  0.00     0.190 C 
BRANCH   2   3
ATOM      3  O   UNL     1      -7.430  -9.410  25.021  1.00  0.00    -0.394 OA
ATOM      4  H   UNL     1      -7.073  -9.040  24.171  1.00  0.00     0.210 HD
ENDBRANCH   2   3
ENDBRANCH   1   2
BRANCH   1   5
ATOM      5  C   UNL     1      -9.089  -8.335  22.621  1.00  0.00     0.181 C 
BRANCH   5   6
ATOM      6  C   UNL     1      -8.565  -7.179  21.735  1.00  0.00     0.209 C 
BRANCH   6   7
ATOM      7  C   UNL     1      -9.125  -7.271  20.344  1.00  0.00     0.258 C 
ATOM      8  O   UNL     1      -9.123  -6.298  19.606  1.00  0.00    -0.300 OA
ENDBRANCH   6   7
BRANCH   6   9
ATOM      9  O   UNL     1      -8.931  -5.937  22.280  1.00  0.00    -0.383 OA
ATOM     10  H   UNL     1      -8.940  -6.039  23.268  1.00  0.00     0.211 HD
ENDBRANCH   6   9
ENDBRANCH   5   6
BRANCH   5  11
ATOM     11  O   UNL     1      -8.272  -9.469  22.454  1.00  0.00    -0.387 OA
ATOM     12  H   UNL     1      -7.348  -9.146  22.293  1.00  0.00     0.211 HD
ENDBRANCH   5  11
ENDBRANCH   1   5
BRANCH   1  13
ATOM     13  O   UNL     1      -8.256  -6.868  24.388  1.00  0.00    -0.388 OA
ATOM     14  H   UNL     1      -7.943  -6.958  25.325  1.00  0.00     0.211 HD
ENDBRANCH   1  13
TORSDOF 8
ENDMDL
MODEL 7
REMARK VINA RESULT:     0.423      1.199      1.584
REMARK INTER + INTRA:           0.493
REMARK INTER:                  -0.335
REMARK INTRA:                   0.828
REMARK UNBOUND:                -0.078
REMARK SMILES O=C[C@@H](O)[C@@H](O)[C@H](O)CO
REMARK SMILES IDX 7 1 9 2 10 3 5 5 3 6 2 7 1 8 4 9 6 11 8 13
REMARK H PARENT 10 4 4 10 6 12 8 14
REMARK Flexibility Score: inf
ROOT
ATOM      1  C   UNL     1      -6.979  -4.907  20.198  1.00  0.00     0.171 C 
ENDROOT
BRANCH   1   2
ATOM      2  C   UNL     1      -6.874  -3.763  19.171  1.00  0.00     0.190 C 
BRANCH   2   3
ATOM      3  O   UNL     1      -6.167  -2.682  19.714  1.00  0.00    -0.394 OA
ATOM      4  H   UNL     1      -6.088  -2.002  18.994  1.00  0.00     0.210 HD
ENDBRANCH   2   3
ENDBRANCH   1   2
BRANCH   1   5
ATOM      5  C   UNL     1      -8.037  -5.957  19.778  1.00  0.00     0.181 C 
BRANCH   5   6
ATOM      6  C   UNL     1      -8.926  -6.385  20.970  1.00  0.00     0.209 C 
BRANCH   6   7
ATOM      7  C   UNL     1      -9.125  -7.875  20.986  1.00  0.00     0.258 C 
ATOM      8  O   UNL     1      -8.761  -8.542  21.942  1.00  0.00    -0.300 OA
ENDBRANCH   6   7
BRANCH   6   9
ATOM      9  O   UNL     1      -8.335  -6.004  22.187  1.00  0.00    -0.383 OA
ATOM     10  H   UNL     1      -7.448  -5.611  21.973  1.00  0.00     0.211 HD
ENDBRANCH   6   9
ENDBRANCH   5   6
BRANCH   5  11
ATOM     11  O   UNL     1      -8.842  -5.427  18.752  1.00  0.00    -0.387 OA
ATOM     12  H   UNL     1      -9.658  -5.056  19.179  1.00  0.00     0.211 HD
ENDBRANCH   5  11
ENDBRANCH   1   5
BRANCH   1  13
ATOM     13  O   UNL     1      -7.243  -4.398  21.483  1.00  0.00    -0.388 OA
ATOM     14  H   UNL     1      -6.373  -4.274  21.945  1.00  0.00     0.211 HD
ENDBRANCH   1  13
TORSDOF 8
ENDMDL
MODEL 8
REMARK VINA RESULT:     1.242      1.109      4.296
REMARK INTER + INTRA:           1.600
REMARK INTER:                   1.695
REMARK INTRA:                  -0.095
REMARK UNBOUND:                -0.078
REMARK SMILES O=C[C@@H](O)[C@@H](O)[C@H](O)CO
REMARK SMILES IDX 7 1 9 2 10 3 5 5 3 6 2 7 1 8 4 9 6 11 8 13
REMARK H PARENT 10 4 4 10 6 12 8 14
REMARK Flexibility Score: inf
ROOT
ATOM      1  C   UNL     1      -8.228  -5.424  20.612  1.00  0.00     0.171 C 
ENDROOT
BRANCH   1   2
ATOM      2  C   UNL     1      -9.125  -6.118  19.569  1.00  0.00     0.190 C 
BRANCH   2   3
ATOM      3  O   UNL     1      -8.875  -5.603  18.290  1.00  0.00    -0.394 OA
ATOM      4  H   UNL     1      -7.894  -5.661  18.146  1.00  0.00     0.210 HD
ENDBRANCH   2   3
ENDBRANCH   1   2
BRANCH   1   5
ATOM      5  C   UNL     1      -6.906  -4.919  19.984  1.00  0.00     0.181 C 
BRANCH   5   6
ATOM      6  C   UNL     1      -6.866  -3.375  19.892  1.00  0.00     0.209 C 
BRANCH   6   7
ATOM      7  C   UNL     1      -6.719  -2.758  21.254  1.00  0.00     0.258 C 
ATOM      8  O   UNL     1      -6.429  -1.577  21.376  1.00  0.00    -0.300 OA
ENDBRANCH   6   7
BRANCH   6   9
ATOM      9  O   UNL     1      -5.784  -2.957  19.097  1.00  0.00    -0.383 OA
ATOM     10  H   UNL     1      -5.715  -1.971  19.188  1.00  0.00     0.211 HD
ENDBRANCH   6   9
ENDBRANCH   5   6
BRANCH   5  11
ATOM     11  O   UNL     1      -5.817  -5.377  20.750  1.00  0.00    -0.387 OA
ATOM     12  H   UNL     1      -5.515  -6.233  20.351  1.00  0.00     0.211 HD
ENDBRANCH   5  11
ENDBRANCH   1   5
BRANCH   1  13
ATOM     13  O   UNL     1      -7.984  -6.277  21.704  1.00  0.00    -0.388 OA
ATOM     14  H   UNL     1      -7.234  -6.879  21.457  1.00  0.00     0.211 HD
ENDBRANCH   1  13
TORSDOF 8
ENDMDL
