MODEL 1
REMARK VINA RESULT:    -5.842      0.000      0.000
REMARK INTER + INTRA:          -5.842
REMARK INTER:                  -5.842
REMARK INTRA:                   0.000
REMARK UNBOUND:                 0.000
REMARK SMILES CC(C)=C1CC[C@@H](C)CC1=O
REMARK SMILES IDX 8 1 7 2 6 3 5 4 4 5 2 6 1 7 3 8 10 9 11 10 9 11
REMARK H PARENT
REMARK Flexibility Score: inf
ROOT
ATOM      1  C   UNL     1     -12.673 -20.592  31.903  1.00  0.00     0.008 C 
ATOM      2  C   UNL     1     -13.346 -19.528  31.028  1.00  0.00    -0.006 C 
ATOM      3  C   UNL     1     -12.948 -19.708  29.554  1.00  0.00     0.008 C 
ATOM      4  C   UNL     1     -13.692 -18.716  28.651  1.00  0.00     0.039 C 
ATOM      5  C   UNL     1     -13.549 -17.275  29.123  1.00  0.00    -0.006 C 
ATOM      6  C   UNL     1     -13.537 -16.236  28.237  1.00  0.00    -0.070 C 
ATOM      7  C   UNL     1     -13.339 -14.808  28.689  1.00  0.00     0.039 C 
ATOM      8  C   UNL     1     -13.684 -16.471  26.752  1.00  0.00     0.039 C 
ATOM      9  C   UNL     1     -13.540 -17.068  30.602  1.00  0.00     0.159 C 
ATOM     10  O   UNL     1     -14.017 -16.023  31.119  1.00  0.00    -0.295 OA
ATOM     11  C   UNL     1     -12.964 -18.119  31.506  1.00  0.00     0.084 C 
ENDROOT
TORSDOF 0
ENDMDL
MODEL 2
REMARK VINA RESULT:    -5.769      2.418      3.981
REMARK INTER + INTRA:          -5.769
REMARK INTER:                  -5.769
REMARK INTRA:                   0.000
REMARK UNBOUND:                 0.000
REMARK SMILES CC(C)=C1CC[C@@H](C)CC1=O
REMARK SMILES IDX 8 1 7 2 6 3 5 4 4 5 2 6 1 7 3 8 10 9 11 10 9 11
REMARK H PARENT
REMARK Flexibility Score: inf
ROOT
ATOM      1  C   UNL     1     -11.378 -17.618  26.251  1.00  0.00     0.008 C 
ATOM      2  C   UNL     1     -11.582 -16.817  27.543  1.00  0.00    -0.006 C 
ATOM      3  C   UNL     1     -11.225 -17.669  28.771  1.00  0.00     0.008 C 
ATOM      4  C   UNL     1     -11.325 -16.851  30.065  1.00  0.00     0.039 C 
ATOM      5  C   UNL     1     -12.669 -16.151  30.211  1.00  0.00    -0.006 C 
ATOM      6  C   UNL     1     -13.226 -15.933  31.438  1.00  0.00    -0.070 C 
ATOM      7  C   UNL     1     -14.585 -15.289  31.592  1.00  0.00     0.039 C 
ATOM      8  C   UNL     1     -12.524 -16.361  32.705  1.00  0.00     0.039 C 
ATOM      9  C   UNL     1     -13.272 -15.621  28.952  1.00  0.00     0.159 C 
ATOM     10  O   UNL     1     -13.980 -14.579  28.952  1.00  0.00    -0.295 OA
ATOM     11  C   UNL     1     -13.034 -16.327  27.648  1.00  0.00     0.084 C 
ENDROOT
TORSDOF 0
ENDMDL
MODEL 3
REMARK VINA RESULT:    -5.762      1.877      3.954
REMARK INTER + INTRA:          -5.762
REMARK INTER:                  -5.762
REMARK INTRA:                   0.000
REMARK UNBOUND:                 0.000
REMARK SMILES CC(C)=C1CC[C@@H](C)CC1=O
REMARK SMILES IDX 8 1 7 2 6 3 5 4 4 5 2 6 1 7 3 8 10 9 11 10 9 11
REMARK H PARENT
REMARK Flexibility Score: inf
ROOT
ATOM      1  C   UNL     1     -11.381 -17.318  26.599  1.00  0.00     0.008 C 
ATOM      2  C   UNL     1     -12.447 -17.191  27.694  1.00  0.00    -0.006 C 
ATOM      3  C   UNL     1     -12.491 -15.756  28.243  1.00  0.00     0.008 C 
ATOM      4  C   UNL     1     -13.621 -15.585  29.267  1.00  0.00     0.039 C 
ATOM      5  C   UNL     1     -13.570 -16.632  30.372  1.00  0.00    -0.006 C 
ATOM      6  C   UNL     1     -13.992 -16.346  31.639  1.00  0.00    -0.070 C 
ATOM      7  C   UNL     1     -13.893 -17.358  32.757  1.00  0.00     0.039 C 
ATOM      8  C   UNL     1     -14.544 -14.985  31.994  1.00  0.00     0.039 C 
ATOM      9  C   UNL     1     -13.146 -18.002  29.958  1.00  0.00     0.159 C 
ATOM     10  O   UNL     1     -13.602 -19.029  30.529  1.00  0.00    -0.295 OA
ATOM     11  C   UNL     1     -12.165 -18.180  28.835  1.00  0.00     0.084 C 
ENDROOT
TORSDOF 0
ENDMDL
MODEL 4
REMARK VINA RESULT:    -5.666      1.960      3.249
REMARK INTER + INTRA:          -5.666
REMARK INTER:                  -5.666
REMARK INTRA:                   0.000
REMARK UNBOUND:                 0.000
REMARK SMILES CC(C)=C1CC[C@@H](C)CC1=O
REMARK SMILES IDX 8 1 7 2 6 3 5 4 4 5 2 6 1 7 3 8 10 9 11 10 9 11
REMARK H PARENT
REMARK Flexibility Score: inf
ROOT
ATOM      1  C   UNL     1     -12.554 -20.179  30.311  1.00  0.00     0.008 C 
ATOM      2  C   UNL     1     -12.661 -18.714  30.754  1.00  0.00    -0.006 C 
ATOM      3  C   UNL     1     -13.470 -18.599  32.055  1.00  0.00     0.008 C 
ATOM      4  C   UNL     1     -13.500 -17.153  32.567  1.00  0.00     0.039 C 
ATOM      5  C   UNL     1     -13.961 -16.167  31.503  1.00  0.00    -0.006 C 
ATOM      6  C   UNL     1     -14.655 -15.038  31.835  1.00  0.00    -0.070 C 
ATOM      7  C   UNL     1     -15.167 -14.081  30.783  1.00  0.00     0.039 C 
ATOM      8  C   UNL     1     -14.977 -14.711  33.274  1.00  0.00     0.039 C 
ATOM      9  C   UNL     1     -13.512 -16.450  30.107  1.00  0.00     0.159 C 
ATOM     10  O   UNL     1     -13.282 -15.517  29.292  1.00  0.00    -0.295 OA
ATOM     11  C   UNL     1     -13.315 -17.867  29.652  1.00  0.00     0.084 C 
ENDROOT
TORSDOF 0
ENDMDL
MODEL 5
REMARK VINA RESULT:    -5.652      2.002      3.631
REMARK INTER + INTRA:          -5.652
REMARK INTER:                  -5.652
REMARK INTRA:                   0.000
REMARK UNBOUND:                 0.000
REMARK SMILES CC(C)=C1CC[C@@H](C)CC1=O
REMARK SMILES IDX 8 1 7 2 6 3 5 4 4 5 2 6 1 7 3 8 10 9 11 10 9 11
REMARK H PARENT
REMARK Flexibility Score: inf
ROOT
ATOM      1  C   UNL     1     -14.703 -14.984  33.504  1.00  0.00     0.008 C 
ATOM      2  C   UNL     1     -13.857 -15.848  32.561  1.00  0.00    -0.006 C 
ATOM      3  C   UNL     1     -14.044 -15.401  31.103  1.00  0.00     0.008 C 
ATOM      4  C   UNL     1     -13.127 -16.187  30.156  1.00  0.00     0.039 C 
ATOM      5  C   UNL     1     -13.266 -17.694  30.328  1.00  0.00    -0.006 C 
ATOM      6  C   UNL     1     -13.095 -18.546  29.274  1.00  0.00    -0.070 C 
ATOM      7  C   UNL     1     -13.286 -20.038  29.420  1.00  0.00     0.039 C 
ATOM      8  C   UNL     1     -12.745 -18.031  27.898  1.00  0.00     0.039 C 
ATOM      9  C   UNL     1     -13.480 -18.178  31.724  1.00  0.00     0.159 C 
ATOM     10  O   UNL     1     -13.032 -19.292  32.107  1.00  0.00    -0.295 OA
ATOM     11  C   UNL     1     -14.234 -17.330  32.708  1.00  0.00     0.084 C 
ENDROOT
TORSDOF 0
ENDMDL
MODEL 6
REMARK VINA RESULT:    -5.571      1.521      2.398
REMARK INTER + INTRA:          -5.571
REMARK INTER:                  -5.571
REMARK INTRA:                   0.000
REMARK UNBOUND:                 0.000
REMARK SMILES CC(C)=C1CC[C@@H](C)CC1=O
REMARK SMILES IDX 8 1 7 2 6 3 5 4 4 5 2 6 1 7 3 8 10 9 11 10 9 11
REMARK H PARENT
REMARK Flexibility Score: inf
ROOT
ATOM      1  C   UNL     1     -12.813 -20.245  31.981  1.00  0.00     0.008 C 
ATOM      2  C   UNL     1     -12.573 -19.036  31.069  1.00  0.00    -0.006 C 
ATOM      3  C   UNL     1     -13.474 -17.861  31.478  1.00  0.00     0.008 C 
ATOM      4  C   UNL     1     -13.174 -16.610  30.642  1.00  0.00     0.039 C 
ATOM      5  C   UNL     1     -13.216 -16.884  29.145  1.00  0.00    -0.006 C 
ATOM      6  C   UNL     1     -13.613 -15.924  28.259  1.00  0.00    -0.070 C 
ATOM      7  C   UNL     1     -13.713 -16.203  26.777  1.00  0.00     0.039 C 
ATOM      8  C   UNL     1     -14.009 -14.543  28.725  1.00  0.00     0.039 C 
ATOM      9  C   UNL     1     -12.692 -18.212  28.707  1.00  0.00     0.159 C 
ATOM     10  O   UNL     1     -12.119 -18.355  27.594  1.00  0.00    -0.295 OA
ATOM     11  C   UNL     1     -12.832 -19.410  29.602  1.00  0.00     0.084 C 
ENDROOT
TORSDOF 0
ENDMDL
MODEL 7
REMARK VINA RESULT:    -5.515      2.637      3.141
REMARK INTER + INTRA:          -5.515
REMARK INTER:                  -5.515
REMARK INTRA:                   0.000
REMARK UNBOUND:                 0.000
REMARK SMILES CC(C)=C1CC[C@@H](C)CC1=O
REMARK SMILES IDX 8 1 7 2 6 3 5 4 4 5 2 6 1 7 3 8 10 9 11 10 9 11
REMARK H PARENT
REMARK Flexibility Score: inf
ROOT
ATOM      1  C   UNL     1     -12.296 -16.454  33.097  1.00  0.00     0.008 C 
ATOM      2  C   UNL     1     -12.197 -16.102  31.608  1.00  0.00    -0.006 C 
ATOM      3  C   UNL     1     -13.578 -16.186  30.939  1.00  0.00     0.008 C 
ATOM      4  C   UNL     1     -13.516 -15.738  29.473  1.00  0.00     0.039 C 
ATOM      5  C   UNL     1     -12.439 -16.471  28.684  1.00  0.00    -0.006 C 
ATOM      6  C   UNL     1     -12.592 -16.736  27.353  1.00  0.00    -0.070 C 
ATOM      7  C   UNL     1     -11.556 -17.512  26.573  1.00  0.00     0.039 C 
ATOM      8  C   UNL     1     -13.828 -16.297  26.603  1.00  0.00     0.039 C 
ATOM      9  C   UNL     1     -11.176 -16.771  29.422  1.00  0.00     0.159 C 
ATOM     10  O   UNL     1     -10.063 -16.796  28.831  1.00  0.00    -0.295 OA
ATOM     11  C   UNL     1     -11.212 -17.044  30.898  1.00  0.00     0.084 C 
ENDROOT
TORSDOF 0
ENDMDL
MODEL 8
REMARK VINA RESULT:    -5.428      1.981      4.464
REMARK INTER + INTRA:          -5.428
REMARK INTER:                  -5.428
REMARK INTRA:                   0.000
REMARK UNBOUND:                 0.000
REMARK SMILES CC(C)=C1CC[C@@H](C)CC1=O
REMARK SMILES IDX 8 1 7 2 6 3 5 4 4 5 2 6 1 7 3 8 10 9 11 10 9 11
REMARK H PARENT
REMARK Flexibility Score: inf
ROOT
ATOM      1  C   UNL     1     -13.550 -16.499  26.660  1.00  0.00     0.008 C 
ATOM      2  C   UNL     1     -13.457 -16.884  28.141  1.00  0.00    -0.006 C 
ATOM      3  C   UNL     1     -13.257 -15.636  29.014  1.00  0.00     0.008 C 
ATOM      4  C   UNL     1     -13.264 -15.991  30.507  1.00  0.00     0.039 C 
ATOM      5  C   UNL     1     -12.282 -17.105  30.846  1.00  0.00    -0.006 C 
ATOM      6  C   UNL     1     -11.656 -17.154  32.059  1.00  0.00    -0.070 C 
ATOM      7  C   UNL     1     -10.638 -18.221  32.385  1.00  0.00     0.039 C 
ATOM      8  C   UNL     1     -11.925 -16.115  33.122  1.00  0.00     0.039 C 
ATOM      9  C   UNL     1     -12.140 -18.187  29.827  1.00  0.00     0.159 C 
ATOM     10  O   UNL     1     -11.891 -19.375  30.163  1.00  0.00    -0.295 OA
ATOM     11  C   UNL     1     -12.303 -17.873  28.367  1.00  0.00     0.084 C 
ENDROOT
TORSDOF 0
ENDMDL
MODEL 9
REMARK VINA RESULT:    -5.243      1.637      4.233
REMARK INTER + INTRA:          -5.243
REMARK INTER:                  -5.243
REMARK INTRA:                   0.000
REMARK UNBOUND:                 0.000
REMARK SMILES CC(C)=C1CC[C@@H](C)CC1=O
REMARK SMILES IDX 8 1 7 2 6 3 5 4 4 5 2 6 1 7 3 8 10 9 11 10 9 11
REMARK H PARENT
REMARK Flexibility Score: inf
ROOT
ATOM      1  C   UNL     1     -13.971 -16.154  26.693  1.00  0.00     0.008 C 
ATOM      2  C   UNL     1     -13.173 -17.118  27.580  1.00  0.00    -0.006 C 
ATOM      3  C   UNL     1     -14.100 -18.171  28.206  1.00  0.00     0.008 C 
ATOM      4  C   UNL     1     -13.305 -19.204  29.014  1.00  0.00     0.039 C 
ATOM      5  C   UNL     1     -12.381 -18.559  30.038  1.00  0.00    -0.006 C 
ATOM      6  C   UNL     1     -12.093 -19.174  31.222  1.00  0.00    -0.070 C 
ATOM      7  C   UNL     1     -11.223 -18.518  32.269  1.00  0.00     0.039 C 
ATOM      8  C   UNL     1     -12.665 -20.531  31.560  1.00  0.00     0.039 C 
ATOM      9  C   UNL     1     -11.727 -17.283  29.618  1.00  0.00     0.159 C 
ATOM     10  O   UNL     1     -10.576 -16.972  30.025  1.00  0.00    -0.295 OA
ATOM     11  C   UNL     1     -12.437 -16.345  28.685  1.00  0.00     0.084 C 
ENDROOT
TORSDOF 0
ENDMDL
