MODEL 1
REMARK VINA RESULT:    -4.745      0.000      0.000
REMARK INTER + INTRA:          -5.191
REMARK INTER:                  -5.161
REMARK INTRA:                  -0.030
REMARK UNBOUND:                -0.030
REMARK SMILES O=C([O-])c1ccc(O)cc1
REMARK SMILES IDX 4 1 5 2 10 3 6 4 9 5 7 6 2 7 1 8 3 9 8 10
REMARK H PARENT 8 11
REMARK Flexibility Score: inf
ROOT
ATOM      1  C   UNL     1      -3.940  14.853   6.814  1.00  0.00    -0.003 A 
ATOM      2  C   UNL     1      -3.097  15.959   6.594  1.00  0.00     0.014 A 
ATOM      3  C   UNL     1      -3.655  13.982   7.880  1.00  0.00     0.014 A 
ATOM      4  C   UNL     1      -1.994  16.184   7.423  1.00  0.00     0.047 A 
ATOM      5  C   UNL     1      -2.552  14.210   8.707  1.00  0.00     0.047 A 
ATOM      6  C   UNL     1      -1.718  15.310   8.482  1.00  0.00     0.115 A 
ENDROOT
BRANCH   1   7
ATOM      7  C   UNL     1      -5.108  14.610   5.940  1.00  0.00     0.071 C 
ATOM      8  O   UNL     1      -5.260  13.498   5.368  1.00  0.00    -0.545 OA
ATOM      9  O   UNL     1      -6.056  15.607   5.736  1.00  0.00    -0.545 OA
ENDBRANCH   1   7
BRANCH   6  10
ATOM     10  O   UNL     1      -0.622  15.524   9.314  1.00  0.00    -0.508 OA
ATOM     11  H   UNL     1      -0.195  16.439   9.402  1.00  0.00     0.293 HD
ENDBRANCH   6  10
TORSDOF 2
ENDMDL
MODEL 2
REMARK VINA RESULT:    -4.711      0.188      1.543
REMARK INTER + INTRA:          -5.154
REMARK INTER:                  -5.126
REMARK INTRA:                  -0.028
REMARK UNBOUND:                -0.030
REMARK SMILES O=C([O-])c1ccc(O)cc1
REMARK SMILES IDX 4 1 5 2 10 3 6 4 9 5 7 6 2 7 1 8 3 9 8 10
REMARK H PARENT 8 11
REMARK Flexibility Score: inf
ROOT
ATOM      1  C   UNL     1      -3.842  14.906   6.884  1.00  0.00    -0.003 A 
ATOM      2  C   UNL     1      -3.514  14.043   7.948  1.00  0.00     0.014 A 
ATOM      3  C   UNL     1      -3.011  16.010   6.623  1.00  0.00     0.014 A 
ATOM      4  C   UNL     1      -2.380  14.283   8.730  1.00  0.00     0.047 A 
ATOM      5  C   UNL     1      -1.877  16.245   7.406  1.00  0.00     0.047 A 
ATOM      6  C   UNL     1      -1.559  15.385   8.461  1.00  0.00     0.115 A 
ENDROOT
BRANCH   1   7
ATOM      7  C   UNL     1      -5.041  14.658   6.054  1.00  0.00     0.071 C 
ATOM      8  O   UNL     1      -5.124  13.623   5.341  1.00  0.00    -0.545 OA
ATOM      9  O   UNL     1      -6.093  15.567   6.049  1.00  0.00    -0.545 OA
ENDBRANCH   1   7
BRANCH   6  10
ATOM     10  O   UNL     1      -0.426  15.633   9.233  1.00  0.00    -0.508 OA
ATOM     11  H   UNL     1      -0.469  16.210  10.066  1.00  0.00     0.293 HD
ENDBRANCH   6  10
TORSDOF 2
ENDMDL
MODEL 3
REMARK VINA RESULT:    -4.449      0.861      4.428
REMARK INTER + INTRA:          -4.869
REMARK INTER:                  -4.842
REMARK INTRA:                  -0.027
REMARK UNBOUND:                -0.030
REMARK SMILES O=C([O-])c1ccc(O)cc1
REMARK SMILES IDX 4 1 5 2 10 3 6 4 9 5 7 6 2 7 1 8 3 9 8 10
REMARK H PARENT 8 11
REMARK Flexibility Score: inf
ROOT
ATOM      1  C   UNL     1      -1.810  15.167   8.470  1.00  0.00    -0.003 A 
ATOM      2  C   UNL     1      -2.006  16.130   7.462  1.00  0.00     0.014 A 
ATOM      3  C   UNL     1      -2.715  14.095   8.572  1.00  0.00     0.014 A 
ATOM      4  C   UNL     1      -3.084  16.021   6.579  1.00  0.00     0.047 A 
ATOM      5  C   UNL     1      -3.791  13.989   7.686  1.00  0.00     0.047 A 
ATOM      6  C   UNL     1      -3.979  14.949   6.688  1.00  0.00     0.115 A 
ENDROOT
BRANCH   1   7
ATOM      7  C   UNL     1      -0.672  15.278   9.409  1.00  0.00     0.071 C 
ATOM      8  O   UNL     1      -0.802  15.885  10.504  1.00  0.00    -0.545 OA
ATOM      9  O   UNL     1       0.558  14.712   9.093  1.00  0.00    -0.545 OA
ENDBRANCH   1   7
BRANCH   6  10
ATOM     10  O   UNL     1      -5.057  14.831   5.813  1.00  0.00    -0.508 OA
ATOM     11  H   UNL     1      -6.014  14.897   6.140  1.00  0.00     0.293 HD
ENDBRANCH   6  10
TORSDOF 2
ENDMDL
MODEL 4
REMARK VINA RESULT:    -4.421      1.962      4.518
REMARK INTER + INTRA:          -4.838
REMARK INTER:                  -4.804
REMARK INTRA:                  -0.034
REMARK UNBOUND:                -0.030
REMARK SMILES O=C([O-])c1ccc(O)cc1
REMARK SMILES IDX 4 1 5 2 10 3 6 4 9 5 7 6 2 7 1 8 3 9 8 10
REMARK H PARENT 8 11
REMARK Flexibility Score: inf
ROOT
ATOM      1  C   UNL     1      -4.311  14.968   7.163  1.00  0.00    -0.003 A 
ATOM      2  C   UNL     1      -5.349  14.731   8.085  1.00  0.00     0.014 A 
ATOM      3  C   UNL     1      -4.411  14.420   5.872  1.00  0.00     0.014 A 
ATOM      4  C   UNL     1      -6.459  13.963   7.720  1.00  0.00     0.047 A 
ATOM      5  C   UNL     1      -5.523  13.653   5.510  1.00  0.00     0.047 A 
ATOM      6  C   UNL     1      -6.549  13.423   6.431  1.00  0.00     0.115 A 
ENDROOT
BRANCH   1   7
ATOM      7  C   UNL     1      -3.134  15.778   7.544  1.00  0.00     0.071 C 
ATOM      8  O   UNL     1      -2.476  16.402   6.670  1.00  0.00    -0.545 OA
ATOM      9  O   UNL     1      -2.737  15.862   8.874  1.00  0.00    -0.545 OA
ENDBRANCH   1   7
BRANCH   6  10
ATOM     10  O   UNL     1      -7.650  12.656   6.057  1.00  0.00    -0.508 OA
ATOM     11  H   UNL     1      -8.119  12.801   5.170  1.00  0.00     0.293 HD
ENDBRANCH   6  10
TORSDOF 2
ENDMDL
MODEL 5
REMARK VINA RESULT:    -4.362      2.367      4.988
REMARK INTER + INTRA:          -4.775
REMARK INTER:                  -4.747
REMARK INTRA:                  -0.027
REMARK UNBOUND:                -0.030
REMARK SMILES O=C([O-])c1ccc(O)cc1
REMARK SMILES IDX 4 1 5 2 10 3 6 4 9 5 7 6 2 7 1 8 3 9 8 10
REMARK H PARENT 8 11
REMARK Flexibility Score: inf
ROOT
ATOM      1  C   UNL     1      -5.255  14.683   6.449  1.00  0.00    -0.003 A 
ATOM      2  C   UNL     1      -6.221  15.586   6.933  1.00  0.00     0.014 A 
ATOM      3  C   UNL     1      -5.647  13.700   5.523  1.00  0.00     0.014 A 
ATOM      4  C   UNL     1      -7.547  15.503   6.500  1.00  0.00     0.047 A 
ATOM      5  C   UNL     1      -6.974  13.620   5.092  1.00  0.00     0.047 A 
ATOM      6  C   UNL     1      -7.928  14.519   5.579  1.00  0.00     0.115 A 
ENDROOT
BRANCH   1   7
ATOM      7  C   UNL     1      -3.850  14.766   6.903  1.00  0.00     0.071 C 
ATOM      8  O   UNL     1      -3.393  13.931   7.729  1.00  0.00    -0.545 OA
ATOM      9  O   UNL     1      -3.013  15.768   6.425  1.00  0.00    -0.545 OA
ENDBRANCH   1   7
BRANCH   6  10
ATOM     10  O   UNL     1      -9.247  14.427   5.141  1.00  0.00    -0.508 OA
ATOM     11  H   UNL     1      -9.472  14.134   4.197  1.00  0.00     0.293 HD
ENDBRANCH   6  10
TORSDOF 2
ENDMDL
MODEL 6
REMARK VINA RESULT:    -4.357      2.723      3.791
REMARK INTER + INTRA:          -4.769
REMARK INTER:                  -4.735
REMARK INTRA:                  -0.034
REMARK UNBOUND:                -0.030
REMARK SMILES O=C([O-])c1ccc(O)cc1
REMARK SMILES IDX 4 1 5 2 10 3 6 4 9 5 7 6 2 7 1 8 3 9 8 10
REMARK H PARENT 8 11
REMARK Flexibility Score: inf
ROOT
ATOM      1  C   UNL     1      -7.375  14.597   5.697  1.00  0.00    -0.003 A 
ATOM      2  C   UNL     1      -7.000  15.704   6.483  1.00  0.00     0.014 A 
ATOM      3  C   UNL     1      -6.379  13.713   5.247  1.00  0.00     0.014 A 
ATOM      4  C   UNL     1      -5.657  15.919   6.807  1.00  0.00     0.047 A 
ATOM      5  C   UNL     1      -5.037  13.931   5.574  1.00  0.00     0.047 A 
ATOM      6  C   UNL     1      -4.672  15.032   6.353  1.00  0.00     0.115 A 
ENDROOT
BRANCH   1   7
ATOM      7  C   UNL     1      -8.794  14.365   5.351  1.00  0.00     0.071 C 
ATOM      8  O   UNL     1      -9.207  13.205   5.086  1.00  0.00    -0.545 OA
ATOM      9  O   UNL     1      -9.692  15.426   5.311  1.00  0.00    -0.545 OA
ENDBRANCH   1   7
BRANCH   6  10
ATOM     10  O   UNL     1      -3.331  15.237   6.670  1.00  0.00    -0.508 OA
ATOM     11  H   UNL     1      -2.673  14.467   6.709  1.00  0.00     0.293 HD
ENDBRANCH   6  10
TORSDOF 2
ENDMDL
MODEL 7
REMARK VINA RESULT:    -4.352      2.726      3.883
REMARK INTER + INTRA:          -4.763
REMARK INTER:                  -4.729
REMARK INTRA:                  -0.034
REMARK UNBOUND:                -0.030
REMARK SMILES O=C([O-])c1ccc(O)cc1
REMARK SMILES IDX 4 1 5 2 10 3 6 4 9 5 7 6 2 7 1 8 3 9 8 10
REMARK H PARENT 8 11
REMARK Flexibility Score: inf
ROOT
ATOM      1  C   UNL     1      -7.349  14.575   5.686  1.00  0.00    -0.003 A 
ATOM      2  C   UNL     1      -6.343  13.691   5.250  1.00  0.00     0.014 A 
ATOM      3  C   UNL     1      -6.982  15.701   6.445  1.00  0.00     0.014 A 
ATOM      4  C   UNL     1      -5.003  13.930   5.569  1.00  0.00     0.047 A 
ATOM      5  C   UNL     1      -5.641  15.937   6.761  1.00  0.00     0.047 A 
ATOM      6  C   UNL     1      -4.649  15.054   6.326  1.00  0.00     0.115 A 
ENDROOT
BRANCH   1   7
ATOM      7  C   UNL     1      -8.768  14.327   5.352  1.00  0.00     0.071 C 
ATOM      8  O   UNL     1      -9.173  13.162   5.099  1.00  0.00    -0.545 OA
ATOM      9  O   UNL     1      -9.676  15.380   5.313  1.00  0.00    -0.545 OA
ENDBRANCH   1   7
BRANCH   6  10
ATOM     10  O   UNL     1      -3.317  15.301   6.650  1.00  0.00    -0.508 OA
ATOM     11  H   UNL     1      -2.627  15.502   5.934  1.00  0.00     0.293 HD
ENDBRANCH   6  10
TORSDOF 2
ENDMDL
MODEL 8
REMARK VINA RESULT:    -4.237      2.162      4.681
REMARK INTER + INTRA:          -4.638
REMARK INTER:                  -4.602
REMARK INTRA:                  -0.036
REMARK UNBOUND:                -0.030
REMARK SMILES O=C([O-])c1ccc(O)cc1
REMARK SMILES IDX 4 1 5 2 10 3 6 4 9 5 7 6 2 7 1 8 3 9 8 10
REMARK H PARENT 8 11
REMARK Flexibility Score: inf
ROOT
ATOM      1  C   UNL     1      -4.860  14.631   8.202  1.00  0.00    -0.003 A 
ATOM      2  C   UNL     1      -6.227  14.296   8.170  1.00  0.00     0.014 A 
ATOM      3  C   UNL     1      -4.103  14.514   7.023  1.00  0.00     0.014 A 
ATOM      4  C   UNL     1      -6.819  13.853   6.983  1.00  0.00     0.047 A 
ATOM      5  C   UNL     1      -4.699  14.072   5.838  1.00  0.00     0.047 A 
ATOM      6  C   UNL     1      -6.056  13.740   5.814  1.00  0.00     0.115 A 
ENDROOT
BRANCH   1   7
ATOM      7  C   UNL     1      -4.228  15.100   9.455  1.00  0.00     0.071 C 
ATOM      8  O   UNL     1      -4.886  15.142  10.528  1.00  0.00    -0.545 OA
ATOM      9  O   UNL     1      -2.896  15.501   9.464  1.00  0.00    -0.545 OA
ENDBRANCH   1   7
BRANCH   6  10
ATOM     10  O   UNL     1      -6.636  13.300   4.627  1.00  0.00    -0.508 OA
ATOM     11  H   UNL     1      -7.017  13.952   3.950  1.00  0.00     0.293 HD
ENDBRANCH   6  10
TORSDOF 2
ENDMDL
MODEL 9
REMARK VINA RESULT:    -4.221      4.230      5.896
REMARK INTER + INTRA:          -4.621
REMARK INTER:                  -4.585
REMARK INTRA:                  -0.036
REMARK UNBOUND:                -0.030
REMARK SMILES O=C([O-])c1ccc(O)cc1
REMARK SMILES IDX 4 1 5 2 10 3 6 4 9 5 7 6 2 7 1 8 3 9 8 10
REMARK H PARENT 8 11
REMARK Flexibility Score: inf
ROOT
ATOM      1  C   UNL     1      -9.075  15.667   6.095  1.00  0.00    -0.003 A 
ATOM      2  C   UNL     1      -7.748  15.983   6.445  1.00  0.00     0.014 A 
ATOM      3  C   UNL     1      -9.329  14.470   5.403  1.00  0.00     0.014 A 
ATOM      4  C   UNL     1      -6.702  15.119   6.107  1.00  0.00     0.047 A 
ATOM      5  C   UNL     1      -8.280  13.608   5.068  1.00  0.00     0.047 A 
ATOM      6  C   UNL     1      -6.966  13.929   5.418  1.00  0.00     0.115 A 
ENDROOT
BRANCH   1   7
ATOM      7  C   UNL     1     -10.185  16.578   6.448  1.00  0.00     0.071 C 
ATOM      8  O   UNL     1     -11.370  16.298   6.126  1.00  0.00    -0.545 OA
ATOM      9  O   UNL     1      -9.935  17.757   7.141  1.00  0.00    -0.545 OA
ENDBRANCH   1   7
BRANCH   6  10
ATOM     10  O   UNL     1      -5.932  13.060   5.076  1.00  0.00    -0.508 OA
ATOM     11  H   UNL     1      -5.792  12.753   4.120  1.00  0.00     0.293 HD
ENDBRANCH   6  10
TORSDOF 2
ENDMDL
