MODEL 1
REMARK VINA RESULT:    -3.892      0.000      0.000
REMARK INTER + INTRA:         -10.010
REMARK INTER:                  -8.443
REMARK INTRA:                  -1.566
REMARK UNBOUND:                -1.566
REMARK SMILES CCCCCCCCCCCCCCCCCCCCCC(=O)[O-]
REMARK SMILES IDX 12 1 11 2 10 3 9 4 8 5 7 6 6 7 5 8 4 9 3 10 2 11 1 12 13 13
REMARK SMILES IDX 14 14 15 15 16 16 17 17 18 18 19 19 20 20 21 21 22 22 23 23
REMARK SMILES IDX 24 24
REMARK H PARENT
REMARK Flexibility Score: inf
ROOT
ATOM      1  C   UNL     1     -44.652 -36.651  18.422  1.00  0.00     0.000 C 
ENDROOT
BRANCH   1   2
ATOM      2  C   UNL     1     -44.637 -37.921  17.553  1.00  0.00     0.000 C 
BRANCH   2   3
ATOM      3  C   UNL     1     -45.068 -37.642  16.101  1.00  0.00     0.000 C 
BRANCH   3   4
ATOM      4  C   UNL     1     -44.086 -38.178  15.042  1.00  0.00    -0.000 C 
BRANCH   4   5
ATOM      5  C   UNL     1     -44.310 -37.552  13.656  1.00  0.00    -0.000 C 
BRANCH   5   6
ATOM      6  C   UNL     1     -45.502 -36.585  13.678  1.00  0.00    -0.000 C 
BRANCH   6   7
ATOM      7  C   UNL     1     -45.636 -35.762  12.383  1.00  0.00    -0.000 C 
BRANCH   7   8
ATOM      8  C   UNL     1     -45.840 -34.249  12.588  1.00  0.00    -0.000 C 
BRANCH   8   9
ATOM      9  C   UNL     1     -45.945 -33.851  14.067  1.00  0.00    -0.000 C 
BRANCH   9  10
ATOM     10  C   UNL     1     -45.348 -32.456  14.305  1.00  0.00    -0.000 C 
BRANCH  10  11
ATOM     11  C   UNL     1     -44.586 -32.361  15.637  1.00  0.00    -0.003 C 
ATOM     12  C   UNL     1     -44.619 -33.666  16.432  1.00  0.00     0.004 C 
ENDBRANCH  10  11
ENDBRANCH   9  10
ENDBRANCH   8   9
ENDBRANCH   7   8
ENDBRANCH   6   7
ENDBRANCH   5   6
ENDBRANCH   4   5
ENDBRANCH   3   4
ENDBRANCH   2   3
ENDBRANCH   1   2
BRANCH   1  13
ATOM     13  C   UNL     1     -43.845 -36.814  19.721  1.00  0.00     0.000 C 
BRANCH  13  14
ATOM     14  C   UNL     1     -44.692 -36.569  20.979  1.00  0.00     0.000 C 
BRANCH  14  15
ATOM     15  C   UNL     1     -45.814 -35.558  20.700  1.00  0.00     0.000 C 
BRANCH  15  16
ATOM     16  C   UNL     1     -45.590 -34.218  21.435  1.00  0.00     0.000 C 
BRANCH  16  17
ATOM     17  C   UNL     1     -44.287 -34.166  22.249  1.00  0.00     0.000 C 
BRANCH  17  18
ATOM     18  C   UNL     1     -44.385 -33.256  23.482  1.00  0.00     0.000 C 
BRANCH  18  19
ATOM     19  C   UNL     1     -43.005 -32.694  23.862  1.00  0.00     0.000 C 
BRANCH  19  20
ATOM     20  C   UNL     1     -42.995 -32.032  25.248  1.00  0.00     0.006 C 
BRANCH  20  21
ATOM     21  C   UNL     1     -43.732 -32.864  26.308  1.00  0.00     0.053 C 
BRANCH  21  22
ATOM     22  C   UNL     1     -42.760 -33.624  27.154  1.00  0.00     0.041 C 
ATOM     23  O   UNL     1     -41.530 -33.356  27.102  1.00  0.00    -0.550 OA
ATOM     24  O   UNL     1     -43.207 -34.643  27.984  1.00  0.00    -0.550 OA
ENDBRANCH  21  22
ENDBRANCH  20  21
ENDBRANCH  19  20
ENDBRANCH  18  19
ENDBRANCH  17  18
ENDBRANCH  16  17
ENDBRANCH  15  16
ENDBRANCH  14  15
ENDBRANCH  13  14
ENDBRANCH   1  13
TORSDOF 20
ENDMDL
MODEL 2
REMARK VINA RESULT:    -3.843      1.574      2.225
REMARK INTER + INTRA:          -9.903
REMARK INTER:                  -7.736
REMARK INTRA:                  -2.167
REMARK UNBOUND:                -1.566
REMARK SMILES CCCCCCCCCCCCCCCCCCCCCC(=O)[O-]
REMARK SMILES IDX 12 1 11 2 10 3 9 4 8 5 7 6 6 7 5 8 4 9 3 10 2 11 1 12 13 13
REMARK SMILES IDX 14 14 15 15 16 16 17 17 18 18 19 19 20 20 21 21 22 22 23 23
REMARK SMILES IDX 24 24
REMARK H PARENT
REMARK Flexibility Score: inf
ROOT
ATOM      1  C   UNL     1     -44.552 -35.978  19.501  1.00  0.00     0.000 C 
ENDROOT
BRANCH   1   2
ATOM      2  C   UNL     1     -44.446 -37.071  18.423  1.00  0.00     0.000 C 
BRANCH   2   3
ATOM      3  C   UNL     1     -45.809 -37.400  17.786  1.00  0.00     0.000 C 
BRANCH   3   4
ATOM      4  C   UNL     1     -45.709 -38.070  16.403  1.00  0.00    -0.000 C 
BRANCH   4   5
ATOM      5  C   UNL     1     -44.259 -38.192  15.907  1.00  0.00    -0.000 C 
BRANCH   5   6
ATOM      6  C   UNL     1     -44.148 -37.780  14.432  1.00  0.00    -0.000 C 
BRANCH   6   7
ATOM      7  C   UNL     1     -45.427 -37.110  13.896  1.00  0.00    -0.000 C 
BRANCH   7   8
ATOM      8  C   UNL     1     -45.193 -35.901  12.970  1.00  0.00    -0.000 C 
BRANCH   8   9
ATOM      9  C   UNL     1     -45.711 -34.582  13.562  1.00  0.00    -0.000 C 
BRANCH   9  10
ATOM     10  C   UNL     1     -46.031 -34.738  15.056  1.00  0.00    -0.000 C 
BRANCH  10  11
ATOM     11  C   UNL     1     -45.048 -33.966  15.952  1.00  0.00    -0.003 C 
ATOM     12  C   UNL     1     -45.707 -33.417  17.218  1.00  0.00     0.004 C 
ENDBRANCH  10  11
ENDBRANCH   9  10
ENDBRANCH   8   9
ENDBRANCH   7   8
ENDBRANCH   6   7
ENDBRANCH   5   6
ENDBRANCH   4   5
ENDBRANCH   3   4
ENDBRANCH   2   3
ENDBRANCH   1   2
BRANCH   1  13
ATOM     13  C   UNL     1     -44.874 -36.548  20.892  1.00  0.00     0.000 C 
BRANCH  13  14
ATOM     14  C   UNL     1     -45.628 -35.548  21.782  1.00  0.00     0.000 C 
BRANCH  14  15
ATOM     15  C   UNL     1     -45.644 -34.149  21.148  1.00  0.00     0.000 C 
BRANCH  15  16
ATOM     16  C   UNL     1     -45.389 -33.034  22.185  1.00  0.00     0.000 C 
BRANCH  16  17
ATOM     17  C   UNL     1     -44.693 -33.523  23.466  1.00  0.00     0.000 C 
BRANCH  17  18
ATOM     18  C   UNL     1     -43.167 -33.360  23.421  1.00  0.00     0.000 C 
BRANCH  18  19
ATOM     19  C   UNL     1     -42.728 -32.085  24.159  1.00  0.00     0.000 C 
BRANCH  19  20
ATOM     20  C   UNL     1     -41.209 -32.015  24.371  1.00  0.00     0.006 C 
BRANCH  20  21
ATOM     21  C   UNL     1     -40.804 -32.213  25.838  1.00  0.00     0.053 C 
BRANCH  21  22
ATOM     22  C   UNL     1     -39.483 -32.909  25.933  1.00  0.00     0.041 C 
ATOM     23  O   UNL     1     -39.171 -33.538  26.978  1.00  0.00    -0.550 OA
ATOM     24  O   UNL     1     -38.585 -32.845  24.876  1.00  0.00    -0.550 OA
ENDBRANCH  21  22
ENDBRANCH  20  21
ENDBRANCH  19  20
ENDBRANCH  18  19
ENDBRANCH  17  18
ENDBRANCH  16  17
ENDBRANCH  15  16
ENDBRANCH  14  15
ENDBRANCH  13  14
ENDBRANCH   1  13
TORSDOF 20
ENDMDL
MODEL 3
REMARK VINA RESULT:    -3.609      4.687     11.201
REMARK INTER + INTRA:          -9.394
REMARK INTER:                  -7.791
REMARK INTRA:                  -1.603
REMARK UNBOUND:                -1.566
REMARK SMILES CCCCCCCCCCCCCCCCCCCCCC(=O)[O-]
REMARK SMILES IDX 12 1 11 2 10 3 9 4 8 5 7 6 6 7 5 8 4 9 3 10 2 11 1 12 13 13
REMARK SMILES IDX 14 14 15 15 16 16 17 17 18 18 19 19 20 20 21 21 22 22 23 23
REMARK SMILES IDX 24 24
REMARK H PARENT
REMARK Flexibility Score: inf
ROOT
ATOM      1  C   UNL     1     -43.170 -33.240  23.841  1.00  0.00     0.000 C 
ENDROOT
BRANCH   1   2
ATOM      2  C   UNL     1     -42.201 -32.059  24.024  1.00  0.00     0.000 C 
BRANCH   2   3
ATOM      3  C   UNL     1     -41.658 -31.964  25.463  1.00  0.00     0.000 C 
BRANCH   3   4
ATOM      4  C   UNL     1     -42.625 -32.500  26.535  1.00  0.00    -0.000 C 
BRANCH   4   5
ATOM      5  C   UNL     1     -41.896 -33.198  27.695  1.00  0.00    -0.000 C 
BRANCH   5   6
ATOM      6  C   UNL     1     -40.724 -32.343  28.198  1.00  0.00    -0.000 C 
BRANCH   6   7
ATOM      7  C   UNL     1     -39.381 -33.097  28.190  1.00  0.00    -0.000 C 
BRANCH   7   8
ATOM      8  C   UNL     1     -38.135 -32.211  28.003  1.00  0.00    -0.000 C 
BRANCH   8   9
ATOM      9  C   UNL     1     -37.366 -32.519  26.710  1.00  0.00    -0.000 C 
BRANCH   9  10
ATOM     10  C   UNL     1     -38.024 -33.676  25.942  1.00  0.00    -0.000 C 
BRANCH  10  11
ATOM     11  C   UNL     1     -38.416 -33.283  24.509  1.00  0.00    -0.003 C 
ATOM     12  C   UNL     1     -37.240 -32.732  23.702  1.00  0.00     0.004 C 
ENDBRANCH  10  11
ENDBRANCH   9  10
ENDBRANCH   8   9
ENDBRANCH   7   8
ENDBRANCH   6   7
ENDBRANCH   5   6
ENDBRANCH   4   5
ENDBRANCH   3   4
ENDBRANCH   2   3
ENDBRANCH   1   2
BRANCH   1  13
ATOM     13  C   UNL     1     -44.501 -32.818  23.199  1.00  0.00     0.000 C 
BRANCH  13  14
ATOM     14  C   UNL     1     -45.596 -33.884  23.349  1.00  0.00     0.000 C 
BRANCH  14  15
ATOM     15  C   UNL     1     -45.956 -34.501  21.990  1.00  0.00     0.000 C 
BRANCH  15  16
ATOM     16  C   UNL     1     -44.911 -35.537  21.522  1.00  0.00     0.000 C 
BRANCH  16  17
ATOM     17  C   UNL     1     -44.853 -35.717  19.996  1.00  0.00     0.000 C 
BRANCH  17  18
ATOM     18  C   UNL     1     -45.696 -36.900  19.498  1.00  0.00     0.000 C 
BRANCH  18  19
ATOM     19  C   UNL     1     -45.851 -36.861  17.969  1.00  0.00     0.000 C 
BRANCH  19  20
ATOM     20  C   UNL     1     -44.785 -35.991  17.287  1.00  0.00     0.006 C 
BRANCH  20  21
ATOM     21  C   UNL     1     -44.803 -36.122  15.757  1.00  0.00     0.053 C 
BRANCH  21  22
ATOM     22  C   UNL     1     -44.560 -37.540  15.345  1.00  0.00     0.041 C 
ATOM     23  O   UNL     1     -43.590 -38.183  15.827  1.00  0.00    -0.550 OA
ATOM     24  O   UNL     1     -45.392 -38.146  14.413  1.00  0.00    -0.550 OA
ENDBRANCH  21  22
ENDBRANCH  20  21
ENDBRANCH  19  20
ENDBRANCH  18  19
ENDBRANCH  17  18
ENDBRANCH  16  17
ENDBRANCH  15  16
ENDBRANCH  14  15
ENDBRANCH  13  14
ENDBRANCH   1  13
TORSDOF 20
ENDMDL
MODEL 4
REMARK VINA RESULT:    -3.575      3.207      9.232
REMARK INTER + INTRA:          -9.321
REMARK INTER:                  -7.810
REMARK INTRA:                  -1.511
REMARK UNBOUND:                -1.566
REMARK SMILES CCCCCCCCCCCCCCCCCCCCCC(=O)[O-]
REMARK SMILES IDX 12 1 11 2 10 3 9 4 8 5 7 6 6 7 5 8 4 9 3 10 2 11 1 12 13 13
REMARK SMILES IDX 14 14 15 15 16 16 17 17 18 18 19 19 20 20 21 21 22 22 23 23
REMARK SMILES IDX 24 24
REMARK H PARENT
REMARK Flexibility Score: inf
ROOT
ATOM      1  C   UNL     1     -44.809 -36.065  17.980  1.00  0.00     0.000 C 
ENDROOT
BRANCH   1   2
ATOM      2  C   UNL     1     -44.119 -36.646  19.226  1.00  0.00     0.000 C 
BRANCH   2   3
ATOM      3  C   UNL     1     -45.129 -37.126  20.286  1.00  0.00     0.000 C 
BRANCH   3   4
ATOM      4  C   UNL     1     -45.419 -36.092  21.390  1.00  0.00    -0.000 C 
BRANCH   4   5
ATOM      5  C   UNL     1     -45.996 -34.780  20.835  1.00  0.00    -0.000 C 
BRANCH   5   6
ATOM      6  C   UNL     1     -45.424 -33.569  21.586  1.00  0.00    -0.000 C 
BRANCH   6   7
ATOM      7  C   UNL     1     -44.470 -33.964  22.728  1.00  0.00    -0.000 C 
BRANCH   7   8
ATOM      8  C   UNL     1     -43.769 -32.786  23.432  1.00  0.00    -0.000 C 
BRANCH   8   9
ATOM      9  C   UNL     1     -43.900 -32.835  24.961  1.00  0.00    -0.000 C 
BRANCH   9  10
ATOM     10  C   UNL     1     -42.569 -32.476  25.638  1.00  0.00    -0.000 C 
BRANCH  10  11
ATOM     11  C   UNL     1     -42.649 -32.555  27.172  1.00  0.00    -0.003 C 
ATOM     12  C   UNL     1     -42.831 -33.984  27.683  1.00  0.00     0.004 C 
ENDBRANCH  10  11
ENDBRANCH   9  10
ENDBRANCH   8   9
ENDBRANCH   7   8
ENDBRANCH   6   7
ENDBRANCH   5   6
ENDBRANCH   4   5
ENDBRANCH   3   4
ENDBRANCH   2   3
ENDBRANCH   1   2
BRANCH   1  13
ATOM     13  C   UNL     1     -45.333 -37.155  17.032  1.00  0.00     0.000 C 
BRANCH  13  14
ATOM     14  C   UNL     1     -44.237 -38.140  16.598  1.00  0.00     0.000 C 
BRANCH  14  15
ATOM     15  C   UNL     1     -44.092 -38.166  15.069  1.00  0.00     0.000 C 
BRANCH  15  16
ATOM     16  C   UNL     1     -45.174 -37.320  14.364  1.00  0.00     0.000 C 
BRANCH  16  17
ATOM     17  C   UNL     1     -44.707 -36.691  13.041  1.00  0.00     0.000 C 
BRANCH  17  18
ATOM     18  C   UNL     1     -45.434 -35.380  12.710  1.00  0.00     0.000 C 
BRANCH  18  19
ATOM     19  C   UNL     1     -45.855 -34.645  13.993  1.00  0.00     0.000 C 
BRANCH  19  20
ATOM     20  C   UNL     1     -45.411 -33.175  14.008  1.00  0.00     0.006 C 
BRANCH  20  21
ATOM     21  C   UNL     1     -45.990 -32.392  15.195  1.00  0.00     0.053 C 
BRANCH  21  22
ATOM     22  C   UNL     1     -45.110 -32.529  16.398  1.00  0.00     0.041 C 
ATOM     23  O   UNL     1     -43.858 -32.568  16.266  1.00  0.00    -0.550 OA
ATOM     24  O   UNL     1     -45.672 -32.635  17.663  1.00  0.00    -0.550 OA
ENDBRANCH  21  22
ENDBRANCH  20  21
ENDBRANCH  19  20
ENDBRANCH  18  19
ENDBRANCH  17  18
ENDBRANCH  16  17
ENDBRANCH  15  16
ENDBRANCH  14  15
ENDBRANCH  13  14
ENDBRANCH   1  13
TORSDOF 20
ENDMDL
MODEL 5
REMARK VINA RESULT:    -3.474      2.001      3.741
REMARK INTER + INTRA:          -9.103
REMARK INTER:                  -7.416
REMARK INTRA:                  -1.687
REMARK UNBOUND:                -1.566
REMARK SMILES CCCCCCCCCCCCCCCCCCCCCC(=O)[O-]
REMARK SMILES IDX 12 1 11 2 10 3 9 4 8 5 7 6 6 7 5 8 4 9 3 10 2 11 1 12 13 13
REMARK SMILES IDX 14 14 15 15 16 16 17 17 18 18 19 19 20 20 21 21 22 22 23 23
REMARK SMILES IDX 24 24
REMARK H PARENT
REMARK Flexibility Score: inf
ROOT
ATOM      1  C   UNL     1     -45.381 -34.823  20.478  1.00  0.00     0.000 C 
ENDROOT
BRANCH   1   2
ATOM      2  C   UNL     1     -44.444 -36.023  20.701  1.00  0.00     0.000 C 
BRANCH   2   3
ATOM      3  C   UNL     1     -44.452 -37.003  19.511  1.00  0.00     0.000 C 
BRANCH   3   4
ATOM      4  C   UNL     1     -45.861 -37.358  19.001  1.00  0.00    -0.000 C 
BRANCH   4   5
ATOM      5  C   UNL     1     -45.831 -38.232  17.737  1.00  0.00    -0.000 C 
BRANCH   5   6
ATOM      6  C   UNL     1     -44.449 -38.180  17.069  1.00  0.00    -0.000 C 
BRANCH   6   7
ATOM      7  C   UNL     1     -44.458 -37.430  15.724  1.00  0.00    -0.000 C 
BRANCH   7   8
ATOM      8  C   UNL     1     -45.715 -36.582  15.456  1.00  0.00    -0.000 C 
BRANCH   8   9
ATOM      9  C   UNL     1     -45.420 -35.076  15.381  1.00  0.00    -0.000 C 
BRANCH   9  10
ATOM     10  C   UNL     1     -44.730 -34.587  16.663  1.00  0.00    -0.000 C 
BRANCH  10  11
ATOM     11  C   UNL     1     -44.783 -33.058  16.813  1.00  0.00    -0.003 C 
ATOM     12  C   UNL     1     -44.704 -32.328  15.472  1.00  0.00     0.004 C 
ENDBRANCH  10  11
ENDBRANCH   9  10
ENDBRANCH   8   9
ENDBRANCH   7   8
ENDBRANCH   6   7
ENDBRANCH   5   6
ENDBRANCH   4   5
ENDBRANCH   3   4
ENDBRANCH   2   3
ENDBRANCH   1   2
BRANCH   1  13
ATOM     13  C   UNL     1     -45.818 -34.161  21.794  1.00  0.00     0.000 C 
BRANCH  13  14
ATOM     14  C   UNL     1     -44.699 -34.140  22.846  1.00  0.00     0.000 C 
BRANCH  14  15
ATOM     15  C   UNL     1     -44.491 -32.723  23.402  1.00  0.00     0.000 C 
BRANCH  15  16
ATOM     16  C   UNL     1     -43.031 -32.474  23.838  1.00  0.00     0.000 C 
BRANCH  16  17
ATOM     17  C   UNL     1     -42.709 -32.978  25.254  1.00  0.00     0.000 C 
BRANCH  17  18
ATOM     18  C   UNL     1     -42.796 -31.875  26.319  1.00  0.00     0.000 C 
BRANCH  18  19
ATOM     19  C   UNL     1     -41.578 -31.919  27.257  1.00  0.00     0.000 C 
BRANCH  19  20
ATOM     20  C   UNL     1     -40.385 -32.668  26.646  1.00  0.00     0.006 C 
BRANCH  20  21
ATOM     21  C   UNL     1     -39.424 -33.220  27.708  1.00  0.00     0.053 C 
BRANCH  21  22
ATOM     22  C   UNL     1     -38.098 -33.551  27.099  1.00  0.00     0.041 C 
ATOM     23  O   UNL     1     -37.032 -33.205  27.675  1.00  0.00    -0.550 OA
ATOM     24  O   UNL     1     -38.036 -34.223  25.886  1.00  0.00    -0.550 OA
ENDBRANCH  21  22
ENDBRANCH  20  21
ENDBRANCH  19  20
ENDBRANCH  18  19
ENDBRANCH  17  18
ENDBRANCH  16  17
ENDBRANCH  15  16
ENDBRANCH  14  15
ENDBRANCH  13  14
ENDBRANCH   1  13
TORSDOF 20
ENDMDL
MODEL 6
REMARK VINA RESULT:    -3.404      4.640     11.201
REMARK INTER + INTRA:          -8.950
REMARK INTER:                  -7.705
REMARK INTRA:                  -1.245
REMARK UNBOUND:                -1.566
REMARK SMILES CCCCCCCCCCCCCCCCCCCCCC(=O)[O-]
REMARK SMILES IDX 12 1 11 2 10 3 9 4 8 5 7 6 6 7 5 8 4 9 3 10 2 11 1 12 13 13
REMARK SMILES IDX 14 14 15 15 16 16 17 17 18 18 19 19 20 20 21 21 22 22 23 23
REMARK SMILES IDX 24 24
REMARK H PARENT
REMARK Flexibility Score: inf
ROOT
ATOM      1  C   UNL     1     -43.907 -34.338  22.389  1.00  0.00     0.000 C 
ENDROOT
BRANCH   1   2
ATOM      2  C   UNL     1     -45.135 -33.714  23.073  1.00  0.00     0.000 C 
BRANCH   2   3
ATOM      3  C   UNL     1     -44.756 -32.885  24.316  1.00  0.00     0.000 C 
BRANCH   3   4
ATOM      4  C   UNL     1     -45.646 -33.156  25.544  1.00  0.00    -0.000 C 
BRANCH   4   5
ATOM      5  C   UNL     1     -44.920 -32.887  26.872  1.00  0.00    -0.000 C 
BRANCH   5   6
ATOM      6  C   UNL     1     -43.469 -32.450  26.624  1.00  0.00    -0.000 C 
BRANCH   6   7
ATOM      7  C   UNL     1     -42.439 -33.523  27.023  1.00  0.00    -0.000 C 
BRANCH   7   8
ATOM      8  C   UNL     1     -41.333 -33.044  27.982  1.00  0.00    -0.000 C 
BRANCH   8   9
ATOM      9  C   UNL     1     -40.014 -32.719  27.265  1.00  0.00    -0.000 C 
BRANCH   9  10
ATOM     10  C   UNL     1     -38.809 -33.016  28.169  1.00  0.00    -0.000 C 
BRANCH  10  11
ATOM     11  C   UNL     1     -37.801 -33.972  27.511  1.00  0.00    -0.003 C 
ATOM     12  C   UNL     1     -38.036 -34.139  26.009  1.00  0.00     0.004 C 
ENDBRANCH  10  11
ENDBRANCH   9  10
ENDBRANCH   8   9
ENDBRANCH   7   8
ENDBRANCH   6   7
ENDBRANCH   5   6
ENDBRANCH   4   5
ENDBRANCH   3   4
ENDBRANCH   2   3
ENDBRANCH   1   2
BRANCH   1  13
ATOM     13  C   UNL     1     -44.287 -35.266  21.224  1.00  0.00     0.000 C 
BRANCH  13  14
ATOM     14  C   UNL     1     -45.416 -36.242  21.588  1.00  0.00     0.000 C 
BRANCH  14  15
ATOM     15  C   UNL     1     -45.747 -37.167  20.408  1.00  0.00     0.000 C 
BRANCH  15  16
ATOM     16  C   UNL     1     -44.656 -37.137  19.316  1.00  0.00     0.000 C 
BRANCH  16  17
ATOM     17  C   UNL     1     -45.186 -36.780  17.917  1.00  0.00     0.000 C 
BRANCH  17  18
ATOM     18  C   UNL     1     -45.116 -35.276  17.614  1.00  0.00     0.000 C 
BRANCH  18  19
ATOM     19  C   UNL     1     -45.112 -35.020  16.099  1.00  0.00     0.000 C 
BRANCH  19  20
ATOM     20  C   UNL     1     -45.731 -36.176  15.300  1.00  0.00     0.006 C 
BRANCH  20  21
ATOM     21  C   UNL     1     -45.000 -36.441  13.976  1.00  0.00     0.053 C 
BRANCH  21  22
ATOM     22  C   UNL     1     -44.510 -37.853  13.916  1.00  0.00     0.041 C 
ATOM     23  O   UNL     1     -44.992 -38.657  13.075  1.00  0.00    -0.550 OA
ATOM     24  O   UNL     1     -43.536 -38.290  14.804  1.00  0.00    -0.550 OA
ENDBRANCH  21  22
ENDBRANCH  20  21
ENDBRANCH  19  20
ENDBRANCH  18  19
ENDBRANCH  17  18
ENDBRANCH  16  17
ENDBRANCH  15  16
ENDBRANCH  14  15
ENDBRANCH  13  14
ENDBRANCH   1  13
TORSDOF 20
ENDMDL
MODEL 7
REMARK VINA RESULT:    -3.400      2.510      6.322
REMARK INTER + INTRA:          -8.943
REMARK INTER:                  -7.775
REMARK INTRA:                  -1.167
REMARK UNBOUND:                -1.566
REMARK SMILES CCCCCCCCCCCCCCCCCCCCCC(=O)[O-]
REMARK SMILES IDX 12 1 11 2 10 3 9 4 8 5 7 6 6 7 5 8 4 9 3 10 2 11 1 12 13 13
REMARK SMILES IDX 14 14 15 15 16 16 17 17 18 18 19 19 20 20 21 21 22 22 23 23
REMARK SMILES IDX 24 24
REMARK H PARENT
REMARK Flexibility Score: inf
ROOT
ATOM      1  C   UNL     1     -43.682 -32.404  23.503  1.00  0.00     0.000 C 
ENDROOT
BRANCH   1   2
ATOM      2  C   UNL     1     -43.945 -33.876  23.140  1.00  0.00     0.000 C 
BRANCH   2   3
ATOM      3  C   UNL     1     -45.387 -34.111  22.650  1.00  0.00     0.000 C 
BRANCH   3   4
ATOM      4  C   UNL     1     -45.583 -35.436  21.890  1.00  0.00    -0.000 C 
BRANCH   4   5
ATOM      5  C   UNL     1     -44.628 -35.581  20.695  1.00  0.00    -0.000 C 
BRANCH   5   6
ATOM      6  C   UNL     1     -44.850 -36.919  19.976  1.00  0.00    -0.000 C 
BRANCH   6   7
ATOM      7  C   UNL     1     -45.817 -36.809  18.782  1.00  0.00    -0.000 C 
BRANCH   7   8
ATOM      8  C   UNL     1     -45.144 -36.769  17.397  1.00  0.00    -0.000 C 
BRANCH   8   9
ATOM      9  C   UNL     1     -44.574 -38.128  16.966  1.00  0.00    -0.000 C 
BRANCH   9  10
ATOM     10  C   UNL     1     -43.961 -38.046  15.560  1.00  0.00    -0.000 C 
BRANCH  10  11
ATOM     11  C   UNL     1     -44.912 -37.400  14.540  1.00  0.00    -0.003 C 
ATOM     12  C   UNL     1     -44.426 -37.550  13.098  1.00  0.00     0.004 C 
ENDBRANCH  10  11
ENDBRANCH   9  10
ENDBRANCH   8   9
ENDBRANCH   7   8
ENDBRANCH   6   7
ENDBRANCH   5   6
ENDBRANCH   4   5
ENDBRANCH   3   4
ENDBRANCH   2   3
ENDBRANCH   1   2
BRANCH   1  13
ATOM     13  C   UNL     1     -43.278 -32.221  24.975  1.00  0.00     0.000 C 
BRANCH  13  14
ATOM     14  C   UNL     1     -44.119 -33.080  25.931  1.00  0.00     0.000 C 
BRANCH  14  15
ATOM     15  C   UNL     1     -43.686 -32.867  27.389  1.00  0.00     0.000 C 
BRANCH  15  16
ATOM     16  C   UNL     1     -42.511 -33.784  27.791  1.00  0.00     0.000 C 
BRANCH  16  17
ATOM     17  C   UNL     1     -41.810 -33.362  29.093  1.00  0.00     0.000 C 
BRANCH  17  18
ATOM     18  C   UNL     1     -41.107 -32.001  28.984  1.00  0.00     0.000 C 
BRANCH  18  19
ATOM     19  C   UNL     1     -39.948 -32.060  27.976  1.00  0.00     0.000 C 
BRANCH  19  20
ATOM     20  C   UNL     1     -38.797 -32.960  28.446  1.00  0.00     0.006 C 
BRANCH  20  21
ATOM     21  C   UNL     1     -37.511 -32.753  27.633  1.00  0.00     0.053 C 
BRANCH  21  22
ATOM     22  C   UNL     1     -37.665 -33.306  26.251  1.00  0.00     0.041 C 
ATOM     23  O   UNL     1     -37.928 -34.527  26.082  1.00  0.00    -0.550 OA
ATOM     24  O   UNL     1     -37.497 -32.481  25.148  1.00  0.00    -0.550 OA
ENDBRANCH  21  22
ENDBRANCH  20  21
ENDBRANCH  19  20
ENDBRANCH  18  19
ENDBRANCH  17  18
ENDBRANCH  16  17
ENDBRANCH  15  16
ENDBRANCH  14  15
ENDBRANCH  13  14
ENDBRANCH   1  13
TORSDOF 20
ENDMDL
MODEL 8
REMARK VINA RESULT:    -3.369      1.777      3.453
REMARK INTER + INTRA:          -8.874
REMARK INTER:                  -7.461
REMARK INTRA:                  -1.413
REMARK UNBOUND:                -1.566
REMARK SMILES CCCCCCCCCCCCCCCCCCCCCC(=O)[O-]
REMARK SMILES IDX 12 1 11 2 10 3 9 4 8 5 7 6 6 7 5 8 4 9 3 10 2 11 1 12 13 13
REMARK SMILES IDX 14 14 15 15 16 16 17 17 18 18 19 19 20 20 21 21 22 22 23 23
REMARK SMILES IDX 24 24
REMARK H PARENT
REMARK Flexibility Score: inf
ROOT
ATOM      1  C   UNL     1     -43.954 -36.034  20.547  1.00  0.00     0.000 C 
ENDROOT
BRANCH   1   2
ATOM      2  C   UNL     1     -43.914 -36.996  19.347  1.00  0.00     0.000 C 
BRANCH   2   3
ATOM      3  C   UNL     1     -44.859 -36.558  18.211  1.00  0.00     0.000 C 
BRANCH   3   4
ATOM      4  C   UNL     1     -44.606 -35.127  17.703  1.00  0.00    -0.000 C 
BRANCH   4   5
ATOM      5  C   UNL     1     -45.869 -34.252  17.741  1.00  0.00    -0.000 C 
BRANCH   5   6
ATOM      6  C   UNL     1     -45.649 -32.938  16.978  1.00  0.00    -0.000 C 
BRANCH   6   7
ATOM      7  C   UNL     1     -45.121 -33.152  15.548  1.00  0.00    -0.000 C 
BRANCH   7   8
ATOM      8  C   UNL     1     -46.031 -33.995  14.634  1.00  0.00    -0.000 C 
BRANCH   8   9
ATOM      9  C   UNL     1     -45.728 -33.802  13.141  1.00  0.00    -0.000 C 
BRANCH   9  10
ATOM     10  C   UNL     1     -45.708 -35.150  12.405  1.00  0.00    -0.000 C 
BRANCH  10  11
ATOM     11  C   UNL     1     -45.700 -36.347  13.371  1.00  0.00    -0.003 C 
ATOM     12  C   UNL     1     -44.554 -37.321  13.098  1.00  0.00     0.004 C 
ENDBRANCH  10  11
ENDBRANCH   9  10
ENDBRANCH   8   9
ENDBRANCH   7   8
ENDBRANCH   6   7
ENDBRANCH   5   6
ENDBRANCH   4   5
ENDBRANCH   3   4
ENDBRANCH   2   3
ENDBRANCH   1   2
BRANCH   1  13
ATOM     13  C   UNL     1     -45.287 -36.096  21.311  1.00  0.00     0.000 C 
BRANCH  13  14
ATOM     14  C   UNL     1     -45.538 -34.846  22.166  1.00  0.00     0.000 C 
BRANCH  14  15
ATOM     15  C   UNL     1     -44.242 -34.046  22.368  1.00  0.00     0.000 C 
BRANCH  15  16
ATOM     16  C   UNL     1     -44.016 -33.660  23.845  1.00  0.00     0.000 C 
BRANCH  16  17
ATOM     17  C   UNL     1     -43.756 -32.160  24.064  1.00  0.00     0.000 C 
BRANCH  17  18
ATOM     18  C   UNL     1     -42.542 -31.886  24.963  1.00  0.00     0.000 C 
BRANCH  18  19
ATOM     19  C   UNL     1     -41.229 -32.180  24.220  1.00  0.00     0.000 C 
BRANCH  19  20
ATOM     20  C   UNL     1     -39.988 -31.967  25.099  1.00  0.00     0.006 C 
BRANCH  20  21
ATOM     21  C   UNL     1     -40.089 -32.686  26.452  1.00  0.00     0.053 C 
BRANCH  21  22
ATOM     22  C   UNL     1     -38.875 -33.527  26.695  1.00  0.00     0.041 C 
ATOM     23  O   UNL     1     -38.306 -34.112  25.735  1.00  0.00    -0.550 OA
ATOM     24  O   UNL     1     -38.384 -33.686  27.984  1.00  0.00    -0.550 OA
ENDBRANCH  21  22
ENDBRANCH  20  21
ENDBRANCH  19  20
ENDBRANCH  18  19
ENDBRANCH  17  18
ENDBRANCH  16  17
ENDBRANCH  15  16
ENDBRANCH  14  15
ENDBRANCH  13  14
ENDBRANCH   1  13
TORSDOF 20
ENDMDL
MODEL 9
REMARK VINA RESULT:    -3.316      2.560      5.457
REMARK INTER + INTRA:          -8.759
REMARK INTER:                  -7.476
REMARK INTRA:                  -1.283
REMARK UNBOUND:                -1.566
REMARK SMILES CCCCCCCCCCCCCCCCCCCCCC(=O)[O-]
REMARK SMILES IDX 12 1 11 2 10 3 9 4 8 5 7 6 6 7 5 8 4 9 3 10 2 11 1 12 13 13
REMARK SMILES IDX 14 14 15 15 16 16 17 17 18 18 19 19 20 20 21 21 22 22 23 23
REMARK SMILES IDX 24 24
REMARK H PARENT
REMARK Flexibility Score: inf
ROOT
ATOM      1  C   UNL     1     -44.439 -33.790  22.433  1.00  0.00     0.000 C 
ENDROOT
BRANCH   1   2
ATOM      2  C   UNL     1     -45.598 -34.784  22.620  1.00  0.00     0.000 C 
BRANCH   2   3
ATOM      3  C   UNL     1     -45.974 -35.500  21.309  1.00  0.00     0.000 C 
BRANCH   3   4
ATOM      4  C   UNL     1     -45.011 -35.216  20.141  1.00  0.00    -0.000 C 
BRANCH   4   5
ATOM      5  C   UNL     1     -44.127 -36.425  19.793  1.00  0.00    -0.000 C 
BRANCH   5   6
ATOM      6  C   UNL     1     -44.750 -37.250  18.658  1.00  0.00    -0.000 C 
BRANCH   6   7
ATOM      7  C   UNL     1     -44.858 -36.470  17.335  1.00  0.00    -0.000 C 
BRANCH   7   8
ATOM      8  C   UNL     1     -45.331 -37.298  16.125  1.00  0.00    -0.000 C 
BRANCH   8   9
ATOM      9  C   UNL     1     -44.170 -37.871  15.298  1.00  0.00    -0.000 C 
BRANCH   9  10
ATOM     10  C   UNL     1     -44.636 -38.250  13.885  1.00  0.00    -0.000 C 
BRANCH  10  11
ATOM     11  C   UNL     1     -45.597 -37.210  13.284  1.00  0.00    -0.003 C 
ATOM     12  C   UNL     1     -44.867 -36.063  12.585  1.00  0.00     0.004 C 
ENDBRANCH  10  11
ENDBRANCH   9  10
ENDBRANCH   8   9
ENDBRANCH   7   8
ENDBRANCH   6   7
ENDBRANCH   5   6
ENDBRANCH   4   5
ENDBRANCH   3   4
ENDBRANCH   2   3
ENDBRANCH   1   2
BRANCH   1  13
ATOM     13  C   UNL     1     -44.289 -32.827  23.622  1.00  0.00     0.000 C 
BRANCH  13  14
ATOM     14  C   UNL     1     -45.156 -33.229  24.824  1.00  0.00     0.000 C 
BRANCH  14  15
ATOM     15  C   UNL     1     -44.586 -32.659  26.131  1.00  0.00     0.000 C 
BRANCH  15  16
ATOM     16  C   UNL     1     -43.058 -32.452  26.062  1.00  0.00     0.000 C 
BRANCH  16  17
ATOM     17  C   UNL     1     -42.259 -33.409  26.961  1.00  0.00     0.000 C 
BRANCH  17  18
ATOM     18  C   UNL     1     -41.070 -32.730  27.656  1.00  0.00     0.000 C 
BRANCH  18  19
ATOM     19  C   UNL     1     -40.186 -31.993  26.638  1.00  0.00     0.000 C 
BRANCH  19  20
ATOM     20  C   UNL     1     -39.369 -32.950  25.758  1.00  0.00     0.006 C 
BRANCH  20  21
ATOM     21  C   UNL     1     -39.282 -32.485  24.297  1.00  0.00     0.053 C 
BRANCH  21  22
ATOM     22  C   UNL     1     -37.858 -32.439  23.841  1.00  0.00     0.041 C 
ATOM     23  O   UNL     1     -36.983 -31.875  24.550  1.00  0.00    -0.550 OA
ATOM     24  O   UNL     1     -37.498 -32.999  22.622  1.00  0.00    -0.550 OA
ENDBRANCH  21  22
ENDBRANCH  20  21
ENDBRANCH  19  20
ENDBRANCH  18  19
ENDBRANCH  17  18
ENDBRANCH  16  17
ENDBRANCH  15  16
ENDBRANCH  14  15
ENDBRANCH  13  14
ENDBRANCH   1  13
TORSDOF 20
ENDMDL
