MODEL 1
REMARK VINA RESULT:    -3.657      0.000      0.000
REMARK INTER + INTRA:          -6.820
REMARK INTER:                  -5.796
REMARK INTRA:                  -1.024
REMARK UNBOUND:                -1.024
REMARK SMILES CCCCCCCCCCCC(=O)[O-]
REMARK SMILES IDX 7 1 8 2 9 3 10 4 11 5 12 6 13 7 14 8 6 9 5 10 4 11 3 12 2 13
REMARK SMILES IDX 1 14
REMARK H PARENT
REMARK Flexibility Score: inf
ROOT
ATOM      1  C   UNL     1     153.843 132.846 167.365  1.00  0.00     0.000 C 
ENDROOT
BRANCH   1   2
ATOM      2  C   UNL     1     154.230 132.083 166.087  1.00  0.00     0.000 C 
BRANCH   2   3
ATOM      3  C   UNL     1     154.071 132.933 164.817  1.00  0.00     0.000 C 
BRANCH   3   4
ATOM      4  C   UNL     1     153.133 132.247 163.812  1.00  0.00     0.006 C 
BRANCH   4   5
ATOM      5  C   UNL     1     151.782 131.876 164.436  1.00  0.00     0.053 C 
BRANCH   5   6
ATOM      6  C   UNL     1     150.682 132.772 163.956  1.00  0.00     0.041 C 
ATOM      7  O   UNL     1     150.807 134.024 164.027  1.00  0.00    -0.550 OA
ATOM      8  O   UNL     1     149.533 132.227 163.397  1.00  0.00    -0.550 OA
ENDBRANCH   5   6
ENDBRANCH   4   5
ENDBRANCH   3   4
ENDBRANCH   2   3
ENDBRANCH   1   2
BRANCH   1   9
ATOM      9  C   UNL     1     154.982 132.884 168.398  1.00  0.00     0.000 C 
BRANCH   9  10
ATOM     10  C   UNL     1     156.355 132.591 167.772  1.00  0.00    -0.000 C 
BRANCH  10  11
ATOM     11  C   UNL     1     157.304 133.801 167.829  1.00  0.00    -0.000 C 
BRANCH  11  12
ATOM     12  C   UNL     1     156.653 135.032 168.481  1.00  0.00    -0.000 C 
BRANCH  12  13
ATOM     13  C   UNL     1     156.619 136.247 167.541  1.00  0.00    -0.003 C 
ATOM     14  C   UNL     1     155.448 136.154 166.567  1.00  0.00     0.004 C 
ENDBRANCH  12  13
ENDBRANCH  11  12
ENDBRANCH  10  11
ENDBRANCH   9  10
ENDBRANCH   1   9
TORSDOF 10
ENDMDL
MODEL 2
REMARK VINA RESULT:    -3.616      2.166      3.540
REMARK INTER + INTRA:          -6.754
REMARK INTER:                  -6.444
REMARK INTRA:                  -0.310
REMARK UNBOUND:                -1.024
REMARK SMILES CCCCCCCCCCCC(=O)[O-]
REMARK SMILES IDX 7 1 8 2 9 3 10 4 11 5 12 6 13 7 14 8 6 9 5 10 4 11 3 12 2 13
REMARK SMILES IDX 1 14
REMARK H PARENT
REMARK Flexibility Score: inf
ROOT
ATOM      1  C   UNL     1     153.008 132.223 164.094  1.00  0.00     0.000 C 
ENDROOT
BRANCH   1   2
ATOM      2  C   UNL     1     151.611 132.628 164.594  1.00  0.00     0.000 C 
BRANCH   2   3
ATOM      3  C   UNL     1     150.518 132.420 163.534  1.00  0.00     0.000 C 
BRANCH   3   4
ATOM      4  C   UNL     1     149.123 132.675 164.127  1.00  0.00     0.006 C 
BRANCH   4   5
ATOM      5  C   UNL     1     148.000 132.256 163.170  1.00  0.00     0.053 C 
BRANCH   5   6
ATOM      6  C   UNL     1     147.552 133.394 162.306  1.00  0.00     0.041 C 
ATOM      7  O   UNL     1     147.003 134.404 162.822  1.00  0.00    -0.550 OA
ATOM      8  O   UNL     1     147.771 133.356 160.935  1.00  0.00    -0.550 OA
ENDBRANCH   5   6
ENDBRANCH   4   5
ENDBRANCH   3   4
ENDBRANCH   2   3
ENDBRANCH   1   2
BRANCH   1   9
ATOM      9  C   UNL     1     154.135 132.780 164.981  1.00  0.00     0.000 C 
BRANCH   9  10
ATOM     10  C   UNL     1     154.439 131.875 166.185  1.00  0.00    -0.000 C 
BRANCH  10  11
ATOM     11  C   UNL     1     155.490 132.480 167.133  1.00  0.00    -0.000 C 
BRANCH  11  12
ATOM     12  C   UNL     1     156.929 132.248 166.643  1.00  0.00    -0.000 C 
BRANCH  12  13
ATOM     13  C   UNL     1     157.977 132.851 167.590  1.00  0.00    -0.003 C 
ATOM     14  C   UNL     1     157.381 133.119 168.970  1.00  0.00     0.004 C 
ENDBRANCH  12  13
ENDBRANCH  11  12
ENDBRANCH  10  11
ENDBRANCH   9  10
ENDBRANCH   1   9
TORSDOF 10
ENDMDL
MODEL 3
REMARK VINA RESULT:    -3.549      0.778      1.635
REMARK INTER + INTRA:          -6.648
REMARK INTER:                  -6.017
REMARK INTRA:                  -0.631
REMARK UNBOUND:                -1.024
REMARK SMILES CCCCCCCCCCCC(=O)[O-]
REMARK SMILES IDX 7 1 8 2 9 3 10 4 11 5 12 6 13 7 14 8 6 9 5 10 4 11 3 12 2 13
REMARK SMILES IDX 1 14
REMARK H PARENT
REMARK Flexibility Score: inf
ROOT
ATOM      1  C   UNL     1     155.366 132.368 167.276  1.00  0.00     0.000 C 
ENDROOT
BRANCH   1   2
ATOM      2  C   UNL     1     154.842 131.946 165.893  1.00  0.00     0.000 C 
BRANCH   2   3
ATOM      3  C   UNL     1     154.040 133.056 165.198  1.00  0.00     0.000 C 
BRANCH   3   4
ATOM      4  C   UNL     1     153.241 132.495 164.011  1.00  0.00     0.006 C 
BRANCH   4   5
ATOM      5  C   UNL     1     151.908 131.875 164.448  1.00  0.00     0.053 C 
BRANCH   5   6
ATOM      6  C   UNL     1     150.737 132.663 163.948  1.00  0.00     0.041 C 
ATOM      7  O   UNL     1     149.633 132.094 163.736  1.00  0.00    -0.550 OA
ATOM      8  O   UNL     1     150.853 134.033 163.748  1.00  0.00    -0.550 OA
ENDBRANCH   5   6
ENDBRANCH   4   5
ENDBRANCH   3   4
ENDBRANCH   2   3
ENDBRANCH   1   2
BRANCH   1   9
ATOM      9  C   UNL     1     156.899 132.494 167.313  1.00  0.00     0.000 C 
BRANCH   9  10
ATOM     10  C   UNL     1     157.372 133.690 168.155  1.00  0.00    -0.000 C 
BRANCH  10  11
ATOM     11  C   UNL     1     156.343 134.834 168.190  1.00  0.00    -0.000 C 
BRANCH  11  12
ATOM     12  C   UNL     1     156.604 135.896 167.109  1.00  0.00    -0.000 C 
BRANCH  12  13
ATOM     13  C   UNL     1     156.631 137.322 167.679  1.00  0.00    -0.003 C 
ATOM     14  C   UNL     1     157.025 137.316 169.153  1.00  0.00     0.004 C 
ENDBRANCH  12  13
ENDBRANCH  11  12
ENDBRANCH  10  11
ENDBRANCH   9  10
ENDBRANCH   1   9
TORSDOF 10
ENDMDL
MODEL 4
REMARK VINA RESULT:    -3.531      3.354      5.710
REMARK INTER + INTRA:          -6.619
REMARK INTER:                  -6.152
REMARK INTRA:                  -0.467
REMARK UNBOUND:                -1.024
REMARK SMILES CCCCCCCCCCCC(=O)[O-]
REMARK SMILES IDX 7 1 8 2 9 3 10 4 11 5 12 6 13 7 14 8 6 9 5 10 4 11 3 12 2 13
REMARK SMILES IDX 1 14
REMARK H PARENT
REMARK Flexibility Score: inf
ROOT
ATOM      1  C   UNL     1     149.914 132.707 164.529  1.00  0.00     0.000 C 
ENDROOT
BRANCH   1   2
ATOM      2  C   UNL     1     148.476 132.617 163.992  1.00  0.00     0.000 C 
BRANCH   2   3
ATOM      3  C   UNL     1     148.105 133.801 163.088  1.00  0.00     0.000 C 
BRANCH   3   4
ATOM      4  C   UNL     1     147.690 133.316 161.690  1.00  0.00     0.006 C 
BRANCH   4   5
ATOM      5  C   UNL     1     146.518 132.329 161.740  1.00  0.00     0.053 C 
BRANCH   5   6
ATOM      6  C   UNL     1     145.517 132.597 160.658  1.00  0.00     0.041 C 
ATOM      7  O   UNL     1     144.486 131.880 160.556  1.00  0.00    -0.550 OA
ATOM      8  O   UNL     1     145.705 133.659 159.784  1.00  0.00    -0.550 OA
ENDBRANCH   5   6
ENDBRANCH   4   5
ENDBRANCH   3   4
ENDBRANCH   2   3
ENDBRANCH   1   2
BRANCH   1   9
ATOM      9  C   UNL     1     150.969 132.444 163.441  1.00  0.00     0.000 C 
BRANCH   9  10
ATOM     10  C   UNL     1     152.398 132.394 164.005  1.00  0.00    -0.000 C 
BRANCH  10  11
ATOM     11  C   UNL     1     152.460 132.760 165.498  1.00  0.00    -0.000 C 
BRANCH  11  12
ATOM     12  C   UNL     1     153.441 131.875 166.284  1.00  0.00    -0.000 C 
BRANCH  12  13
ATOM     13  C   UNL     1     154.907 132.163 165.929  1.00  0.00    -0.003 C 
ATOM     14  C   UNL     1     155.703 132.566 167.168  1.00  0.00     0.004 C 
ENDBRANCH  12  13
ENDBRANCH  11  12
ENDBRANCH  10  11
ENDBRANCH   9  10
ENDBRANCH   1   9
TORSDOF 10
ENDMDL
MODEL 5
REMARK VINA RESULT:    -3.499      3.758      7.351
REMARK INTER + INTRA:          -6.569
REMARK INTER:                  -6.167
REMARK INTRA:                  -0.402
REMARK UNBOUND:                -1.024
REMARK SMILES CCCCCCCCCCCC(=O)[O-]
REMARK SMILES IDX 7 1 8 2 9 3 10 4 11 5 12 6 13 7 14 8 6 9 5 10 4 11 3 12 2 13
REMARK SMILES IDX 1 14
REMARK H PARENT
REMARK Flexibility Score: inf
ROOT
ATOM      1  C   UNL     1     152.471 133.409 164.924  1.00  0.00     0.000 C 
ENDROOT
BRANCH   1   2
ATOM      2  C   UNL     1     153.874 132.820 164.704  1.00  0.00     0.000 C 
BRANCH   2   3
ATOM      3  C   UNL     1     154.320 131.903 165.853  1.00  0.00     0.000 C 
BRANCH   3   4
ATOM      4  C   UNL     1     155.756 132.231 166.292  1.00  0.00     0.006 C 
BRANCH   4   5
ATOM      5  C   UNL     1     155.841 132.593 167.780  1.00  0.00     0.053 C 
BRANCH   5   6
ATOM      6  C   UNL     1     157.257 132.813 168.218  1.00  0.00     0.041 C 
ATOM      7  O   UNL     1     158.103 133.286 167.414  1.00  0.00    -0.550 OA
ATOM      8  O   UNL     1     157.633 132.528 169.524  1.00  0.00    -0.550 OA
ENDBRANCH   5   6
ENDBRANCH   4   5
ENDBRANCH   3   4
ENDBRANCH   2   3
ENDBRANCH   1   2
BRANCH   1   9
ATOM      9  C   UNL     1     151.394 132.322 165.084  1.00  0.00     0.000 C 
BRANCH   9  10
ATOM     10  C   UNL     1     150.790 131.889 163.738  1.00  0.00    -0.000 C 
BRANCH  10  11
ATOM     11  C   UNL     1     149.730 132.875 163.218  1.00  0.00    -0.000 C 
BRANCH  11  12
ATOM     12  C   UNL     1     148.332 132.596 163.793  1.00  0.00    -0.000 C 
BRANCH  12  13
ATOM     13  C   UNL     1     147.293 132.303 162.700  1.00  0.00    -0.003 C 
ATOM     14  C   UNL     1     147.420 133.291 161.543  1.00  0.00     0.004 C 
ENDBRANCH  12  13
ENDBRANCH  11  12
ENDBRANCH  10  11
ENDBRANCH   9  10
ENDBRANCH   1   9
TORSDOF 10
ENDMDL
MODEL 6
REMARK VINA RESULT:    -3.487      2.520      5.957
REMARK INTER + INTRA:          -6.549
REMARK INTER:                  -5.806
REMARK INTRA:                  -0.742
REMARK UNBOUND:                -1.024
REMARK SMILES CCCCCCCCCCCC(=O)[O-]
REMARK SMILES IDX 7 1 8 2 9 3 10 4 11 5 12 6 13 7 14 8 6 9 5 10 4 11 3 12 2 13
REMARK SMILES IDX 1 14
REMARK H PARENT
REMARK Flexibility Score: inf
ROOT
ATOM      1  C   UNL     1     154.204 132.563 167.189  1.00  0.00     0.000 C 
ENDROOT
BRANCH   1   2
ATOM      2  C   UNL     1     155.344 132.639 168.218  1.00  0.00     0.000 C 
BRANCH   2   3
ATOM      3  C   UNL     1     156.734 132.529 167.573  1.00  0.00     0.000 C 
BRANCH   3   4
ATOM      4  C   UNL     1     157.426 133.900 167.522  1.00  0.00     0.006 C 
BRANCH   4   5
ATOM      5  C   UNL     1     156.595 134.997 168.201  1.00  0.00     0.053 C 
BRANCH   5   6
ATOM      6  C   UNL     1     156.176 136.058 167.230  1.00  0.00     0.041 C 
ATOM      7  O   UNL     1     155.060 135.982 166.650  1.00  0.00    -0.550 OA
ATOM      8  O   UNL     1     157.002 137.149 166.991  1.00  0.00    -0.550 OA
ENDBRANCH   5   6
ENDBRANCH   4   5
ENDBRANCH   3   4
ENDBRANCH   2   3
ENDBRANCH   1   2
BRANCH   1   9
ATOM      9  C   UNL     1     154.699 132.164 165.788  1.00  0.00     0.000 C 
BRANCH   9  10
ATOM     10  C   UNL     1     154.028 132.979 164.672  1.00  0.00    -0.000 C 
BRANCH  10  11
ATOM     11  C   UNL     1     153.052 132.141 163.828  1.00  0.00    -0.000 C 
BRANCH  11  12
ATOM     12  C   UNL     1     151.723 131.875 164.553  1.00  0.00    -0.000 C 
BRANCH  12  13
ATOM     13  C   UNL     1     150.502 132.245 163.698  1.00  0.00    -0.003 C 
ATOM     14  C   UNL     1     149.940 133.605 164.103  1.00  0.00     0.004 C 
ENDBRANCH  12  13
ENDBRANCH  11  12
ENDBRANCH  10  11
ENDBRANCH   9  10
ENDBRANCH   1   9
TORSDOF 10
ENDMDL
MODEL 7
REMARK VINA RESULT:    -3.428      1.580      3.046
REMARK INTER + INTRA:          -6.456
REMARK INTER:                  -4.851
REMARK INTRA:                  -1.605
REMARK UNBOUND:                -1.024
REMARK SMILES CCCCCCCCCCCC(=O)[O-]
REMARK SMILES IDX 7 1 8 2 9 3 10 4 11 5 12 6 13 7 14 8 6 9 5 10 4 11 3 12 2 13
REMARK SMILES IDX 1 14
REMARK H PARENT
REMARK Flexibility Score: inf
ROOT
ATOM      1  C   UNL     1     156.272 133.918 168.734  1.00  0.00     0.000 C 
ENDROOT
BRANCH   1   2
ATOM      2  C   UNL     1     155.561 132.637 168.268  1.00  0.00     0.000 C 
BRANCH   2   3
ATOM      3  C   UNL     1     155.774 132.350 166.774  1.00  0.00     0.000 C 
BRANCH   3   4
ATOM      4  C   UNL     1     154.461 131.915 166.106  1.00  0.00     0.006 C 
BRANCH   4   5
ATOM      5  C   UNL     1     154.089 132.809 164.916  1.00  0.00     0.053 C 
BRANCH   5   6
ATOM      6  C   UNL     1     152.806 132.376 164.275  1.00  0.00     0.041 C 
ATOM      7  O   UNL     1     151.716 132.493 164.895  1.00  0.00    -0.550 OA
ATOM      8  O   UNL     1     152.809 131.875 162.980  1.00  0.00    -0.550 OA
ENDBRANCH   5   6
ENDBRANCH   4   5
ENDBRANCH   3   4
ENDBRANCH   2   3
ENDBRANCH   1   2
BRANCH   1   9
ATOM      9  C   UNL     1     156.969 134.660 167.580  1.00  0.00     0.000 C 
BRANCH   9  10
ATOM     10  C   UNL     1     156.368 136.052 167.328  1.00  0.00    -0.000 C 
BRANCH  10  11
ATOM     11  C   UNL     1     155.112 136.005 166.440  1.00  0.00    -0.000 C 
BRANCH  11  12
ATOM     12  C   UNL     1     153.840 136.428 167.193  1.00  0.00    -0.000 C 
BRANCH  12  13
ATOM     13  C   UNL     1     152.627 135.556 166.837  1.00  0.00    -0.003 C 
ATOM     14  C   UNL     1     152.405 134.471 167.887  1.00  0.00     0.004 C 
ENDBRANCH  12  13
ENDBRANCH  11  12
ENDBRANCH  10  11
ENDBRANCH   9  10
ENDBRANCH   1   9
TORSDOF 10
ENDMDL
MODEL 8
REMARK VINA RESULT:    -3.419      1.035      2.582
REMARK INTER + INTRA:          -6.441
REMARK INTER:                  -5.070
REMARK INTRA:                  -1.371
REMARK UNBOUND:                -1.024
REMARK SMILES CCCCCCCCCCCC(=O)[O-]
REMARK SMILES IDX 7 1 8 2 9 3 10 4 11 5 12 6 13 7 14 8 6 9 5 10 4 11 3 12 2 13
REMARK SMILES IDX 1 14
REMARK H PARENT
REMARK Flexibility Score: inf
ROOT
ATOM      1  C   UNL     1     154.116 136.040 166.777  1.00  0.00     0.000 C 
ENDROOT
BRANCH   1   2
ATOM      2  C   UNL     1     153.433 134.745 166.308  1.00  0.00     0.000 C 
BRANCH   2   3
ATOM      3  C   UNL     1     154.277 133.964 165.289  1.00  0.00     0.000 C 
BRANCH   3   4
ATOM      4  C   UNL     1     153.780 132.516 165.159  1.00  0.00     0.006 C 
BRANCH   4   5
ATOM      5  C   UNL     1     152.943 132.300 163.892  1.00  0.00     0.053 C 
BRANCH   5   6
ATOM      6  C   UNL     1     151.474 132.365 164.178  1.00  0.00     0.041 C 
ATOM      7  O   UNL     1     151.060 132.383 165.368  1.00  0.00    -0.550 OA
ATOM      8  O   UNL     1     150.563 132.439 163.132  1.00  0.00    -0.550 OA
ENDBRANCH   5   6
ENDBRANCH   4   5
ENDBRANCH   3   4
ENDBRANCH   2   3
ENDBRANCH   1   2
BRANCH   1   9
ATOM      9  C   UNL     1     155.622 136.062 166.461  1.00  0.00     0.000 C 
BRANCH   9  10
ATOM     10  C   UNL     1     156.484 136.277 167.715  1.00  0.00    -0.000 C 
BRANCH  10  11
ATOM     11  C   UNL     1     156.572 135.019 168.598  1.00  0.00    -0.000 C 
BRANCH  11  12
ATOM     12  C   UNL     1     157.335 133.871 167.917  1.00  0.00    -0.000 C 
BRANCH  12  13
ATOM     13  C   UNL     1     156.505 132.582 167.831  1.00  0.00    -0.003 C 
ATOM     14  C   UNL     1     155.265 132.667 168.717  1.00  0.00     0.004 C 
ENDBRANCH  12  13
ENDBRANCH  11  12
ENDBRANCH  10  11
ENDBRANCH   9  10
ENDBRANCH   1   9
TORSDOF 10
ENDMDL
MODEL 9
REMARK VINA RESULT:    -3.399      3.728      6.734
REMARK INTER + INTRA:          -6.410
REMARK INTER:                  -5.784
REMARK INTRA:                  -0.627
REMARK UNBOUND:                -1.024
REMARK SMILES CCCCCCCCCCCC(=O)[O-]
REMARK SMILES IDX 7 1 8 2 9 3 10 4 11 5 12 6 13 7 14 8 6 9 5 10 4 11 3 12 2 13
REMARK SMILES IDX 1 14
REMARK H PARENT
REMARK Flexibility Score: inf
ROOT
ATOM      1  C   UNL     1     154.918 133.554 166.599  1.00  0.00     0.000 C 
ENDROOT
BRANCH   1   2
ATOM      2  C   UNL     1     155.561 132.218 167.008  1.00  0.00     0.000 C 
BRANCH   2   3
ATOM      3  C   UNL     1     157.084 132.207 166.811  1.00  0.00     0.000 C 
BRANCH   3   4
ATOM      4  C   UNL     1     157.771 133.176 167.787  1.00  0.00     0.006 C 
BRANCH   4   5
ATOM      5  C   UNL     1     158.121 132.507 169.121  1.00  0.00     0.053 C 
BRANCH   5   6
ATOM      6  C   UNL     1     157.312 133.065 170.252  1.00  0.00     0.041 C 
ATOM      7  O   UNL     1     156.397 133.900 170.025  1.00  0.00    -0.550 OA
ATOM      8  O   UNL     1     157.546 132.638 171.553  1.00  0.00    -0.550 OA
ENDBRANCH   5   6
ENDBRANCH   4   5
ENDBRANCH   3   4
ENDBRANCH   2   3
ENDBRANCH   1   2
BRANCH   1   9
ATOM      9  C   UNL     1     154.169 133.462 165.258  1.00  0.00     0.000 C 
BRANCH   9  10
ATOM     10  C   UNL     1     153.855 132.012 164.857  1.00  0.00    -0.000 C 
BRANCH  10  11
ATOM     11  C   UNL     1     152.749 131.918 163.791  1.00  0.00    -0.000 C 
BRANCH  11  12
ATOM     12  C   UNL     1     151.371 132.330 164.333  1.00  0.00    -0.000 C 
BRANCH  12  13
ATOM     13  C   UNL     1     150.784 133.540 163.590  1.00  0.00    -0.003 C 
ATOM     14  C   UNL     1     149.453 133.186 162.930  1.00  0.00     0.004 C 
ENDBRANCH  12  13
ENDBRANCH  11  12
ENDBRANCH  10  11
ENDBRANCH   9  10
ENDBRANCH   1   9
TORSDOF 10
ENDMDL
