MODEL 1
REMARK VINA RESULT:    -1.796      0.000      0.000
REMARK INTER + INTRA:          -2.067
REMARK INTER:                  -1.954
REMARK INTRA:                  -0.113
REMARK UNBOUND:                -0.113
REMARK SMILES C=C(C)[C@@H]1CC[C@H](C)C[C@H]1O
REMARK SMILES IDX 8 1 7 2 6 3 5 4 4 5 10 6 9 7 11 8 2 10 1 11 3 12
REMARK H PARENT 11 9
REMARK Flexibility Score: inf
ROOT
ATOM      1  C   UNL     1     -40.974  24.864   3.514  1.00  0.00     0.008 C 
ATOM      2  C   UNL     1     -42.124  24.515   4.474  1.00  0.00    -0.012 C 
ATOM      3  C   UNL     1     -42.125  23.020   4.858  1.00  0.00     0.004 C 
ATOM      4  C   UNL     1     -40.999  22.661   5.838  1.00  0.00     0.011 C 
ATOM      5  C   UNL     1     -41.055  23.547   7.097  1.00  0.00     0.043 C 
ATOM      6  C   UNL     1     -40.999  25.048   6.721  1.00  0.00     0.121 C 
ATOM      7  C   UNL     1     -42.125  25.412   5.731  1.00  0.00     0.035 C 
ENDROOT
BRANCH   6   8
ATOM      8  O   UNL     1     -41.084  25.857   7.869  1.00  0.00    -0.392 OA
ATOM      9  H   UNL     1     -42.043  26.070   8.019  1.00  0.00     0.210 HD
ENDBRANCH   6   8
BRANCH   5  10
ATOM     10  C   UNL     1     -39.953  23.171   8.081  1.00  0.00    -0.075 C 
ATOM     11  C   UNL     1     -40.194  22.359   9.124  1.00  0.00     0.008 C 
ATOM     12  C   UNL     1     -38.557  23.709   7.895  1.00  0.00     0.039 C 
ENDBRANCH   5  10
TORSDOF 2
ENDMDL
MODEL 2
REMARK VINA RESULT:    -1.006     16.241     18.209
REMARK INTER + INTRA:          -1.207
REMARK INTER:                  -1.253
REMARK INTRA:                   0.046
REMARK UNBOUND:                -0.113
REMARK SMILES C=C(C)[C@@H]1CC[C@H](C)C[C@H]1O
REMARK SMILES IDX 8 1 7 2 6 3 5 4 4 5 10 6 9 7 11 8 2 10 1 11 3 12
REMARK H PARENT 11 9
REMARK Flexibility Score: inf
ROOT
ATOM      1  C   UNL     1     -22.793  33.034   8.448  1.00  0.00     0.008 C 
ATOM      2  C   UNL     1     -23.841  32.136   9.125  1.00  0.00    -0.012 C 
ATOM      3  C   UNL     1     -25.261  32.386   8.573  1.00  0.00     0.004 C 
ATOM      4  C   UNL     1     -25.457  31.808   7.165  1.00  0.00     0.011 C 
ATOM      5  C   UNL     1     -25.114  30.306   7.128  1.00  0.00     0.043 C 
ATOM      6  C   UNL     1     -23.671  30.055   7.630  1.00  0.00     0.121 C 
ATOM      7  C   UNL     1     -23.467  30.641   9.042  1.00  0.00     0.035 C 
ENDROOT
BRANCH   6   8
ATOM      8  O   UNL     1     -23.370  28.681   7.628  1.00  0.00    -0.392 OA
ATOM      9  H   UNL     1     -23.773  28.284   6.811  1.00  0.00     0.210 HD
ENDBRANCH   6   8
BRANCH   5  10
ATOM     10  C   UNL     1     -25.335  29.727   5.735  1.00  0.00    -0.075 C 
ATOM     11  C   UNL     1     -25.248  30.497   4.637  1.00  0.00     0.008 C 
ATOM     12  C   UNL     1     -25.654  28.264   5.566  1.00  0.00     0.039 C 
ENDBRANCH   5  10
TORSDOF 2
ENDMDL
MODEL 3
REMARK VINA RESULT:    -0.743      1.729      4.232
REMARK INTER + INTRA:          -0.921
REMARK INTER:                  -1.223
REMARK INTRA:                   0.301
REMARK UNBOUND:                -0.113
REMARK SMILES C=C(C)[C@@H]1CC[C@H](C)C[C@H]1O
REMARK SMILES IDX 8 1 7 2 6 3 5 4 4 5 10 6 9 7 11 8 2 10 1 11 3 12
REMARK H PARENT 11 9
REMARK Flexibility Score: inf
ROOT
ATOM      1  C   UNL     1     -39.516  22.978   9.123  1.00  0.00     0.008 C 
ATOM      2  C   UNL     1     -40.730  22.301   8.464  1.00  0.00    -0.012 C 
ATOM      3  C   UNL     1     -42.037  23.080   8.720  1.00  0.00     0.004 C 
ATOM      4  C   UNL     1     -42.125  24.373   7.898  1.00  0.00     0.011 C 
ATOM      5  C   UNL     1     -41.945  24.090   6.394  1.00  0.00     0.043 C 
ATOM      6  C   UNL     1     -40.607  23.356   6.125  1.00  0.00     0.121 C 
ATOM      7  C   UNL     1     -40.513  22.059   6.955  1.00  0.00     0.035 C 
ENDROOT
BRANCH   6   8
ATOM      8  O   UNL     1     -40.460  23.068   4.757  1.00  0.00    -0.392 OA
ATOM      9  H   UNL     1     -40.926  22.210   4.576  1.00  0.00     0.210 HD
ENDBRANCH   6   8
BRANCH   5  10
ATOM     10  C   UNL     1     -42.058  25.372   5.577  1.00  0.00    -0.075 C 
ATOM     11  C   UNL     1     -42.097  26.577   6.170  1.00  0.00     0.008 C 
ATOM     12  C   UNL     1     -42.124  25.306   4.073  1.00  0.00     0.039 C 
ENDBRANCH   5  10
TORSDOF 2
ENDMDL
MODEL 4
REMARK VINA RESULT:    -0.250      1.138      4.013
REMARK INTER + INTRA:          -0.385
REMARK INTER:                  -0.266
REMARK INTRA:                  -0.119
REMARK UNBOUND:                -0.113
REMARK SMILES C=C(C)[C@@H]1CC[C@H](C)C[C@H]1O
REMARK SMILES IDX 8 1 7 2 6 3 5 4 4 5 10 6 9 7 11 8 2 10 1 11 3 12
REMARK H PARENT 11 9
REMARK Flexibility Score: inf
ROOT
ATOM      1  C   UNL     1     -39.180  22.601   8.711  1.00  0.00     0.008 C 
ATOM      2  C   UNL     1     -38.814  23.973   8.123  1.00  0.00    -0.012 C 
ATOM      3  C   UNL     1     -38.280  23.861   6.680  1.00  0.00     0.004 C 
ATOM      4  C   UNL     1     -39.387  23.555   5.662  1.00  0.00     0.011 C 
ATOM      5  C   UNL     1     -40.521  24.595   5.744  1.00  0.00     0.043 C 
ATOM      6  C   UNL     1     -41.098  24.673   7.180  1.00  0.00     0.121 C 
ATOM      7  C   UNL     1     -39.986  24.974   8.206  1.00  0.00     0.035 C 
ENDROOT
BRANCH   6   8
ATOM      8  O   UNL     1     -42.110  25.646   7.262  1.00  0.00    -0.392 OA
ATOM      9  H   UNL     1     -42.249  26.016   6.351  1.00  0.00     0.210 HD
ENDBRANCH   6   8
BRANCH   5  10
ATOM     10  C   UNL     1     -41.608  24.304   4.716  1.00  0.00    -0.075 C 
ATOM     11  C   UNL     1     -42.124  25.280   3.949  1.00  0.00     0.008 C 
ATOM     12  C   UNL     1     -42.125  22.899   4.538  1.00  0.00     0.039 C 
ENDBRANCH   5  10
TORSDOF 2
ENDMDL
MODEL 5
REMARK VINA RESULT:    -0.244     17.673     19.562
REMARK INTER + INTRA:          -0.379
REMARK INTER:                  -0.258
REMARK INTRA:                  -0.121
REMARK UNBOUND:                -0.113
REMARK SMILES C=C(C)[C@@H]1CC[C@H](C)C[C@H]1O
REMARK SMILES IDX 8 1 7 2 6 3 5 4 4 5 10 6 9 7 11 8 2 10 1 11 3 12
REMARK H PARENT 11 9
REMARK Flexibility Score: inf
ROOT
ATOM      1  C   UNL     1     -24.260  29.409   7.093  1.00  0.00     0.008 C 
ATOM      2  C   UNL     1     -24.022  29.749   8.574  1.00  0.00    -0.012 C 
ATOM      3  C   UNL     1     -22.542  30.079   8.861  1.00  0.00     0.004 C 
ATOM      4  C   UNL     1     -22.129  31.457   8.324  1.00  0.00     0.011 C 
ATOM      5  C   UNL     1     -23.051  32.565   8.869  1.00  0.00     0.043 C 
ATOM      6  C   UNL     1     -24.533  32.266   8.536  1.00  0.00     0.121 C 
ATOM      7  C   UNL     1     -24.950  30.879   9.068  1.00  0.00     0.035 C 
ENDROOT
BRANCH   6   8
ATOM      8  O   UNL     1     -25.377  33.260   9.063  1.00  0.00    -0.392 OA
ATOM      9  H   UNL     1     -26.099  33.427   8.401  1.00  0.00     0.210 HD
ENDBRANCH   6   8
BRANCH   5  10
ATOM     10  C   UNL     1     -22.623  33.936   8.356  1.00  0.00    -0.075 C 
ATOM     11  C   UNL     1     -21.875  34.761   9.108  1.00  0.00     0.008 C 
ATOM     12  C   UNL     1     -23.035  34.389   6.979  1.00  0.00     0.039 C 
ENDBRANCH   5  10
TORSDOF 2
ENDMDL
