MODEL 1
REMARK VINA RESULT:    -5.713      0.000      0.000
REMARK INTER + INTRA:         -15.687
REMARK INTER:                 -13.060
REMARK INTRA:                  -2.627
REMARK UNBOUND:                -2.627
REMARK SMILES CCCCCCCCCCCCCCCCCCCCCCCC(=O)[O-]
REMARK SMILES IDX 13 1 14 2 15 3 16 4 17 5 18 6 19 7 20 8 21 9 22 10 23 11
REMARK SMILES IDX 24 12 25 13 26 14 12 15 11 16 10 17 9 18 8 19 7 20 6 21 5 22
REMARK SMILES IDX 4 23 3 24 2 25 1 26
REMARK H PARENT
REMARK Flexibility Score: inf
ROOT
ATOM      1  C   UNL     1     -29.528   0.900  26.809  1.00  0.00     0.000 C 
ENDROOT
BRANCH   1   2
ATOM      2  C   UNL     1     -30.002   1.145  28.253  1.00  0.00     0.000 C 
BRANCH   2   3
ATOM      3  C   UNL     1     -29.021   0.693  29.355  1.00  0.00     0.000 C 
BRANCH   3   4
ATOM      4  C   UNL     1     -29.393   1.120  30.786  1.00  0.00     0.000 C 
BRANCH   4   5
ATOM      5  C   UNL     1     -28.566   0.395  31.861  1.00  0.00     0.000 C 
BRANCH   5   6
ATOM      6  C   UNL     1     -28.155   1.326  33.013  1.00  0.00     0.000 C 
BRANCH   6   7
ATOM      7  C   UNL     1     -27.238   2.472  32.554  1.00  0.00     0.000 C 
BRANCH   7   8
ATOM      8  C   UNL     1     -27.571   3.807  33.253  1.00  0.00     0.000 C 
BRANCH   8   9
ATOM      9  C   UNL     1     -28.840   3.753  34.125  1.00  0.00     0.000 C 
BRANCH   9  10
ATOM     10  C   UNL     1     -30.167   3.768  33.341  1.00  0.00     0.006 C 
BRANCH  10  11
ATOM     11  C   UNL     1     -31.357   3.154  34.099  1.00  0.00     0.053 C 
BRANCH  11  12
ATOM     12  C   UNL     1     -31.970   2.014  33.346  1.00  0.00     0.041 C 
ATOM     13  O   UNL     1     -31.735   0.827  33.693  1.00  0.00    -0.550 OA
ATOM     14  O   UNL     1     -32.828   2.264  32.283  1.00  0.00    -0.550 OA
ENDBRANCH  11  12
ENDBRANCH  10  11
ENDBRANCH   9  10
ENDBRANCH   8   9
ENDBRANCH   7   8
ENDBRANCH   6   7
ENDBRANCH   5   6
ENDBRANCH   4   5
ENDBRANCH   3   4
ENDBRANCH   2   3
ENDBRANCH   1   2
BRANCH   1  15
ATOM     15  C   UNL     1     -28.097   0.345  26.683  1.00  0.00     0.000 C 
BRANCH  15  16
ATOM     16  C   UNL     1     -27.973  -0.848  25.706  1.00  0.00     0.000 C 
BRANCH  16  17
ATOM     17  C   UNL     1     -27.031  -0.608  24.507  1.00  0.00     0.000 C 
BRANCH  17  18
ATOM     18  C   UNL     1     -27.193   0.750  23.792  1.00  0.00    -0.000 C 
BRANCH  18  19
ATOM     19  C   UNL     1     -27.601   0.672  22.307  1.00  0.00    -0.000 C 
BRANCH  19  20
ATOM     20  C   UNL     1     -27.117  -0.588  21.567  1.00  0.00    -0.000 C 
BRANCH  20  21
ATOM     21  C   UNL     1     -28.261  -1.346  20.871  1.00  0.00    -0.000 C 
BRANCH  21  22
ATOM     22  C   UNL     1     -28.965  -2.340  21.810  1.00  0.00    -0.000 C 
BRANCH  22  23
ATOM     23  C   UNL     1     -30.418  -1.938  22.116  1.00  0.00    -0.000 C 
BRANCH  23  24
ATOM     24  C   UNL     1     -30.822  -2.250  23.566  1.00  0.00    -0.000 C 
BRANCH  24  25
ATOM     25  C   UNL     1     -31.230  -0.994  24.351  1.00  0.00    -0.003 C 
ATOM     26  C   UNL     1     -31.086   0.260  23.493  1.00  0.00     0.004 C 
ENDBRANCH  24  25
ENDBRANCH  23  24
ENDBRANCH  22  23
ENDBRANCH  21  22
ENDBRANCH  20  21
ENDBRANCH  19  20
ENDBRANCH  18  19
ENDBRANCH  17  18
ENDBRANCH  16  17
ENDBRANCH  15  16
ENDBRANCH   1  15
TORSDOF 22
ENDMDL
MODEL 2
REMARK VINA RESULT:    -5.656      1.147      3.060
REMARK INTER + INTRA:         -15.557
REMARK INTER:                 -12.635
REMARK INTRA:                  -2.922
REMARK UNBOUND:                -2.627
REMARK SMILES CCCCCCCCCCCCCCCCCCCCCCCC(=O)[O-]
REMARK SMILES IDX 13 1 14 2 15 3 16 4 17 5 18 6 19 7 20 8 21 9 22 10 23 11
REMARK SMILES IDX 24 12 25 13 26 14 12 15 11 16 10 17 9 18 8 19 7 20 6 21 5 22
REMARK SMILES IDX 4 23 3 24 2 25 1 26
REMARK H PARENT
REMARK Flexibility Score: inf
ROOT
ATOM      1  C   UNL     1     -27.856   0.493  25.100  1.00  0.00     0.000 C 
ENDROOT
BRANCH   1   2
ATOM      2  C   UNL     1     -27.783   0.688  26.626  1.00  0.00     0.000 C 
BRANCH   2   3
ATOM      3  C   UNL     1     -28.945   0.064  27.426  1.00  0.00     0.000 C 
BRANCH   3   4
ATOM      4  C   UNL     1     -30.075   1.035  27.814  1.00  0.00     0.000 C 
BRANCH   4   5
ATOM      5  C   UNL     1     -29.978   1.513  29.273  1.00  0.00     0.000 C 
BRANCH   5   6
ATOM      6  C   UNL     1     -28.998   0.669  30.104  1.00  0.00     0.000 C 
BRANCH   6   7
ATOM      7  C   UNL     1     -29.101   0.950  31.613  1.00  0.00     0.000 C 
BRANCH   7   8
ATOM      8  C   UNL     1     -28.297   2.198  32.034  1.00  0.00     0.000 C 
BRANCH   8   9
ATOM      9  C   UNL     1     -29.144   3.277  32.736  1.00  0.00     0.000 C 
BRANCH   9  10
ATOM     10  C   UNL     1     -29.888   2.798  33.998  1.00  0.00     0.006 C 
BRANCH  10  11
ATOM     11  C   UNL     1     -31.386   3.143  34.018  1.00  0.00     0.053 C 
BRANCH  11  12
ATOM     12  C   UNL     1     -32.103   2.588  32.825  1.00  0.00     0.041 C 
ATOM     13  O   UNL     1     -32.761   1.519  32.923  1.00  0.00    -0.550 OA
ATOM     14  O   UNL     1     -32.072   3.270  31.616  1.00  0.00    -0.550 OA
ENDBRANCH  11  12
ENDBRANCH  10  11
ENDBRANCH   9  10
ENDBRANCH   8   9
ENDBRANCH   7   8
ENDBRANCH   6   7
ENDBRANCH   5   6
ENDBRANCH   4   5
ENDBRANCH   3   4
ENDBRANCH   2   3
ENDBRANCH   1   2
BRANCH   1  15
ATOM     15  C   UNL     1     -26.736  -0.380  24.504  1.00  0.00     0.000 C 
BRANCH  15  16
ATOM     16  C   UNL     1     -27.213  -1.776  24.040  1.00  0.00     0.000 C 
BRANCH  16  17
ATOM     17  C   UNL     1     -28.538  -2.251  24.671  1.00  0.00     0.000 C 
BRANCH  17  18
ATOM     18  C   UNL     1     -29.567  -2.853  23.691  1.00  0.00    -0.000 C 
BRANCH  18  19
ATOM     19  C   UNL     1     -31.028  -2.413  23.910  1.00  0.00    -0.000 C 
BRANCH  19  20
ATOM     20  C   UNL     1     -31.226  -0.898  24.105  1.00  0.00    -0.000 C 
BRANCH  20  21
ATOM     21  C   UNL     1     -31.301  -0.131  22.774  1.00  0.00    -0.000 C 
BRANCH  21  22
ATOM     22  C   UNL     1     -30.101   0.808  22.566  1.00  0.00    -0.000 C 
BRANCH  22  23
ATOM     23  C   UNL     1     -29.072   0.241  21.572  1.00  0.00    -0.000 C 
BRANCH  23  24
ATOM     24  C   UNL     1     -29.659  -0.871  20.687  1.00  0.00    -0.000 C 
BRANCH  24  25
ATOM     25  C   UNL     1     -28.669  -2.020  20.445  1.00  0.00    -0.003 C 
ATOM     26  C   UNL     1     -27.232  -1.508  20.406  1.00  0.00     0.004 C 
ENDBRANCH  24  25
ENDBRANCH  23  24
ENDBRANCH  22  23
ENDBRANCH  21  22
ENDBRANCH  20  21
ENDBRANCH  19  20
ENDBRANCH  18  19
ENDBRANCH  17  18
ENDBRANCH  16  17
ENDBRANCH  15  16
ENDBRANCH   1  15
TORSDOF 22
ENDMDL
MODEL 3
REMARK VINA RESULT:    -5.587      2.707     10.002
REMARK INTER + INTRA:         -15.400
REMARK INTER:                 -12.885
REMARK INTRA:                  -2.515
REMARK UNBOUND:                -2.627
REMARK SMILES CCCCCCCCCCCCCCCCCCCCCCCC(=O)[O-]
REMARK SMILES IDX 13 1 14 2 15 3 16 4 17 5 18 6 19 7 20 8 21 9 22 10 23 11
REMARK SMILES IDX 24 12 25 13 26 14 12 15 11 16 10 17 9 18 8 19 7 20 6 21 5 22
REMARK SMILES IDX 4 23 3 24 2 25 1 26
REMARK H PARENT
REMARK Flexibility Score: inf
ROOT
ATOM      1  C   UNL     1     -30.257   0.340  26.828  1.00  0.00     0.000 C 
ENDROOT
BRANCH   1   2
ATOM      2  C   UNL     1     -29.316   0.639  25.646  1.00  0.00     0.000 C 
BRANCH   2   3
ATOM      3  C   UNL     1     -27.864   0.148  25.821  1.00  0.00     0.000 C 
BRANCH   3   4
ATOM      4  C   UNL     1     -27.389  -0.889  24.787  1.00  0.00     0.000 C 
BRANCH   4   5
ATOM      5  C   UNL     1     -26.393  -0.307  23.770  1.00  0.00     0.000 C 
BRANCH   5   6
ATOM      6  C   UNL     1     -27.007   0.819  22.923  1.00  0.00     0.000 C 
BRANCH   6   7
ATOM      7  C   UNL     1     -27.924   0.291  21.806  1.00  0.00     0.000 C 
BRANCH   7   8
ATOM      8  C   UNL     1     -27.372  -0.992  21.152  1.00  0.00     0.000 C 
BRANCH   8   9
ATOM      9  C   UNL     1     -28.463  -1.985  20.709  1.00  0.00     0.000 C 
BRANCH   9  10
ATOM     10  C   UNL     1     -29.858  -1.728  21.311  1.00  0.00     0.006 C 
BRANCH  10  11
ATOM     11  C   UNL     1     -30.048  -2.287  22.731  1.00  0.00     0.053 C 
BRANCH  11  12
ATOM     12  C   UNL     1     -31.097  -1.536  23.492  1.00  0.00     0.041 C 
ATOM     13  O   UNL     1     -31.582  -2.021  24.547  1.00  0.00    -0.550 OA
ATOM     14  O   UNL     1     -31.513  -0.286  23.054  1.00  0.00    -0.550 OA
ENDBRANCH  11  12
ENDBRANCH  10  11
ENDBRANCH   9  10
ENDBRANCH   8   9
ENDBRANCH   7   8
ENDBRANCH   6   7
ENDBRANCH   5   6
ENDBRANCH   4   5
ENDBRANCH   3   4
ENDBRANCH   2   3
ENDBRANCH   1   2
BRANCH   1  15
ATOM     15  C   UNL     1     -30.090   1.273  28.042  1.00  0.00     0.000 C 
BRANCH  15  16
ATOM     16  C   UNL     1     -29.138   0.720  29.128  1.00  0.00     0.000 C 
BRANCH  16  17
ATOM     17  C   UNL     1     -29.355   1.306  30.539  1.00  0.00     0.000 C 
BRANCH  17  18
ATOM     18  C   UNL     1     -28.903   0.410  31.711  1.00  0.00    -0.000 C 
BRANCH  18  19
ATOM     19  C   UNL     1     -27.823   1.015  32.630  1.00  0.00    -0.000 C 
BRANCH  19  20
ATOM     20  C   UNL     1     -28.364   1.772  33.856  1.00  0.00    -0.000 C 
BRANCH  20  21
ATOM     21  C   UNL     1     -28.163   3.294  33.753  1.00  0.00    -0.000 C 
BRANCH  21  22
ATOM     22  C   UNL     1     -29.489   4.070  33.822  1.00  0.00    -0.000 C 
BRANCH  22  23
ATOM     23  C   UNL     1     -30.713   3.143  33.914  1.00  0.00    -0.000 C 
BRANCH  23  24
ATOM     24  C   UNL     1     -31.565   3.163  32.634  1.00  0.00    -0.000 C 
BRANCH  24  25
ATOM     25  C   UNL     1     -32.486   1.940  32.516  1.00  0.00    -0.003 C 
ATOM     26  C   UNL     1     -32.036   0.822  33.451  1.00  0.00     0.004 C 
ENDBRANCH  24  25
ENDBRANCH  23  24
ENDBRANCH  22  23
ENDBRANCH  21  22
ENDBRANCH  20  21
ENDBRANCH  19  20
ENDBRANCH  18  19
ENDBRANCH  17  18
ENDBRANCH  16  17
ENDBRANCH  15  16
ENDBRANCH   1  15
TORSDOF 22
ENDMDL
MODEL 4
REMARK VINA RESULT:    -5.512      4.041     10.138
REMARK INTER + INTRA:         -15.228
REMARK INTER:                 -12.144
REMARK INTRA:                  -3.085
REMARK UNBOUND:                -2.627
REMARK SMILES CCCCCCCCCCCCCCCCCCCCCCCC(=O)[O-]
REMARK SMILES IDX 13 1 14 2 15 3 16 4 17 5 18 6 19 7 20 8 21 9 22 10 23 11
REMARK SMILES IDX 24 12 25 13 26 14 12 15 11 16 10 17 9 18 8 19 7 20 6 21 5 22
REMARK SMILES IDX 4 23 3 24 2 25 1 26
REMARK H PARENT
REMARK Flexibility Score: inf
ROOT
ATOM      1  C   UNL     1     -27.474  -0.681  25.208  1.00  0.00     0.000 C 
ENDROOT
BRANCH   1   2
ATOM      2  C   UNL     1     -28.329  -1.955  25.344  1.00  0.00     0.000 C 
BRANCH   2   3
ATOM      3  C   UNL     1     -28.801  -2.577  24.014  1.00  0.00     0.000 C 
BRANCH   3   4
ATOM      4  C   UNL     1     -30.244  -2.234  23.601  1.00  0.00     0.000 C 
BRANCH   4   5
ATOM      5  C   UNL     1     -31.010  -1.462  24.690  1.00  0.00     0.000 C 
BRANCH   5   6
ATOM      6  C   UNL     1     -31.230   0.014  24.319  1.00  0.00     0.000 C 
BRANCH   6   7
ATOM      7  C   UNL     1     -30.892   0.315  22.849  1.00  0.00     0.000 C 
BRANCH   7   8
ATOM      8  C   UNL     1     -29.564   1.086  22.699  1.00  0.00     0.000 C 
BRANCH   8   9
ATOM      9  C   UNL     1     -28.763   0.709  21.438  1.00  0.00     0.000 C 
BRANCH   9  10
ATOM     10  C   UNL     1     -27.527  -0.174  21.693  1.00  0.00     0.006 C 
BRANCH  10  11
ATOM     11  C   UNL     1     -27.575  -1.547  21.001  1.00  0.00     0.053 C 
BRANCH  11  12
ATOM     12  C   UNL     1     -28.468  -1.534  19.798  1.00  0.00     0.041 C 
ATOM     13  O   UNL     1     -28.014  -1.186  18.676  1.00  0.00    -0.550 OA
ATOM     14  O   UNL     1     -29.791  -1.940  19.910  1.00  0.00    -0.550 OA
ENDBRANCH  11  12
ENDBRANCH  10  11
ENDBRANCH   9  10
ENDBRANCH   8   9
ENDBRANCH   7   8
ENDBRANCH   6   7
ENDBRANCH   5   6
ENDBRANCH   4   5
ENDBRANCH   3   4
ENDBRANCH   2   3
ENDBRANCH   1   2
BRANCH   1  15
ATOM     15  C   UNL     1     -28.000   0.538  25.988  1.00  0.00     0.000 C 
BRANCH  15  16
ATOM     16  C   UNL     1     -28.675   0.177  27.331  1.00  0.00     0.000 C 
BRANCH  16  17
ATOM     17  C   UNL     1     -29.898   1.045  27.695  1.00  0.00     0.000 C 
BRANCH  17  18
ATOM     18  C   UNL     1     -30.099   1.317  29.201  1.00  0.00    -0.000 C 
BRANCH  18  19
ATOM     19  C   UNL     1     -28.847   1.130  30.081  1.00  0.00    -0.000 C 
BRANCH  19  20
ATOM     20  C   UNL     1     -29.123   0.581  31.493  1.00  0.00    -0.000 C 
BRANCH  20  21
ATOM     21  C   UNL     1     -28.323   1.314  32.584  1.00  0.00    -0.000 C 
BRANCH  21  22
ATOM     22  C   UNL     1     -28.072   2.791  32.238  1.00  0.00    -0.000 C 
BRANCH  22  23
ATOM     23  C   UNL     1     -28.751   3.754  33.228  1.00  0.00    -0.000 C 
BRANCH  23  24
ATOM     24  C   UNL     1     -30.090   3.211  33.753  1.00  0.00    -0.000 C 
BRANCH  24  25
ATOM     25  C   UNL     1     -31.236   3.387  32.747  1.00  0.00    -0.003 C 
ATOM     26  C   UNL     1     -32.329   2.346  32.972  1.00  0.00     0.004 C 
ENDBRANCH  24  25
ENDBRANCH  23  24
ENDBRANCH  22  23
ENDBRANCH  21  22
ENDBRANCH  20  21
ENDBRANCH  19  20
ENDBRANCH  18  19
ENDBRANCH  17  18
ENDBRANCH  16  17
ENDBRANCH  15  16
ENDBRANCH   1  15
TORSDOF 22
ENDMDL
MODEL 5
REMARK VINA RESULT:    -5.507      4.046     10.136
REMARK INTER + INTRA:         -15.217
REMARK INTER:                 -12.439
REMARK INTRA:                  -2.778
REMARK UNBOUND:                -2.627
REMARK SMILES CCCCCCCCCCCCCCCCCCCCCCCC(=O)[O-]
REMARK SMILES IDX 13 1 14 2 15 3 16 4 17 5 18 6 19 7 20 8 21 9 22 10 23 11
REMARK SMILES IDX 24 12 25 13 26 14 12 15 11 16 10 17 9 18 8 19 7 20 6 21 5 22
REMARK SMILES IDX 4 23 3 24 2 25 1 26
REMARK H PARENT
REMARK Flexibility Score: inf
ROOT
ATOM      1  C   UNL     1     -28.254  -1.786  25.241  1.00  0.00     0.000 C 
ENDROOT
BRANCH   1   2
ATOM      2  C   UNL     1     -26.842  -1.785  24.625  1.00  0.00     0.000 C 
BRANCH   2   3
ATOM      3  C   UNL     1     -26.628  -0.783  23.471  1.00  0.00     0.000 C 
BRANCH   3   4
ATOM      4  C   UNL     1     -27.180   0.632  23.716  1.00  0.00     0.000 C 
BRANCH   4   5
ATOM      5  C   UNL     1     -27.526   1.373  22.412  1.00  0.00     0.000 C 
BRANCH   5   6
ATOM      6  C   UNL     1     -29.027   1.682  22.292  1.00  0.00     0.000 C 
BRANCH   6   7
ATOM      7  C   UNL     1     -29.848   1.104  23.457  1.00  0.00     0.000 C 
BRANCH   7   8
ATOM      8  C   UNL     1     -31.123   0.381  22.973  1.00  0.00     0.000 C 
BRANCH   8   9
ATOM      9  C   UNL     1     -31.079  -1.148  23.155  1.00  0.00     0.000 C 
BRANCH   9  10
ATOM     10  C   UNL     1     -30.185  -1.897  22.147  1.00  0.00     0.006 C 
BRANCH  10  11
ATOM     11  C   UNL     1     -30.387  -1.470  20.684  1.00  0.00     0.053 C 
BRANCH  11  12
ATOM     12  C   UNL     1     -29.165  -1.719  19.854  1.00  0.00     0.041 C 
ATOM     13  O   UNL     1     -28.210  -0.898  19.872  1.00  0.00    -0.550 OA
ATOM     14  O   UNL     1     -29.067  -2.873  19.089  1.00  0.00    -0.550 OA
ENDBRANCH  11  12
ENDBRANCH  10  11
ENDBRANCH   9  10
ENDBRANCH   8   9
ENDBRANCH   7   8
ENDBRANCH   6   7
ENDBRANCH   5   6
ENDBRANCH   4   5
ENDBRANCH   3   4
ENDBRANCH   2   3
ENDBRANCH   1   2
BRANCH   1  15
ATOM     15  C   UNL     1     -28.415  -0.906  26.495  1.00  0.00     0.000 C 
BRANCH  15  16
ATOM     16  C   UNL     1     -29.818  -0.271  26.636  1.00  0.00     0.000 C 
BRANCH  16  17
ATOM     17  C   UNL     1     -29.828   1.147  27.244  1.00  0.00     0.000 C 
BRANCH  17  18
ATOM     18  C   UNL     1     -30.171   1.227  28.747  1.00  0.00    -0.000 C 
BRANCH  18  19
ATOM     19  C   UNL     1     -28.991   0.991  29.710  1.00  0.00    -0.000 C 
BRANCH  19  20
ATOM     20  C   UNL     1     -29.347   1.077  31.205  1.00  0.00    -0.000 C 
BRANCH  20  21
ATOM     21  C   UNL     1     -28.145   1.470  32.081  1.00  0.00    -0.000 C 
BRANCH  21  22
ATOM     22  C   UNL     1     -28.568   2.175  33.381  1.00  0.00    -0.000 C 
BRANCH  22  23
ATOM     23  C   UNL     1     -29.377   3.458  33.122  1.00  0.00    -0.000 C 
BRANCH  23  24
ATOM     24  C   UNL     1     -30.701   3.488  33.903  1.00  0.00    -0.000 C 
BRANCH  24  25
ATOM     25  C   UNL     1     -31.753   2.532  33.322  1.00  0.00    -0.003 C 
ATOM     26  C   UNL     1     -32.195   2.983  31.933  1.00  0.00     0.004 C 
ENDBRANCH  24  25
ENDBRANCH  23  24
ENDBRANCH  22  23
ENDBRANCH  21  22
ENDBRANCH  20  21
ENDBRANCH  19  20
ENDBRANCH  18  19
ENDBRANCH  17  18
ENDBRANCH  16  17
ENDBRANCH  15  16
ENDBRANCH   1  15
TORSDOF 22
ENDMDL
MODEL 6
REMARK VINA RESULT:    -5.507      0.942      2.420
REMARK INTER + INTRA:         -15.216
REMARK INTER:                 -12.443
REMARK INTRA:                  -2.773
REMARK UNBOUND:                -2.627
REMARK SMILES CCCCCCCCCCCCCCCCCCCCCCCC(=O)[O-]
REMARK SMILES IDX 13 1 14 2 15 3 16 4 17 5 18 6 19 7 20 8 21 9 22 10 23 11
REMARK SMILES IDX 24 12 25 13 26 14 12 15 11 16 10 17 9 18 8 19 7 20 6 21 5 22
REMARK SMILES IDX 4 23 3 24 2 25 1 26
REMARK H PARENT
REMARK Flexibility Score: inf
ROOT
ATOM      1  C   UNL     1     -29.191   0.602  26.545  1.00  0.00     0.000 C 
ENDROOT
BRANCH   1   2
ATOM      2  C   UNL     1     -29.821   0.780  27.938  1.00  0.00     0.000 C 
BRANCH   2   3
ATOM      3  C   UNL     1     -28.830   0.742  29.120  1.00  0.00     0.000 C 
BRANCH   3   4
ATOM      4  C   UNL     1     -29.416   1.146  30.485  1.00  0.00     0.000 C 
BRANCH   4   5
ATOM      5  C   UNL     1     -28.348   1.665  31.464  1.00  0.00     0.000 C 
BRANCH   5   6
ATOM      6  C   UNL     1     -28.301   0.852  32.767  1.00  0.00     0.000 C 
BRANCH   6   7
ATOM      7  C   UNL     1     -28.408   1.735  34.023  1.00  0.00     0.000 C 
BRANCH   7   8
ATOM      8  C   UNL     1     -28.062   3.211  33.734  1.00  0.00     0.000 C 
BRANCH   8   9
ATOM      9  C   UNL     1     -29.262   4.169  33.863  1.00  0.00     0.000 C 
BRANCH   9  10
ATOM     10  C   UNL     1     -30.621   3.480  34.090  1.00  0.00     0.006 C 
BRANCH  10  11
ATOM     11  C   UNL     1     -31.429   3.234  32.804  1.00  0.00     0.053 C 
BRANCH  11  12
ATOM     12  C   UNL     1     -32.154   1.925  32.841  1.00  0.00     0.041 C 
ATOM     13  O   UNL     1     -31.799   1.027  33.648  1.00  0.00    -0.550 OA
ATOM     14  O   UNL     1     -33.243   1.709  32.006  1.00  0.00    -0.550 OA
ENDBRANCH  11  12
ENDBRANCH  10  11
ENDBRANCH   9  10
ENDBRANCH   8   9
ENDBRANCH   7   8
ENDBRANCH   6   7
ENDBRANCH   5   6
ENDBRANCH   4   5
ENDBRANCH   3   4
ENDBRANCH   2   3
ENDBRANCH   1   2
BRANCH   1  15
ATOM     15  C   UNL     1     -29.581  -0.700  25.819  1.00  0.00     0.000 C 
BRANCH  15  16
ATOM     16  C   UNL     1     -30.934  -0.619  25.076  1.00  0.00     0.000 C 
BRANCH  16  17
ATOM     17  C   UNL     1     -31.272  -1.850  24.210  1.00  0.00     0.000 C 
BRANCH  17  18
ATOM     18  C   UNL     1     -30.340  -2.095  23.005  1.00  0.00    -0.000 C 
BRANCH  18  19
ATOM     19  C   UNL     1     -30.635  -1.243  21.754  1.00  0.00    -0.000 C 
BRANCH  19  20
ATOM     20  C   UNL     1     -29.600  -1.372  20.622  1.00  0.00    -0.000 C 
BRANCH  20  21
ATOM     21  C   UNL     1     -28.323  -2.108  21.064  1.00  0.00    -0.000 C 
BRANCH  21  22
ATOM     22  C   UNL     1     -27.175  -1.144  21.406  1.00  0.00    -0.000 C 
BRANCH  22  23
ATOM     23  C   UNL     1     -26.837  -1.135  22.907  1.00  0.00    -0.000 C 
BRANCH  23  24
ATOM     24  C   UNL     1     -26.992   0.260  23.537  1.00  0.00    -0.000 C 
BRANCH  24  25
ATOM     25  C   UNL     1     -27.598   1.284  22.566  1.00  0.00    -0.003 C 
ATOM     26  C   UNL     1     -29.037   1.616  22.947  1.00  0.00     0.004 C 
ENDBRANCH  24  25
ENDBRANCH  23  24
ENDBRANCH  22  23
ENDBRANCH  21  22
ENDBRANCH  20  21
ENDBRANCH  19  20
ENDBRANCH  18  19
ENDBRANCH  17  18
ENDBRANCH  16  17
ENDBRANCH  15  16
ENDBRANCH   1  15
TORSDOF 22
ENDMDL
MODEL 7
REMARK VINA RESULT:    -5.495      3.235     10.178
REMARK INTER + INTRA:         -15.189
REMARK INTER:                 -12.608
REMARK INTRA:                  -2.581
REMARK UNBOUND:                -2.627
REMARK SMILES CCCCCCCCCCCCCCCCCCCCCCCC(=O)[O-]
REMARK SMILES IDX 13 1 14 2 15 3 16 4 17 5 18 6 19 7 20 8 21 9 22 10 23 11
REMARK SMILES IDX 24 12 25 13 26 14 12 15 11 16 10 17 9 18 8 19 7 20 6 21 5 22
REMARK SMILES IDX 4 23 3 24 2 25 1 26
REMARK H PARENT
REMARK Flexibility Score: inf
ROOT
ATOM      1  C   UNL     1     -30.436  -0.364  26.554  1.00  0.00     0.000 C 
ENDROOT
BRANCH   1   2
ATOM      2  C   UNL     1     -30.680  -0.882  25.124  1.00  0.00     0.000 C 
BRANCH   2   3
ATOM      3  C   UNL     1     -31.110   0.188  24.099  1.00  0.00     0.000 C 
BRANCH   3   4
ATOM      4  C   UNL     1     -31.570  -0.353  22.734  1.00  0.00     0.000 C 
BRANCH   4   5
ATOM      5  C   UNL     1     -30.596  -1.385  22.141  1.00  0.00     0.000 C 
BRANCH   5   6
ATOM      6  C   UNL     1     -30.590  -1.371  20.603  1.00  0.00     0.000 C 
BRANCH   6   7
ATOM      7  C   UNL     1     -29.204  -1.678  20.011  1.00  0.00     0.000 C 
BRANCH   7   8
ATOM      8  C   UNL     1     -28.224  -2.231  21.067  1.00  0.00     0.000 C 
BRANCH   8   9
ATOM      9  C   UNL     1     -27.081  -1.261  21.423  1.00  0.00     0.000 C 
BRANCH   9  10
ATOM     10  C   UNL     1     -26.702  -1.225  22.917  1.00  0.00     0.006 C 
BRANCH  10  11
ATOM     11  C   UNL     1     -27.477  -0.183  23.741  1.00  0.00     0.053 C 
BRANCH  11  12
ATOM     12  C   UNL     1     -27.535   1.145  23.051  1.00  0.00     0.041 C 
ATOM     13  O   UNL     1     -26.495   1.845  22.935  1.00  0.00    -0.550 OA
ATOM     14  O   UNL     1     -28.731   1.594  22.507  1.00  0.00    -0.550 OA
ENDBRANCH  11  12
ENDBRANCH  10  11
ENDBRANCH   9  10
ENDBRANCH   8   9
ENDBRANCH   7   8
ENDBRANCH   6   7
ENDBRANCH   5   6
ENDBRANCH   4   5
ENDBRANCH   3   4
ENDBRANCH   2   3
ENDBRANCH   1   2
BRANCH   1  15
ATOM     15  C   UNL     1     -28.962  -0.359  26.999  1.00  0.00     0.000 C 
BRANCH  15  16
ATOM     16  C   UNL     1     -28.700   0.457  28.286  1.00  0.00     0.000 C 
BRANCH  16  17
ATOM     17  C   UNL     1     -29.918   1.247  28.810  1.00  0.00     0.000 C 
BRANCH  17  18
ATOM     18  C   UNL     1     -29.927   1.530  30.327  1.00  0.00    -0.000 C 
BRANCH  18  19
ATOM     19  C   UNL     1     -28.995   0.641  31.173  1.00  0.00    -0.000 C 
BRANCH  19  20
ATOM     20  C   UNL     1     -28.266   1.368  32.318  1.00  0.00    -0.000 C 
BRANCH  20  21
ATOM     21  C   UNL     1     -28.233   2.895  32.126  1.00  0.00    -0.000 C 
BRANCH  21  22
ATOM     22  C   UNL     1     -28.794   3.653  33.341  1.00  0.00    -0.000 C 
BRANCH  22  23
ATOM     23  C   UNL     1     -30.041   2.977  33.936  1.00  0.00    -0.000 C 
BRANCH  23  24
ATOM     24  C   UNL     1     -31.334   3.387  33.212  1.00  0.00    -0.000 C 
BRANCH  24  25
ATOM     25  C   UNL     1     -32.366   2.251  33.153  1.00  0.00    -0.003 C 
ATOM     26  C   UNL     1     -31.754   0.930  33.607  1.00  0.00     0.004 C 
ENDBRANCH  24  25
ENDBRANCH  23  24
ENDBRANCH  22  23
ENDBRANCH  21  22
ENDBRANCH  20  21
ENDBRANCH  19  20
ENDBRANCH  18  19
ENDBRANCH  17  18
ENDBRANCH  16  17
ENDBRANCH  15  16
ENDBRANCH   1  15
TORSDOF 22
ENDMDL
MODEL 8
REMARK VINA RESULT:    -5.433      1.103      2.782
REMARK INTER + INTRA:         -15.048
REMARK INTER:                 -12.320
REMARK INTRA:                  -2.727
REMARK UNBOUND:                -2.627
REMARK SMILES CCCCCCCCCCCCCCCCCCCCCCCC(=O)[O-]
REMARK SMILES IDX 13 1 14 2 15 3 16 4 17 5 18 6 19 7 20 8 21 9 22 10 23 11
REMARK SMILES IDX 24 12 25 13 26 14 12 15 11 16 10 17 9 18 8 19 7 20 6 21 5 22
REMARK SMILES IDX 4 23 3 24 2 25 1 26
REMARK H PARENT
REMARK Flexibility Score: inf
ROOT
ATOM      1  C   UNL     1     -30.286  -0.101  25.834  1.00  0.00     0.000 C 
ENDROOT
BRANCH   1   2
ATOM      2  C   UNL     1     -29.013  -0.535  26.583  1.00  0.00     0.000 C 
BRANCH   2   3
ATOM      3  C   UNL     1     -28.817   0.103  27.974  1.00  0.00     0.000 C 
BRANCH   3   4
ATOM      4  C   UNL     1     -29.904   1.107  28.398  1.00  0.00     0.000 C 
BRANCH   4   5
ATOM      5  C   UNL     1     -30.138   1.130  29.919  1.00  0.00     0.000 C 
BRANCH   5   6
ATOM      6  C   UNL     1     -28.892   1.580  30.698  1.00  0.00     0.000 C 
BRANCH   6   7
ATOM      7  C   UNL     1     -28.693   0.795  32.006  1.00  0.00     0.000 C 
BRANCH   7   8
ATOM      8  C   UNL     1     -28.449   1.723  33.215  1.00  0.00     0.000 C 
BRANCH   8   9
ATOM      9  C   UNL     1     -28.788   3.201  32.945  1.00  0.00     0.000 C 
BRANCH   9  10
ATOM     10  C   UNL     1     -29.941   3.769  33.795  1.00  0.00     0.006 C 
BRANCH  10  11
ATOM     11  C   UNL     1     -31.063   2.760  34.093  1.00  0.00     0.053 C 
BRANCH  11  12
ATOM     12  C   UNL     1     -31.950   2.543  32.906  1.00  0.00     0.041 C 
ATOM     13  O   UNL     1     -32.761   1.580  32.888  1.00  0.00    -0.550 OA
ATOM     14  O   UNL     1     -31.905   3.425  31.833  1.00  0.00    -0.550 OA
ENDBRANCH  11  12
ENDBRANCH  10  11
ENDBRANCH   9  10
ENDBRANCH   8   9
ENDBRANCH   7   8
ENDBRANCH   6   7
ENDBRANCH   5   6
ENDBRANCH   4   5
ENDBRANCH   3   4
ENDBRANCH   2   3
ENDBRANCH   1   2
BRANCH   1  15
ATOM     15  C   UNL     1     -30.941  -1.201  24.977  1.00  0.00     0.000 C 
BRANCH  15  16
ATOM     16  C   UNL     1     -31.249  -0.763  23.527  1.00  0.00     0.000 C 
BRANCH  16  17
ATOM     17  C   UNL     1     -30.862   0.694  23.194  1.00  0.00     0.000 C 
BRANCH  17  18
ATOM     18  C   UNL     1     -29.616   0.866  22.301  1.00  0.00    -0.000 C 
BRANCH  18  19
ATOM     19  C   UNL     1     -28.515   1.784  22.869  1.00  0.00    -0.000 C 
BRANCH  19  20
ATOM     20  C   UNL     1     -27.128   1.130  22.998  1.00  0.00    -0.000 C 
BRANCH  20  21
ATOM     21  C   UNL     1     -27.119  -0.060  23.972  1.00  0.00    -0.000 C 
BRANCH  21  22
ATOM     22  C   UNL     1     -26.868  -1.401  23.262  1.00  0.00    -0.000 C 
BRANCH  22  23
ATOM     23  C   UNL     1     -28.171  -2.153  22.940  1.00  0.00    -0.000 C 
BRANCH  23  24
ATOM     24  C   UNL     1     -28.295  -2.504  21.448  1.00  0.00    -0.000 C 
BRANCH  24  25
ATOM     25  C   UNL     1     -27.521  -1.533  20.545  1.00  0.00    -0.003 C 
ATOM     26  C   UNL     1     -28.393  -1.039  19.394  1.00  0.00     0.004 C 
ENDBRANCH  24  25
ENDBRANCH  23  24
ENDBRANCH  22  23
ENDBRANCH  21  22
ENDBRANCH  20  21
ENDBRANCH  19  20
ENDBRANCH  18  19
ENDBRANCH  17  18
ENDBRANCH  16  17
ENDBRANCH  15  16
ENDBRANCH   1  15
TORSDOF 22
ENDMDL
MODEL 9
REMARK VINA RESULT:    -5.274      2.323      3.616
REMARK INTER + INTRA:         -14.683
REMARK INTER:                 -12.939
REMARK INTRA:                  -1.744
REMARK UNBOUND:                -2.627
REMARK SMILES CCCCCCCCCCCCCCCCCCCCCCCC(=O)[O-]
REMARK SMILES IDX 13 1 14 2 15 3 16 4 17 5 18 6 19 7 20 8 21 9 22 10 23 11
REMARK SMILES IDX 24 12 25 13 26 14 12 15 11 16 10 17 9 18 8 19 7 20 6 21 5 22
REMARK SMILES IDX 4 23 3 24 2 25 1 26
REMARK H PARENT
REMARK Flexibility Score: inf
ROOT
ATOM      1  C   UNL     1     -28.572  -0.336  26.717  1.00  0.00     0.000 C 
ENDROOT
BRANCH   1   2
ATOM      2  C   UNL     1     -28.655   0.367  28.085  1.00  0.00     0.000 C 
BRANCH   2   3
ATOM      3  C   UNL     1     -29.979   1.107  28.366  1.00  0.00     0.000 C 
BRANCH   3   4
ATOM      4  C   UNL     1     -30.106   1.722  29.771  1.00  0.00     0.000 C 
BRANCH   4   5
ATOM      5  C   UNL     1     -29.218   1.020  30.813  1.00  0.00     0.000 C 
BRANCH   5   6
ATOM      6  C   UNL     1     -28.328   2.005  31.586  1.00  0.00     0.000 C 
BRANCH   6   7
ATOM      7  C   UNL     1     -27.840   1.438  32.931  1.00  0.00     0.000 C 
BRANCH   7   8
ATOM      8  C   UNL     1     -28.168   2.371  34.115  1.00  0.00     0.000 C 
BRANCH   8   9
ATOM      9  C   UNL     1     -28.926   3.650  33.709  1.00  0.00     0.000 C 
BRANCH   9  10
ATOM     10  C   UNL     1     -30.424   3.659  34.070  1.00  0.00     0.006 C 
BRANCH  10  11
ATOM     11  C   UNL     1     -31.361   3.345  32.891  1.00  0.00     0.053 C 
BRANCH  11  12
ATOM     12  C   UNL     1     -32.013   2.005  33.037  1.00  0.00     0.041 C 
ATOM     13  O   UNL     1     -33.050   1.730  32.378  1.00  0.00    -0.550 OA
ATOM     14  O   UNL     1     -31.456   1.047  33.875  1.00  0.00    -0.550 OA
ENDBRANCH  11  12
ENDBRANCH  10  11
ENDBRANCH   9  10
ENDBRANCH   8   9
ENDBRANCH   7   8
ENDBRANCH   6   7
ENDBRANCH   5   6
ENDBRANCH   4   5
ENDBRANCH   3   4
ENDBRANCH   2   3
ENDBRANCH   1   2
BRANCH   1  15
ATOM     15  C   UNL     1     -29.638   0.104  25.697  1.00  0.00     0.000 C 
BRANCH  15  16
ATOM     16  C   UNL     1     -29.051   0.670  24.383  1.00  0.00     0.000 C 
BRANCH  16  17
ATOM     17  C   UNL     1     -27.608   0.218  24.072  1.00  0.00     0.000 C 
BRANCH  17  18
ATOM     18  C   UNL     1     -27.473  -0.916  23.034  1.00  0.00    -0.000 C 
BRANCH  18  19
ATOM     19  C   UNL     1     -28.699  -1.841  22.900  1.00  0.00    -0.000 C 
BRANCH  19  20
ATOM     20  C   UNL     1     -29.442  -1.743  21.555  1.00  0.00    -0.000 C 
BRANCH  20  21
ATOM     21  C   UNL     1     -28.490  -1.762  20.347  1.00  0.00    -0.000 C 
BRANCH  21  22
ATOM     22  C   UNL     1     -29.011  -2.644  19.199  1.00  0.00    -0.000 C 
BRANCH  22  23
ATOM     23  C   UNL     1     -28.615  -2.106  17.813  1.00  0.00    -0.000 C 
BRANCH  23  24
ATOM     24  C   UNL     1     -28.586  -3.208  16.741  1.00  0.00    -0.000 C 
BRANCH  24  25
ATOM     25  C   UNL     1     -28.636  -2.647  15.312  1.00  0.00    -0.003 C 
ATOM     26  C   UNL     1     -28.080  -3.652  14.308  1.00  0.00     0.004 C 
ENDBRANCH  24  25
ENDBRANCH  23  24
ENDBRANCH  22  23
ENDBRANCH  21  22
ENDBRANCH  20  21
ENDBRANCH  19  20
ENDBRANCH  18  19
ENDBRANCH  17  18
ENDBRANCH  16  17
ENDBRANCH  15  16
ENDBRANCH   1  15
TORSDOF 22
ENDMDL
