MODEL 1
REMARK VINA RESULT:    -6.024      0.000      0.000
REMARK INTER + INTRA:          -6.865
REMARK INTER:                  -6.728
REMARK INTRA:                  -0.137
REMARK UNBOUND:                -0.137
REMARK SMILES O=C([O-])C=Cc1ccccc1
REMARK SMILES IDX 4 1 5 2 2 3 1 4 3 5 6 6 7 7 11 8 8 9 10 10 9 11
REMARK H PARENT
REMARK Flexibility Score: inf
ROOT
ATOM      1  C   UNL     1     -10.636  -0.351  -9.387  1.00  0.00     0.025 C 
ATOM      2  C   UNL     1     -11.516   0.498  -9.939  1.00  0.00     0.010 C 
ENDROOT
BRANCH   1   3
ATOM      3  C   UNL     1     -10.269  -1.626 -10.026  1.00  0.00     0.064 C 
ATOM      4  O   UNL     1      -9.211  -1.737 -10.703  1.00  0.00    -0.545 OA
ATOM      5  O   UNL     1     -11.101  -2.728  -9.879  1.00  0.00    -0.545 OA
ENDBRANCH   1   3
BRANCH   2   6
ATOM      6  C   UNL     1     -11.929   1.799  -9.346  1.00  0.00    -0.026 A 
ATOM      7  C   UNL     1     -13.268   2.248  -9.312  1.00  0.00     0.008 A 
ATOM      8  C   UNL     1     -10.930   2.620  -8.789  1.00  0.00     0.008 A 
ATOM      9  C   UNL     1     -13.586   3.483  -8.739  1.00  0.00     0.001 A 
ATOM     10  C   UNL     1     -11.255   3.853  -8.217  1.00  0.00     0.001 A 
ATOM     11  C   UNL     1     -12.582   4.284  -8.192  1.00  0.00     0.000 A 
ENDBRANCH   2   6
TORSDOF 2
ENDMDL
MODEL 2
REMARK VINA RESULT:    -6.020      1.495      2.604
REMARK INTER + INTRA:          -6.861
REMARK INTER:                  -6.733
REMARK INTRA:                  -0.129
REMARK UNBOUND:                -0.137
REMARK SMILES O=C([O-])C=Cc1ccccc1
REMARK SMILES IDX 4 1 5 2 2 3 1 4 3 5 6 6 7 7 11 8 8 9 10 10 9 11
REMARK H PARENT
REMARK Flexibility Score: inf
ROOT
ATOM      1  C   UNL     1     -10.509  -2.023  -9.297  1.00  0.00     0.025 C 
ATOM      2  C   UNL     1     -10.605  -0.967 -10.120  1.00  0.00     0.010 C 
ENDROOT
BRANCH   1   3
ATOM      3  C   UNL     1      -9.521  -3.095  -9.510  1.00  0.00     0.064 C 
ATOM      4  O   UNL     1      -9.616  -3.887 -10.486  1.00  0.00    -0.545 OA
ATOM      5  O   UNL     1      -8.465  -3.236  -8.620  1.00  0.00    -0.545 OA
ENDBRANCH   1   3
BRANCH   2   6
ATOM      6  C   UNL     1     -11.579   0.147  -9.961  1.00  0.00    -0.026 A 
ATOM      7  C   UNL     1     -11.252   1.387  -9.370  1.00  0.00     0.008 A 
ATOM      8  C   UNL     1     -12.893  -0.050 -10.425  1.00  0.00     0.008 A 
ATOM      9  C   UNL     1     -12.218   2.392  -9.251  1.00  0.00     0.001 A 
ATOM     10  C   UNL     1     -13.853   0.958 -10.304  1.00  0.00     0.001 A 
ATOM     11  C   UNL     1     -13.515   2.178  -9.718  1.00  0.00     0.000 A 
ENDBRANCH   2   6
TORSDOF 2
ENDMDL
MODEL 3
REMARK VINA RESULT:    -5.992      3.588      5.051
REMARK INTER + INTRA:          -6.830
REMARK INTER:                  -6.689
REMARK INTRA:                  -0.140
REMARK UNBOUND:                -0.137
REMARK SMILES O=C([O-])C=Cc1ccccc1
REMARK SMILES IDX 4 1 5 2 2 3 1 4 3 5 6 6 7 7 11 8 8 9 10 10 9 11
REMARK H PARENT
REMARK Flexibility Score: inf
ROOT
ATOM      1  C   UNL     1     -11.740   2.407  -8.949  1.00  0.00     0.025 C 
ATOM      2  C   UNL     1     -12.853   2.046  -9.608  1.00  0.00     0.010 C 
ENDROOT
BRANCH   1   3
ATOM      3  C   UNL     1     -11.521   3.784  -8.475  1.00  0.00     0.064 C 
ATOM      4  O   UNL     1     -10.373   4.305  -8.488  1.00  0.00    -0.545 OA
ATOM      5  O   UNL     1     -12.598   4.523  -8.006  1.00  0.00    -0.545 OA
ENDBRANCH   1   3
BRANCH   2   6
ATOM      6  C   UNL     1     -13.134   0.675 -10.113  1.00  0.00    -0.026 A 
ATOM      7  C   UNL     1     -14.418   0.088 -10.094  1.00  0.00     0.008 A 
ATOM      8  C   UNL     1     -12.061  -0.072 -10.636  1.00  0.00     0.008 A 
ATOM      9  C   UNL     1     -14.612  -1.207 -10.584  1.00  0.00     0.001 A 
ATOM     10  C   UNL     1     -12.262  -1.365 -11.125  1.00  0.00     0.001 A 
ATOM     11  C   UNL     1     -13.536  -1.932 -11.099  1.00  0.00     0.000 A 
ENDBRANCH   2   6
TORSDOF 2
ENDMDL
MODEL 4
REMARK VINA RESULT:    -5.929      3.538      5.377
REMARK INTER + INTRA:          -6.760
REMARK INTER:                  -6.613
REMARK INTRA:                  -0.147
REMARK UNBOUND:                -0.137
REMARK SMILES O=C([O-])C=Cc1ccccc1
REMARK SMILES IDX 4 1 5 2 2 3 1 4 3 5 6 6 7 7 11 8 8 9 10 10 9 11
REMARK H PARENT
REMARK Flexibility Score: inf
ROOT
ATOM      1  C   UNL     1     -12.590   2.755  -9.259  1.00  0.00     0.025 C 
ATOM      2  C   UNL     1     -11.808   1.712  -9.581  1.00  0.00     0.010 C 
ENDROOT
BRANCH   1   3
ATOM      3  C   UNL     1     -12.037   4.017  -8.736  1.00  0.00     0.064 C 
ATOM      4  O   UNL     1     -12.784   4.999  -8.476  1.00  0.00    -0.545 OA
ATOM      5  O   UNL     1     -10.670   4.127  -8.523  1.00  0.00    -0.545 OA
ENDBRANCH   1   3
BRANCH   2   6
ATOM      6  C   UNL     1     -12.303   0.413 -10.113  1.00  0.00    -0.026 A 
ATOM      7  C   UNL     1     -11.468  -0.706 -10.329  1.00  0.00     0.008 A 
ATOM      8  C   UNL     1     -13.673   0.299 -10.413  1.00  0.00     0.008 A 
ATOM      9  C   UNL     1     -12.000  -1.897 -10.833  1.00  0.00     0.001 A 
ATOM     10  C   UNL     1     -14.197  -0.895 -10.915  1.00  0.00     0.001 A 
ATOM     11  C   UNL     1     -13.361  -1.993 -11.125  1.00  0.00     0.000 A 
ENDBRANCH   2   6
TORSDOF 2
ENDMDL
MODEL 5
REMARK VINA RESULT:    -5.071      1.847      2.320
REMARK INTER + INTRA:          -5.802
REMARK INTER:                  -5.672
REMARK INTRA:                  -0.129
REMARK UNBOUND:                -0.137
REMARK SMILES O=C([O-])C=Cc1ccccc1
REMARK SMILES IDX 4 1 5 2 2 3 1 4 3 5 6 6 7 7 11 8 8 9 10 10 9 11
REMARK H PARENT
REMARK Flexibility Score: inf
ROOT
ATOM      1  C   UNL     1     -13.157  -0.368  -9.710  1.00  0.00     0.025 C 
ATOM      2  C   UNL     1     -13.155   0.885 -10.191  1.00  0.00     0.010 C 
ENDROOT
BRANCH   1   3
ATOM      3  C   UNL     1     -13.559  -1.522 -10.532  1.00  0.00     0.064 C 
ATOM      4  O   UNL     1     -14.774  -1.807 -10.709  1.00  0.00    -0.545 OA
ATOM      5  O   UNL     1     -12.582  -2.311 -11.124  1.00  0.00    -0.545 OA
ENDBRANCH   1   3
BRANCH   2   6
ATOM      6  C   UNL     1     -12.761   2.092  -9.415  1.00  0.00    -0.026 A 
ATOM      7  C   UNL     1     -13.688   3.042  -8.932  1.00  0.00     0.008 A 
ATOM      8  C   UNL     1     -11.393   2.293  -9.150  1.00  0.00     0.008 A 
ATOM      9  C   UNL     1     -13.249   4.155  -8.208  1.00  0.00     0.001 A 
ATOM     10  C   UNL     1     -10.961   3.408  -8.426  1.00  0.00     0.001 A 
ATOM     11  C   UNL     1     -11.889   4.338  -7.955  1.00  0.00     0.000 A 
ENDBRANCH   2   6
TORSDOF 2
ENDMDL
MODEL 6
REMARK VINA RESULT:    -5.064     15.498     16.752
REMARK INTER + INTRA:          -5.794
REMARK INTER:                  -5.663
REMARK INTRA:                  -0.131
REMARK UNBOUND:                -0.137
REMARK SMILES O=C([O-])C=Cc1ccccc1
REMARK SMILES IDX 4 1 5 2 2 3 1 4 3 5 6 6 7 7 11 8 8 9 10 10 9 11
REMARK H PARENT
REMARK Flexibility Score: inf
ROOT
ATOM      1  C   UNL     1     -12.841   5.813   4.694  1.00  0.00     0.025 C 
ATOM      2  C   UNL     1     -13.108   5.501   5.972  1.00  0.00     0.010 C 
ENDROOT
BRANCH   1   3
ATOM      3  C   UNL     1     -13.906   6.012   3.697  1.00  0.00     0.064 C 
ATOM      4  O   UNL     1     -15.123   5.971   4.023  1.00  0.00    -0.545 OA
ATOM      5  O   UNL     1     -13.564   6.252   2.373  1.00  0.00    -0.545 OA
ENDBRANCH   1   3
BRANCH   2   6
ATOM      6  C   UNL     1     -12.080   5.287   7.027  1.00  0.00    -0.026 A 
ATOM      7  C   UNL     1     -11.010   6.178   7.261  1.00  0.00     0.008 A 
ATOM      8  C   UNL     1     -12.184   4.135   7.830  1.00  0.00     0.008 A 
ATOM      9  C   UNL     1     -10.077   5.915   8.270  1.00  0.00     0.001 A 
ATOM     10  C   UNL     1     -11.250   3.879   8.837  1.00  0.00     0.001 A 
ATOM     11  C   UNL     1     -10.197   4.768   9.056  1.00  0.00     0.000 A 
ENDBRANCH   2   6
TORSDOF 2
ENDMDL
MODEL 7
REMARK VINA RESULT:    -4.434     16.319     17.537
REMARK INTER + INTRA:          -5.090
REMARK INTER:                  -4.962
REMARK INTRA:                  -0.128
REMARK UNBOUND:                -0.137
REMARK SMILES O=C([O-])C=Cc1ccccc1
REMARK SMILES IDX 4 1 5 2 2 3 1 4 3 5 6 6 7 7 11 8 8 9 10 10 9 11
REMARK H PARENT
REMARK Flexibility Score: inf
ROOT
ATOM      1  C   UNL     1      -8.984   7.970   5.805  1.00  0.00     0.025 C 
ATOM      2  C   UNL     1      -8.778   6.943   6.644  1.00  0.00     0.010 C 
ENDROOT
BRANCH   1   3
ATOM      3  C   UNL     1      -7.957   8.996   5.554  1.00  0.00     0.064 C 
ATOM      4  O   UNL     1      -7.745   9.437   4.392  1.00  0.00    -0.545 OA
ATOM      5  O   UNL     1      -7.210   9.487   6.615  1.00  0.00    -0.545 OA
ENDBRANCH   1   3
BRANCH   2   6
ATOM      6  C   UNL     1      -9.773   5.877   6.941  1.00  0.00    -0.026 A 
ATOM      7  C   UNL     1     -10.431   5.128   5.940  1.00  0.00     0.008 A 
ATOM      8  C   UNL     1     -10.069   5.603   8.290  1.00  0.00     0.008 A 
ATOM      9  C   UNL     1     -11.357   4.139   6.290  1.00  0.00     0.001 A 
ATOM     10  C   UNL     1     -10.995   4.614   8.632  1.00  0.00     0.001 A 
ATOM     11  C   UNL     1     -11.638   3.882   7.633  1.00  0.00     0.000 A 
ENDBRANCH   2   6
TORSDOF 2
ENDMDL
MODEL 8
REMARK VINA RESULT:    -4.385     14.901     16.148
REMARK INTER + INTRA:          -5.035
REMARK INTER:                  -4.908
REMARK INTRA:                  -0.127
REMARK UNBOUND:                -0.137
REMARK SMILES O=C([O-])C=Cc1ccccc1
REMARK SMILES IDX 4 1 5 2 2 3 1 4 3 5 6 6 7 7 11 8 8 9 10 10 9 11
REMARK H PARENT
REMARK Flexibility Score: inf
ROOT
ATOM      1  C   UNL     1     -11.363   5.900   6.876  1.00  0.00     0.025 C 
ATOM      2  C   UNL     1     -12.511   5.562   6.267  1.00  0.00     0.010 C 
ENDROOT
BRANCH   1   3
ATOM      3  C   UNL     1     -10.848   5.162   8.042  1.00  0.00     0.064 C 
ATOM      4  O   UNL     1     -10.587   5.752   9.125  1.00  0.00    -0.545 OA
ATOM      5  O   UNL     1     -10.648   3.792   7.948  1.00  0.00    -0.545 OA
ENDBRANCH   1   3
BRANCH   2   6
ATOM      6  C   UNL     1     -13.086   6.265   5.088  1.00  0.00    -0.026 A 
ATOM      7  C   UNL     1     -13.472   7.624   5.105  1.00  0.00     0.008 A 
ATOM      8  C   UNL     1     -13.250   5.534   3.896  1.00  0.00     0.008 A 
ATOM      9  C   UNL     1     -14.006   8.222   3.959  1.00  0.00     0.001 A 
ATOM     10  C   UNL     1     -13.784   6.139   2.755  1.00  0.00     0.001 A 
ATOM     11  C   UNL     1     -14.162   7.482   2.786  1.00  0.00     0.000 A 
ENDBRANCH   2   6
TORSDOF 2
ENDMDL
MODEL 9
REMARK VINA RESULT:    -4.345     14.926     16.145
REMARK INTER + INTRA:          -4.990
REMARK INTER:                  -4.855
REMARK INTRA:                  -0.136
REMARK UNBOUND:                -0.137
REMARK SMILES O=C([O-])C=Cc1ccccc1
REMARK SMILES IDX 4 1 5 2 2 3 1 4 3 5 6 6 7 7 11 8 8 9 10 10 9 11
REMARK H PARENT
REMARK Flexibility Score: inf
ROOT
ATOM      1  C   UNL     1     -11.302   5.777   6.883  1.00  0.00     0.025 C 
ATOM      2  C   UNL     1     -12.393   5.344   6.231  1.00  0.00     0.010 C 
ENDROOT
BRANCH   1   3
ATOM      3  C   UNL     1     -10.728   5.044   8.025  1.00  0.00     0.064 C 
ATOM      4  O   UNL     1     -10.651   3.786   8.020  1.00  0.00    -0.545 OA
ATOM      5  O   UNL     1     -10.263   5.750   9.125  1.00  0.00    -0.545 OA
ENDBRANCH   1   3
BRANCH   2   6
ATOM      6  C   UNL     1     -13.021   6.037   5.074  1.00  0.00    -0.026 A 
ATOM      7  C   UNL     1     -13.249   5.415   3.826  1.00  0.00     0.008 A 
ATOM      8  C   UNL     1     -13.406   7.381   5.235  1.00  0.00     0.008 A 
ATOM      9  C   UNL     1     -13.844   6.126   2.779  1.00  0.00     0.001 A 
ATOM     10  C   UNL     1     -14.000   8.086   4.185  1.00  0.00     0.001 A 
ATOM     11  C   UNL     1     -14.219   7.458   2.958  1.00  0.00     0.000 A 
ENDBRANCH   2   6
TORSDOF 2
ENDMDL
