MODEL 1
REMARK VINA RESULT:    -7.253      0.000      0.000
REMARK INTER + INTRA:         -11.592
REMARK INTER:                 -10.645
REMARK INTRA:                  -0.946
REMARK UNBOUND:                -0.946
REMARK SMILES Cc1cc2c(C(C)C)c(O)c(O)c(C=O)c2c(O)c1-c1c(C)cc2c(C(C)C)c(O)c(O)c(C=O)c2c1O
REMARK SMILES IDX 1 1 2 2 3 3 4 4 16 5 13 6 11 7 9 8 5 9 17 10 19 11 20 12
REMARK SMILES IDX 37 13 21 14 36 15 23 16 22 17 24 18 33 19 25 20 31 21 29 22
REMARK SMILES IDX 38 23 34 25 35 26 26 27 27 28 28 29 32 30 30 32 18 34 6 36
REMARK SMILES IDX 7 37 8 38 14 39 15 40 10 41 12 43
REMARK H PARENT 38 24 32 31 30 33 18 35 10 42 12 44
REMARK Flexibility Score: inf
ROOT
ATOM      1  C   UNL     1      34.607   1.136  76.493  1.00  0.00     0.045 C 
ATOM      2  C   UNL     1      35.302   0.138  75.600  1.00  0.00    -0.039 A 
ATOM      3  C   UNL     1      35.960   0.586  74.448  1.00  0.00     0.013 A 
ATOM      4  C   UNL     1      36.696  -0.283  73.616  1.00  0.00    -0.006 A 
ATOM      5  C   UNL     1      36.861  -1.641  74.024  1.00  0.00     0.039 A 
ATOM      6  C   UNL     1      37.769  -2.470  73.305  1.00  0.00     0.072 A 
ATOM      7  C   UNL     1      38.485  -1.956  72.216  1.00  0.00     0.169 A 
ATOM      8  C   UNL     1      38.278  -0.632  71.785  1.00  0.00     0.162 A 
ATOM      9  C   UNL     1      37.297   0.170  72.403  1.00  0.00     0.008 A 
ATOM     10  C   UNL     1      36.091  -2.123  75.125  1.00  0.00     0.132 A 
ATOM     11  C   UNL     1      35.346  -1.232  75.924  1.00  0.00     0.031 A 
ENDROOT
BRANCH  11  12
ATOM     12  C   UNL     1      34.680  -1.725  77.162  1.00  0.00     0.031 A 
ATOM     13  C   UNL     1      33.293  -1.941  77.162  1.00  0.00     0.132 A 
ATOM     14  C   UNL     1      35.419  -1.912  78.339  1.00  0.00    -0.039 A 
ATOM     15  C   UNL     1      32.649  -2.474  78.314  1.00  0.00     0.039 A 
ATOM     16  C   UNL     1      34.753  -2.267  79.523  1.00  0.00     0.013 A 
ATOM     17  C   UNL     1      36.908  -1.658  78.375  1.00  0.00     0.045 C 
ATOM     18  C   UNL     1      33.367  -2.528  79.545  1.00  0.00    -0.006 A 
ATOM     19  C   UNL     1      31.314  -2.949  78.267  1.00  0.00     0.072 A 
ATOM     20  C   UNL     1      32.673  -2.850  80.758  1.00  0.00     0.008 A 
ATOM     21  C   UNL     1      30.595  -3.062  79.474  1.00  0.00     0.169 A 
ATOM     22  C   UNL     1      31.272  -3.018  80.703  1.00  0.00     0.162 A 
BRANCH  13  23
ATOM     23  O   UNL     1      32.569  -1.518  76.049  1.00  0.00    -0.507 OA
ATOM     24  H   UNL     1      31.600  -1.777  75.885  1.00  0.00     0.293 HD
ENDBRANCH  13  23
BRANCH  19  25
ATOM     25  C   UNL     1      30.788  -3.591  77.025  1.00  0.00     0.264 C 
ATOM     26  O   UNL     1      29.950  -3.014  76.286  1.00  0.00    -0.298 OA
ENDBRANCH  19  25
BRANCH  20  27
ATOM     27  C   UNL     1      33.360  -2.949  82.137  1.00  0.00     0.017 C 
ATOM     28  C   UNL     1      34.352  -4.125  82.261  1.00  0.00     0.012 C 
ATOM     29  C   UNL     1      33.952  -1.608  82.587  1.00  0.00     0.012 C 
ENDBRANCH  20  27
BRANCH  21  30
ATOM     30  O   UNL     1      29.206  -3.208  79.489  1.00  0.00    -0.504 OA
ATOM     31  H   UNL     1      28.672  -3.461  78.667  1.00  0.00     0.293 HD
ENDBRANCH  21  30
BRANCH  22  32
ATOM     32  O   UNL     1      30.539  -3.170  81.892  1.00  0.00    -0.504 OA
ATOM     33  H   UNL     1      30.491  -2.452  82.606  1.00  0.00     0.293 HD
ENDBRANCH  22  32
ENDBRANCH  11  12
BRANCH  10  34
ATOM     34  O   UNL     1      36.048  -3.496  75.400  1.00  0.00    -0.507 OA
ATOM     35  H   UNL     1      35.934  -3.881  76.333  1.00  0.00     0.293 HD
ENDBRANCH  10  34
BRANCH   9  36
ATOM     36  C   UNL     1      36.924   1.536  71.793  1.00  0.00     0.017 C 
ATOM     37  C   UNL     1      35.676   1.418  70.913  1.00  0.00     0.012 C 
ATOM     38  C   UNL     1      36.773   2.662  72.839  1.00  0.00     0.012 C 
ENDBRANCH   9  36
BRANCH   6  39
ATOM     39  C   UNL     1      38.084  -3.853  73.735  1.00  0.00     0.264 C 
ATOM     40  O   UNL     1      39.037  -4.079  74.533  1.00  0.00    -0.298 OA
ENDBRANCH   6  39
BRANCH   8  41
ATOM     41  O   UNL     1      39.052  -0.079  70.764  1.00  0.00    -0.504 OA
ATOM     42  H   UNL     1      39.324   0.895  70.711  1.00  0.00     0.293 HD
ENDBRANCH   8  41
BRANCH   7  43
ATOM     43  O   UNL     1      39.406  -2.795  71.571  1.00  0.00    -0.504 OA
ATOM     44  H   UNL     1      40.308  -2.508  71.217  1.00  0.00     0.293 HD
ENDBRANCH   7  43
TORSDOF 11
ENDMDL
MODEL 2
REMARK VINA RESULT:    -6.689      8.233     15.058
REMARK INTER + INTRA:         -10.763
REMARK INTER:                 -10.578
REMARK INTRA:                  -0.185
REMARK UNBOUND:                -0.946
REMARK SMILES Cc1cc2c(C(C)C)c(O)c(O)c(C=O)c2c(O)c1-c1c(C)cc2c(C(C)C)c(O)c(O)c(C=O)c2c1O
REMARK SMILES IDX 1 1 2 2 3 3 4 4 16 5 13 6 11 7 9 8 5 9 17 10 19 11 20 12
REMARK SMILES IDX 37 13 21 14 36 15 23 16 22 17 24 18 33 19 25 20 31 21 29 22
REMARK SMILES IDX 38 23 34 25 35 26 26 27 27 28 28 29 32 30 30 32 18 34 6 36
REMARK SMILES IDX 7 37 8 38 14 39 15 40 10 41 12 43
REMARK H PARENT 38 24 32 31 30 33 18 35 10 42 12 44
REMARK Flexibility Score: inf
ROOT
ATOM      1  C   UNL     1      25.016  -4.125  84.069  1.00  0.00     0.045 C 
ATOM      2  C   UNL     1      24.118  -2.927  84.258  1.00  0.00    -0.039 A 
ATOM      3  C   UNL     1      23.242  -2.889  85.350  1.00  0.00     0.013 A 
ATOM      4  C   UNL     1      22.436  -1.765  85.629  1.00  0.00    -0.006 A 
ATOM      5  C   UNL     1      22.601  -0.592  84.832  1.00  0.00     0.039 A 
ATOM      6  C   UNL     1      21.949   0.608  85.232  1.00  0.00     0.072 A 
ATOM      7  C   UNL     1      21.158   0.633  86.388  1.00  0.00     0.169 A 
ATOM      8  C   UNL     1      20.956  -0.540  87.140  1.00  0.00     0.162 A 
ATOM      9  C   UNL     1      21.491  -1.768  86.699  1.00  0.00     0.008 A 
ATOM     10  C   UNL     1      23.397  -0.675  83.651  1.00  0.00     0.132 A 
ATOM     11  C   UNL     1      24.174  -1.822  83.387  1.00  0.00     0.031 A 
ENDROOT
BRANCH  11  12
ATOM     12  C   UNL     1      25.122  -1.828  82.237  1.00  0.00     0.031 A 
ATOM     13  C   UNL     1      24.624  -1.963  80.932  1.00  0.00     0.132 A 
ATOM     14  C   UNL     1      26.505  -1.766  82.458  1.00  0.00    -0.039 A 
ATOM     15  C   UNL     1      25.507  -1.905  79.817  1.00  0.00     0.039 A 
ATOM     16  C   UNL     1      27.384  -1.888  81.370  1.00  0.00     0.013 A 
ATOM     17  C   UNL     1      27.069  -1.651  83.855  1.00  0.00     0.045 C 
ATOM     18  C   UNL     1      26.914  -1.986  80.044  1.00  0.00    -0.006 A 
ATOM     19  C   UNL     1      25.024  -1.772  78.491  1.00  0.00     0.072 A 
ATOM     20  C   UNL     1      27.803  -2.153  78.931  1.00  0.00     0.008 A 
ATOM     21  C   UNL     1      25.869  -2.140  77.424  1.00  0.00     0.169 A 
ATOM     22  C   UNL     1      27.243  -2.322  77.646  1.00  0.00     0.162 A 
BRANCH  13  23
ATOM     23  O   UNL     1      23.271  -2.259  80.778  1.00  0.00    -0.507 OA
ATOM     24  H   UNL     1      22.859  -2.533  79.891  1.00  0.00     0.293 HD
ENDBRANCH  13  23
BRANCH  19  25
ATOM     25  C   UNL     1      23.781  -0.990  78.219  1.00  0.00     0.264 C 
ATOM     26  O   UNL     1      23.602   0.157  78.702  1.00  0.00    -0.298 OA
ENDBRANCH  19  25
BRANCH  20  27
ATOM     27  C   UNL     1      29.338  -2.235  79.068  1.00  0.00     0.017 C 
ATOM     28  C   UNL     1      29.960  -1.074  79.871  1.00  0.00     0.012 C 
ATOM     29  C   UNL     1      29.804  -3.617  79.542  1.00  0.00     0.012 C 
ENDBRANCH  20  27
BRANCH  21  30
ATOM     30  O   UNL     1      25.373  -2.344  76.134  1.00  0.00    -0.504 OA
ATOM     31  H   UNL     1      25.263  -1.594  75.463  1.00  0.00     0.293 HD
ENDBRANCH  21  30
BRANCH  22  32
ATOM     32  O   UNL     1      28.071  -2.652  76.561  1.00  0.00    -0.504 OA
ATOM     33  H   UNL     1      27.870  -2.369  75.608  1.00  0.00     0.293 HD
ENDBRANCH  22  32
ENDBRANCH  11  12
BRANCH  10  34
ATOM     34  O   UNL     1      23.387   0.377  82.726  1.00  0.00    -0.507 OA
ATOM     35  H   UNL     1      23.696   1.321  82.942  1.00  0.00     0.293 HD
ENDBRANCH  10  34
BRANCH   9  36
ATOM     36  C   UNL     1      21.090  -3.080  87.401  1.00  0.00     0.017 C 
ATOM     37  C   UNL     1      20.081  -3.864  86.558  1.00  0.00     0.012 C 
ATOM     38  C   UNL     1      22.292  -3.960  87.807  1.00  0.00     0.012 C 
ENDBRANCH   9  36
BRANCH   6  39
ATOM     39  C   UNL     1      22.161   1.895  84.527  1.00  0.00     0.264 C 
ATOM     40  O   UNL     1      21.181   2.556  84.082  1.00  0.00    -0.298 OA
ENDBRANCH   6  39
BRANCH   8  41
ATOM     41  O   UNL     1      20.251  -0.510  88.344  1.00  0.00    -0.504 OA
ATOM     42  H   UNL     1      20.673  -0.386  89.255  1.00  0.00     0.293 HD
ENDBRANCH   8  41
BRANCH   7  43
ATOM     43  O   UNL     1      20.576   1.850  86.770  1.00  0.00    -0.504 OA
ATOM     44  H   UNL     1      19.606   2.099  86.639  1.00  0.00     0.293 HD
ENDBRANCH   7  43
TORSDOF 11
ENDMDL
MODEL 3
REMARK VINA RESULT:    -6.384      7.875     12.193
REMARK INTER + INTRA:         -10.315
REMARK INTER:                  -9.824
REMARK INTRA:                  -0.491
REMARK UNBOUND:                -0.946
REMARK SMILES Cc1cc2c(C(C)C)c(O)c(O)c(C=O)c2c(O)c1-c1c(C)cc2c(C(C)C)c(O)c(O)c(C=O)c2c1O
REMARK SMILES IDX 1 1 2 2 3 3 4 4 16 5 13 6 11 7 9 8 5 9 17 10 19 11 20 12
REMARK SMILES IDX 37 13 21 14 36 15 23 16 22 17 24 18 33 19 25 20 31 21 29 22
REMARK SMILES IDX 38 23 34 25 35 26 26 27 27 28 28 29 32 30 30 32 18 34 6 36
REMARK SMILES IDX 7 37 8 38 14 39 15 40 10 41 12 43
REMARK H PARENT 38 24 32 31 30 33 18 35 10 42 12 44
REMARK Flexibility Score: inf
ROOT
ATOM      1  C   UNL     1      27.008  -1.985  83.747  1.00  0.00     0.045 C 
ATOM      2  C   UNL     1      26.742  -1.980  82.262  1.00  0.00    -0.039 A 
ATOM      3  C   UNL     1      27.796  -2.221  81.373  1.00  0.00     0.013 A 
ATOM      4  C   UNL     1      27.599  -2.311  79.979  1.00  0.00    -0.006 A 
ATOM      5  C   UNL     1      26.265  -2.260  79.473  1.00  0.00     0.039 A 
ATOM      6  C   UNL     1      26.038  -2.556  78.100  1.00  0.00     0.072 A 
ATOM      7  C   UNL     1      27.109  -2.890  77.262  1.00  0.00     0.169 A 
ATOM      8  C   UNL     1      28.429  -2.887  77.753  1.00  0.00     0.162 A 
ATOM      9  C   UNL     1      28.692  -2.479  79.076  1.00  0.00     0.008 A 
ATOM     10  C   UNL     1      25.211  -1.891  80.363  1.00  0.00     0.132 A 
ATOM     11  C   UNL     1      25.445  -1.786  81.749  1.00  0.00     0.031 A 
ENDROOT
BRANCH  11  12
ATOM     12  C   UNL     1      24.303  -1.560  82.680  1.00  0.00     0.031 A 
ATOM     13  C   UNL     1      23.732  -0.281  82.776  1.00  0.00     0.132 A 
ATOM     14  C   UNL     1      23.841  -2.597  83.501  1.00  0.00    -0.039 A 
ATOM     15  C   UNL     1      22.600  -0.060  83.609  1.00  0.00     0.039 A 
ATOM     16  C   UNL     1      22.841  -2.333  84.451  1.00  0.00     0.013 A 
ATOM     17  C   UNL     1      24.457  -3.976  83.440  1.00  0.00     0.045 C 
ATOM     18  C   UNL     1      22.223  -1.069  84.545  1.00  0.00    -0.006 A 
ATOM     19  C   UNL     1      21.842   1.135  83.533  1.00  0.00     0.072 A 
ATOM     20  C   UNL     1      21.231  -0.779  85.539  1.00  0.00     0.008 A 
ATOM     21  C   UNL     1      21.025   1.487  84.626  1.00  0.00     0.169 A 
ATOM     22  C   UNL     1      20.722   0.536  85.613  1.00  0.00     0.162 A 
BRANCH  13  23
ATOM     23  O   UNL     1      24.374   0.769  82.120  1.00  0.00    -0.507 OA
ATOM     24  H   UNL     1      25.375   0.933  82.180  1.00  0.00     0.293 HD
ENDBRANCH  13  23
BRANCH  19  25
ATOM     25  C   UNL     1      21.679   1.840  82.226  1.00  0.00     0.264 C 
ATOM     26  O   UNL     1      20.739   2.651  82.024  1.00  0.00    -0.298 OA
ENDBRANCH  19  25
BRANCH  20  27
ATOM     27  C   UNL     1      20.743  -1.804  86.585  1.00  0.00     0.017 C 
ATOM     28  C   UNL     1      19.918  -2.964  85.990  1.00  0.00     0.012 C 
ATOM     29  C   UNL     1      21.875  -2.276  87.505  1.00  0.00     0.012 C 
ENDBRANCH  20  27
BRANCH  21  30
ATOM     30  O   UNL     1      20.507   2.777  84.769  1.00  0.00    -0.504 OA
ATOM     31  H   UNL     1      21.093   3.595  84.876  1.00  0.00     0.293 HD
ENDBRANCH  21  30
BRANCH  22  32
ATOM     32  O   UNL     1      19.875   0.899  86.673  1.00  0.00    -0.504 OA
ATOM     33  H   UNL     1      19.826   0.379  87.542  1.00  0.00     0.293 HD
ENDBRANCH  22  32
ENDBRANCH  11  12
BRANCH  10  34
ATOM     34  O   UNL     1      23.938  -1.600  79.854  1.00  0.00    -0.507 OA
ATOM     35  H   UNL     1      23.146  -2.232  79.921  1.00  0.00     0.293 HD
ENDBRANCH  10  34
BRANCH   9  36
ATOM     36  C   UNL     1      30.147  -2.269  79.542  1.00  0.00     0.017 C 
ATOM     37  C   UNL     1      30.779  -3.595  79.973  1.00  0.00     0.012 C 
ATOM     38  C   UNL     1      31.028  -1.532  78.511  1.00  0.00     0.012 C 
ENDBRANCH   9  36
BRANCH   6  39
ATOM     39  C   UNL     1      24.674  -2.639  77.525  1.00  0.00     0.264 C 
ATOM     40  O   UNL     1      24.097  -3.755  77.391  1.00  0.00    -0.298 OA
ENDBRANCH   6  39
BRANCH   8  41
ATOM     41  O   UNL     1      29.494  -3.310  76.956  1.00  0.00    -0.504 OA
ATOM     42  H   UNL     1      29.460  -3.396  75.948  1.00  0.00     0.293 HD
ENDBRANCH   8  41
BRANCH   7  43
ATOM     43  O   UNL     1      26.831  -3.224  75.928  1.00  0.00    -0.504 OA
ATOM     44  H   UNL     1      25.957  -3.603  75.592  1.00  0.00     0.293 HD
ENDBRANCH   7  43
TORSDOF 11
ENDMDL
MODEL 4
REMARK VINA RESULT:    -6.314      7.924     12.287
REMARK INTER + INTRA:         -10.213
REMARK INTER:                 -10.136
REMARK INTRA:                  -0.078
REMARK UNBOUND:                -0.946
REMARK SMILES Cc1cc2c(C(C)C)c(O)c(O)c(C=O)c2c(O)c1-c1c(C)cc2c(C(C)C)c(O)c(O)c(C=O)c2c1O
REMARK SMILES IDX 1 1 2 2 3 3 4 4 16 5 13 6 11 7 9 8 5 9 17 10 19 11 20 12
REMARK SMILES IDX 37 13 21 14 36 15 23 16 22 17 24 18 33 19 25 20 31 21 29 22
REMARK SMILES IDX 38 23 34 25 35 26 26 27 27 28 28 29 32 30 30 32 18 34 6 36
REMARK SMILES IDX 7 37 8 38 14 39 15 40 10 41 12 43
REMARK H PARENT 38 24 32 31 30 33 18 35 10 42 12 44
REMARK Flexibility Score: inf
ROOT
ATOM      1  C   UNL     1      23.460  -1.131  80.705  1.00  0.00     0.045 C 
ATOM      2  C   UNL     1      24.785  -1.821  80.919  1.00  0.00    -0.039 A 
ATOM      3  C   UNL     1      25.492  -2.311  79.814  1.00  0.00     0.013 A 
ATOM      4  C   UNL     1      26.771  -2.893  79.937  1.00  0.00    -0.006 A 
ATOM      5  C   UNL     1      27.406  -2.881  81.215  1.00  0.00     0.039 A 
ATOM      6  C   UNL     1      28.772  -3.272  81.309  1.00  0.00     0.072 A 
ATOM      7  C   UNL     1      29.476  -3.664  80.163  1.00  0.00     0.169 A 
ATOM      8  C   UNL     1      28.829  -3.725  78.913  1.00  0.00     0.162 A 
ATOM      9  C   UNL     1      27.448  -3.459  78.815  1.00  0.00     0.008 A 
ATOM     10  C   UNL     1      26.639  -2.497  82.356  1.00  0.00     0.132 A 
ATOM     11  C   UNL     1      25.352  -1.940  82.202  1.00  0.00     0.031 A 
ENDROOT
BRANCH  11  12
ATOM     12  C   UNL     1      24.632  -1.396  83.387  1.00  0.00     0.031 A 
ATOM     13  C   UNL     1      23.844  -2.254  84.171  1.00  0.00     0.132 A 
ATOM     14  C   UNL     1      24.687  -0.027  83.684  1.00  0.00    -0.039 A 
ATOM     15  C   UNL     1      23.201  -1.767  85.344  1.00  0.00     0.039 A 
ATOM     16  C   UNL     1      23.910   0.483  84.737  1.00  0.00     0.013 A 
ATOM     17  C   UNL     1      25.503   0.923  82.839  1.00  0.00     0.045 C 
ATOM     18  C   UNL     1      23.139  -0.359  85.565  1.00  0.00    -0.006 A 
ATOM     19  C   UNL     1      22.623  -2.646  86.294  1.00  0.00     0.072 A 
ATOM     20  C   UNL     1      22.311   0.158  86.615  1.00  0.00     0.008 A 
ATOM     21  C   UNL     1      21.658  -2.135  87.185  1.00  0.00     0.169 A 
ATOM     22  C   UNL     1      21.510  -0.749  87.344  1.00  0.00     0.162 A 
BRANCH  13  23
ATOM     23  O   UNL     1      23.630  -3.550  83.704  1.00  0.00    -0.507 OA
ATOM     24  H   UNL     1      22.777  -3.837  83.232  1.00  0.00     0.293 HD
ENDBRANCH  13  23
BRANCH  19  25
ATOM     25  C   UNL     1      23.230  -3.988  86.544  1.00  0.00     0.264 C 
ATOM     26  O   UNL     1      24.455  -4.125  86.790  1.00  0.00    -0.298 OA
ENDBRANCH  19  25
BRANCH  20  27
ATOM     27  C   UNL     1      22.186   1.660  86.945  1.00  0.00     0.017 C 
ATOM     28  C   UNL     1      20.947   2.339  86.324  1.00  0.00     0.012 C 
ATOM     29  C   UNL     1      22.340   1.939  88.446  1.00  0.00     0.012 C 
ENDBRANCH  20  27
BRANCH  21  30
ATOM     30  O   UNL     1      20.820  -2.979  87.920  1.00  0.00    -0.504 OA
ATOM     31  H   UNL     1      21.159  -3.791  88.418  1.00  0.00     0.293 HD
ENDBRANCH  21  30
BRANCH  22  32
ATOM     32  O   UNL     1      20.567  -0.264  88.265  1.00  0.00    -0.504 OA
ATOM     33  H   UNL     1      20.642  -0.419  89.264  1.00  0.00     0.293 HD
ENDBRANCH  22  32
ENDBRANCH  11  12
BRANCH  10  34
ATOM     34  O   UNL     1      27.152  -2.700  83.643  1.00  0.00    -0.507 OA
ATOM     35  H   UNL     1      27.635  -1.984  84.178  1.00  0.00     0.293 HD
ENDBRANCH  10  34
BRANCH   9  36
ATOM     36  C   UNL     1      26.703  -3.737  77.494  1.00  0.00     0.017 C 
ATOM     37  C   UNL     1      25.244  -4.117  77.760  1.00  0.00     0.012 C 
ATOM     38  C   UNL     1      26.809  -2.587  76.469  1.00  0.00     0.012 C 
ENDBRANCH   9  36
BRANCH   6  39
ATOM     39  C   UNL     1      29.535  -3.177  82.576  1.00  0.00     0.264 C 
ATOM     40  O   UNL     1      30.781  -2.966  82.564  1.00  0.00    -0.298 OA
ENDBRANCH   6  39
BRANCH   8  41
ATOM     41  O   UNL     1      29.540  -4.020  77.749  1.00  0.00    -0.504 OA
ATOM     42  H   UNL     1      30.474  -4.411  77.729  1.00  0.00     0.293 HD
ENDBRANCH   8  41
BRANCH   7  43
ATOM     43  O   UNL     1      30.833  -3.993  80.296  1.00  0.00    -0.504 OA
ATOM     44  H   UNL     1      31.605  -3.377  80.084  1.00  0.00     0.293 HD
ENDBRANCH   7  43
TORSDOF 11
ENDMDL
MODEL 5
REMARK VINA RESULT:    -6.241      4.050     10.964
REMARK INTER + INTRA:         -10.106
REMARK INTER:                  -9.159
REMARK INTRA:                  -0.947
REMARK UNBOUND:                -0.946
REMARK SMILES Cc1cc2c(C(C)C)c(O)c(O)c(C=O)c2c(O)c1-c1c(C)cc2c(C(C)C)c(O)c(O)c(C=O)c2c1O
REMARK SMILES IDX 1 1 2 2 3 3 4 4 16 5 13 6 11 7 9 8 5 9 17 10 19 11 20 12
REMARK SMILES IDX 37 13 21 14 36 15 23 16 22 17 24 18 33 19 25 20 31 21 29 22
REMARK SMILES IDX 38 23 34 25 35 26 26 27 27 28 28 29 32 30 30 32 18 34 6 36
REMARK SMILES IDX 7 37 8 38 14 39 15 40 10 41 12 43
REMARK H PARENT 38 24 32 31 30 33 18 35 10 42 12 44
REMARK Flexibility Score: inf
ROOT
ATOM      1  C   UNL     1      30.728  -3.553  81.755  1.00  0.00     0.045 C 
ATOM      2  C   UNL     1      29.423  -2.924  81.332  1.00  0.00    -0.039 A 
ATOM      3  C   UNL     1      28.343  -2.913  82.223  1.00  0.00     0.013 A 
ATOM      4  C   UNL     1      27.124  -2.271  81.920  1.00  0.00    -0.006 A 
ATOM      5  C   UNL     1      27.032  -1.518  80.710  1.00  0.00     0.039 A 
ATOM      6  C   UNL     1      25.887  -0.700  80.495  1.00  0.00     0.072 A 
ATOM      7  C   UNL     1      24.871  -0.638  81.457  1.00  0.00     0.169 A 
ATOM      8  C   UNL     1      24.942  -1.423  82.623  1.00  0.00     0.162 A 
ATOM      9  C   UNL     1      26.005  -2.332  82.803  1.00  0.00     0.008 A 
ATOM     10  C   UNL     1      28.083  -1.634  79.751  1.00  0.00     0.132 A 
ATOM     11  C   UNL     1      29.280  -2.304  80.076  1.00  0.00     0.031 A 
ENDROOT
BRANCH  11  12
ATOM     12  C   UNL     1      30.428  -2.276  79.125  1.00  0.00     0.031 A 
ATOM     13  C   UNL     1      31.459  -1.343  79.312  1.00  0.00     0.132 A 
ATOM     14  C   UNL     1      30.448  -3.131  78.014  1.00  0.00    -0.039 A 
ATOM     15  C   UNL     1      32.594  -1.344  78.454  1.00  0.00     0.039 A 
ATOM     16  C   UNL     1      31.480  -3.010  77.069  1.00  0.00     0.013 A 
ATOM     17  C   UNL     1      29.336  -4.125  77.771  1.00  0.00     0.045 C 
ATOM     18  C   UNL     1      32.549  -2.108  77.250  1.00  0.00    -0.006 A 
ATOM     19  C   UNL     1      33.762  -0.605  78.764  1.00  0.00     0.072 A 
ATOM     20  C   UNL     1      33.585  -1.949  76.270  1.00  0.00     0.008 A 
ATOM     21  C   UNL     1      34.662  -0.296  77.724  1.00  0.00     0.169 A 
ATOM     22  C   UNL     1      34.573  -0.966  76.494  1.00  0.00     0.162 A 
BRANCH  13  23
ATOM     23  O   UNL     1      31.279  -0.361  80.286  1.00  0.00    -0.507 OA
ATOM     24  H   UNL     1      30.756   0.495  80.123  1.00  0.00     0.293 HD
ENDBRANCH  13  23
BRANCH  19  25
ATOM     25  C   UNL     1      34.179  -0.419  80.187  1.00  0.00     0.264 C 
ATOM     26  O   UNL     1      34.770   0.622  80.573  1.00  0.00    -0.298 OA
ENDBRANCH  19  25
BRANCH  20  27
ATOM     27  C   UNL     1      33.637  -2.739  74.945  1.00  0.00     0.017 C 
ATOM     28  C   UNL     1      33.648  -1.849  73.684  1.00  0.00     0.012 C 
ATOM     29  C   UNL     1      34.744  -3.801  74.946  1.00  0.00     0.012 C 
ENDBRANCH  20  27
BRANCH  21  30
ATOM     30  O   UNL     1      35.650   0.681  77.876  1.00  0.00    -0.504 OA
ATOM     31  H   UNL     1      36.572   0.597  77.468  1.00  0.00     0.293 HD
ENDBRANCH  21  30
BRANCH  22  32
ATOM     32  O   UNL     1      35.504  -0.669  75.486  1.00  0.00    -0.504 OA
ATOM     33  H   UNL     1      36.055  -1.379  75.017  1.00  0.00     0.293 HD
ENDBRANCH  22  32
ENDBRANCH  11  12
BRANCH  10  34
ATOM     34  O   UNL     1      27.916  -1.105  78.465  1.00  0.00    -0.507 OA
ATOM     35  H   UNL     1      27.214  -1.432  77.807  1.00  0.00     0.293 HD
ENDBRANCH  10  34
BRANCH   9  36
ATOM     36  C   UNL     1      25.967  -3.340  83.969  1.00  0.00     0.017 C 
ATOM     37  C   UNL     1      26.320  -2.656  85.293  1.00  0.00     0.012 C 
ATOM     38  C   UNL     1      24.639  -4.119  84.073  1.00  0.00     0.012 C 
ENDBRANCH   9  36
BRANCH   6  39
ATOM     39  C   UNL     1      25.769   0.199  79.322  1.00  0.00     0.264 C 
ATOM     40  O   UNL     1      25.017  -0.102  78.352  1.00  0.00    -0.298 OA
ENDBRANCH   6  39
BRANCH   8  41
ATOM     41  O   UNL     1      23.986  -1.300  83.633  1.00  0.00    -0.504 OA
ATOM     42  H   UNL     1      23.772  -2.018  84.313  1.00  0.00     0.293 HD
ENDBRANCH   8  41
BRANCH   7  43
ATOM     43  O   UNL     1      23.786   0.221  81.224  1.00  0.00    -0.504 OA
ATOM     44  H   UNL     1      22.845   0.075  81.560  1.00  0.00     0.293 HD
ENDBRANCH   7  43
TORSDOF 11
ENDMDL
MODEL 6
REMARK VINA RESULT:    -6.204      4.088      6.920
REMARK INTER + INTRA:         -10.052
REMARK INTER:                  -9.197
REMARK INTRA:                  -0.854
REMARK UNBOUND:                -0.946
REMARK SMILES Cc1cc2c(C(C)C)c(O)c(O)c(C=O)c2c(O)c1-c1c(C)cc2c(C(C)C)c(O)c(O)c(C=O)c2c1O
REMARK SMILES IDX 1 1 2 2 3 3 4 4 16 5 13 6 11 7 9 8 5 9 17 10 19 11 20 12
REMARK SMILES IDX 37 13 21 14 36 15 23 16 22 17 24 18 33 19 25 20 31 21 29 22
REMARK SMILES IDX 38 23 34 25 35 26 26 27 27 28 28 29 32 30 30 32 18 34 6 36
REMARK SMILES IDX 7 37 8 38 14 39 15 40 10 41 12 43
REMARK H PARENT 38 24 32 31 30 33 18 35 10 42 12 44
REMARK Flexibility Score: inf
ROOT
ATOM      1  C   UNL     1      28.918  -3.382  77.518  1.00  0.00     0.045 C 
ATOM      2  C   UNL     1      30.233  -2.790  77.961  1.00  0.00    -0.039 A 
ATOM      3  C   UNL     1      31.301  -2.731  77.058  1.00  0.00     0.013 A 
ATOM      4  C   UNL     1      32.529  -2.117  77.383  1.00  0.00    -0.006 A 
ATOM      5  C   UNL     1      32.644  -1.442  78.636  1.00  0.00     0.039 A 
ATOM      6  C   UNL     1      33.798  -0.646  78.885  1.00  0.00     0.072 A 
ATOM      7  C   UNL     1      34.802  -0.533  77.915  1.00  0.00     0.169 A 
ATOM      8  C   UNL     1      34.709  -1.244  76.704  1.00  0.00     0.162 A 
ATOM      9  C   UNL     1      33.637  -2.132  76.483  1.00  0.00     0.008 A 
ATOM     10  C   UNL     1      31.605  -1.609  79.600  1.00  0.00     0.132 A 
ATOM     11  C   UNL     1      30.397  -2.249  79.251  1.00  0.00     0.031 A 
ENDROOT
BRANCH  11  12
ATOM     12  C   UNL     1      29.263  -2.272  80.217  1.00  0.00     0.031 A 
ATOM     13  C   UNL     1      28.207  -1.360  80.066  1.00  0.00     0.132 A 
ATOM     14  C   UNL     1      29.278  -3.153  81.308  1.00  0.00    -0.039 A 
ATOM     15  C   UNL     1      27.085  -1.409  80.939  1.00  0.00     0.039 A 
ATOM     16  C   UNL     1      28.257  -3.080  82.269  1.00  0.00     0.013 A 
ATOM     17  C   UNL     1      30.417  -4.124  81.512  1.00  0.00     0.045 C 
ATOM     18  C   UNL     1      27.164  -2.200  82.124  1.00  0.00    -0.006 A 
ATOM     19  C   UNL     1      25.894  -0.692  80.661  1.00  0.00     0.072 A 
ATOM     20  C   UNL     1      26.139  -2.090  83.120  1.00  0.00     0.008 A 
ATOM     21  C   UNL     1      25.001  -0.430  81.720  1.00  0.00     0.169 A 
ATOM     22  C   UNL     1      25.123  -1.127  82.933  1.00  0.00     0.162 A 
BRANCH  13  23
ATOM     23  O   UNL     1      28.349  -0.352  79.114  1.00  0.00    -0.507 OA
ATOM     24  H   UNL     1      28.874  -0.471  78.251  1.00  0.00     0.293 HD
ENDBRANCH  13  23
BRANCH  19  25
ATOM     25  C   UNL     1      25.454  -0.484  79.249  1.00  0.00     0.264 C 
ATOM     26  O   UNL     1      25.368   0.665  78.745  1.00  0.00    -0.298 OA
ENDBRANCH  19  25
BRANCH  20  27
ATOM     27  C   UNL     1      26.124  -2.911  84.427  1.00  0.00     0.017 C 
ATOM     28  C   UNL     1      26.001  -2.056  85.705  1.00  0.00     0.012 C 
ATOM     29  C   UNL     1      25.118  -4.068  84.373  1.00  0.00     0.012 C 
ENDBRANCH  20  27
BRANCH  21  30
ATOM     30  O   UNL     1      23.988   0.526  81.605  1.00  0.00    -0.504 OA
ATOM     31  H   UNL     1      23.027   0.341  81.862  1.00  0.00     0.293 HD
ENDBRANCH  21  30
BRANCH  22  32
ATOM     32  O   UNL     1      24.200  -0.876  83.960  1.00  0.00    -0.504 OA
ATOM     33  H   UNL     1      23.568  -0.083  83.952  1.00  0.00     0.293 HD
ENDBRANCH  22  32
ENDBRANCH  11  12
BRANCH  10  34
ATOM     34  O   UNL     1      31.793  -1.162  80.914  1.00  0.00    -0.507 OA
ATOM     35  H   UNL     1      32.558  -0.558  81.201  1.00  0.00     0.293 HD
ENDBRANCH  10  34
BRANCH   9  36
ATOM     36  C   UNL     1      33.651  -3.066  75.256  1.00  0.00     0.017 C 
ATOM     37  C   UNL     1      33.611  -2.260  73.955  1.00  0.00     0.012 C 
ATOM     38  C   UNL     1      34.819  -4.076  75.259  1.00  0.00     0.012 C 
ENDBRANCH   9  36
BRANCH   6  39
ATOM     39  C   UNL     1      33.938   0.177  80.110  1.00  0.00     0.264 C 
ATOM     40  O   UNL     1      34.691  -0.194  81.054  1.00  0.00    -0.298 OA
ENDBRANCH   6  39
BRANCH   8  41
ATOM     41  O   UNL     1      35.653  -1.066  75.691  1.00  0.00    -0.504 OA
ATOM     42  H   UNL     1      35.541  -0.440  74.904  1.00  0.00     0.293 HD
ENDBRANCH   8  41
BRANCH   7  43
ATOM     43  O   UNL     1      35.896   0.302  78.186  1.00  0.00    -0.504 OA
ATOM     44  H   UNL     1      36.206   1.065  77.600  1.00  0.00     0.293 HD
ENDBRANCH   7  43
TORSDOF 11
ENDMDL
MODEL 7
REMARK VINA RESULT:    -5.708     15.272     18.496
REMARK INTER + INTRA:          -9.323
REMARK INTER:                  -8.637
REMARK INTRA:                  -0.686
REMARK UNBOUND:                -0.946
REMARK SMILES Cc1cc2c(C(C)C)c(O)c(O)c(C=O)c2c(O)c1-c1c(C)cc2c(C(C)C)c(O)c(O)c(C=O)c2c1O
REMARK SMILES IDX 1 1 2 2 3 3 4 4 16 5 13 6 11 7 9 8 5 9 17 10 19 11 20 12
REMARK SMILES IDX 37 13 21 14 36 15 23 16 22 17 24 18 33 19 25 20 31 21 29 22
REMARK SMILES IDX 38 23 34 25 35 26 26 27 27 28 28 29 32 30 30 32 18 34 6 36
REMARK SMILES IDX 7 37 8 38 14 39 15 40 10 41 12 43
REMARK H PARENT 38 24 32 31 30 33 18 35 10 42 12 44
REMARK Flexibility Score: inf
ROOT
ATOM      1  C   UNL     1      28.257  15.940  81.388  1.00  0.00     0.045 C 
ATOM      2  C   UNL     1      27.586  15.058  80.363  1.00  0.00    -0.039 A 
ATOM      3  C   UNL     1      26.192  15.085  80.238  1.00  0.00     0.013 A 
ATOM      4  C   UNL     1      25.510  14.347  79.247  1.00  0.00    -0.006 A 
ATOM      5  C   UNL     1      26.279  13.638  78.275  1.00  0.00     0.039 A 
ATOM      6  C   UNL     1      25.612  13.066  77.155  1.00  0.00     0.072 A 
ATOM      7  C   UNL     1      24.225  13.199  77.014  1.00  0.00     0.169 A 
ATOM      8  C   UNL     1      23.465  13.853  78.003  1.00  0.00     0.162 A 
ATOM      9  C   UNL     1      24.085  14.321  79.179  1.00  0.00     0.008 A 
ATOM     10  C   UNL     1      27.686  13.511  78.477  1.00  0.00     0.132 A 
ATOM     11  C   UNL     1      28.335  14.243  79.492  1.00  0.00     0.031 A 
ENDROOT
BRANCH  11  12
ATOM     12  C   UNL     1      29.823  14.224  79.586  1.00  0.00     0.031 A 
ATOM     13  C   UNL     1      30.446  13.369  80.507  1.00  0.00     0.132 A 
ATOM     14  C   UNL     1      30.593  15.099  78.808  1.00  0.00    -0.039 A 
ATOM     15  C   UNL     1      31.866  13.288  80.566  1.00  0.00     0.039 A 
ATOM     16  C   UNL     1      31.984  15.146  78.993  1.00  0.00     0.013 A 
ATOM     17  C   UNL     1      29.946  16.052  77.830  1.00  0.00     0.045 C 
ATOM     18  C   UNL     1      32.643  14.272  79.884  1.00  0.00    -0.006 A 
ATOM     19  C   UNL     1      32.524  12.259  81.284  1.00  0.00     0.072 A 
ATOM     20  C   UNL     1      34.057  14.340  80.110  1.00  0.00     0.008 A 
ATOM     21  C   UNL     1      33.868  12.454  81.664  1.00  0.00     0.169 A 
ATOM     22  C   UNL     1      34.623  13.481  81.077  1.00  0.00     0.162 A 
BRANCH  13  23
ATOM     23  O   UNL     1      29.637  12.694  81.420  1.00  0.00    -0.507 OA
ATOM     24  H   UNL     1      28.655  12.912  81.560  1.00  0.00     0.293 HD
ENDBRANCH  13  23
BRANCH  19  25
ATOM     25  C   UNL     1      31.916  10.898  81.375  1.00  0.00     0.264 C 
ATOM     26  O   UNL     1      31.527  10.278  80.352  1.00  0.00    -0.298 OA
ENDBRANCH  19  25
BRANCH  20  27
ATOM     27  C   UNL     1      34.987  15.355  79.411  1.00  0.00     0.017 C 
ATOM     28  C   UNL     1      35.914  16.125  80.375  1.00  0.00     0.012 C 
ATOM     29  C   UNL     1      35.732  14.735  78.222  1.00  0.00     0.012 C 
ENDBRANCH  20  27
BRANCH  21  30
ATOM     30  O   UNL     1      34.480  11.652  82.631  1.00  0.00    -0.504 OA
ATOM     31  H   UNL     1      35.483  11.599  82.745  1.00  0.00     0.293 HD
ENDBRANCH  21  30
BRANCH  22  32
ATOM     32  O   UNL     1      35.970  13.633  81.444  1.00  0.00    -0.504 OA
ATOM     33  H   UNL     1      36.701  13.857  80.778  1.00  0.00     0.293 HD
ENDBRANCH  22  32
ENDBRANCH  11  12
BRANCH  10  34
ATOM     34  O   UNL     1      28.429  12.630  77.681  1.00  0.00    -0.507 OA
ATOM     35  H   UNL     1      28.926  12.910  76.840  1.00  0.00     0.293 HD
ENDBRANCH  10  34
BRANCH   9  36
ATOM     36  C   UNL     1      23.224  14.839  80.349  1.00  0.00     0.017 C 
ATOM     37  C   UNL     1      22.480  16.117  79.955  1.00  0.00     0.012 C 
ATOM     38  C   UNL     1      22.261  13.780  80.927  1.00  0.00     0.012 C 
ENDBRANCH   9  36
BRANCH   6  39
ATOM     39  C   UNL     1      26.349  12.417  76.045  1.00  0.00     0.264 C 
ATOM     40  O   UNL     1      26.160  12.774  74.848  1.00  0.00    -0.298 OA
ENDBRANCH   6  39
BRANCH   8  41
ATOM     41  O   UNL     1      22.099  14.076  77.830  1.00  0.00    -0.504 OA
ATOM     42  H   UNL     1      21.504  13.548  77.203  1.00  0.00     0.293 HD
ENDBRANCH   8  41
BRANCH   7  43
ATOM     43  O   UNL     1      23.619  12.662  75.868  1.00  0.00    -0.504 OA
ATOM     44  H   UNL     1      24.087  12.479  74.992  1.00  0.00     0.293 HD
ENDBRANCH   7  43
TORSDOF 11
ENDMDL
MODEL 8
REMARK VINA RESULT:    -5.429      7.718     12.373
REMARK INTER + INTRA:          -8.914
REMARK INTER:                  -9.127
REMARK INTRA:                   0.213
REMARK UNBOUND:                -0.946
REMARK SMILES Cc1cc2c(C(C)C)c(O)c(O)c(C=O)c2c(O)c1-c1c(C)cc2c(C(C)C)c(O)c(O)c(C=O)c2c1O
REMARK SMILES IDX 1 1 2 2 3 3 4 4 16 5 13 6 11 7 9 8 5 9 17 10 19 11 20 12
REMARK SMILES IDX 37 13 21 14 36 15 23 16 22 17 24 18 33 19 25 20 31 21 29 22
REMARK SMILES IDX 38 23 34 25 35 26 26 27 27 28 28 29 32 30 30 32 18 34 6 36
REMARK SMILES IDX 7 37 8 38 14 39 15 40 10 41 12 43
REMARK H PARENT 38 24 32 31 30 33 18 35 10 42 12 44
REMARK Flexibility Score: inf
ROOT
ATOM      1  C   UNL     1      27.174  -3.486  84.529  1.00  0.00     0.045 C 
ATOM      2  C   UNL     1      27.067  -2.906  83.139  1.00  0.00    -0.039 A 
ATOM      3  C   UNL     1      28.119  -3.088  82.235  1.00  0.00     0.013 A 
ATOM      4  C   UNL     1      28.049  -2.643  80.898  1.00  0.00    -0.006 A 
ATOM      5  C   UNL     1      26.821  -2.085  80.429  1.00  0.00     0.039 A 
ATOM      6  C   UNL     1      26.670  -1.827  79.037  1.00  0.00     0.072 A 
ATOM      7  C   UNL     1      27.713  -2.115  78.147  1.00  0.00     0.169 A 
ATOM      8  C   UNL     1      28.940  -2.614  78.622  1.00  0.00     0.162 A 
ATOM      9  C   UNL     1      29.157  -2.764  80.007  1.00  0.00     0.008 A 
ATOM     10  C   UNL     1      25.798  -1.788  81.379  1.00  0.00     0.132 A 
ATOM     11  C   UNL     1      25.909  -2.226  82.715  1.00  0.00     0.031 A 
ENDROOT
BRANCH  11  12
ATOM     12  C   UNL     1      24.764  -2.049  83.652  1.00  0.00     0.031 A 
ATOM     13  C   UNL     1      24.786  -0.996  84.579  1.00  0.00     0.132 A 
ATOM     14  C   UNL     1      23.701  -2.964  83.653  1.00  0.00    -0.039 A 
ATOM     15  C   UNL     1      23.673  -0.772  85.437  1.00  0.00     0.039 A 
ATOM     16  C   UNL     1      22.689  -2.845  84.619  1.00  0.00     0.013 A 
ATOM     17  C   UNL     1      23.667  -4.124  82.686  1.00  0.00     0.045 C 
ATOM     18  C   UNL     1      22.664  -1.776  85.539  1.00  0.00    -0.006 A 
ATOM     19  C   UNL     1      23.544   0.421  86.192  1.00  0.00     0.072 A 
ATOM     20  C   UNL     1      21.658  -1.669  86.555  1.00  0.00     0.008 A 
ATOM     21  C   UNL     1      22.688   0.423  87.312  1.00  0.00     0.169 A 
ATOM     22  C   UNL     1      21.754  -0.611  87.485  1.00  0.00     0.162 A 
BRANCH  13  23
ATOM     23  O   UNL     1      25.963  -0.260  84.700  1.00  0.00    -0.507 OA
ATOM     24  H   UNL     1      26.710  -0.288  84.012  1.00  0.00     0.293 HD
ENDBRANCH  13  23
BRANCH  19  25
ATOM     25  C   UNL     1      24.059   1.714  85.649  1.00  0.00     0.264 C 
ATOM     26  O   UNL     1      23.464   2.803  85.855  1.00  0.00    -0.298 OA
ENDBRANCH  19  25
BRANCH  20  27
ATOM     27  C   UNL     1      20.517  -2.693  86.739  1.00  0.00     0.017 C 
ATOM     28  C   UNL     1      19.876  -3.163  85.417  1.00  0.00     0.012 C 
ATOM     29  C   UNL     1      20.919  -3.850  87.662  1.00  0.00     0.012 C 
ENDBRANCH  20  27
BRANCH  21  30
ATOM     30  O   UNL     1      22.747   1.430  88.279  1.00  0.00    -0.504 OA
ATOM     31  H   UNL     1      23.547   2.040  88.387  1.00  0.00     0.293 HD
ENDBRANCH  21  30
BRANCH  22  32
ATOM     32  O   UNL     1      20.886  -0.569  88.588  1.00  0.00    -0.504 OA
ATOM     33  H   UNL     1      19.878  -0.511  88.495  1.00  0.00     0.293 HD
ENDBRANCH  22  32
ENDBRANCH  11  12
BRANCH  10  34
ATOM     34  O   UNL     1      24.686  -1.028  80.993  1.00  0.00    -0.507 OA
ATOM     35  H   UNL     1      24.120  -0.487  81.641  1.00  0.00     0.293 HD
ENDBRANCH  10  34
BRANCH   9  36
ATOM     36  C   UNL     1      30.566  -3.103  80.534  1.00  0.00     0.017 C 
ATOM     37  C   UNL     1      31.645  -2.456  79.661  1.00  0.00     0.012 C 
ATOM     38  C   UNL     1      30.768  -2.764  82.026  1.00  0.00     0.012 C 
ENDBRANCH   9  36
BRANCH   6  39
ATOM     39  C   UNL     1      25.389  -1.359  78.455  1.00  0.00     0.264 C 
ATOM     40  O   UNL     1      25.200  -0.133  78.215  1.00  0.00    -0.298 OA
ENDBRANCH   6  39
BRANCH   8  41
ATOM     41  O   UNL     1      29.952  -2.995  77.739  1.00  0.00    -0.504 OA
ATOM     42  H   UNL     1      29.876  -3.748  77.068  1.00  0.00     0.293 HD
ENDBRANCH   8  41
BRANCH   7  43
ATOM     43  O   UNL     1      27.500  -1.890  76.779  1.00  0.00    -0.504 OA
ATOM     44  H   UNL     1      26.608  -1.952  76.310  1.00  0.00     0.293 HD
ENDBRANCH   7  43
TORSDOF 11
ENDMDL
