MODEL 1
REMARK VINA RESULT:     3.188      0.000      0.000
REMARK INTER + INTRA:           4.338
REMARK INTER:                   3.934
REMARK INTRA:                   0.403
REMARK UNBOUND:                 0.403
REMARK SMILES COc1cc(-c2oc3cc(O)cc(O)c3c(=O)c2O)ccc1O
REMARK SMILES IDX 6 1 18 2 16 3 17 4 15 5 13 6 12 7 10 8 9 9 8 10 7 11 5 12
REMARK SMILES IDX 3 13 22 14 4 15 21 16 20 17 2 18 1 19 23 20 19 22 14 24
REMARK SMILES IDX 11 26
REMARK H PARENT 23 21 19 23 14 25 11 27
REMARK Flexibility Score: inf
ROOT
ATOM      1  C   UNL     1      -0.070  26.366  29.126  1.00  0.00     0.180 A 
ATOM      2  C   UNL     1      -0.052  27.691  28.659  1.00  0.00     0.208 A 
ATOM      3  C   UNL     1       0.002  28.741  29.589  1.00  0.00     0.238 A 
ATOM      4  O   UNL     1      -0.038  29.926  29.166  1.00  0.00    -0.285 OA
ATOM      5  C   UNL     1       0.053  28.453  30.974  1.00  0.00     0.111 A 
ATOM      6  C   UNL     1       0.149  29.438  32.003  1.00  0.00     0.134 A 
ATOM      7  C   UNL     1       0.061  29.045  33.345  1.00  0.00     0.093 A 
ATOM      8  C   UNL     1      -0.054  27.697  33.694  1.00  0.00     0.123 A 
ATOM      9  C   UNL     1      -0.089  26.725  32.699  1.00  0.00     0.094 A 
ATOM     10  C   UNL     1      -0.040  27.088  31.351  1.00  0.00     0.146 A 
ATOM     11  O   UNL     1      -0.087  26.131  30.433  1.00  0.00    -0.452 OA
ENDROOT
BRANCH   1  12
ATOM     12  C   UNL     1      -0.101  25.205  28.206  1.00  0.00     0.025 A 
ATOM     13  C   UNL     1      -0.098  22.781  27.883  1.00  0.00     0.161 A 
ATOM     14  C   UNL     1      -0.098  22.976  26.490  1.00  0.00     0.157 A 
ATOM     15  C   UNL     1      -0.092  23.904  28.735  1.00  0.00     0.062 A 
ATOM     16  C   UNL     1      -0.086  24.271  25.965  1.00  0.00     0.051 A 
ATOM     17  C   UNL     1      -0.080  25.379  26.813  1.00  0.00     0.016 A 
BRANCH  13  18
ATOM     18  O   UNL     1      -0.102  21.469  28.383  1.00  0.00    -0.493 OA
ATOM     19  C   UNL     1       0.598  21.047  29.550  1.00  0.00     0.278 C 
ENDBRANCH  13  18
BRANCH  14  20
ATOM     20  O   UNL     1      -0.104  21.893  25.610  1.00  0.00    -0.504 OA
ATOM     21  H   UNL     1       0.274  20.988  25.865  1.00  0.00     0.293 HD
ENDBRANCH  14  20
ENDBRANCH   1  12
BRANCH   2  22
ATOM     22  O   UNL     1      -0.125  27.953  27.287  1.00  0.00    -0.502 OA
ATOM     23  H   UNL     1      -0.560  28.789  26.916  1.00  0.00     0.293 HD
ENDBRANCH   2  22
BRANCH   6  24
ATOM     24  O   UNL     1       0.358  30.799  31.765  1.00  0.00    -0.507 OA
ATOM     25  H   UNL     1       1.233  31.280  31.911  1.00  0.00     0.293 HD
ENDBRANCH   6  24
BRANCH   8  26
ATOM     26  O   UNL     1      -0.125  27.314  35.032  1.00  0.00    -0.508 OA
ATOM     27  H   UNL     1      -0.754  26.581  35.341  1.00  0.00     0.293 HD
ENDBRANCH   8  26
TORSDOF 6
ENDMDL
