MODEL 1
REMARK VINA RESULT:    -5.621      0.000      0.000
REMARK INTER + INTRA:          -5.786
REMARK INTER:                  -5.786
REMARK INTRA:                   0.000
REMARK UNBOUND:                 0.000
REMARK SMILES Nc1ncnc2nc[nH]c12
REMARK SMILES IDX 8 1 7 2 6 3 5 4 4 5 3 6 2 7 10 8 9 9 1 11
REMARK H PARENT 9 10 1 12 1 13
REMARK Flexibility Score: inf
ROOT
ATOM      1  C   UNL     1       5.455 -16.968  38.141  1.00  0.00     0.199 A 
ATOM      2  N   UNL     1       4.685 -16.948  37.018  1.00  0.00    -0.217 NA
ATOM      3  C   UNL     1       3.908 -18.031  37.186  1.00  0.00     0.182 A 
ATOM      4  N   UNL     1       2.949 -18.476  36.340  1.00  0.00    -0.215 NA
ATOM      5  C   UNL     1       2.258 -19.605  36.684  1.00  0.00     0.226 A 
ATOM      6  N   UNL     1       2.536 -20.263  37.855  1.00  0.00    -0.217 NA
ATOM      7  C   UNL     1       3.505 -19.815  38.710  1.00  0.00     0.152 A 
ATOM      8  C   UNL     1       4.199 -18.665  38.346  1.00  0.00     0.127 A 
ATOM      9  N   UNL     1       5.181 -18.006  38.972  1.00  0.00    -0.340 N 
ATOM     10  H   UNL     1       5.638 -18.227  39.884  1.00  0.00     0.168 HD
ENDROOT
BRANCH   7  11
ATOM     11  N   UNL     1       3.778 -20.516  39.924  1.00  0.00    -0.382 N 
ATOM     12  H   UNL     1       3.394 -20.191  40.838  1.00  0.00     0.158 HD
ATOM     13  H   UNL     1       4.374 -21.373  39.909  1.00  0.00     0.158 HD
ENDBRANCH   7  11
TORSDOF 1
ENDMDL
MODEL 2
REMARK VINA RESULT:    -5.369      4.662      6.072
REMARK INTER + INTRA:          -5.526
REMARK INTER:                  -5.526
REMARK INTRA:                   0.000
REMARK UNBOUND:                 0.000
REMARK SMILES Nc1ncnc2nc[nH]c12
REMARK SMILES IDX 8 1 7 2 6 3 5 4 4 5 3 6 2 7 10 8 9 9 1 11
REMARK H PARENT 9 10 1 12 1 13
REMARK Flexibility Score: inf
ROOT
ATOM      1  C   UNL     1       5.527 -20.401  41.794  1.00  0.00     0.199 A 
ATOM      2  N   UNL     1       6.095 -21.639  41.792  1.00  0.00    -0.217 NA
ATOM      3  C   UNL     1       7.230 -21.430  41.105  1.00  0.00     0.182 A 
ATOM      4  N   UNL     1       8.177 -22.352  40.810  1.00  0.00    -0.215 NA
ATOM      5  C   UNL     1       9.271 -21.948  40.095  1.00  0.00     0.226 A 
ATOM      6  N   UNL     1       9.396 -20.643  39.692  1.00  0.00    -0.217 NA
ATOM      7  C   UNL     1       8.441 -19.711  39.988  1.00  0.00     0.152 A 
ATOM      8  C   UNL     1       7.334 -20.138  40.716  1.00  0.00     0.127 A 
ATOM      9  N   UNL     1       6.261 -19.463  41.144  1.00  0.00    -0.340 N 
ATOM     10  H   UNL     1       6.030 -18.453  41.016  1.00  0.00     0.168 HD
ENDROOT
BRANCH   7  11
ATOM     11  N   UNL     1       8.592 -18.358  39.558  1.00  0.00    -0.382 N 
ATOM     12  H   UNL     1       8.589 -17.567  40.238  1.00  0.00     0.158 HD
ATOM     13  H   UNL     1       8.709 -18.143  38.543  1.00  0.00     0.158 HD
ENDBRANCH   7  11
TORSDOF 1
ENDMDL
MODEL 3
REMARK VINA RESULT:    -5.108      0.991      2.858
REMARK INTER + INTRA:          -5.257
REMARK INTER:                  -5.257
REMARK INTRA:                   0.000
REMARK UNBOUND:                 0.000
REMARK SMILES Nc1ncnc2nc[nH]c12
REMARK SMILES IDX 8 1 7 2 6 3 5 4 4 5 3 6 2 7 10 8 9 9 1 11
REMARK H PARENT 9 10 1 12 1 13
REMARK Flexibility Score: inf
ROOT
ATOM      1  C   UNL     1       5.559 -19.896  40.188  1.00  0.00     0.199 A 
ATOM      2  N   UNL     1       4.512 -20.698  39.852  1.00  0.00    -0.217 NA
ATOM      3  C   UNL     1       3.918 -19.995  38.873  1.00  0.00     0.182 A 
ATOM      4  N   UNL     1       2.809 -20.350  38.182  1.00  0.00    -0.215 NA
ATOM      5  C   UNL     1       2.350 -19.499  37.215  1.00  0.00     0.226 A 
ATOM      6  N   UNL     1       3.000 -18.318  36.961  1.00  0.00    -0.217 NA
ATOM      7  C   UNL     1       4.120 -17.957  37.658  1.00  0.00     0.152 A 
ATOM      8  C   UNL     1       4.575 -18.835  38.638  1.00  0.00     0.127 A 
ATOM      9  N   UNL     1       5.624 -18.750  39.463  1.00  0.00    -0.340 N 
ATOM     10  H   UNL     1       6.333 -17.988  39.542  1.00  0.00     0.168 HD
ENDROOT
BRANCH   7  11
ATOM     11  N   UNL     1       4.782 -16.723  37.376  1.00  0.00    -0.382 N 
ATOM     12  H   UNL     1       5.781 -16.698  37.079  1.00  0.00     0.158 HD
ATOM     13  H   UNL     1       4.263 -15.822  37.466  1.00  0.00     0.158 HD
ENDBRANCH   7  11
TORSDOF 1
ENDMDL
MODEL 4
REMARK VINA RESULT:    -4.998      1.008      2.635
REMARK INTER + INTRA:          -5.144
REMARK INTER:                  -5.144
REMARK INTRA:                   0.000
REMARK UNBOUND:                 0.000
REMARK SMILES Nc1ncnc2nc[nH]c12
REMARK SMILES IDX 8 1 7 2 6 3 5 4 4 5 3 6 2 7 10 8 9 9 1 11
REMARK H PARENT 9 10 1 12 1 13
REMARK Flexibility Score: inf
ROOT
ATOM      1  C   UNL     1       5.268 -16.988  37.957  1.00  0.00     0.199 A 
ATOM      2  N   UNL     1       4.862 -17.971  38.807  1.00  0.00    -0.217 NA
ATOM      3  C   UNL     1       3.957 -18.631  38.066  1.00  0.00     0.182 A 
ATOM      4  N   UNL     1       3.239 -19.716  38.445  1.00  0.00    -0.215 NA
ATOM      5  C   UNL     1       2.360 -20.254  37.546  1.00  0.00     0.226 A 
ATOM      6  N   UNL     1       2.215 -19.703  36.298  1.00  0.00    -0.217 NA
ATOM      7  C   UNL     1       2.938 -18.609  35.914  1.00  0.00     0.152 A 
ATOM      8  C   UNL     1       3.829 -18.073  36.839  1.00  0.00     0.127 A 
ATOM      9  N   UNL     1       4.655 -17.024  36.747  1.00  0.00    -0.340 N 
ATOM     10  H   UNL     1       4.802 -16.379  35.940  1.00  0.00     0.168 HD
ENDROOT
BRANCH   7  11
ATOM     11  N   UNL     1       2.771 -18.052  34.609  1.00  0.00    -0.382 N 
ATOM     12  H   UNL     1       1.824 -17.898  34.201  1.00  0.00     0.158 HD
ATOM     13  H   UNL     1       3.608 -17.791  34.043  1.00  0.00     0.158 HD
ENDBRANCH   7  11
TORSDOF 1
ENDMDL
MODEL 5
REMARK VINA RESULT:    -4.997      4.244      5.610
REMARK INTER + INTRA:          -5.143
REMARK INTER:                  -5.143
REMARK INTRA:                   0.000
REMARK UNBOUND:                 0.000
REMARK SMILES Nc1ncnc2nc[nH]c12
REMARK SMILES IDX 8 1 7 2 6 3 5 4 4 5 3 6 2 7 10 8 9 9 1 11
REMARK H PARENT 9 10 1 12 1 13
REMARK Flexibility Score: inf
ROOT
ATOM      1  C   UNL     1       9.519 -21.242  39.931  1.00  0.00     0.199 A 
ATOM      2  N   UNL     1       9.002 -22.198  40.750  1.00  0.00    -0.217 NA
ATOM      3  C   UNL     1       7.751 -21.753  40.953  1.00  0.00     0.182 A 
ATOM      4  N   UNL     1       6.796 -22.344  41.710  1.00  0.00    -0.215 NA
ATOM      5  C   UNL     1       5.574 -21.737  41.797  1.00  0.00     0.226 A 
ATOM      6  N   UNL     1       5.331 -20.560  41.134  1.00  0.00    -0.217 NA
ATOM      7  C   UNL     1       6.294 -19.962  40.371  1.00  0.00     0.152 A 
ATOM      8  C   UNL     1       7.533 -20.592  40.292  1.00  0.00     0.127 A 
ATOM      9  N   UNL     1       8.645 -20.247  39.633  1.00  0.00    -0.340 N 
ATOM     10  H   UNL     1       8.814 -19.413  39.029  1.00  0.00     0.168 HD
ENDROOT
BRANCH   7  11
ATOM     11  N   UNL     1       6.020 -18.737  39.689  1.00  0.00    -0.382 N 
ATOM     12  H   UNL     1       6.456 -17.838  39.990  1.00  0.00     0.158 HD
ATOM     13  H   UNL     1       5.372 -18.729  38.871  1.00  0.00     0.158 HD
ENDBRANCH   7  11
TORSDOF 1
ENDMDL
MODEL 6
REMARK VINA RESULT:    -4.886      2.600      4.120
REMARK INTER + INTRA:          -5.029
REMARK INTER:                  -5.029
REMARK INTRA:                   0.000
REMARK UNBOUND:                 0.000
REMARK SMILES Nc1ncnc2nc[nH]c12
REMARK SMILES IDX 8 1 7 2 6 3 5 4 4 5 3 6 2 7 10 8 9 9 1 11
REMARK H PARENT 9 10 1 12 1 13
REMARK Flexibility Score: inf
ROOT
ATOM      1  C   UNL     1       4.457 -18.718  38.568  1.00  0.00     0.199 A 
ATOM      2  N   UNL     1       3.852 -19.899  38.871  1.00  0.00    -0.217 NA
ATOM      3  C   UNL     1       4.692 -20.425  39.778  1.00  0.00     0.182 A 
ATOM      4  N   UNL     1       4.555 -21.614  40.411  1.00  0.00    -0.215 NA
ATOM      5  C   UNL     1       5.520 -21.982  41.309  1.00  0.00     0.226 A 
ATOM      6  N   UNL     1       6.593 -21.163  41.553  1.00  0.00    -0.217 NA
ATOM      7  C   UNL     1       6.733 -19.963  40.914  1.00  0.00     0.152 A 
ATOM      8  C   UNL     1       5.743 -19.602  40.004  1.00  0.00     0.127 A 
ATOM      9  N   UNL     1       5.615 -18.508  39.245  1.00  0.00    -0.340 N 
ATOM     10  H   UNL     1       6.248 -17.681  39.179  1.00  0.00     0.168 HD
ENDROOT
BRANCH   7  11
ATOM     11  N   UNL     1       7.858 -19.125  41.184  1.00  0.00    -0.382 N 
ATOM     12  H   UNL     1       8.569 -18.917  40.450  1.00  0.00     0.158 HD
ATOM     13  H   UNL     1       7.982 -18.708  42.133  1.00  0.00     0.158 HD
ENDBRANCH   7  11
TORSDOF 1
ENDMDL
MODEL 7
REMARK VINA RESULT:    -4.768     16.484     17.398
REMARK INTER + INTRA:          -4.907
REMARK INTER:                  -4.907
REMARK INTRA:                   0.000
REMARK UNBOUND:                 0.000
REMARK SMILES Nc1ncnc2nc[nH]c12
REMARK SMILES IDX 8 1 7 2 6 3 5 4 4 5 3 6 2 7 10 8 9 9 1 11
REMARK H PARENT 9 10 1 12 1 13
REMARK Flexibility Score: inf
ROOT
ATOM      1  C   UNL     1      20.197 -20.494  41.853  1.00  0.00     0.199 A 
ATOM      2  N   UNL     1      19.189 -21.129  42.511  1.00  0.00    -0.217 NA
ATOM      3  C   UNL     1      19.440 -22.420  42.239  1.00  0.00     0.182 A 
ATOM      4  N   UNL     1      18.722 -23.489  42.660  1.00  0.00    -0.215 NA
ATOM      5  C   UNL     1      19.135 -24.735  42.277  1.00  0.00     0.226 A 
ATOM      6  N   UNL     1      20.246 -24.889  41.487  1.00  0.00    -0.217 NA
ATOM      7  C   UNL     1      20.971 -23.811  41.061  1.00  0.00     0.152 A 
ATOM      8  C   UNL     1      20.538 -22.549  41.459  1.00  0.00     0.127 A 
ATOM      9  N   UNL     1      21.039 -21.336  41.201  1.00  0.00    -0.340 N 
ATOM     10  H   UNL     1      21.877 -21.082  40.633  1.00  0.00     0.168 HD
ENDROOT
BRANCH   7  11
ATOM     11  N   UNL     1      22.125 -23.995  40.239  1.00  0.00    -0.382 N 
ATOM     12  H   UNL     1      22.822 -24.744  40.440  1.00  0.00     0.158 HD
ATOM     13  H   UNL     1      22.284 -23.371  39.417  1.00  0.00     0.158 HD
ENDBRANCH   7  11
TORSDOF 1
ENDMDL
MODEL 8
REMARK VINA RESULT:    -4.768      1.435      3.144
REMARK INTER + INTRA:          -4.907
REMARK INTER:                  -4.907
REMARK INTRA:                   0.000
REMARK UNBOUND:                 0.000
REMARK SMILES Nc1ncnc2nc[nH]c12
REMARK SMILES IDX 8 1 7 2 6 3 5 4 4 5 3 6 2 7 10 8 9 9 1 11
REMARK H PARENT 9 10 1 12 1 13
REMARK Flexibility Score: inf
ROOT
ATOM      1  C   UNL     1       2.224 -19.426  37.471  1.00  0.00     0.199 A 
ATOM      2  N   UNL     1       3.139 -18.435  37.658  1.00  0.00    -0.217 NA
ATOM      3  C   UNL     1       4.031 -19.023  38.472  1.00  0.00     0.182 A 
ATOM      4  N   UNL     1       5.159 -18.463  38.972  1.00  0.00    -0.215 NA
ATOM      5  C   UNL     1       5.948 -19.223  39.790  1.00  0.00     0.226 A 
ATOM      6  N   UNL     1       5.599 -20.515  40.091  1.00  0.00    -0.217 NA
ATOM      7  C   UNL     1       4.461 -21.081  39.588  1.00  0.00     0.152 A 
ATOM      8  C   UNL     1       3.668 -20.295  38.757  1.00  0.00     0.127 A 
ATOM      9  N   UNL     1       2.520 -20.575  38.130  1.00  0.00    -0.340 N 
ATOM     10  H   UNL     1       1.972 -21.463  38.137  1.00  0.00     0.168 HD
ENDROOT
BRANCH   7  11
ATOM     11  N   UNL     1       4.117 -22.429  39.915  1.00  0.00    -0.382 N 
ATOM     12  H   UNL     1       3.194 -22.667  40.337  1.00  0.00     0.158 HD
ATOM     13  H   UNL     1       4.797 -23.199  39.732  1.00  0.00     0.158 HD
ENDBRANCH   7  11
TORSDOF 1
ENDMDL
MODEL 9
REMARK VINA RESULT:    -4.648     14.979     16.600
REMARK INTER + INTRA:          -4.784
REMARK INTER:                  -4.784
REMARK INTRA:                   0.000
REMARK UNBOUND:                 0.000
REMARK SMILES Nc1ncnc2nc[nH]c12
REMARK SMILES IDX 8 1 7 2 6 3 5 4 4 5 3 6 2 7 10 8 9 9 1 11
REMARK H PARENT 9 10 1 12 1 13
REMARK Flexibility Score: inf
ROOT
ATOM      1  C   UNL     1      17.309 -14.217  33.992  1.00  0.00     0.199 A 
ATOM      2  N   UNL     1      18.191 -14.191  32.956  1.00  0.00    -0.217 NA
ATOM      3  C   UNL     1      19.280 -14.765  33.495  1.00  0.00     0.182 A 
ATOM      4  N   UNL     1      20.465 -14.988  32.878  1.00  0.00    -0.215 NA
ATOM      5  C   UNL     1      21.463 -15.588  33.595  1.00  0.00     0.226 A 
ATOM      6  N   UNL     1      21.261 -15.949  34.903  1.00  0.00    -0.217 NA
ATOM      7  C   UNL     1      20.066 -15.725  35.527  1.00  0.00     0.152 A 
ATOM      8  C   UNL     1      19.059 -15.113  34.784  1.00  0.00     0.127 A 
ATOM      9  N   UNL     1      17.810 -14.775  35.123  1.00  0.00    -0.340 N 
ATOM     10  H   UNL     1      17.324 -14.903  36.038  1.00  0.00     0.168 HD
ENDROOT
BRANCH   7  11
ATOM     11  N   UNL     1      19.877 -16.110  36.890  1.00  0.00    -0.382 N 
ATOM     12  H   UNL     1      18.959 -15.985  37.368  1.00  0.00     0.158 HD
ATOM     13  H   UNL     1      20.669 -16.526  37.428  1.00  0.00     0.158 HD
ENDBRANCH   7  11
TORSDOF 1
ENDMDL
