MODEL 1
REMARK VINA RESULT:    -3.514      0.000      0.000
REMARK INTER + INTRA:          -6.589
REMARK INTER:                  -5.569
REMARK INTRA:                  -1.020
REMARK UNBOUND:                -1.020
REMARK SMILES CCCCCCCCCCCC(=O)[O-]
REMARK SMILES IDX 7 1 8 2 9 3 10 4 11 5 12 6 13 7 14 8 6 9 5 10 4 11 3 12 2 13
REMARK SMILES IDX 1 14
REMARK H PARENT
REMARK Flexibility Score: inf
ROOT
ATOM      1  C   UNL     1     -95.305 148.041 240.224  1.00  0.00     0.000 C 
ENDROOT
BRANCH   1   2
ATOM      2  C   UNL     1     -95.150 149.554 240.009  1.00  0.00     0.000 C 
BRANCH   2   3
ATOM      3  C   UNL     1     -96.467 150.287 240.282  1.00  0.00     0.000 C 
BRANCH   3   4
ATOM      4  C   UNL     1     -97.317 149.527 241.313  1.00  0.00     0.006 C 
BRANCH   4   5
ATOM      5  C   UNL     1     -98.511 150.356 241.803  1.00  0.00     0.053 C 
BRANCH   5   6
ATOM      6  C   UNL     1     -98.743 150.180 243.273  1.00  0.00     0.041 C 
ATOM      7  O   UNL     1     -98.642 151.163 244.053  1.00  0.00    -0.550 OA
ATOM      8  O   UNL     1     -99.038 148.922 243.784  1.00  0.00    -0.550 OA
ENDBRANCH   5   6
ENDBRANCH   4   5
ENDBRANCH   3   4
ENDBRANCH   2   3
ENDBRANCH   1   2
BRANCH   1   9
ATOM      9  C   UNL     1     -94.472 147.211 239.235  1.00  0.00     0.000 C 
BRANCH   9  10
ATOM     10  C   UNL     1     -93.743 148.081 238.199  1.00  0.00    -0.000 C 
BRANCH  10  11
ATOM     11  C   UNL     1     -93.793 147.433 236.808  1.00  0.00    -0.000 C 
BRANCH  11  12
ATOM     12  C   UNL     1     -94.889 148.034 235.912  1.00  0.00    -0.000 C 
BRANCH  12  13
ATOM     13  C   UNL     1     -95.368 149.407 236.405  1.00  0.00    -0.003 C 
ATOM     14  C   UNL     1     -96.875 149.409 236.646  1.00  0.00     0.004 C 
ENDBRANCH  12  13
ENDBRANCH  11  12
ENDBRANCH  10  11
ENDBRANCH   9  10
ENDBRANCH   1   9
TORSDOF 10
ENDMDL
MODEL 2
REMARK VINA RESULT:    -3.505      1.207      1.611
REMARK INTER + INTRA:          -6.574
REMARK INTER:                  -5.043
REMARK INTRA:                  -1.531
REMARK UNBOUND:                -1.020
REMARK SMILES CCCCCCCCCCCC(=O)[O-]
REMARK SMILES IDX 7 1 8 2 9 3 10 4 11 5 12 6 13 7 14 8 6 9 5 10 4 11 3 12 2 13
REMARK SMILES IDX 1 14
REMARK H PARENT
REMARK Flexibility Score: inf
ROOT
ATOM      1  C   UNL     1     -95.293 148.062 240.053  1.00  0.00     0.000 C 
ENDROOT
BRANCH   1   2
ATOM      2  C   UNL     1     -96.482 148.773 240.715  1.00  0.00     0.000 C 
BRANCH   2   3
ATOM      3  C   UNL     1     -96.490 150.267 240.371  1.00  0.00     0.000 C 
BRANCH   3   4
ATOM      4  C   UNL     1     -97.927 150.801 240.271  1.00  0.00     0.006 C 
BRANCH   4   5
ATOM      5  C   UNL     1     -98.959 149.793 240.796  1.00  0.00     0.053 C 
BRANCH   5   6
ATOM      6  C   UNL     1     -99.550 150.232 242.100  1.00  0.00     0.041 C 
ATOM      7  O   UNL     1    -100.800 150.258 242.254  1.00  0.00    -0.550 OA
ATOM      8  O   UNL     1     -98.720 150.643 243.136  1.00  0.00    -0.550 OA
ENDBRANCH   5   6
ENDBRANCH   4   5
ENDBRANCH   3   4
ENDBRANCH   2   3
ENDBRANCH   1   2
BRANCH   1   9
ATOM      9  C   UNL     1     -94.430 149.011 239.207  1.00  0.00     0.000 C 
BRANCH   9  10
ATOM     10  C   UNL     1     -93.859 148.332 237.952  1.00  0.00    -0.000 C 
BRANCH  10  11
ATOM     11  C   UNL     1     -94.923 148.239 236.848  1.00  0.00    -0.000 C 
BRANCH  11  12
ATOM     12  C   UNL     1     -95.632 149.579 236.592  1.00  0.00    -0.000 C 
BRANCH  12  13
ATOM     13  C   UNL     1     -97.155 149.484 236.764  1.00  0.00    -0.003 C 
ATOM     14  C   UNL     1     -97.576 148.068 237.149  1.00  0.00     0.004 C 
ENDBRANCH  12  13
ENDBRANCH  11  12
ENDBRANCH  10  11
ENDBRANCH   9  10
ENDBRANCH   1   9
TORSDOF 10
ENDMDL
MODEL 3
REMARK VINA RESULT:    -3.471      0.955      1.668
REMARK INTER + INTRA:          -6.521
REMARK INTER:                  -5.783
REMARK INTRA:                  -0.737
REMARK UNBOUND:                -1.020
REMARK SMILES CCCCCCCCCCCC(=O)[O-]
REMARK SMILES IDX 7 1 8 2 9 3 10 4 11 5 12 6 13 7 14 8 6 9 5 10 4 11 3 12 2 13
REMARK SMILES IDX 1 14
REMARK H PARENT
REMARK Flexibility Score: inf
ROOT
ATOM      1  C   UNL     1     -95.244 149.548 240.014  1.00  0.00     0.000 C 
ENDROOT
BRANCH   1   2
ATOM      2  C   UNL     1     -96.570 150.277 240.276  1.00  0.00     0.000 C 
BRANCH   2   3
ATOM      3  C   UNL     1     -97.444 149.491 241.259  1.00  0.00     0.000 C 
BRANCH   3   4
ATOM      4  C   UNL     1     -98.478 150.407 241.932  1.00  0.00     0.006 C 
BRANCH   4   5
ATOM      5  C   UNL     1     -98.729 150.022 243.395  1.00  0.00     0.053 C 
BRANCH   5   6
ATOM      6  C   UNL     1     -99.296 151.166 244.181  1.00  0.00     0.041 C 
ATOM      7  O   UNL     1     -98.550 151.857 244.923  1.00  0.00    -0.550 OA
ATOM      8  O   UNL     1    -100.654 151.447 244.116  1.00  0.00    -0.550 OA
ENDBRANCH   5   6
ENDBRANCH   4   5
ENDBRANCH   3   4
ENDBRANCH   2   3
ENDBRANCH   1   2
BRANCH   1   9
ATOM      9  C   UNL     1     -95.331 148.038 240.291  1.00  0.00     0.000 C 
BRANCH   9  10
ATOM     10  C   UNL     1     -94.534 147.203 239.278  1.00  0.00    -0.000 C 
BRANCH  10  11
ATOM     11  C   UNL     1     -93.809 148.108 238.271  1.00  0.00    -0.000 C 
BRANCH  11  12
ATOM     12  C   UNL     1     -93.889 147.577 236.830  1.00  0.00    -0.000 C 
BRANCH  12  13
ATOM     13  C   UNL     1     -95.138 148.074 236.086  1.00  0.00    -0.003 C 
ATOM     14  C   UNL     1     -95.428 149.535 236.416  1.00  0.00     0.004 C 
ENDBRANCH  12  13
ENDBRANCH  11  12
ENDBRANCH  10  11
ENDBRANCH   9  10
ENDBRANCH   1   9
TORSDOF 10
ENDMDL
MODEL 4
REMARK VINA RESULT:    -3.421      2.483      5.104
REMARK INTER + INTRA:          -6.442
REMARK INTER:                  -5.143
REMARK INTRA:                  -1.298
REMARK UNBOUND:                -1.020
REMARK SMILES CCCCCCCCCCCC(=O)[O-]
REMARK SMILES IDX 7 1 8 2 9 3 10 4 11 5 12 6 13 7 14 8 6 9 5 10 4 11 3 12 2 13
REMARK SMILES IDX 1 14
REMARK H PARENT
REMARK Flexibility Score: inf
ROOT
ATOM      1  C   UNL     1     -94.027 148.318 238.292  1.00  0.00     0.000 C 
ENDROOT
BRANCH   1   2
ATOM      2  C   UNL     1     -93.815 147.604 236.949  1.00  0.00     0.000 C 
BRANCH   2   3
ATOM      3  C   UNL     1     -94.738 148.178 235.869  1.00  0.00     0.000 C 
BRANCH   3   4
ATOM      4  C   UNL     1     -95.413 149.472 236.352  1.00  0.00     0.006 C 
BRANCH   4   5
ATOM      5  C   UNL     1     -96.883 149.554 235.922  1.00  0.00     0.053 C 
BRANCH   5   6
ATOM      6  C   UNL     1     -97.812 149.327 237.076  1.00  0.00     0.041 C 
ATOM      7  O   UNL     1     -97.808 148.226 237.686  1.00  0.00    -0.550 OA
ATOM      8  O   UNL     1     -98.704 150.322 237.456  1.00  0.00    -0.550 OA
ENDBRANCH   5   6
ENDBRANCH   4   5
ENDBRANCH   3   4
ENDBRANCH   2   3
ENDBRANCH   1   2
BRANCH   1   9
ATOM      9  C   UNL     1     -94.739 147.435 239.328  1.00  0.00     0.000 C 
BRANCH   9  10
ATOM     10  C   UNL     1     -95.513 148.253 240.373  1.00  0.00    -0.000 C 
BRANCH  10  11
ATOM     11  C   UNL     1     -95.483 149.749 240.029  1.00  0.00    -0.000 C 
BRANCH  11  12
ATOM     12  C   UNL     1     -96.772 150.479 240.442  1.00  0.00    -0.000 C 
BRANCH  12  13
ATOM     13  C   UNL     1     -97.802 149.540 241.087  1.00  0.00    -0.003 C 
ATOM     14  C   UNL     1     -98.494 150.215 242.268  1.00  0.00     0.004 C 
ENDBRANCH  12  13
ENDBRANCH  11  12
ENDBRANCH  10  11
ENDBRANCH   9  10
ENDBRANCH   1   9
TORSDOF 10
ENDMDL
MODEL 5
REMARK VINA RESULT:    -3.354      4.090      5.945
REMARK INTER + INTRA:          -6.334
REMARK INTER:                  -4.959
REMARK INTRA:                  -1.375
REMARK UNBOUND:                -1.020
REMARK SMILES CCCCCCCCCCCC(=O)[O-]
REMARK SMILES IDX 7 1 8 2 9 3 10 4 11 5 12 6 13 7 14 8 6 9 5 10 4 11 3 12 2 13
REMARK SMILES IDX 1 14
REMARK H PARENT
REMARK Flexibility Score: inf
ROOT
ATOM      1  C   UNL     1     -94.990 149.535 237.189  1.00  0.00     0.000 C 
ENDROOT
BRANCH   1   2
ATOM      2  C   UNL     1     -95.932 148.575 236.450  1.00  0.00     0.000 C 
BRANCH   2   3
ATOM      3  C   UNL     1     -97.387 148.790 236.883  1.00  0.00     0.000 C 
BRANCH   3   4
ATOM      4  C   UNL     1     -97.922 150.134 236.365  1.00  0.00     0.006 C 
BRANCH   4   5
ATOM      5  C   UNL     1     -97.807 150.255 234.840  1.00  0.00     0.053 C 
BRANCH   5   6
ATOM      6  C   UNL     1     -97.100 151.513 234.435  1.00  0.00     0.041 C 
ATOM      7  O   UNL     1     -95.842 151.552 234.404  1.00  0.00    -0.550 OA
ATOM      8  O   UNL     1     -97.833 152.651 234.123  1.00  0.00    -0.550 OA
ENDBRANCH   5   6
ENDBRANCH   4   5
ENDBRANCH   3   4
ENDBRANCH   2   3
ENDBRANCH   1   2
BRANCH   1   9
ATOM      9  C   UNL     1     -94.166 148.835 238.282  1.00  0.00     0.000 C 
BRANCH   9  10
ATOM     10  C   UNL     1     -94.591 149.248 239.700  1.00  0.00    -0.000 C 
BRANCH  10  11
ATOM     11  C   UNL     1     -95.594 148.243 240.285  1.00  0.00    -0.000 C 
BRANCH  11  12
ATOM     12  C   UNL     1     -96.911 148.905 240.722  1.00  0.00    -0.000 C 
BRANCH  12  13
ATOM     13  C   UNL     1     -96.915 150.423 240.491  1.00  0.00    -0.003 C 
ATOM     14  C   UNL     1     -98.292 150.906 240.044  1.00  0.00     0.004 C 
ENDBRANCH  12  13
ENDBRANCH  11  12
ENDBRANCH  10  11
ENDBRANCH   9  10
ENDBRANCH   1   9
TORSDOF 10
ENDMDL
MODEL 6
REMARK VINA RESULT:    -3.345      2.235      2.524
REMARK INTER + INTRA:          -6.321
REMARK INTER:                  -5.226
REMARK INTRA:                  -1.095
REMARK UNBOUND:                -1.020
REMARK SMILES CCCCCCCCCCCC(=O)[O-]
REMARK SMILES IDX 7 1 8 2 9 3 10 4 11 5 12 6 13 7 14 8 6 9 5 10 4 11 3 12 2 13
REMARK SMILES IDX 1 14
REMARK H PARENT
REMARK Flexibility Score: inf
ROOT
ATOM      1  C   UNL     1     -93.972 148.716 238.515  1.00  0.00     0.000 C 
ENDROOT
BRANCH   1   2
ATOM      2  C   UNL     1     -95.153 148.594 239.490  1.00  0.00     0.000 C 
BRANCH   2   3
ATOM      3  C   UNL     1     -95.646 149.976 239.932  1.00  0.00     0.000 C 
BRANCH   3   4
ATOM      4  C   UNL     1     -96.959 149.866 240.721  1.00  0.00     0.006 C 
BRANCH   4   5
ATOM      5  C   UNL     1     -97.953 150.975 240.350  1.00  0.00     0.053 C 
BRANCH   5   6
ATOM      6  C   UNL     1     -98.933 150.518 239.312  1.00  0.00     0.041 C 
ATOM      7  O   UNL     1     -99.555 151.360 238.613  1.00  0.00    -0.550 OA
ATOM      8  O   UNL     1     -99.181 149.162 239.141  1.00  0.00    -0.550 OA
ENDBRANCH   5   6
ENDBRANCH   4   5
ENDBRANCH   3   4
ENDBRANCH   2   3
ENDBRANCH   1   2
BRANCH   1   9
ATOM      9  C   UNL     1     -93.466 147.351 238.022  1.00  0.00     0.000 C 
BRANCH   9  10
ATOM     10  C   UNL     1     -93.537 147.210 236.494  1.00  0.00    -0.000 C 
BRANCH  10  11
ATOM     11  C   UNL     1     -94.980 147.369 235.996  1.00  0.00    -0.000 C 
BRANCH  11  12
ATOM     12  C   UNL     1     -95.126 148.481 234.944  1.00  0.00    -0.000 C 
BRANCH  12  13
ATOM     13  C   UNL     1     -95.699 149.779 235.533  1.00  0.00    -0.003 C 
ATOM     14  C   UNL     1     -96.960 149.502 236.346  1.00  0.00     0.004 C 
ENDBRANCH  12  13
ENDBRANCH  11  12
ENDBRANCH  10  11
ENDBRANCH   9  10
ENDBRANCH   1   9
TORSDOF 10
ENDMDL
MODEL 7
REMARK VINA RESULT:    -3.330      4.215      5.993
REMARK INTER + INTRA:          -6.297
REMARK INTER:                  -4.995
REMARK INTRA:                  -1.302
REMARK UNBOUND:                -1.020
REMARK SMILES CCCCCCCCCCCC(=O)[O-]
REMARK SMILES IDX 7 1 8 2 9 3 10 4 11 5 12 6 13 7 14 8 6 9 5 10 4 11 3 12 2 13
REMARK SMILES IDX 1 14
REMARK H PARENT
REMARK Flexibility Score: inf
ROOT
ATOM      1  C   UNL     1     -94.726 149.200 239.712  1.00  0.00     0.000 C 
ENDROOT
BRANCH   1   2
ATOM      2  C   UNL     1     -94.290 148.784 238.299  1.00  0.00     0.000 C 
BRANCH   2   3
ATOM      3  C   UNL     1     -94.941 149.678 237.238  1.00  0.00     0.000 C 
BRANCH   3   4
ATOM      4  C   UNL     1     -96.142 148.976 236.587  1.00  0.00     0.006 C 
BRANCH   4   5
ATOM      5  C   UNL     1     -96.903 149.899 235.627  1.00  0.00     0.053 C 
BRANCH   5   6
ATOM      6  C   UNL     1     -95.995 150.500 234.597  1.00  0.00     0.041 C 
ATOM      7  O   UNL     1     -95.891 151.750 234.496  1.00  0.00    -0.550 OA
ATOM      8  O   UNL     1     -95.288 149.677 233.730  1.00  0.00    -0.550 OA
ENDBRANCH   5   6
ENDBRANCH   4   5
ENDBRANCH   3   4
ENDBRANCH   2   3
ENDBRANCH   1   2
BRANCH   1   9
ATOM      9  C   UNL     1     -95.680 148.185 240.361  1.00  0.00     0.000 C 
BRANCH   9  10
ATOM     10  C   UNL     1     -97.069 148.776 240.646  1.00  0.00    -0.000 C 
BRANCH  10  11
ATOM     11  C   UNL     1     -97.008 150.309 240.721  1.00  0.00    -0.000 C 
BRANCH  11  12
ATOM     12  C   UNL     1     -98.156 150.988 239.955  1.00  0.00    -0.000 C 
BRANCH  12  13
ATOM     13  C   UNL     1     -98.825 150.049 238.940  1.00  0.00    -0.003 C 
ATOM     14  C   UNL     1     -99.759 150.821 238.013  1.00  0.00     0.004 C 
ENDBRANCH  12  13
ENDBRANCH  11  12
ENDBRANCH  10  11
ENDBRANCH   9  10
ENDBRANCH   1   9
TORSDOF 10
ENDMDL
MODEL 8
REMARK VINA RESULT:    -3.302      2.822      5.800
REMARK INTER + INTRA:          -6.252
REMARK INTER:                  -5.224
REMARK INTRA:                  -1.028
REMARK UNBOUND:                -1.020
REMARK SMILES CCCCCCCCCCCC(=O)[O-]
REMARK SMILES IDX 7 1 8 2 9 3 10 4 11 5 12 6 13 7 14 8 6 9 5 10 4 11 3 12 2 13
REMARK SMILES IDX 1 14
REMARK H PARENT
REMARK Flexibility Score: inf
ROOT
ATOM      1  C   UNL     1     -95.356 148.116 240.169  1.00  0.00     0.000 C 
ENDROOT
BRANCH   1   2
ATOM      2  C   UNL     1     -94.502 149.111 239.371  1.00  0.00     0.000 C 
BRANCH   2   3
ATOM      3  C   UNL     1     -93.857 148.433 238.158  1.00  0.00     0.000 C 
BRANCH   3   4
ATOM      4  C   UNL     1     -94.880 148.234 237.029  1.00  0.00     0.006 C 
BRANCH   4   5
ATOM      5  C   UNL     1     -95.631 149.529 236.692  1.00  0.00     0.053 C 
BRANCH   5   6
ATOM      6  C   UNL     1     -97.116 149.340 236.746  1.00  0.00     0.041 C 
ATOM      7  O   UNL     1     -97.884 150.199 236.239  1.00  0.00    -0.550 OA
ATOM      8  O   UNL     1     -97.652 148.229 237.385  1.00  0.00    -0.550 OA
ENDBRANCH   5   6
ENDBRANCH   4   5
ENDBRANCH   3   4
ENDBRANCH   2   3
ENDBRANCH   1   2
BRANCH   1   9
ATOM      9  C   UNL     1     -96.657 148.741 240.697  1.00  0.00     0.000 C 
BRANCH   9  10
ATOM     10  C   UNL     1     -96.748 150.248 240.416  1.00  0.00    -0.000 C 
BRANCH  10  11
ATOM     11  C   UNL     1     -98.207 150.727 240.458  1.00  0.00    -0.000 C 
BRANCH  11  12
ATOM     12  C   UNL     1     -99.024 150.043 241.566  1.00  0.00    -0.000 C 
BRANCH  12  13
ATOM     13  C   UNL     1     -98.748 150.635 242.956  1.00  0.00    -0.003 C 
ATOM     14  C   UNL     1     -99.503 149.869 244.038  1.00  0.00     0.004 C 
ENDBRANCH  12  13
ENDBRANCH  11  12
ENDBRANCH  10  11
ENDBRANCH   9  10
ENDBRANCH   1   9
TORSDOF 10
ENDMDL
MODEL 9
REMARK VINA RESULT:    -3.280      4.133      6.252
REMARK INTER + INTRA:          -6.218
REMARK INTER:                  -5.275
REMARK INTRA:                  -0.943
REMARK UNBOUND:                -1.020
REMARK SMILES CCCCCCCCCCCC(=O)[O-]
REMARK SMILES IDX 7 1 8 2 9 3 10 4 11 5 12 6 13 7 14 8 6 9 5 10 4 11 3 12 2 13
REMARK SMILES IDX 1 14
REMARK H PARENT
REMARK Flexibility Score: inf
ROOT
ATOM      1  C   UNL     1     -93.696 147.900 238.167  1.00  0.00     0.000 C 
ENDROOT
BRANCH   1   2
ATOM      2  C   UNL     1     -93.703 147.251 236.775  1.00  0.00     0.000 C 
BRANCH   2   3
ATOM      3  C   UNL     1     -94.840 147.810 235.914  1.00  0.00     0.000 C 
BRANCH   3   4
ATOM      4  C   UNL     1     -95.128 149.278 236.266  1.00  0.00     0.006 C 
BRANCH   4   5
ATOM      5  C   UNL     1     -96.280 149.859 235.435  1.00  0.00     0.053 C 
BRANCH   5   6
ATOM      6  C   UNL     1     -95.777 150.707 234.307  1.00  0.00     0.041 C 
ATOM      7  O   UNL     1     -95.244 150.172 233.300  1.00  0.00    -0.550 OA
ATOM      8  O   UNL     1     -95.870 152.091 234.384  1.00  0.00    -0.550 OA
ENDBRANCH   5   6
ENDBRANCH   4   5
ENDBRANCH   3   4
ENDBRANCH   2   3
ENDBRANCH   1   2
BRANCH   1   9
ATOM      9  C   UNL     1     -94.245 146.969 239.260  1.00  0.00     0.000 C 
BRANCH   9  10
ATOM     10  C   UNL     1     -95.271 147.664 240.169  1.00  0.00    -0.000 C 
BRANCH  10  11
ATOM     11  C   UNL     1     -95.314 149.174 239.892  1.00  0.00    -0.000 C 
BRANCH  11  12
ATOM     12  C   UNL     1     -96.737 149.685 239.612  1.00  0.00    -0.000 C 
BRANCH  12  13
ATOM     13  C   UNL     1     -97.265 150.603 240.724  1.00  0.00    -0.003 C 
ATOM     14  C   UNL     1     -98.051 149.810 241.764  1.00  0.00     0.004 C 
ENDBRANCH  12  13
ENDBRANCH  11  12
ENDBRANCH  10  11
ENDBRANCH   9  10
ENDBRANCH   1   9
TORSDOF 10
ENDMDL
