MODEL 1
REMARK VINA RESULT:    -4.327      0.000      0.000
REMARK INTER + INTRA:          -6.738
REMARK INTER:                  -6.350
REMARK INTRA:                  -0.388
REMARK UNBOUND:                -0.388
REMARK SMILES O=C([O-])CCCCCCCC(=O)[O-]
REMARK SMILES IDX 7 1 6 2 5 3 4 4 2 5 1 6 3 7 8 8 9 9 10 10 11 11 12 12 13 13
REMARK H PARENT
REMARK Flexibility Score: inf
ROOT
ATOM      1  C   UNL     1       6.758 -14.519  22.863  1.00  0.00     0.000 C 
ENDROOT
BRANCH   1   2
ATOM      2  C   UNL     1       5.921 -13.894  21.741  1.00  0.00     0.000 C 
BRANCH   2   3
ATOM      3  C   UNL     1       6.288 -14.497  20.376  1.00  0.00     0.006 C 
BRANCH   3   4
ATOM      4  C   UNL     1       6.127 -13.489  19.232  1.00  0.00     0.053 C 
BRANCH   4   5
ATOM      5  C   UNL     1       6.831 -13.940  17.989  1.00  0.00     0.041 C 
ATOM      6  O   UNL     1       7.963 -14.483  18.065  1.00  0.00    -0.550 OA
ATOM      7  O   UNL     1       6.249 -13.731  16.744  1.00  0.00    -0.550 OA
ENDBRANCH   4   5
ENDBRANCH   3   4
ENDBRANCH   2   3
ENDBRANCH   1   2
BRANCH   1   8
ATOM      8  C   UNL     1       7.362 -15.859  22.418  1.00  0.00     0.000 C 
BRANCH   8   9
ATOM      9  C   UNL     1       7.155 -16.980  23.453  1.00  0.00     0.006 C 
BRANCH   9  10
ATOM     10  C   UNL     1       6.285 -16.579  24.655  1.00  0.00     0.053 C 
BRANCH  10  11
ATOM     11  C   UNL     1       7.008 -16.756  25.955  1.00  0.00     0.041 C 
ATOM     12  O   UNL     1       7.632 -15.792  26.470  1.00  0.00    -0.550 OA
ATOM     13  O   UNL     1       7.020 -17.997  26.580  1.00  0.00    -0.550 OA
ENDBRANCH  10  11
ENDBRANCH   9  10
ENDBRANCH   8   9
ENDBRANCH   1   8
TORSDOF 8
ENDMDL
MODEL 2
REMARK VINA RESULT:    -4.045      1.975      2.374
REMARK INTER + INTRA:          -6.325
REMARK INTER:                  -5.946
REMARK INTRA:                  -0.380
REMARK UNBOUND:                -0.388
REMARK SMILES O=C([O-])CCCCCCCC(=O)[O-]
REMARK SMILES IDX 7 1 6 2 5 3 4 4 2 5 1 6 3 7 8 8 9 9 10 10 11 11 12 12 13 13
REMARK H PARENT
REMARK Flexibility Score: inf
ROOT
ATOM      1  C   UNL     1       6.883 -14.801  22.577  1.00  0.00     0.000 C 
ENDROOT
BRANCH   1   2
ATOM      2  C   UNL     1       5.891 -13.800  21.973  1.00  0.00     0.000 C 
BRANCH   2   3
ATOM      3  C   UNL     1       5.739 -14.019  20.459  1.00  0.00     0.006 C 
BRANCH   3   4
ATOM      4  C   UNL     1       6.739 -15.048  19.917  1.00  0.00     0.053 C 
BRANCH   4   5
ATOM      5  C   UNL     1       7.157 -14.732  18.513  1.00  0.00     0.041 C 
ATOM      6  O   UNL     1       7.914 -15.517  17.887  1.00  0.00    -0.550 OA
ATOM      7  O   UNL     1       6.735 -13.553  17.910  1.00  0.00    -0.550 OA
ENDBRANCH   4   5
ENDBRANCH   3   4
ENDBRANCH   2   3
ENDBRANCH   1   2
BRANCH   1   8
ATOM      8  C   UNL     1       6.290 -15.480  23.821  1.00  0.00     0.000 C 
BRANCH   8   9
ATOM      9  C   UNL     1       7.369 -15.973  24.802  1.00  0.00     0.006 C 
BRANCH   9  10
ATOM     10  C   UNL     1       8.325 -14.876  25.297  1.00  0.00     0.053 C 
BRANCH  10  11
ATOM     11  C   UNL     1       9.737 -15.124  24.863  1.00  0.00     0.041 C 
ATOM     12  O   UNL     1      10.418 -16.033  25.408  1.00  0.00    -0.550 OA
ATOM     13  O   UNL     1      10.313 -14.328  23.880  1.00  0.00    -0.550 OA
ENDBRANCH  10  11
ENDBRANCH   9  10
ENDBRANCH   8   9
ENDBRANCH   1   8
TORSDOF 8
ENDMDL
MODEL 3
REMARK VINA RESULT:    -3.996      2.325      3.229
REMARK INTER + INTRA:          -6.252
REMARK INTER:                  -5.630
REMARK INTRA:                  -0.622
REMARK UNBOUND:                -0.388
REMARK SMILES O=C([O-])CCCCCCCC(=O)[O-]
REMARK SMILES IDX 7 1 6 2 5 3 4 4 2 5 1 6 3 7 8 8 9 9 10 10 11 11 12 12 13 13
REMARK H PARENT
REMARK Flexibility Score: inf
ROOT
ATOM      1  C   UNL     1       6.738 -16.653  24.088  1.00  0.00     0.000 C 
ENDROOT
BRANCH   1   2
ATOM      2  C   UNL     1       5.999 -15.337  23.818  1.00  0.00     0.000 C 
BRANCH   2   3
ATOM      3  C   UNL     1       6.687 -14.536  22.703  1.00  0.00     0.006 C 
BRANCH   3   4
ATOM      4  C   UNL     1       5.688 -14.000  21.669  1.00  0.00     0.053 C 
BRANCH   4   5
ATOM      5  C   UNL     1       6.185 -14.183  20.268  1.00  0.00     0.041 C 
ATOM      6  O   UNL     1       6.046 -13.262  19.422  1.00  0.00    -0.550 OA
ATOM      7  O   UNL     1       6.772 -15.384  19.888  1.00  0.00    -0.550 OA
ENDBRANCH   4   5
ENDBRANCH   3   4
ENDBRANCH   2   3
ENDBRANCH   1   2
BRANCH   1   8
ATOM      8  C   UNL     1       7.620 -17.043  22.893  1.00  0.00     0.000 C 
BRANCH   8   9
ATOM      9  C   UNL     1       9.095 -17.251  23.283  1.00  0.00     0.006 C 
BRANCH   9  10
ATOM     10  C   UNL     1      10.054 -16.190  22.720  1.00  0.00     0.053 C 
BRANCH  10  11
ATOM     11  C   UNL     1      10.387 -15.140  23.734  1.00  0.00     0.041 C 
ATOM     12  O   UNL     1      11.361 -14.363  23.546  1.00  0.00    -0.550 OA
ATOM     13  O   UNL     1       9.644 -15.042  24.904  1.00  0.00    -0.550 OA
ENDBRANCH  10  11
ENDBRANCH   9  10
ENDBRANCH   8   9
ENDBRANCH   1   8
TORSDOF 8
ENDMDL
MODEL 4
REMARK VINA RESULT:    -3.976      4.382      5.427
REMARK INTER + INTRA:          -6.223
REMARK INTER:                  -5.390
REMARK INTRA:                  -0.834
REMARK UNBOUND:                -0.388
REMARK SMILES O=C([O-])CCCCCCCC(=O)[O-]
REMARK SMILES IDX 7 1 6 2 5 3 4 4 2 5 1 6 3 7 8 8 9 9 10 10 11 11 12 12 13 13
REMARK H PARENT
REMARK Flexibility Score: inf
ROOT
ATOM      1  C   UNL     1       8.554 -14.433  24.760  1.00  0.00     0.000 C 
ENDROOT
BRANCH   1   2
ATOM      2  C   UNL     1       7.413 -14.415  23.735  1.00  0.00     0.000 C 
BRANCH   2   3
ATOM      3  C   UNL     1       6.407 -15.542  24.009  1.00  0.00     0.006 C 
BRANCH   3   4
ATOM      4  C   UNL     1       6.998 -16.930  23.734  1.00  0.00     0.053 C 
BRANCH   4   5
ATOM      5  C   UNL     1       7.085 -17.756  24.982  1.00  0.00     0.041 C 
ATOM      6  O   UNL     1       7.350 -18.983  24.911  1.00  0.00    -0.550 OA
ATOM      7  O   UNL     1       6.840 -17.174  26.220  1.00  0.00    -0.550 OA
ENDBRANCH   4   5
ENDBRANCH   3   4
ENDBRANCH   2   3
ENDBRANCH   1   2
BRANCH   1   8
ATOM      8  C   UNL     1       9.916 -14.579  24.066  1.00  0.00     0.000 C 
BRANCH   8   9
ATOM      9  C   UNL     1      10.658 -15.865  24.472  1.00  0.00     0.006 C 
BRANCH   9  10
ATOM     10  C   UNL     1      10.419 -16.301  25.926  1.00  0.00     0.053 C 
BRANCH  10  11
ATOM     11  C   UNL     1      10.503 -17.787  26.088  1.00  0.00     0.041 C 
ATOM     12  O   UNL     1      10.102 -18.334  27.150  1.00  0.00    -0.550 OA
ATOM     13  O   UNL     1      11.056 -18.567  25.079  1.00  0.00    -0.550 OA
ENDBRANCH  10  11
ENDBRANCH   9  10
ENDBRANCH   8   9
ENDBRANCH   1   8
TORSDOF 8
ENDMDL
MODEL 5
REMARK VINA RESULT:    -3.947      3.833      5.552
REMARK INTER + INTRA:          -6.181
REMARK INTER:                  -5.733
REMARK INTRA:                  -0.448
REMARK UNBOUND:                -0.388
REMARK SMILES O=C([O-])CCCCCCCC(=O)[O-]
REMARK SMILES IDX 7 1 6 2 5 3 4 4 2 5 1 6 3 7 8 8 9 9 10 10 11 11 12 12 13 13
REMARK H PARENT
REMARK Flexibility Score: inf
ROOT
ATOM      1  C   UNL     1       7.730 -17.749  21.973  1.00  0.00     0.000 C 
ENDROOT
BRANCH   1   2
ATOM      2  C   UNL     1       7.142 -18.402  23.230  1.00  0.00     0.000 C 
BRANCH   2   3
ATOM      3  C   UNL     1       6.691 -19.843  22.944  1.00  0.00     0.006 C 
BRANCH   3   4
ATOM      4  C   UNL     1       7.072 -20.302  21.531  1.00  0.00     0.053 C 
BRANCH   4   5
ATOM      5  C   UNL     1       7.941 -21.522  21.557  1.00  0.00     0.041 C 
ATOM      6  O   UNL     1       8.536 -21.852  22.616  1.00  0.00    -0.550 OA
ATOM      7  O   UNL     1       8.119 -22.275  20.403  1.00  0.00    -0.550 OA
ENDBRANCH   4   5
ENDBRANCH   3   4
ENDBRANCH   2   3
ENDBRANCH   1   2
BRANCH   1   8
ATOM      8  C   UNL     1       7.626 -16.219  22.049  1.00  0.00     0.000 C 
BRANCH   8   9
ATOM      9  C   UNL     1       6.829 -15.735  23.273  1.00  0.00     0.006 C 
BRANCH   9  10
ATOM     10  C   UNL     1       7.293 -14.381  23.836  1.00  0.00     0.053 C 
BRANCH  10  11
ATOM     11  C   UNL     1       8.493 -14.522  24.719  1.00  0.00     0.041 C 
ATOM     12  O   UNL     1       9.647 -14.307  24.261  1.00  0.00    -0.550 OA
ATOM     13  O   UNL     1       8.341 -14.924  26.041  1.00  0.00    -0.550 OA
ENDBRANCH  10  11
ENDBRANCH   9  10
ENDBRANCH   8   9
ENDBRANCH   1   8
TORSDOF 8
ENDMDL
MODEL 6
REMARK VINA RESULT:    -3.899      3.165      5.650
REMARK INTER + INTRA:          -6.111
REMARK INTER:                  -5.439
REMARK INTRA:                  -0.672
REMARK UNBOUND:                -0.388
REMARK SMILES O=C([O-])CCCCCCCC(=O)[O-]
REMARK SMILES IDX 7 1 6 2 5 3 4 4 2 5 1 6 3 7 8 8 9 9 10 10 11 11 12 12 13 13
REMARK H PARENT
REMARK Flexibility Score: inf
ROOT
ATOM      1  C   UNL     1       7.421 -17.289  26.140  1.00  0.00     0.000 C 
ENDROOT
BRANCH   1   2
ATOM      2  C   UNL     1       8.930 -17.560  26.123  1.00  0.00     0.000 C 
BRANCH   2   3
ATOM      3  C   UNL     1       9.727 -16.247  26.164  1.00  0.00     0.006 C 
BRANCH   3   4
ATOM      4  C   UNL     1      10.894 -16.244  25.169  1.00  0.00     0.053 C 
BRANCH   4   5
ATOM      5  C   UNL     1      10.569 -15.461  23.933  1.00  0.00     0.041 C 
ATOM      6  O   UNL     1      10.713 -15.983  22.798  1.00  0.00    -0.550 OA
ATOM      7  O   UNL     1      10.140 -14.143  24.036  1.00  0.00    -0.550 OA
ENDBRANCH   4   5
ENDBRANCH   3   4
ENDBRANCH   2   3
ENDBRANCH   1   2
BRANCH   1   8
ATOM      8  C   UNL     1       6.830 -17.379  24.725  1.00  0.00     0.000 C 
BRANCH   8   9
ATOM      9  C   UNL     1       5.971 -16.156  24.358  1.00  0.00     0.006 C 
BRANCH   9  10
ATOM     10  C   UNL     1       6.779 -14.919  23.933  1.00  0.00     0.053 C 
BRANCH  10  11
ATOM     11  C   UNL     1       6.790 -14.740  22.446  1.00  0.00     0.041 C 
ATOM     12  O   UNL     1       6.087 -13.844  21.909  1.00  0.00    -0.550 OA
ATOM     13  O   UNL     1       7.551 -15.588  21.649  1.00  0.00    -0.550 OA
ENDBRANCH  10  11
ENDBRANCH   9  10
ENDBRANCH   8   9
ENDBRANCH   1   8
TORSDOF 8
ENDMDL
MODEL 7
REMARK VINA RESULT:    -3.887      3.980      6.004
REMARK INTER + INTRA:          -6.092
REMARK INTER:                  -5.705
REMARK INTRA:                  -0.388
REMARK UNBOUND:                -0.388
REMARK SMILES O=C([O-])CCCCCCCC(=O)[O-]
REMARK SMILES IDX 7 1 6 2 5 3 4 4 2 5 1 6 3 7 8 8 9 9 10 10 11 11 12 12 13 13
REMARK H PARENT
REMARK Flexibility Score: inf
ROOT
ATOM      1  C   UNL     1       7.135 -18.162  24.301  1.00  0.00     0.000 C 
ENDROOT
BRANCH   1   2
ATOM      2  C   UNL     1       7.265 -17.003  23.305  1.00  0.00     0.000 C 
BRANCH   2   3
ATOM      3  C   UNL     1       6.456 -15.782  23.769  1.00  0.00     0.006 C 
BRANCH   3   4
ATOM      4  C   UNL     1       7.292 -14.496  23.767  1.00  0.00     0.053 C 
BRANCH   4   5
ATOM      5  C   UNL     1       8.502 -14.617  24.643  1.00  0.00     0.041 C 
ATOM      6  O   UNL     1       8.373 -14.873  25.868  1.00  0.00    -0.550 OA
ATOM      7  O   UNL     1       9.770 -14.414  24.111  1.00  0.00    -0.550 OA
ENDBRANCH   4   5
ENDBRANCH   3   4
ENDBRANCH   2   3
ENDBRANCH   1   2
BRANCH   1   8
ATOM      8  C   UNL     1       7.078 -19.512  23.571  1.00  0.00     0.000 C 
BRANCH   8   9
ATOM      9  C   UNL     1       7.500 -19.409  22.094  1.00  0.00     0.006 C 
BRANCH   9  10
ATOM     10  C   UNL     1       6.896 -20.493  21.187  1.00  0.00     0.053 C 
BRANCH  10  11
ATOM     11  C   UNL     1       7.924 -21.484  20.736  1.00  0.00     0.041 C 
ATOM     12  O   UNL     1       8.521 -21.324  19.638  1.00  0.00    -0.550 OA
ATOM     13  O   UNL     1       8.198 -22.605  21.511  1.00  0.00    -0.550 OA
ENDBRANCH  10  11
ENDBRANCH   9  10
ENDBRANCH   8   9
ENDBRANCH   1   8
TORSDOF 8
ENDMDL
MODEL 8
REMARK VINA RESULT:    -3.882      4.105      5.464
REMARK INTER + INTRA:          -6.085
REMARK INTER:                  -5.434
REMARK INTRA:                  -0.651
REMARK UNBOUND:                -0.388
REMARK SMILES O=C([O-])CCCCCCCC(=O)[O-]
REMARK SMILES IDX 7 1 6 2 5 3 4 4 2 5 1 6 3 7 8 8 9 9 10 10 11 11 12 12 13 13
REMARK H PARENT
REMARK Flexibility Score: inf
ROOT
ATOM      1  C   UNL     1       6.788 -15.732  23.289  1.00  0.00     0.000 C 
ENDROOT
BRANCH   1   2
ATOM      2  C   UNL     1       7.310 -14.336  23.652  1.00  0.00     0.000 C 
BRANCH   2   3
ATOM      3  C   UNL     1       8.327 -14.408  24.801  1.00  0.00     0.006 C 
BRANCH   3   4
ATOM      4  C   UNL     1       9.742 -14.732  24.306  1.00  0.00     0.053 C 
BRANCH   4   5
ATOM      5  C   UNL     1      10.344 -15.883  25.053  1.00  0.00     0.041 C 
ATOM      6  O   UNL     1       9.949 -16.157  26.216  1.00  0.00    -0.550 OA
ATOM      7  O   UNL     1      11.362 -16.632  24.477  1.00  0.00    -0.550 OA
ENDBRANCH   4   5
ENDBRANCH   3   4
ENDBRANCH   2   3
ENDBRANCH   1   2
BRANCH   1   8
ATOM      8  C   UNL     1       6.337 -16.493  24.544  1.00  0.00     0.000 C 
BRANCH   8   9
ATOM      9  C   UNL     1       7.112 -17.806  24.757  1.00  0.00     0.006 C 
BRANCH   9  10
ATOM     10  C   UNL     1       7.587 -18.478  23.458  1.00  0.00     0.053 C 
BRANCH  10  11
ATOM     11  C   UNL     1       7.074 -19.878  23.330  1.00  0.00     0.041 C 
ATOM     12  O   UNL     1       6.606 -20.285  22.233  1.00  0.00    -0.550 OA
ATOM     13  O   UNL     1       7.081 -20.726  24.432  1.00  0.00    -0.550 OA
ENDBRANCH  10  11
ENDBRANCH   9  10
ENDBRANCH   8   9
ENDBRANCH   1   8
TORSDOF 8
ENDMDL
MODEL 9
REMARK VINA RESULT:    -3.866      4.057      6.399
REMARK INTER + INTRA:          -6.062
REMARK INTER:                  -5.447
REMARK INTRA:                  -0.616
REMARK UNBOUND:                -0.388
REMARK SMILES O=C([O-])CCCCCCCC(=O)[O-]
REMARK SMILES IDX 7 1 6 2 5 3 4 4 2 5 1 6 3 7 8 8 9 9 10 10 11 11 12 12 13 13
REMARK H PARENT
REMARK Flexibility Score: inf
ROOT
ATOM      1  C   UNL     1       7.721 -18.745  22.232  1.00  0.00     0.000 C 
ENDROOT
BRANCH   1   2
ATOM      2  C   UNL     1       6.793 -19.613  23.091  1.00  0.00     0.000 C 
BRANCH   2   3
ATOM      3  C   UNL     1       7.580 -20.724  23.803  1.00  0.00     0.006 C 
BRANCH   3   4
ATOM      4  C   UNL     1       7.274 -20.783  25.305  1.00  0.00     0.053 C 
BRANCH   4   5
ATOM      5  C   UNL     1       7.849 -19.608  26.036  1.00  0.00     0.041 C 
ATOM      6  O   UNL     1       9.029 -19.237  25.808  1.00  0.00    -0.550 OA
ATOM      7  O   UNL     1       7.090 -18.944  26.992  1.00  0.00    -0.550 OA
ENDBRANCH   4   5
ENDBRANCH   3   4
ENDBRANCH   2   3
ENDBRANCH   1   2
BRANCH   1   8
ATOM      8  C   UNL     1       7.526 -17.254  22.545  1.00  0.00     0.000 C 
BRANCH   8   9
ATOM      9  C   UNL     1       6.837 -17.015  23.901  1.00  0.00     0.006 C 
BRANCH   9  10
ATOM     10  C   UNL     1       6.782 -15.540  24.331  1.00  0.00     0.053 C 
BRANCH  10  11
ATOM     11  C   UNL     1       7.916 -15.177  25.238  1.00  0.00     0.041 C 
ATOM     12  O   UNL     1       8.840 -14.425  24.829  1.00  0.00    -0.550 OA
ATOM     13  O   UNL     1       7.972 -15.698  26.526  1.00  0.00    -0.550 OA
ENDBRANCH  10  11
ENDBRANCH   9  10
ENDBRANCH   8   9
ENDBRANCH   1   8
TORSDOF 8
ENDMDL
