MODEL 1
REMARK VINA RESULT:    -4.182      0.000      0.000
REMARK INTER + INTRA:         -16.515
REMARK INTER:                 -11.027
REMARK INTRA:                  -5.488
REMARK UNBOUND:                -5.488
REMARK SMILES CCCCCCCCCCCCCCCCCCCCCCCCCCCCCC(=O)[O-]
REMARK SMILES IDX 16 1 17 2 18 3 19 4 20 5 21 6 22 7 23 8 24 9 25 10 26 11
REMARK SMILES IDX 27 12 28 13 29 14 30 15 31 16 32 17 15 18 14 19 13 20 12 21
REMARK SMILES IDX 11 22 10 23 9 24 8 25 7 26 6 27 5 28 4 29 3 30 2 31 1 32
REMARK H PARENT
REMARK Flexibility Score: inf
ROOT
ATOM      1  C   UNL     1      24.348   4.971  10.375  1.00  0.00     0.000 C 
ENDROOT
BRANCH   1   2
ATOM      2  C   UNL     1      24.759   6.427  10.662  1.00  0.00     0.000 C 
BRANCH   2   3
ATOM      3  C   UNL     1      23.887   7.501   9.985  1.00  0.00     0.000 C 
BRANCH   3   4
ATOM      4  C   UNL     1      24.621   8.255   8.866  1.00  0.00     0.000 C 
BRANCH   4   5
ATOM      5  C   UNL     1      26.141   8.048   8.964  1.00  0.00     0.000 C 
BRANCH   5   6
ATOM      6  C   UNL     1      26.757   7.516   7.652  1.00  0.00     0.000 C 
BRANCH   6   7
ATOM      7  C   UNL     1      25.749   6.819   6.719  1.00  0.00     0.000 C 
BRANCH   7   8
ATOM      8  C   UNL     1      25.687   5.284   6.844  1.00  0.00     0.000 C 
BRANCH   8   9
ATOM      9  C   UNL     1      24.274   4.695   7.034  1.00  0.00     0.000 C 
BRANCH   9  10
ATOM     10  C   UNL     1      23.122   5.701   6.859  1.00  0.00     0.000 C 
BRANCH  10  11
ATOM     11  C   UNL     1      21.837   5.049   6.324  1.00  0.00     0.000 C 
BRANCH  11  12
ATOM     12  C   UNL     1      21.037   5.983   5.398  1.00  0.00     0.000 C 
BRANCH  12  13
ATOM     13  C   UNL     1      19.542   6.127   5.753  1.00  0.00     0.006 C 
BRANCH  13  14
ATOM     14  C   UNL     1      19.230   7.240   6.765  1.00  0.00     0.053 C 
BRANCH  14  15
ATOM     15  C   UNL     1      18.725   6.691   8.065  1.00  0.00     0.041 C 
ATOM     16  O   UNL     1      18.530   7.458   9.045  1.00  0.00    -0.550 OA
ATOM     17  O   UNL     1      18.435   5.338   8.182  1.00  0.00    -0.550 OA
ENDBRANCH  14  15
ENDBRANCH  13  14
ENDBRANCH  12  13
ENDBRANCH  11  12
ENDBRANCH  10  11
ENDBRANCH   9  10
ENDBRANCH   8   9
ENDBRANCH   7   8
ENDBRANCH   6   7
ENDBRANCH   5   6
ENDBRANCH   4   5
ENDBRANCH   3   4
ENDBRANCH   2   3
ENDBRANCH   1   2
BRANCH   1  18
ATOM     18  C   UNL     1      25.541   4.001  10.352  1.00  0.00     0.000 C 
BRANCH  18  19
ATOM     19  C   UNL     1      26.892   4.735  10.385  1.00  0.00     0.000 C 
BRANCH  19  20
ATOM     20  C   UNL     1      28.077   3.812  10.066  1.00  0.00     0.000 C 
BRANCH  20  21
ATOM     21  C   UNL     1      28.157   3.530   8.561  1.00  0.00     0.000 C 
BRANCH  21  22
ATOM     22  C   UNL     1      28.803   2.165   8.287  1.00  0.00     0.000 C 
BRANCH  22  23
ATOM     23  C   UNL     1      28.338   1.076   9.269  1.00  0.00     0.000 C 
BRANCH  23  24
ATOM     24  C   UNL     1      28.815  -0.343   8.888  1.00  0.00    -0.000 C 
BRANCH  24  25
ATOM     25  C   UNL     1      28.948  -0.523   7.364  1.00  0.00    -0.000 C 
BRANCH  25  26
ATOM     26  C   UNL     1      27.922  -1.530   6.798  1.00  0.00    -0.000 C 
BRANCH  26  27
ATOM     27  C   UNL     1      26.821  -0.880   5.939  1.00  0.00    -0.000 C 
BRANCH  27  28
ATOM     28  C   UNL     1      27.065   0.596   5.582  1.00  0.00    -0.000 C 
BRANCH  28  29
ATOM     29  C   UNL     1      25.878   1.501   5.948  1.00  0.00    -0.000 C 
BRANCH  29  30
ATOM     30  C   UNL     1      25.262   1.080   7.288  1.00  0.00    -0.000 C 
BRANCH  30  31
ATOM     31  C   UNL     1      23.731   1.116   7.224  1.00  0.00    -0.003 C 
ATOM     32  C   UNL     1      23.243   1.305   5.791  1.00  0.00     0.004 C 
ENDBRANCH  30  31
ENDBRANCH  29  30
ENDBRANCH  28  29
ENDBRANCH  27  28
ENDBRANCH  26  27
ENDBRANCH  25  26
ENDBRANCH  24  25
ENDBRANCH  23  24
ENDBRANCH  22  23
ENDBRANCH  21  22
ENDBRANCH  20  21
ENDBRANCH  19  20
ENDBRANCH  18  19
ENDBRANCH   1  18
TORSDOF 28
ENDMDL
MODEL 2
REMARK VINA RESULT:    -3.974      3.057      8.031
REMARK INTER + INTRA:         -15.966
REMARK INTER:                 -10.643
REMARK INTRA:                  -5.323
REMARK UNBOUND:                -5.488
REMARK SMILES CCCCCCCCCCCCCCCCCCCCCCCCCCCCCC(=O)[O-]
REMARK SMILES IDX 16 1 17 2 18 3 19 4 20 5 21 6 22 7 23 8 24 9 25 10 26 11
REMARK SMILES IDX 27 12 28 13 29 14 30 15 31 16 32 17 15 18 14 19 13 20 12 21
REMARK SMILES IDX 11 22 10 23 9 24 8 25 7 26 6 27 5 28 4 29 3 30 2 31 1 32
REMARK H PARENT
REMARK Flexibility Score: inf
ROOT
ATOM      1  C   UNL     1      25.073   3.280   6.834  1.00  0.00     0.000 C 
ENDROOT
BRANCH   1   2
ATOM      2  C   UNL     1      24.734   4.717   7.271  1.00  0.00     0.000 C 
BRANCH   2   3
ATOM      3  C   UNL     1      25.830   5.763   6.996  1.00  0.00     0.000 C 
BRANCH   3   4
ATOM      4  C   UNL     1      26.257   6.532   8.255  1.00  0.00     0.000 C 
BRANCH   4   5
ATOM      5  C   UNL     1      25.762   5.828   9.528  1.00  0.00     0.000 C 
BRANCH   5   6
ATOM      6  C   UNL     1      26.915   5.256  10.382  1.00  0.00     0.000 C 
BRANCH   6   7
ATOM      7  C   UNL     1      27.370   3.845   9.961  1.00  0.00     0.000 C 
BRANCH   7   8
ATOM      8  C   UNL     1      28.453   3.800   8.866  1.00  0.00     0.000 C 
BRANCH   8   9
ATOM      9  C   UNL     1      28.501   2.497   8.040  1.00  0.00     0.000 C 
BRANCH   9  10
ATOM     10  C   UNL     1      28.427   1.202   8.868  1.00  0.00     0.000 C 
BRANCH  10  11
ATOM     11  C   UNL     1      28.553  -0.065   8.005  1.00  0.00     0.000 C 
BRANCH  11  12
ATOM     12  C   UNL     1      27.188  -0.622   7.563  1.00  0.00     0.000 C 
BRANCH  12  13
ATOM     13  C   UNL     1      27.097  -1.013   6.073  1.00  0.00     0.006 C 
BRANCH  13  14
ATOM     14  C   UNL     1      26.142  -0.143   5.242  1.00  0.00     0.053 C 
BRANCH  14  15
ATOM     15  C   UNL     1      26.880   0.756   4.298  1.00  0.00     0.041 C 
ATOM     16  O   UNL     1      26.606   0.747   3.068  1.00  0.00    -0.550 OA
ATOM     17  O   UNL     1      27.846   1.629   4.781  1.00  0.00    -0.550 OA
ENDBRANCH  14  15
ENDBRANCH  13  14
ENDBRANCH  12  13
ENDBRANCH  11  12
ENDBRANCH  10  11
ENDBRANCH   9  10
ENDBRANCH   8   9
ENDBRANCH   7   8
ENDBRANCH   6   7
ENDBRANCH   5   6
ENDBRANCH   4   5
ENDBRANCH   3   4
ENDBRANCH   2   3
ENDBRANCH   1   2
BRANCH   1  18
ATOM     18  C   UNL     1      24.723   2.228   7.901  1.00  0.00     0.000 C 
BRANCH  18  19
ATOM     19  C   UNL     1      23.474   1.413   7.530  1.00  0.00     0.000 C 
BRANCH  19  20
ATOM     20  C   UNL     1      22.167   2.184   7.771  1.00  0.00     0.000 C 
BRANCH  20  21
ATOM     21  C   UNL     1      21.211   2.018   6.585  1.00  0.00     0.000 C 
BRANCH  21  22
ATOM     22  C   UNL     1      21.415   3.130   5.548  1.00  0.00     0.000 C 
BRANCH  22  23
ATOM     23  C   UNL     1      21.343   4.540   6.161  1.00  0.00     0.000 C 
BRANCH  23  24
ATOM     24  C   UNL     1      20.871   5.622   5.166  1.00  0.00    -0.000 C 
BRANCH  24  25
ATOM     25  C   UNL     1      19.389   5.993   5.369  1.00  0.00    -0.000 C 
BRANCH  25  26
ATOM     26  C   UNL     1      19.001   6.069   6.862  1.00  0.00    -0.000 C 
BRANCH  26  27
ATOM     27  C   UNL     1      18.917   7.507   7.411  1.00  0.00    -0.000 C 
BRANCH  27  28
ATOM     28  C   UNL     1      18.989   7.620   8.943  1.00  0.00    -0.000 C 
BRANCH  28  29
ATOM     29  C   UNL     1      19.521   6.342   9.609  1.00  0.00    -0.000 C 
BRANCH  29  30
ATOM     30  C   UNL     1      20.879   6.598  10.276  1.00  0.00    -0.000 C 
BRANCH  30  31
ATOM     31  C   UNL     1      22.030   6.155   9.366  1.00  0.00    -0.003 C 
ATOM     32  C   UNL     1      22.551   7.320   8.530  1.00  0.00     0.004 C 
ENDBRANCH  30  31
ENDBRANCH  29  30
ENDBRANCH  28  29
ENDBRANCH  27  28
ENDBRANCH  26  27
ENDBRANCH  25  26
ENDBRANCH  24  25
ENDBRANCH  23  24
ENDBRANCH  22  23
ENDBRANCH  21  22
ENDBRANCH  20  21
ENDBRANCH  19  20
ENDBRANCH  18  19
ENDBRANCH   1  18
TORSDOF 28
ENDMDL
MODEL 3
REMARK VINA RESULT:    -3.954      2.242      6.879
REMARK INTER + INTRA:         -15.915
REMARK INTER:                 -11.288
REMARK INTRA:                  -4.627
REMARK UNBOUND:                -5.488
REMARK SMILES CCCCCCCCCCCCCCCCCCCCCCCCCCCCCC(=O)[O-]
REMARK SMILES IDX 16 1 17 2 18 3 19 4 20 5 21 6 22 7 23 8 24 9 25 10 26 11
REMARK SMILES IDX 27 12 28 13 29 14 30 15 31 16 32 17 15 18 14 19 13 20 12 21
REMARK SMILES IDX 11 22 10 23 9 24 8 25 7 26 6 27 5 28 4 29 3 30 2 31 1 32
REMARK H PARENT
REMARK Flexibility Score: inf
ROOT
ATOM      1  C   UNL     1      24.506   3.993   8.008  1.00  0.00     0.000 C 
ENDROOT
BRANCH   1   2
ATOM      2  C   UNL     1      25.110   3.234   9.204  1.00  0.00     0.000 C 
BRANCH   2   3
ATOM      3  C   UNL     1      25.416   4.096  10.443  1.00  0.00     0.000 C 
BRANCH   3   4
ATOM      4  C   UNL     1      26.843   4.663  10.445  1.00  0.00     0.000 C 
BRANCH   4   5
ATOM      5  C   UNL     1      27.880   3.551  10.222  1.00  0.00     0.000 C 
BRANCH   5   6
ATOM      6  C   UNL     1      28.733   3.775   8.954  1.00  0.00     0.000 C 
BRANCH   6   7
ATOM      7  C   UNL     1      28.587   2.668   7.893  1.00  0.00     0.000 C 
BRANCH   7   8
ATOM      8  C   UNL     1      28.198   1.280   8.437  1.00  0.00     0.000 C 
BRANCH   8   9
ATOM      9  C   UNL     1      27.591   0.312   7.399  1.00  0.00     0.000 C 
BRANCH   9  10
ATOM     10  C   UNL     1      27.547   0.850   5.958  1.00  0.00     0.000 C 
BRANCH  10  11
ATOM     11  C   UNL     1      26.770  -0.070   5.002  1.00  0.00     0.000 C 
BRANCH  11  12
ATOM     12  C   UNL     1      26.069   0.705   3.871  1.00  0.00     0.000 C 
BRANCH  12  13
ATOM     13  C   UNL     1      24.528   0.715   3.949  1.00  0.00     0.006 C 
BRANCH  13  14
ATOM     14  C   UNL     1      23.950   1.598   5.065  1.00  0.00     0.053 C 
BRANCH  14  15
ATOM     15  C   UNL     1      23.324   0.785   6.157  1.00  0.00     0.041 C 
ATOM     16  O   UNL     1      22.133   0.389   6.050  1.00  0.00    -0.550 OA
ATOM     17  O   UNL     1      24.068   0.432   7.275  1.00  0.00    -0.550 OA
ENDBRANCH  14  15
ENDBRANCH  13  14
ENDBRANCH  12  13
ENDBRANCH  11  12
ENDBRANCH  10  11
ENDBRANCH   9  10
ENDBRANCH   8   9
ENDBRANCH   7   8
ENDBRANCH   6   7
ENDBRANCH   5   6
ENDBRANCH   4   5
ENDBRANCH   3   4
ENDBRANCH   2   3
ENDBRANCH   1   2
BRANCH   1  18
ATOM     18  C   UNL     1      25.544   4.334   6.925  1.00  0.00     0.000 C 
BRANCH  18  19
ATOM     19  C   UNL     1      25.698   5.850   6.721  1.00  0.00     0.000 C 
BRANCH  19  20
ATOM     20  C   UNL     1      26.584   6.507   7.790  1.00  0.00     0.000 C 
BRANCH  20  21
ATOM     21  C   UNL     1      26.491   8.035   7.709  1.00  0.00     0.000 C 
BRANCH  21  22
ATOM     22  C   UNL     1      25.774   8.612   8.938  1.00  0.00     0.000 C 
BRANCH  22  23
ATOM     23  C   UNL     1      24.301   8.177   9.029  1.00  0.00     0.000 C 
BRANCH  23  24
ATOM     24  C   UNL     1      23.860   7.785  10.456  1.00  0.00    -0.000 C 
BRANCH  24  25
ATOM     25  C   UNL     1      22.875   6.600  10.456  1.00  0.00    -0.000 C 
BRANCH  25  26
ATOM     26  C   UNL     1      22.102   6.478   9.125  1.00  0.00    -0.000 C 
BRANCH  26  27
ATOM     27  C   UNL     1      20.577   6.644   9.273  1.00  0.00    -0.000 C 
BRANCH  27  28
ATOM     28  C   UNL     1      19.902   7.451   8.151  1.00  0.00    -0.000 C 
BRANCH  28  29
ATOM     29  C   UNL     1      20.767   7.547   6.884  1.00  0.00    -0.000 C 
BRANCH  29  30
ATOM     30  C   UNL     1      20.739   6.228   6.102  1.00  0.00    -0.000 C 
BRANCH  30  31
ATOM     31  C   UNL     1      19.346   5.964   5.519  1.00  0.00    -0.003 C 
ATOM     32  C   UNL     1      18.680   4.772   6.200  1.00  0.00     0.004 C 
ENDBRANCH  30  31
ENDBRANCH  29  30
ENDBRANCH  28  29
ENDBRANCH  27  28
ENDBRANCH  26  27
ENDBRANCH  25  26
ENDBRANCH  24  25
ENDBRANCH  23  24
ENDBRANCH  22  23
ENDBRANCH  21  22
ENDBRANCH  20  21
ENDBRANCH  19  20
ENDBRANCH  18  19
ENDBRANCH   1  18
TORSDOF 28
ENDMDL
MODEL 4
REMARK VINA RESULT:    -3.921      1.684      2.853
REMARK INTER + INTRA:         -15.828
REMARK INTER:                 -10.304
REMARK INTRA:                  -5.524
REMARK UNBOUND:                -5.488
REMARK SMILES CCCCCCCCCCCCCCCCCCCCCCCCCCCCCC(=O)[O-]
REMARK SMILES IDX 16 1 17 2 18 3 19 4 20 5 21 6 22 7 23 8 24 9 25 10 26 11
REMARK SMILES IDX 27 12 28 13 29 14 30 15 31 16 32 17 15 18 14 19 13 20 12 21
REMARK SMILES IDX 11 22 10 23 9 24 8 25 7 26 6 27 5 28 4 29 3 30 2 31 1 32
REMARK H PARENT
REMARK Flexibility Score: inf
ROOT
ATOM      1  C   UNL     1      26.621   4.143  10.374  1.00  0.00     0.000 C 
ENDROOT
BRANCH   1   2
ATOM      2  C   UNL     1      26.651   5.656  10.093  1.00  0.00     0.000 C 
BRANCH   2   3
ATOM      3  C   UNL     1      25.320   6.261   9.608  1.00  0.00     0.000 C 
BRANCH   3   4
ATOM      4  C   UNL     1      25.437   6.960   8.245  1.00  0.00     0.000 C 
BRANCH   4   5
ATOM      5  C   UNL     1      24.928   6.054   7.113  1.00  0.00     0.000 C 
BRANCH   5   6
ATOM      6  C   UNL     1      25.981   5.021   6.656  1.00  0.00     0.000 C 
BRANCH   6   7
ATOM      7  C   UNL     1      25.528   3.555   6.795  1.00  0.00     0.000 C 
BRANCH   7   8
ATOM      8  C   UNL     1      24.034   3.354   7.117  1.00  0.00     0.000 C 
BRANCH   8   9
ATOM      9  C   UNL     1      23.732   2.801   8.525  1.00  0.00     0.000 C 
BRANCH   9  10
ATOM     10  C   UNL     1      22.330   3.135   9.066  1.00  0.00     0.000 C 
BRANCH  10  11
ATOM     11  C   UNL     1      22.077   4.649   9.171  1.00  0.00     0.000 C 
BRANCH  11  12
ATOM     12  C   UNL     1      20.918   5.121   8.276  1.00  0.00     0.000 C 
BRANCH  12  13
ATOM     13  C   UNL     1      21.341   5.965   7.055  1.00  0.00     0.006 C 
BRANCH  13  14
ATOM     14  C   UNL     1      20.180   6.659   6.325  1.00  0.00     0.053 C 
BRANCH  14  15
ATOM     15  C   UNL     1      19.713   7.883   7.050  1.00  0.00     0.041 C 
ATOM     16  O   UNL     1      18.666   7.846   7.749  1.00  0.00    -0.550 OA
ATOM     17  O   UNL     1      20.455   9.056   6.985  1.00  0.00    -0.550 OA
ENDBRANCH  14  15
ENDBRANCH  13  14
ENDBRANCH  12  13
ENDBRANCH  11  12
ENDBRANCH  10  11
ENDBRANCH   9  10
ENDBRANCH   8   9
ENDBRANCH   7   8
ENDBRANCH   6   7
ENDBRANCH   5   6
ENDBRANCH   4   5
ENDBRANCH   3   4
ENDBRANCH   2   3
ENDBRANCH   1   2
BRANCH   1  18
ATOM     18  C   UNL     1      28.014   3.493  10.325  1.00  0.00     0.000 C 
BRANCH  18  19
ATOM     19  C   UNL     1      28.664   3.605   8.936  1.00  0.00     0.000 C 
BRANCH  19  20
ATOM     20  C   UNL     1      28.542   2.311   8.117  1.00  0.00     0.000 C 
BRANCH  20  21
ATOM     21  C   UNL     1      28.706   1.081   9.016  1.00  0.00     0.000 C 
BRANCH  21  22
ATOM     22  C   UNL     1      27.976  -0.135   8.430  1.00  0.00     0.000 C 
BRANCH  22  23
ATOM     23  C   UNL     1      26.797   0.257   7.522  1.00  0.00     0.000 C 
BRANCH  23  24
ATOM     24  C   UNL     1      26.871  -0.364   6.110  1.00  0.00    -0.000 C 
BRANCH  24  25
ATOM     25  C   UNL     1      27.179   0.687   5.027  1.00  0.00    -0.000 C 
BRANCH  25  26
ATOM     26  C   UNL     1      26.102   0.724   3.919  1.00  0.00    -0.000 C 
BRANCH  26  27
ATOM     27  C   UNL     1      24.657   0.749   4.456  1.00  0.00    -0.000 C 
BRANCH  27  28
ATOM     28  C   UNL     1      23.769  -0.413   3.980  1.00  0.00    -0.000 C 
BRANCH  28  29
ATOM     29  C   UNL     1      22.419  -0.467   4.710  1.00  0.00    -0.000 C 
BRANCH  29  30
ATOM     30  C   UNL     1      22.468   0.342   6.012  1.00  0.00    -0.000 C 
BRANCH  30  31
ATOM     31  C   UNL     1      22.787  -0.562   7.208  1.00  0.00    -0.003 C 
ATOM     32  C   UNL     1      21.601  -0.650   8.164  1.00  0.00     0.004 C 
ENDBRANCH  30  31
ENDBRANCH  29  30
ENDBRANCH  28  29
ENDBRANCH  27  28
ENDBRANCH  26  27
ENDBRANCH  25  26
ENDBRANCH  24  25
ENDBRANCH  23  24
ENDBRANCH  22  23
ENDBRANCH  21  22
ENDBRANCH  20  21
ENDBRANCH  19  20
ENDBRANCH  18  19
ENDBRANCH   1  18
TORSDOF 28
ENDMDL
MODEL 5
REMARK VINA RESULT:    -3.894      1.855      3.293
REMARK INTER + INTRA:         -15.757
REMARK INTER:                 -10.510
REMARK INTRA:                  -5.247
REMARK UNBOUND:                -5.488
REMARK SMILES CCCCCCCCCCCCCCCCCCCCCCCCCCCCCC(=O)[O-]
REMARK SMILES IDX 16 1 17 2 18 3 19 4 20 5 21 6 22 7 23 8 24 9 25 10 26 11
REMARK SMILES IDX 27 12 28 13 29 14 30 15 31 16 32 17 15 18 14 19 13 20 12 21
REMARK SMILES IDX 11 22 10 23 9 24 8 25 7 26 6 27 5 28 4 29 3 30 2 31 1 32
REMARK H PARENT
REMARK Flexibility Score: inf
ROOT
ATOM      1  C   UNL     1      26.144   5.123  10.145  1.00  0.00     0.000 C 
ENDROOT
BRANCH   1   2
ATOM      2  C   UNL     1      26.505   6.373   9.323  1.00  0.00     0.000 C 
BRANCH   2   3
ATOM      3  C   UNL     1      25.368   6.936   8.449  1.00  0.00     0.000 C 
BRANCH   3   4
ATOM      4  C   UNL     1      25.201   6.182   7.121  1.00  0.00     0.000 C 
BRANCH   4   5
ATOM      5  C   UNL     1      23.727   5.828   6.867  1.00  0.00     0.000 C 
BRANCH   5   6
ATOM      6  C   UNL     1      22.914   5.685   8.172  1.00  0.00     0.000 C 
BRANCH   6   7
ATOM      7  C   UNL     1      21.464   5.208   7.962  1.00  0.00     0.000 C 
BRANCH   7   8
ATOM      8  C   UNL     1      21.011   5.100   6.493  1.00  0.00     0.000 C 
BRANCH   8   9
ATOM      9  C   UNL     1      20.144   6.270   5.983  1.00  0.00     0.000 C 
BRANCH   9  10
ATOM     10  C   UNL     1      19.020   6.708   6.939  1.00  0.00     0.000 C 
BRANCH  10  11
ATOM     11  C   UNL     1      19.143   8.180   7.369  1.00  0.00     0.000 C 
BRANCH  11  12
ATOM     12  C   UNL     1      20.577   8.722   7.229  1.00  0.00     0.000 C 
BRANCH  12  13
ATOM     13  C   UNL     1      21.315   8.959   8.563  1.00  0.00     0.006 C 
BRANCH  13  14
ATOM     14  C   UNL     1      20.615   8.364   9.795  1.00  0.00     0.053 C 
BRANCH  14  15
ATOM     15  C   UNL     1      21.585   8.048  10.892  1.00  0.00     0.041 C 
ATOM     16  O   UNL     1      22.824   8.041  10.662  1.00  0.00    -0.550 OA
ATOM     17  O   UNL     1      21.123   7.797  12.178  1.00  0.00    -0.550 OA
ENDBRANCH  14  15
ENDBRANCH  13  14
ENDBRANCH  12  13
ENDBRANCH  11  12
ENDBRANCH  10  11
ENDBRANCH   9  10
ENDBRANCH   8   9
ENDBRANCH   7   8
ENDBRANCH   6   7
ENDBRANCH   5   6
ENDBRANCH   4   5
ENDBRANCH   3   4
ENDBRANCH   2   3
ENDBRANCH   1   2
BRANCH   1  18
ATOM     18  C   UNL     1      27.214   4.021  10.066  1.00  0.00     0.000 C 
BRANCH  18  19
ATOM     19  C   UNL     1      27.806   3.880   8.655  1.00  0.00     0.000 C 
BRANCH  19  20
ATOM     20  C   UNL     1      28.750   2.674   8.523  1.00  0.00     0.000 C 
BRANCH  20  21
ATOM     21  C   UNL     1      28.734   1.830   9.802  1.00  0.00     0.000 C 
BRANCH  21  22
ATOM     22  C   UNL     1      29.078   0.364   9.502  1.00  0.00     0.000 C 
BRANCH  22  23
ATOM     23  C   UNL     1      29.001   0.027   8.003  1.00  0.00     0.000 C 
BRANCH  23  24
ATOM     24  C   UNL     1      28.032  -1.131   7.679  1.00  0.00    -0.000 C 
BRANCH  24  25
ATOM     25  C   UNL     1      27.223  -0.872   6.394  1.00  0.00    -0.000 C 
BRANCH  25  26
ATOM     26  C   UNL     1      27.514   0.518   5.785  1.00  0.00    -0.000 C 
BRANCH  26  27
ATOM     27  C   UNL     1      26.363   1.528   5.960  1.00  0.00    -0.000 C 
BRANCH  27  28
ATOM     28  C   UNL     1      25.548   1.363   7.253  1.00  0.00    -0.000 C 
BRANCH  28  29
ATOM     29  C   UNL     1      24.436   2.414   7.394  1.00  0.00    -0.000 C 
BRANCH  29  30
ATOM     30  C   UNL     1      23.656   2.213   8.699  1.00  0.00    -0.000 C 
BRANCH  30  31
ATOM     31  C   UNL     1      22.311   1.528   8.435  1.00  0.00    -0.003 C 
ATOM     32  C   UNL     1      21.278   1.917   9.487  1.00  0.00     0.004 C 
ENDBRANCH  30  31
ENDBRANCH  29  30
ENDBRANCH  28  29
ENDBRANCH  27  28
ENDBRANCH  26  27
ENDBRANCH  25  26
ENDBRANCH  24  25
ENDBRANCH  23  24
ENDBRANCH  22  23
ENDBRANCH  21  22
ENDBRANCH  20  21
ENDBRANCH  19  20
ENDBRANCH  18  19
ENDBRANCH   1  18
TORSDOF 28
ENDMDL
MODEL 6
REMARK VINA RESULT:    -3.861      1.608      5.208
REMARK INTER + INTRA:         -15.669
REMARK INTER:                 -11.350
REMARK INTRA:                  -4.319
REMARK UNBOUND:                -5.488
REMARK SMILES CCCCCCCCCCCCCCCCCCCCCCCCCCCCCC(=O)[O-]
REMARK SMILES IDX 16 1 17 2 18 3 19 4 20 5 21 6 22 7 23 8 24 9 25 10 26 11
REMARK SMILES IDX 27 12 28 13 29 14 30 15 31 16 32 17 15 18 14 19 13 20 12 21
REMARK SMILES IDX 11 22 10 23 9 24 8 25 7 26 6 27 5 28 4 29 3 30 2 31 1 32
REMARK H PARENT
REMARK Flexibility Score: inf
ROOT
ATOM      1  C   UNL     1      25.300  -0.800   6.594  1.00  0.00     0.000 C 
ENDROOT
BRANCH   1   2
ATOM      2  C   UNL     1      24.853  -0.158   5.268  1.00  0.00     0.000 C 
BRANCH   2   3
ATOM      3  C   UNL     1      24.483   1.335   5.353  1.00  0.00     0.000 C 
BRANCH   3   4
ATOM      4  C   UNL     1      25.599   2.198   5.961  1.00  0.00     0.000 C 
BRANCH   4   5
ATOM      5  C   UNL     1      25.018   3.308   6.851  1.00  0.00     0.000 C 
BRANCH   5   6
ATOM      6  C   UNL     1      24.551   2.787   8.227  1.00  0.00     0.000 C 
BRANCH   6   7
ATOM      7  C   UNL     1      23.442   3.635   8.879  1.00  0.00     0.000 C 
BRANCH   7   8
ATOM      8  C   UNL     1      22.647   4.536   7.913  1.00  0.00     0.000 C 
BRANCH   8   9
ATOM      9  C   UNL     1      21.445   3.860   7.221  1.00  0.00     0.000 C 
BRANCH   9  10
ATOM     10  C   UNL     1      21.319   4.146   5.714  1.00  0.00     0.000 C 
BRANCH  10  11
ATOM     11  C   UNL     1      20.849   5.580   5.417  1.00  0.00     0.000 C 
BRANCH  11  12
ATOM     12  C   UNL     1      19.555   5.948   6.164  1.00  0.00     0.000 C 
BRANCH  12  13
ATOM     13  C   UNL     1      19.518   7.384   6.729  1.00  0.00     0.006 C 
BRANCH  13  14
ATOM     14  C   UNL     1      20.835   7.854   7.367  1.00  0.00     0.053 C 
BRANCH  14  15
ATOM     15  C   UNL     1      20.681   8.126   8.832  1.00  0.00     0.041 C 
ATOM     16  O   UNL     1      20.434   9.293   9.238  1.00  0.00    -0.550 OA
ATOM     17  O   UNL     1      20.775   7.085   9.747  1.00  0.00    -0.550 OA
ENDBRANCH  14  15
ENDBRANCH  13  14
ENDBRANCH  12  13
ENDBRANCH  11  12
ENDBRANCH  10  11
ENDBRANCH   9  10
ENDBRANCH   8   9
ENDBRANCH   7   8
ENDBRANCH   6   7
ENDBRANCH   5   6
ENDBRANCH   4   5
ENDBRANCH   3   4
ENDBRANCH   2   3
ENDBRANCH   1   2
BRANCH   1  18
ATOM     18  C   UNL     1      25.120  -2.328   6.615  1.00  0.00     0.000 C 
BRANCH  18  19
ATOM     19  C   UNL     1      26.423  -3.066   6.958  1.00  0.00     0.000 C 
BRANCH  19  20
ATOM     20  C   UNL     1      27.656  -2.437   6.291  1.00  0.00     0.000 C 
BRANCH  20  21
ATOM     21  C   UNL     1      28.771  -2.208   7.317  1.00  0.00     0.000 C 
BRANCH  21  22
ATOM     22  C   UNL     1      28.261  -2.425   8.748  1.00  0.00     0.000 C 
BRANCH  22  23
ATOM     23  C   UNL     1      28.348  -1.156   9.613  1.00  0.00     0.000 C 
BRANCH  23  24
ATOM     24  C   UNL     1      28.939   0.061   8.867  1.00  0.00    -0.000 C 
BRANCH  24  25
ATOM     25  C   UNL     1      27.867   1.115   8.531  1.00  0.00    -0.000 C 
BRANCH  25  26
ATOM     26  C   UNL     1      28.445   2.547   8.480  1.00  0.00    -0.000 C 
BRANCH  26  27
ATOM     27  C   UNL     1      28.479   3.254   9.849  1.00  0.00    -0.000 C 
BRANCH  27  28
ATOM     28  C   UNL     1      27.114   3.749  10.356  1.00  0.00    -0.000 C 
BRANCH  28  29
ATOM     29  C   UNL     1      26.988   5.280  10.324  1.00  0.00    -0.000 C 
BRANCH  29  30
ATOM     30  C   UNL     1      26.828   5.786   8.885  1.00  0.00    -0.000 C 
BRANCH  30  31
ATOM     31  C   UNL     1      26.091   7.130   8.855  1.00  0.00    -0.003 C 
ATOM     32  C   UNL     1      26.723   8.082   7.844  1.00  0.00     0.004 C 
ENDBRANCH  30  31
ENDBRANCH  29  30
ENDBRANCH  28  29
ENDBRANCH  27  28
ENDBRANCH  26  27
ENDBRANCH  25  26
ENDBRANCH  24  25
ENDBRANCH  23  24
ENDBRANCH  22  23
ENDBRANCH  21  22
ENDBRANCH  20  21
ENDBRANCH  19  20
ENDBRANCH  18  19
ENDBRANCH   1  18
TORSDOF 28
ENDMDL
MODEL 7
REMARK VINA RESULT:    -3.860      1.467      5.539
REMARK INTER + INTRA:         -15.666
REMARK INTER:                  -9.513
REMARK INTRA:                  -6.153
REMARK UNBOUND:                -5.488
REMARK SMILES CCCCCCCCCCCCCCCCCCCCCCCCCCCCCC(=O)[O-]
REMARK SMILES IDX 16 1 17 2 18 3 19 4 20 5 21 6 22 7 23 8 24 9 25 10 26 11
REMARK SMILES IDX 27 12 28 13 29 14 30 15 31 16 32 17 15 18 14 19 13 20 12 21
REMARK SMILES IDX 11 22 10 23 9 24 8 25 7 26 6 27 5 28 4 29 3 30 2 31 1 32
REMARK H PARENT
REMARK Flexibility Score: inf
ROOT
ATOM      1  C   UNL     1      25.781   0.337   6.514  1.00  0.00     0.000 C 
ENDROOT
BRANCH   1   2
ATOM      2  C   UNL     1      24.426   1.062   6.423  1.00  0.00     0.000 C 
BRANCH   2   3
ATOM      3  C   UNL     1      24.509   2.588   6.228  1.00  0.00     0.000 C 
BRANCH   3   4
ATOM      4  C   UNL     1      24.306   3.374   7.532  1.00  0.00     0.000 C 
BRANCH   4   5
ATOM      5  C   UNL     1      23.567   2.526   8.579  1.00  0.00     0.000 C 
BRANCH   5   6
ATOM      6  C   UNL     1      22.310   3.228   9.138  1.00  0.00     0.000 C 
BRANCH   6   7
ATOM      7  C   UNL     1      20.983   2.550   8.747  1.00  0.00     0.000 C 
BRANCH   7   8
ATOM      8  C   UNL     1      20.742   2.396   7.233  1.00  0.00     0.000 C 
BRANCH   8   9
ATOM      9  C   UNL     1      20.258   3.670   6.510  1.00  0.00     0.000 C 
BRANCH   9  10
ATOM     10  C   UNL     1      21.249   4.248   5.482  1.00  0.00     0.000 C 
BRANCH  10  11
ATOM     11  C   UNL     1      21.393   5.775   5.587  1.00  0.00     0.000 C 
BRANCH  11  12
ATOM     12  C   UNL     1      21.965   6.227   6.943  1.00  0.00     0.000 C 
BRANCH  12  13
ATOM     13  C   UNL     1      21.117   7.278   7.689  1.00  0.00     0.006 C 
BRANCH  13  14
ATOM     14  C   UNL     1      20.289   6.719   8.857  1.00  0.00     0.053 C 
BRANCH  14  15
ATOM     15  C   UNL     1      18.819   6.917   8.647  1.00  0.00     0.041 C 
ATOM     16  O   UNL     1      18.154   6.080   7.981  1.00  0.00    -0.550 OA
ATOM     17  O   UNL     1      18.176   8.007   9.219  1.00  0.00    -0.550 OA
ENDBRANCH  14  15
ENDBRANCH  13  14
ENDBRANCH  12  13
ENDBRANCH  11  12
ENDBRANCH  10  11
ENDBRANCH   9  10
ENDBRANCH   8   9
ENDBRANCH   7   8
ENDBRANCH   6   7
ENDBRANCH   5   6
ENDBRANCH   4   5
ENDBRANCH   3   4
ENDBRANCH   2   3
ENDBRANCH   1   2
BRANCH   1  18
ATOM     18  C   UNL     1      26.928   1.118   5.850  1.00  0.00     0.000 C 
BRANCH  18  19
ATOM     19  C   UNL     1      28.065   1.438   6.834  1.00  0.00     0.000 C 
BRANCH  19  20
ATOM     20  C   UNL     1      27.635   1.306   8.302  1.00  0.00     0.000 C 
BRANCH  20  21
ATOM     21  C   UNL     1      28.732   1.822   9.239  1.00  0.00     0.000 C 
BRANCH  21  22
ATOM     22  C   UNL     1      28.203   2.940  10.149  1.00  0.00     0.000 C 
BRANCH  22  23
ATOM     23  C   UNL     1      27.713   4.168   9.363  1.00  0.00     0.000 C 
BRANCH  23  24
ATOM     24  C   UNL     1      26.920   5.177  10.224  1.00  0.00    -0.000 C 
BRANCH  24  25
ATOM     25  C   UNL     1      25.509   4.665  10.569  1.00  0.00    -0.000 C 
BRANCH  25  26
ATOM     26  C   UNL     1      24.644   5.743  11.259  1.00  0.00    -0.000 C 
BRANCH  26  27
ATOM     27  C   UNL     1      23.679   6.472  10.304  1.00  0.00    -0.000 C 
BRANCH  27  28
ATOM     28  C   UNL     1      23.963   7.972  10.119  1.00  0.00    -0.000 C 
BRANCH  28  29
ATOM     29  C   UNL     1      24.545   8.301   8.735  1.00  0.00    -0.000 C 
BRANCH  29  30
ATOM     30  C   UNL     1      26.076   8.368   8.789  1.00  0.00    -0.000 C 
BRANCH  30  31
ATOM     31  C   UNL     1      26.695   7.842   7.489  1.00  0.00    -0.003 C 
ATOM     32  C   UNL     1      25.926   6.634   6.962  1.00  0.00     0.004 C 
ENDBRANCH  30  31
ENDBRANCH  29  30
ENDBRANCH  28  29
ENDBRANCH  27  28
ENDBRANCH  26  27
ENDBRANCH  25  26
ENDBRANCH  24  25
ENDBRANCH  23  24
ENDBRANCH  22  23
ENDBRANCH  21  22
ENDBRANCH  20  21
ENDBRANCH  19  20
ENDBRANCH  18  19
ENDBRANCH   1  18
TORSDOF 28
ENDMDL
MODEL 8
REMARK VINA RESULT:    -3.859      3.199      7.784
REMARK INTER + INTRA:         -15.664
REMARK INTER:                 -10.538
REMARK INTRA:                  -5.126
REMARK UNBOUND:                -5.488
REMARK SMILES CCCCCCCCCCCCCCCCCCCCCCCCCCCCCC(=O)[O-]
REMARK SMILES IDX 16 1 17 2 18 3 19 4 20 5 21 6 22 7 23 8 24 9 25 10 26 11
REMARK SMILES IDX 27 12 28 13 29 14 30 15 31 16 32 17 15 18 14 19 13 20 12 21
REMARK SMILES IDX 11 22 10 23 9 24 8 25 7 26 6 27 5 28 4 29 3 30 2 31 1 32
REMARK H PARENT
REMARK Flexibility Score: inf
ROOT
ATOM      1  C   UNL     1      24.603   4.970   8.347  1.00  0.00     0.000 C 
ENDROOT
BRANCH   1   2
ATOM      2  C   UNL     1      25.329   6.172   8.979  1.00  0.00     0.000 C 
BRANCH   2   3
ATOM      3  C   UNL     1      26.544   5.818   9.857  1.00  0.00     0.000 C 
BRANCH   3   4
ATOM      4  C   UNL     1      26.627   4.322  10.194  1.00  0.00     0.000 C 
BRANCH   4   5
ATOM      5  C   UNL     1      28.002   3.963  10.781  1.00  0.00     0.000 C 
BRANCH   5   6
ATOM      6  C   UNL     1      28.864   3.123   9.813  1.00  0.00     0.000 C 
BRANCH   6   7
ATOM      7  C   UNL     1      28.343   3.100   8.363  1.00  0.00     0.000 C 
BRANCH   7   8
ATOM      8  C   UNL     1      28.406   1.730   7.661  1.00  0.00     0.000 C 
BRANCH   8   9
ATOM      9  C   UNL     1      28.002   0.524   8.534  1.00  0.00     0.000 C 
BRANCH   9  10
ATOM     10  C   UNL     1      28.399  -0.850   7.965  1.00  0.00     0.000 C 
BRANCH  10  11
ATOM     11  C   UNL     1      27.752  -1.139   6.599  1.00  0.00     0.000 C 
BRANCH  11  12
ATOM     12  C   UNL     1      26.215  -1.078   6.644  1.00  0.00     0.000 C 
BRANCH  12  13
ATOM     13  C   UNL     1      25.554  -0.432   5.409  1.00  0.00     0.006 C 
BRANCH  13  14
ATOM     14  C   UNL     1      26.505   0.409   4.542  1.00  0.00     0.053 C 
BRANCH  14  15
ATOM     15  C   UNL     1      26.508  -0.044   3.114  1.00  0.00     0.041 C 
ATOM     16  O   UNL     1      26.154   0.745   2.197  1.00  0.00    -0.550 OA
ATOM     17  O   UNL     1      26.937  -1.325   2.791  1.00  0.00    -0.550 OA
ENDBRANCH  14  15
ENDBRANCH  13  14
ENDBRANCH  12  13
ENDBRANCH  11  12
ENDBRANCH  10  11
ENDBRANCH   9  10
ENDBRANCH   8   9
ENDBRANCH   7   8
ENDBRANCH   6   7
ENDBRANCH   5   6
ENDBRANCH   4   5
ENDBRANCH   3   4
ENDBRANCH   2   3
ENDBRANCH   1   2
BRANCH   1  18
ATOM     18  C   UNL     1      25.206   4.543   6.998  1.00  0.00     0.000 C 
BRANCH  18  19
ATOM     19  C   UNL     1      24.990   3.049   6.708  1.00  0.00     0.000 C 
BRANCH  19  20
ATOM     20  C   UNL     1      24.687   2.235   7.975  1.00  0.00     0.000 C 
BRANCH  20  21
ATOM     21  C   UNL     1      23.472   1.326   7.761  1.00  0.00     0.000 C 
BRANCH  21  22
ATOM     22  C   UNL     1      22.401   2.025   6.912  1.00  0.00     0.000 C 
BRANCH  22  23
ATOM     23  C   UNL     1      21.547   3.015   7.724  1.00  0.00     0.000 C 
BRANCH  23  24
ATOM     24  C   UNL     1      20.562   3.833   6.860  1.00  0.00    -0.000 C 
BRANCH  24  25
ATOM     25  C   UNL     1      21.277   4.912   6.025  1.00  0.00    -0.000 C 
BRANCH  25  26
ATOM     26  C   UNL     1      20.288   5.800   5.238  1.00  0.00    -0.000 C 
BRANCH  26  27
ATOM     27  C   UNL     1      19.445   6.733   6.129  1.00  0.00    -0.000 C 
BRANCH  27  28
ATOM     28  C   UNL     1      20.251   7.787   6.907  1.00  0.00    -0.000 C 
BRANCH  28  29
ATOM     29  C   UNL     1      19.566   8.214   8.215  1.00  0.00    -0.000 C 
BRANCH  29  30
ATOM     30  C   UNL     1      19.934   7.262   9.360  1.00  0.00    -0.000 C 
BRANCH  30  31
ATOM     31  C   UNL     1      21.400   6.826   9.262  1.00  0.00    -0.003 C 
ATOM     32  C   UNL     1      22.056   6.785  10.638  1.00  0.00     0.004 C 
ENDBRANCH  30  31
ENDBRANCH  29  30
ENDBRANCH  28  29
ENDBRANCH  27  28
ENDBRANCH  26  27
ENDBRANCH  25  26
ENDBRANCH  24  25
ENDBRANCH  23  24
ENDBRANCH  22  23
ENDBRANCH  21  22
ENDBRANCH  20  21
ENDBRANCH  19  20
ENDBRANCH  18  19
ENDBRANCH   1  18
TORSDOF 28
ENDMDL
MODEL 9
REMARK VINA RESULT:    -3.851      3.069      8.673
REMARK INTER + INTRA:         -15.643
REMARK INTER:                 -10.266
REMARK INTRA:                  -5.377
REMARK UNBOUND:                -5.488
REMARK SMILES CCCCCCCCCCCCCCCCCCCCCCCCCCCCCC(=O)[O-]
REMARK SMILES IDX 16 1 17 2 18 3 19 4 20 5 21 6 22 7 23 8 24 9 25 10 26 11
REMARK SMILES IDX 27 12 28 13 29 14 30 15 31 16 32 17 15 18 14 19 13 20 12 21
REMARK SMILES IDX 11 22 10 23 9 24 8 25 7 26 6 27 5 28 4 29 3 30 2 31 1 32
REMARK H PARENT
REMARK Flexibility Score: inf
ROOT
ATOM      1  C   UNL     1      20.906   3.231   8.603  1.00  0.00     0.000 C 
ENDROOT
BRANCH   1   2
ATOM      2  C   UNL     1      21.911   2.145   9.028  1.00  0.00     0.000 C 
BRANCH   2   3
ATOM      3  C   UNL     1      21.982   0.917   8.102  1.00  0.00     0.000 C 
BRANCH   3   4
ATOM      4  C   UNL     1      23.053   1.048   7.009  1.00  0.00     0.000 C 
BRANCH   4   5
ATOM      5  C   UNL     1      24.381   1.553   7.593  1.00  0.00     0.000 C 
BRANCH   5   6
ATOM      6  C   UNL     1      24.864   2.864   6.936  1.00  0.00     0.000 C 
BRANCH   6   7
ATOM      7  C   UNL     1      25.205   3.983   7.939  1.00  0.00     0.000 C 
BRANCH   7   8
ATOM      8  C   UNL     1      25.061   3.603   9.425  1.00  0.00     0.000 C 
BRANCH   8   9
ATOM      9  C   UNL     1      26.140   4.186  10.362  1.00  0.00     0.000 C 
BRANCH   9  10
ATOM     10  C   UNL     1      27.527   4.366   9.721  1.00  0.00     0.000 C 
BRANCH  10  11
ATOM     11  C   UNL     1      28.597   3.457  10.350  1.00  0.00     0.000 C 
BRANCH  11  12
ATOM     12  C   UNL     1      28.700   2.089   9.653  1.00  0.00     0.000 C 
BRANCH  12  13
ATOM     13  C   UNL     1      28.383   2.104   8.143  1.00  0.00     0.006 C 
BRANCH  13  14
ATOM     14  C   UNL     1      27.927   0.751   7.573  1.00  0.00     0.053 C 
BRANCH  14  15
ATOM     15  C   UNL     1      27.711   0.811   6.092  1.00  0.00     0.041 C 
ATOM     16  O   UNL     1      27.247  -0.185   5.477  1.00  0.00    -0.550 OA
ATOM     17  O   UNL     1      27.987   1.981   5.396  1.00  0.00    -0.550 OA
ENDBRANCH  14  15
ENDBRANCH  13  14
ENDBRANCH  12  13
ENDBRANCH  11  12
ENDBRANCH  10  11
ENDBRANCH   9  10
ENDBRANCH   8   9
ENDBRANCH   7   8
ENDBRANCH   6   7
ENDBRANCH   5   6
ENDBRANCH   4   5
ENDBRANCH   3   4
ENDBRANCH   2   3
ENDBRANCH   1   2
BRANCH   1  18
ATOM     18  C   UNL     1      21.510   4.266   7.639  1.00  0.00     0.000 C 
BRANCH  18  19
ATOM     19  C   UNL     1      21.113   4.006   6.177  1.00  0.00     0.000 C 
BRANCH  19  20
ATOM     20  C   UNL     1      20.906   5.301   5.377  1.00  0.00     0.000 C 
BRANCH  20  21
ATOM     21  C   UNL     1      20.940   6.522   6.302  1.00  0.00     0.000 C 
BRANCH  21  22
ATOM     22  C   UNL     1      19.531   7.090   6.522  1.00  0.00     0.000 C 
BRANCH  22  23
ATOM     23  C   UNL     1      19.529   8.373   7.370  1.00  0.00     0.000 C 
BRANCH  23  24
ATOM     24  C   UNL     1      18.835   8.207   8.740  1.00  0.00    -0.000 C 
BRANCH  24  25
ATOM     25  C   UNL     1      19.508   7.126   9.606  1.00  0.00    -0.000 C 
BRANCH  25  26
ATOM     26  C   UNL     1      20.324   7.728  10.771  1.00  0.00    -0.000 C 
BRANCH  26  27
ATOM     27  C   UNL     1      21.813   7.948  10.441  1.00  0.00    -0.000 C 
BRANCH  27  28
ATOM     28  C   UNL     1      22.529   6.726   9.841  1.00  0.00    -0.000 C 
BRANCH  28  29
ATOM     29  C   UNL     1      23.638   7.114   8.849  1.00  0.00    -0.000 C 
BRANCH  29  30
ATOM     30  C   UNL     1      24.911   7.538   9.592  1.00  0.00    -0.000 C 
BRANCH  30  31
ATOM     31  C   UNL     1      25.691   8.586   8.790  1.00  0.00    -0.003 C 
ATOM     32  C   UNL     1      26.679   7.925   7.835  1.00  0.00     0.004 C 
ENDBRANCH  30  31
ENDBRANCH  29  30
ENDBRANCH  28  29
ENDBRANCH  27  28
ENDBRANCH  26  27
ENDBRANCH  25  26
ENDBRANCH  24  25
ENDBRANCH  23  24
ENDBRANCH  22  23
ENDBRANCH  21  22
ENDBRANCH  20  21
ENDBRANCH  19  20
ENDBRANCH  18  19
ENDBRANCH   1  18
TORSDOF 28
ENDMDL
