MODEL 1
REMARK VINA RESULT:    -3.383      0.000      0.000
REMARK INTER + INTRA:          -6.943
REMARK INTER:                  -5.361
REMARK INTRA:                  -1.583
REMARK UNBOUND:                -1.583
REMARK SMILES CCCCCCCCCCCC(=O)[O-]
REMARK SMILES IDX 7 1 8 2 9 3 10 4 11 5 12 6 13 7 14 8 6 9 5 10 4 11 3 12 2 13
REMARK SMILES IDX 1 14
REMARK H PARENT
REMARK Flexibility Score: inf
ROOT
ATOM      1  C   UNL     1      -8.222   7.947 -18.554  1.00  0.00     0.000 C 
ENDROOT
BRANCH   1   2
ATOM      2  C   UNL     1      -7.620   6.679 -19.191  1.00  0.00     0.000 C 
BRANCH   2   3
ATOM      3  C   UNL     1      -8.593   5.495 -19.332  1.00  0.00     0.000 C 
BRANCH   3   4
ATOM      4  C   UNL     1      -8.973   5.207 -20.795  1.00  0.00     0.006 C 
BRANCH   4   5
ATOM      5  C   UNL     1      -8.273   6.159 -21.773  1.00  0.00     0.053 C 
BRANCH   5   6
ATOM      6  C   UNL     1      -9.245   7.076 -22.448  1.00  0.00     0.041 C 
ATOM      7  O   UNL     1      -9.438   8.238 -22.000  1.00  0.00    -0.550 OA
ATOM      8  O   UNL     1      -9.961   6.639 -23.556  1.00  0.00    -0.550 OA
ENDBRANCH   5   6
ENDBRANCH   4   5
ENDBRANCH   3   4
ENDBRANCH   2   3
ENDBRANCH   1   2
BRANCH   1   9
ATOM      9  C   UNL     1      -9.726   7.864 -18.225  1.00  0.00     0.000 C 
BRANCH   9  10
ATOM     10  C   UNL     1     -10.571   9.038 -18.752  1.00  0.00    -0.000 C 
BRANCH  10  11
ATOM     11  C   UNL     1     -11.879   8.582 -19.415  1.00  0.00    -0.000 C 
BRANCH  11  12
ATOM     12  C   UNL     1     -12.005   7.054 -19.388  1.00  0.00    -0.000 C 
BRANCH  12  13
ATOM     13  C   UNL     1     -12.401   6.510 -20.765  1.00  0.00    -0.003 C 
ATOM     14  C   UNL     1     -13.055   7.592 -21.618  1.00  0.00     0.004 C 
ENDBRANCH  12  13
ENDBRANCH  11  12
ENDBRANCH  10  11
ENDBRANCH   9  10
ENDBRANCH   1   9
TORSDOF 10
ENDMDL
MODEL 2
REMARK VINA RESULT:    -3.381      2.178      3.767
REMARK INTER + INTRA:          -6.940
REMARK INTER:                  -5.450
REMARK INTRA:                  -1.490
REMARK UNBOUND:                -1.583
REMARK SMILES CCCCCCCCCCCC(=O)[O-]
REMARK SMILES IDX 7 1 8 2 9 3 10 4 11 5 12 6 13 7 14 8 6 9 5 10 4 11 3 12 2 13
REMARK SMILES IDX 1 14
REMARK H PARENT
REMARK Flexibility Score: inf
ROOT
ATOM      1  C   UNL     1     -11.848   9.268 -19.982  1.00  0.00     0.000 C 
ENDROOT
BRANCH   1   2
ATOM      2  C   UNL     1     -10.669   8.924 -19.050  1.00  0.00     0.000 C 
BRANCH   2   3
ATOM      3  C   UNL     1     -10.511   7.427 -18.725  1.00  0.00     0.000 C 
BRANCH   3   4
ATOM      4  C   UNL     1      -9.080   6.914 -18.965  1.00  0.00     0.006 C 
BRANCH   4   5
ATOM      5  C   UNL     1      -9.065   5.513 -19.589  1.00  0.00     0.053 C 
BRANCH   5   6
ATOM      6  C   UNL     1      -7.672   4.980 -19.728  1.00  0.00     0.041 C 
ATOM      7  O   UNL     1      -6.939   5.362 -20.678  1.00  0.00    -0.550 OA
ATOM      8  O   UNL     1      -7.193   4.040 -18.825  1.00  0.00    -0.550 OA
ENDBRANCH   5   6
ENDBRANCH   4   5
ENDBRANCH   3   4
ENDBRANCH   2   3
ENDBRANCH   1   2
BRANCH   1   9
ATOM      9  C   UNL     1     -12.912   8.162 -20.130  1.00  0.00     0.000 C 
BRANCH   9  10
ATOM     10  C   UNL     1     -13.054   7.585 -21.550  1.00  0.00    -0.000 C 
BRANCH  10  11
ATOM     11  C   UNL     1     -12.195   6.332 -21.774  1.00  0.00    -0.000 C 
BRANCH  11  12
ATOM     12  C   UNL     1     -11.369   6.455 -23.061  1.00  0.00    -0.000 C 
BRANCH  12  13
ATOM     13  C   UNL     1     -10.721   7.840 -23.168  1.00  0.00    -0.003 C 
ATOM     14  C   UNL     1      -9.329   7.847 -22.542  1.00  0.00     0.004 C 
ENDBRANCH  12  13
ENDBRANCH  11  12
ENDBRANCH  10  11
ENDBRANCH   9  10
ENDBRANCH   1   9
TORSDOF 10
ENDMDL
MODEL 3
REMARK VINA RESULT:    -3.369      3.192      5.396
REMARK INTER + INTRA:          -6.921
REMARK INTER:                  -6.062
REMARK INTRA:                  -0.859
REMARK UNBOUND:                -1.583
REMARK SMILES CCCCCCCCCCCC(=O)[O-]
REMARK SMILES IDX 7 1 8 2 9 3 10 4 11 5 12 6 13 7 14 8 6 9 5 10 4 11 3 12 2 13
REMARK SMILES IDX 1 14
REMARK H PARENT
REMARK Flexibility Score: inf
ROOT
ATOM      1  C   UNL     1     -12.771   8.176 -19.724  1.00  0.00     0.000 C 
ENDROOT
BRANCH   1   2
ATOM      2  C   UNL     1     -11.674   9.247 -19.567  1.00  0.00     0.000 C 
BRANCH   2   3
ATOM      3  C   UNL     1     -10.408   8.780 -18.825  1.00  0.00     0.000 C 
BRANCH   3   4
ATOM      4  C   UNL     1      -9.757   9.901 -17.995  1.00  0.00     0.006 C 
BRANCH   4   5
ATOM      5  C   UNL     1      -8.768   9.352 -16.959  1.00  0.00     0.053 C 
BRANCH   5   6
ATOM      6  C   UNL     1      -8.238  10.434 -16.069  1.00  0.00     0.041 C 
ATOM      7  O   UNL     1      -8.495  10.424 -14.835  1.00  0.00    -0.550 OA
ATOM      8  O   UNL     1      -7.484  11.470 -16.605  1.00  0.00    -0.550 OA
ENDBRANCH   5   6
ENDBRANCH   4   5
ENDBRANCH   3   4
ENDBRANCH   2   3
ENDBRANCH   1   2
BRANCH   1   9
ATOM      9  C   UNL     1     -13.055   7.736 -21.175  1.00  0.00     0.000 C 
BRANCH   9  10
ATOM     10  C   UNL     1     -12.401   6.405 -21.589  1.00  0.00    -0.000 C 
BRANCH  10  11
ATOM     11  C   UNL     1     -11.922   5.577 -20.388  1.00  0.00    -0.000 C 
BRANCH  11  12
ATOM     12  C   UNL     1     -10.661   4.778 -20.740  1.00  0.00    -0.000 C 
BRANCH  12  13
ATOM     13  C   UNL     1      -9.405   5.648 -20.615  1.00  0.00    -0.003 C 
ATOM     14  C   UNL     1      -8.671   5.372 -19.306  1.00  0.00     0.004 C 
ENDBRANCH  12  13
ENDBRANCH  11  12
ENDBRANCH  10  11
ENDBRANCH   9  10
ENDBRANCH   1   9
TORSDOF 10
ENDMDL
MODEL 4
REMARK VINA RESULT:    -3.249      1.983      4.217
REMARK INTER + INTRA:          -6.731
REMARK INTER:                  -5.542
REMARK INTRA:                  -1.189
REMARK UNBOUND:                -1.583
REMARK SMILES CCCCCCCCCCCC(=O)[O-]
REMARK SMILES IDX 7 1 8 2 9 3 10 4 11 5 12 6 13 7 14 8 6 9 5 10 4 11 3 12 2 13
REMARK SMILES IDX 1 14
REMARK H PARENT
REMARK Flexibility Score: inf
ROOT
ATOM      1  C   UNL     1     -13.116   8.180 -20.476  1.00  0.00     0.000 C 
ENDROOT
BRANCH   1   2
ATOM      2  C   UNL     1     -12.840   7.367 -21.756  1.00  0.00     0.000 C 
BRANCH   2   3
ATOM      3  C   UNL     1     -11.493   7.665 -22.440  1.00  0.00     0.000 C 
BRANCH   3   4
ATOM      4  C   UNL     1     -10.641   6.402 -22.654  1.00  0.00     0.006 C 
BRANCH   4   5
ATOM      5  C   UNL     1      -9.520   6.277 -21.616  1.00  0.00     0.053 C 
BRANCH   5   6
ATOM      6  C   UNL     1      -9.840   5.252 -20.572  1.00  0.00     0.041 C 
ATOM      7  O   UNL     1     -10.896   4.569 -20.655  1.00  0.00    -0.550 OA
ATOM      8  O   UNL     1      -8.987   5.069 -19.491  1.00  0.00    -0.550 OA
ENDBRANCH   5   6
ENDBRANCH   4   5
ENDBRANCH   3   4
ENDBRANCH   2   3
ENDBRANCH   1   2
BRANCH   1   9
ATOM      9  C   UNL     1     -12.086   7.989 -19.343  1.00  0.00     0.000 C 
BRANCH   9  10
ATOM     10  C   UNL     1     -11.254   9.240 -19.007  1.00  0.00    -0.000 C 
BRANCH  10  11
ATOM     11  C   UNL     1      -9.748   9.029 -19.219  1.00  0.00    -0.000 C 
BRANCH  11  12
ATOM     12  C   UNL     1      -9.120   8.307 -18.021  1.00  0.00    -0.000 C 
BRANCH  12  13
ATOM     13  C   UNL     1      -9.125   9.200 -16.775  1.00  0.00    -0.003 C 
ATOM     14  C   UNL     1      -8.260  10.440 -16.982  1.00  0.00     0.004 C 
ENDBRANCH  12  13
ENDBRANCH  11  12
ENDBRANCH  10  11
ENDBRANCH   9  10
ENDBRANCH   1   9
TORSDOF 10
ENDMDL
MODEL 5
REMARK VINA RESULT:    -3.245      1.447      3.812
REMARK INTER + INTRA:          -6.725
REMARK INTER:                  -5.267
REMARK INTRA:                  -1.458
REMARK UNBOUND:                -1.583
REMARK SMILES CCCCCCCCCCCC(=O)[O-]
REMARK SMILES IDX 7 1 8 2 9 3 10 4 11 5 12 6 13 7 14 8 6 9 5 10 4 11 3 12 2 13
REMARK SMILES IDX 1 14
REMARK H PARENT
REMARK Flexibility Score: inf
ROOT
ATOM      1  C   UNL     1     -13.141   8.426 -20.145  1.00  0.00     0.000 C 
ENDROOT
BRANCH   1   2
ATOM      2  C   UNL     1     -13.207   7.805 -21.554  1.00  0.00     0.000 C 
BRANCH   2   3
ATOM      3  C   UNL     1     -12.238   6.634 -21.796  1.00  0.00     0.000 C 
BRANCH   3   4
ATOM      4  C   UNL     1     -11.194   6.939 -22.885  1.00  0.00     0.006 C 
BRANCH   4   5
ATOM      5  C   UNL     1      -9.788   7.126 -22.303  1.00  0.00     0.053 C 
BRANCH   5   6
ATOM      6  C   UNL     1      -9.390   8.569 -22.261  1.00  0.00     0.041 C 
ATOM      7  O   UNL     1      -8.198   8.892 -22.011  1.00  0.00    -0.550 OA
ATOM      8  O   UNL     1     -10.341   9.560 -22.469  1.00  0.00    -0.550 OA
ENDBRANCH   5   6
ENDBRANCH   4   5
ENDBRANCH   3   4
ENDBRANCH   2   3
ENDBRANCH   1   2
BRANCH   1   9
ATOM      9  C   UNL     1     -11.931   7.992 -19.293  1.00  0.00     0.000 C 
BRANCH   9  10
ATOM     10  C   UNL     1     -10.952   9.124 -18.933  1.00  0.00    -0.000 C 
BRANCH  10  11
ATOM     11  C   UNL     1      -9.646   8.608 -18.312  1.00  0.00    -0.000 C 
BRANCH  11  12
ATOM     12  C   UNL     1      -9.434   7.124 -18.633  1.00  0.00    -0.000 C 
BRANCH  12  13
ATOM     13  C   UNL     1      -7.987   6.855 -19.061  1.00  0.00    -0.003 C 
ATOM     14  C   UNL     1      -7.045   7.932 -18.531  1.00  0.00     0.004 C 
ENDBRANCH  12  13
ENDBRANCH  11  12
ENDBRANCH  10  11
ENDBRANCH   9  10
ENDBRANCH   1   9
TORSDOF 10
ENDMDL
MODEL 6
REMARK VINA RESULT:    -3.235      2.346      5.006
REMARK INTER + INTRA:          -6.709
REMARK INTER:                  -5.437
REMARK INTRA:                  -1.271
REMARK UNBOUND:                -1.583
REMARK SMILES CCCCCCCCCCCC(=O)[O-]
REMARK SMILES IDX 7 1 8 2 9 3 10 4 11 5 12 6 13 7 14 8 6 9 5 10 4 11 3 12 2 13
REMARK SMILES IDX 1 14
REMARK H PARENT
REMARK Flexibility Score: inf
ROOT
ATOM      1  C   UNL     1     -12.657   7.313 -21.532  1.00  0.00     0.000 C 
ENDROOT
BRANCH   1   2
ATOM      2  C   UNL     1     -12.751   8.444 -20.490  1.00  0.00     0.000 C 
BRANCH   2   3
ATOM      3  C   UNL     1     -12.037   8.163 -19.155  1.00  0.00     0.000 C 
BRANCH   3   4
ATOM      4  C   UNL     1     -10.711   8.931 -19.016  1.00  0.00     0.006 C 
BRANCH   4   5
ATOM      5  C   UNL     1      -9.692   8.173 -18.157  1.00  0.00     0.053 C 
BRANCH   5   6
ATOM      6  C   UNL     1      -8.575   9.062 -17.704  1.00  0.00     0.041 C 
ATOM      7  O   UNL     1      -7.377   8.700 -17.848  1.00  0.00    -0.550 OA
ATOM      8  O   UNL     1      -8.857  10.279 -17.096  1.00  0.00    -0.550 OA
ENDBRANCH   5   6
ENDBRANCH   4   5
ENDBRANCH   3   4
ENDBRANCH   2   3
ENDBRANCH   1   2
BRANCH   1   9
ATOM      9  C   UNL     1     -12.397   5.907 -20.953  1.00  0.00     0.000 C 
BRANCH   9  10
ATOM     10  C   UNL     1     -11.064   5.266 -21.378  1.00  0.00    -0.000 C 
BRANCH  10  11
ATOM     11  C   UNL     1     -10.024   6.300 -21.836  1.00  0.00    -0.000 C 
BRANCH  11  12
ATOM     12  C   UNL     1      -8.714   6.144 -21.054  1.00  0.00    -0.000 C 
BRANCH  12  13
ATOM     13  C   UNL     1      -8.874   5.139 -19.907  1.00  0.00    -0.003 C 
ATOM     14  C   UNL     1      -7.519   4.751 -19.322  1.00  0.00     0.004 C 
ENDBRANCH  12  13
ENDBRANCH  11  12
ENDBRANCH  10  11
ENDBRANCH   9  10
ENDBRANCH   1   9
TORSDOF 10
ENDMDL
MODEL 7
REMARK VINA RESULT:    -3.229      1.847      4.207
REMARK INTER + INTRA:          -6.699
REMARK INTER:                  -5.399
REMARK INTRA:                  -1.301
REMARK UNBOUND:                -1.583
REMARK SMILES CCCCCCCCCCCC(=O)[O-]
REMARK SMILES IDX 7 1 8 2 9 3 10 4 11 5 12 6 13 7 14 8 6 9 5 10 4 11 3 12 2 13
REMARK SMILES IDX 1 14
REMARK H PARENT
REMARK Flexibility Score: inf
ROOT
ATOM      1  C   UNL     1     -10.055   9.817 -18.127  1.00  0.00     0.000 C 
ENDROOT
BRANCH   1   2
ATOM      2  C   UNL     1      -9.814  10.049 -19.632  1.00  0.00     0.000 C 
BRANCH   2   3
ATOM      3  C   UNL     1     -10.809   9.342 -20.569  1.00  0.00     0.000 C 
BRANCH   3   4
ATOM      4  C   UNL     1     -12.133   8.984 -19.872  1.00  0.00     0.006 C 
BRANCH   4   5
ATOM      5  C   UNL     1     -12.375   7.470 -19.831  1.00  0.00     0.053 C 
BRANCH   5   6
ATOM      6  C   UNL     1     -12.600   6.906 -21.200  1.00  0.00     0.041 C 
ATOM      7  O   UNL     1     -13.397   7.470 -21.996  1.00  0.00    -0.550 OA
ATOM      8  O   UNL     1     -11.952   5.740 -21.588  1.00  0.00    -0.550 OA
ENDBRANCH   5   6
ENDBRANCH   4   5
ENDBRANCH   3   4
ENDBRANCH   2   3
ENDBRANCH   1   2
BRANCH   1   9
ATOM      9  C   UNL     1      -8.887   9.152 -17.370  1.00  0.00     0.000 C 
BRANCH   9  10
ATOM     10  C   UNL     1      -7.485   9.533 -17.878  1.00  0.00    -0.000 C 
BRANCH  10  11
ATOM     11  C   UNL     1      -6.599   8.311 -18.158  1.00  0.00    -0.000 C 
BRANCH  11  12
ATOM     12  C   UNL     1      -6.990   7.641 -19.481  1.00  0.00    -0.000 C 
BRANCH  12  13
ATOM     13  C   UNL     1      -7.502   6.215 -19.247  1.00  0.00    -0.003 C 
ATOM     14  C   UNL     1      -8.980   6.095 -19.603  1.00  0.00     0.004 C 
ENDBRANCH  12  13
ENDBRANCH  11  12
ENDBRANCH  10  11
ENDBRANCH   9  10
ENDBRANCH   1   9
TORSDOF 10
ENDMDL
MODEL 8
REMARK VINA RESULT:    -3.221      3.135      4.827
REMARK INTER + INTRA:          -6.686
REMARK INTER:                  -5.508
REMARK INTRA:                  -1.178
REMARK UNBOUND:                -1.583
REMARK SMILES CCCCCCCCCCCC(=O)[O-]
REMARK SMILES IDX 7 1 8 2 9 3 10 4 11 5 12 6 13 7 14 8 6 9 5 10 4 11 3 12 2 13
REMARK SMILES IDX 1 14
REMARK H PARENT
REMARK Flexibility Score: inf
ROOT
ATOM      1  C   UNL     1      -8.080   6.740 -19.469  1.00  0.00     0.000 C 
ENDROOT
BRANCH   1   2
ATOM      2  C   UNL     1      -7.807   7.973 -18.585  1.00  0.00     0.000 C 
BRANCH   2   3
ATOM      3  C   UNL     1      -8.971   8.389 -17.669  1.00  0.00     0.000 C 
BRANCH   3   4
ATOM      4  C   UNL     1      -9.134   9.917 -17.569  1.00  0.00     0.006 C 
BRANCH   4   5
ATOM      5  C   UNL     1      -8.605  10.469 -16.239  1.00  0.00     0.053 C 
BRANCH   5   6
ATOM      6  C   UNL     1      -7.173  10.894 -16.344  1.00  0.00     0.041 C 
ATOM      7  O   UNL     1      -6.772  11.530 -17.355  1.00  0.00    -0.550 OA
ATOM      8  O   UNL     1      -6.273  10.564 -15.339  1.00  0.00    -0.550 OA
ENDBRANCH   5   6
ENDBRANCH   4   5
ENDBRANCH   3   4
ENDBRANCH   2   3
ENDBRANCH   1   2
BRANCH   1   9
ATOM      9  C   UNL     1      -9.499   6.148 -19.349  1.00  0.00     0.000 C 
BRANCH   9  10
ATOM     10  C   UNL     1     -10.241   5.967 -20.685  1.00  0.00    -0.000 C 
BRANCH  10  11
ATOM     11  C   UNL     1     -11.724   6.358 -20.603  1.00  0.00    -0.000 C 
BRANCH  11  12
ATOM     12  C   UNL     1     -12.035   7.053 -19.272  1.00  0.00    -0.000 C 
BRANCH  12  13
ATOM     13  C   UNL     1     -12.638   8.443 -19.504  1.00  0.00    -0.003 C 
ATOM     14  C   UNL     1     -11.640   9.368 -20.195  1.00  0.00     0.004 C 
ENDBRANCH  12  13
ENDBRANCH  11  12
ENDBRANCH  10  11
ENDBRANCH   9  10
ENDBRANCH   1   9
TORSDOF 10
ENDMDL
MODEL 9
REMARK VINA RESULT:    -3.201      1.846      4.048
REMARK INTER + INTRA:          -6.655
REMARK INTER:                  -5.643
REMARK INTRA:                  -1.012
REMARK UNBOUND:                -1.583
REMARK SMILES CCCCCCCCCCCC(=O)[O-]
REMARK SMILES IDX 7 1 8 2 9 3 10 4 11 5 12 6 13 7 14 8 6 9 5 10 4 11 3 12 2 13
REMARK SMILES IDX 1 14
REMARK H PARENT
REMARK Flexibility Score: inf
ROOT
ATOM      1  C   UNL     1     -10.983   9.488 -19.401  1.00  0.00     0.000 C 
ENDROOT
BRANCH   1   2
ATOM      2  C   UNL     1     -12.396   8.888 -19.261  1.00  0.00     0.000 C 
BRANCH   2   3
ATOM      3  C   UNL     1     -12.792   7.888 -20.362  1.00  0.00     0.000 C 
BRANCH   3   4
ATOM      4  C   UNL     1     -12.009   6.566 -20.275  1.00  0.00     0.006 C 
BRANCH   4   5
ATOM      5  C   UNL     1     -11.272   6.244 -21.580  1.00  0.00     0.053 C 
BRANCH   5   6
ATOM      6  C   UNL     1     -11.140   4.767 -21.796  1.00  0.00     0.041 C 
ATOM      7  O   UNL     1     -10.925   4.000 -20.820  1.00  0.00    -0.550 OA
ATOM      8  O   UNL     1     -11.227   4.241 -23.078  1.00  0.00    -0.550 OA
ENDBRANCH   5   6
ENDBRANCH   4   5
ENDBRANCH   3   4
ENDBRANCH   2   3
ENDBRANCH   1   2
BRANCH   1   9
ATOM      9  C   UNL     1     -10.123   9.448 -18.121  1.00  0.00     0.000 C 
BRANCH   9  10
ATOM     10  C   UNL     1      -9.214   8.213 -17.988  1.00  0.00    -0.000 C 
BRANCH  10  11
ATOM     11  C   UNL     1      -7.798   8.453 -18.531  1.00  0.00    -0.000 C 
BRANCH  11  12
ATOM     12  C   UNL     1      -7.109   7.127 -18.872  1.00  0.00    -0.000 C 
BRANCH  12  13
ATOM     13  C   UNL     1      -8.030   6.224 -19.700  1.00  0.00    -0.003 C 
ATOM     14  C   UNL     1      -7.924   4.769 -19.252  1.00  0.00     0.004 C 
ENDBRANCH  12  13
ENDBRANCH  11  12
ENDBRANCH  10  11
ENDBRANCH   9  10
ENDBRANCH   1   9
TORSDOF 10
ENDMDL
