MODEL 1
REMARK VINA RESULT:    -2.795      0.000      0.000
REMARK INTER + INTRA:          -3.320
REMARK INTER:                  -3.285
REMARK INTRA:                  -0.035
REMARK UNBOUND:                -0.035
REMARK SMILES O=C([O-])CCC(=O)[O-]
REMARK SMILES IDX 4 1 2 2 1 3 3 4 5 5 6 6 7 7 8 8
REMARK H PARENT
REMARK Flexibility Score: inf
ROOT
ATOM      1  C   UNL     1      58.401  17.803  49.847  1.00  0.00     0.059 C 
ENDROOT
BRANCH   1   2
ATOM      2  C   UNL     1      58.756  16.551  49.111  1.00  0.00     0.042 C 
ATOM      3  O   UNL     1      59.776  15.890  49.438  1.00  0.00    -0.550 OA
ATOM      4  O   UNL     1      57.932  16.086  48.093  1.00  0.00    -0.550 OA
ENDBRANCH   1   2
BRANCH   1   5
ATOM      5  C   UNL     1      57.018  17.676  50.485  1.00  0.00     0.059 C 
BRANCH   5   6
ATOM      6  C   UNL     1      56.799  18.767  51.485  1.00  0.00     0.042 C 
ATOM      7  O   UNL     1      57.782  19.353  52.009  1.00  0.00    -0.550 OA
ATOM      8  O   UNL     1      55.509  19.103  51.876  1.00  0.00    -0.550 OA
ENDBRANCH   5   6
ENDBRANCH   1   5
TORSDOF 3
ENDMDL
MODEL 2
REMARK VINA RESULT:    -2.779      0.899      1.151
REMARK INTER + INTRA:          -3.301
REMARK INTER:                  -3.208
REMARK INTRA:                  -0.094
REMARK UNBOUND:                -0.035
REMARK SMILES O=C([O-])CCC(=O)[O-]
REMARK SMILES IDX 4 1 2 2 1 3 3 4 5 5 6 6 7 7 8 8
REMARK H PARENT
REMARK Flexibility Score: inf
ROOT
ATOM      1  C   UNL     1      58.626  18.060  49.864  1.00  0.00     0.059 C 
ENDROOT
BRANCH   1   2
ATOM      2  C   UNL     1      58.825  16.678  49.330  1.00  0.00     0.042 C 
ATOM      3  O   UNL     1      59.711  15.930  49.819  1.00  0.00    -0.550 OA
ATOM      4  O   UNL     1      57.998  16.196  48.322  1.00  0.00    -0.550 OA
ENDBRANCH   1   2
BRANCH   1   5
ATOM      5  C   UNL     1      58.165  18.011  51.321  1.00  0.00     0.059 C 
BRANCH   5   6
ATOM      6  C   UNL     1      56.775  18.548  51.449  1.00  0.00     0.042 C 
ATOM      7  O   UNL     1      55.919  18.314  50.556  1.00  0.00    -0.550 OA
ATOM      8  O   UNL     1      56.438  19.351  52.533  1.00  0.00    -0.550 OA
ENDBRANCH   5   6
ENDBRANCH   1   5
TORSDOF 3
ENDMDL
MODEL 3
REMARK VINA RESULT:    -2.753      0.918      4.116
REMARK INTER + INTRA:          -3.272
REMARK INTER:                  -3.186
REMARK INTRA:                  -0.085
REMARK UNBOUND:                -0.035
REMARK SMILES O=C([O-])CCC(=O)[O-]
REMARK SMILES IDX 4 1 2 2 1 3 3 4 5 5 6 6 7 7 8 8
REMARK H PARENT
REMARK Flexibility Score: inf
ROOT
ATOM      1  C   UNL     1      57.864  17.857  51.401  1.00  0.00     0.059 C 
ENDROOT
BRANCH   1   2
ATOM      2  C   UNL     1      56.494  18.452  51.482  1.00  0.00     0.042 C 
ATOM      3  O   UNL     1      55.731  18.425  50.481  1.00  0.00    -0.550 OA
ATOM      4  O   UNL     1      56.041  18.993  52.679  1.00  0.00    -0.550 OA
ENDBRANCH   1   2
BRANCH   1   5
ATOM      5  C   UNL     1      58.445  18.037  49.998  1.00  0.00     0.059 C 
BRANCH   5   6
ATOM      6  C   UNL     1      58.724  16.707  49.372  1.00  0.00     0.042 C 
ATOM      7  O   UNL     1      59.653  15.981  49.814  1.00  0.00    -0.550 OA
ATOM      8  O   UNL     1      57.990  16.291  48.268  1.00  0.00    -0.550 OA
ENDBRANCH   5   6
ENDBRANCH   1   5
TORSDOF 3
ENDMDL
MODEL 4
REMARK VINA RESULT:    -2.639      0.726      1.754
REMARK INTER + INTRA:          -3.137
REMARK INTER:                  -3.102
REMARK INTRA:                  -0.036
REMARK UNBOUND:                -0.035
REMARK SMILES O=C([O-])CCC(=O)[O-]
REMARK SMILES IDX 4 1 2 2 1 3 3 4 5 5 6 6 7 7 8 8
REMARK H PARENT
REMARK Flexibility Score: inf
ROOT
ATOM      1  C   UNL     1      57.375  17.378  50.091  1.00  0.00     0.059 C 
ENDROOT
BRANCH   1   2
ATOM      2  C   UNL     1      58.387  16.593  49.319  1.00  0.00     0.042 C 
ATOM      3  O   UNL     1      58.144  16.234  48.138  1.00  0.00    -0.550 OA
ATOM      4  O   UNL     1      59.620  16.300  49.889  1.00  0.00    -0.550 OA
ENDBRANCH   1   2
BRANCH   1   5
ATOM      5  C   UNL     1      57.951  17.819  51.437  1.00  0.00     0.059 C 
BRANCH   5   6
ATOM      6  C   UNL     1      57.147  18.943  52.009  1.00  0.00     0.042 C 
ATOM      7  O   UNL     1      55.892  18.939  51.911  1.00  0.00    -0.550 OA
ATOM      8  O   UNL     1      57.789  20.021  52.607  1.00  0.00    -0.550 OA
ENDBRANCH   5   6
ENDBRANCH   1   5
TORSDOF 3
ENDMDL
MODEL 5
REMARK VINA RESULT:    -2.601      1.374      4.302
REMARK INTER + INTRA:          -3.092
REMARK INTER:                  -3.024
REMARK INTRA:                  -0.069
REMARK UNBOUND:                -0.035
REMARK SMILES O=C([O-])CCC(=O)[O-]
REMARK SMILES IDX 4 1 2 2 1 3 3 4 5 5 6 6 7 7 8 8
REMARK H PARENT
REMARK Flexibility Score: inf
ROOT
ATOM      1  C   UNL     1      56.267  18.477  50.782  1.00  0.00     0.059 C 
ENDROOT
BRANCH   1   2
ATOM      2  C   UNL     1      55.884  18.874  52.172  1.00  0.00     0.042 C 
ATOM      3  O   UNL     1      54.787  19.452  52.387  1.00  0.00    -0.550 OA
ATOM      4  O   UNL     1      56.718  18.561  53.238  1.00  0.00    -0.550 OA
ENDBRANCH   1   2
BRANCH   1   5
ATOM      5  C   UNL     1      57.387  17.437  50.810  1.00  0.00     0.059 C 
BRANCH   5   6
ATOM      6  C   UNL     1      58.418  17.748  49.773  1.00  0.00     0.042 C 
ATOM      7  O   UNL     1      58.964  18.882  49.742  1.00  0.00    -0.550 OA
ATOM      8  O   UNL     1      58.742  16.801  48.809  1.00  0.00    -0.550 OA
ENDBRANCH   5   6
ENDBRANCH   1   5
TORSDOF 3
ENDMDL
MODEL 6
REMARK VINA RESULT:    -2.581     21.705     22.392
REMARK INTER + INTRA:          -3.069
REMARK INTER:                  -2.965
REMARK INTRA:                  -0.104
REMARK UNBOUND:                -0.035
REMARK SMILES O=C([O-])CCC(=O)[O-]
REMARK SMILES IDX 4 1 2 2 1 3 3 4 5 5 6 6 7 7 8 8
REMARK H PARENT
REMARK Flexibility Score: inf
ROOT
ATOM      1  C   UNL     1      71.944  31.832  59.241  1.00  0.00     0.059 C 
ENDROOT
BRANCH   1   2
ATOM      2  C   UNL     1      71.227  33.135  59.399  1.00  0.00     0.042 C 
ATOM      3  O   UNL     1      71.284  33.763  60.488  1.00  0.00    -0.550 OA
ATOM      4  O   UNL     1      70.535  33.681  58.324  1.00  0.00    -0.550 OA
ENDBRANCH   1   2
BRANCH   1   5
ATOM      5  C   UNL     1      72.710  31.484  60.519  1.00  0.00     0.059 C 
BRANCH   5   6
ATOM      6  C   UNL     1      72.190  30.213  61.111  1.00  0.00     0.042 C 
ATOM      7  O   UNL     1      72.961  29.233  61.284  1.00  0.00    -0.550 OA
ATOM      8  O   UNL     1      70.842  30.093  61.425  1.00  0.00    -0.550 OA
ENDBRANCH   5   6
ENDBRANCH   1   5
TORSDOF 3
ENDMDL
MODEL 7
REMARK VINA RESULT:    -2.549      9.807     11.468
REMARK INTER + INTRA:          -3.031
REMARK INTER:                  -2.925
REMARK INTRA:                  -0.107
REMARK UNBOUND:                -0.035
REMARK SMILES O=C([O-])CCC(=O)[O-]
REMARK SMILES IDX 4 1 2 2 1 3 3 4 5 5 6 6 7 7 8 8
REMARK H PARENT
REMARK Flexibility Score: inf
ROOT
ATOM      1  C   UNL     1      58.424  29.101  51.026  1.00  0.00     0.059 C 
ENDROOT
BRANCH   1   2
ATOM      2  C   UNL     1      56.952  29.213  50.787  1.00  0.00     0.042 C 
ATOM      3  O   UNL     1      56.247  28.177  50.679  1.00  0.00    -0.550 OA
ATOM      4  O   UNL     1      56.351  30.465  50.733  1.00  0.00    -0.550 OA
ENDBRANCH   1   2
BRANCH   1   5
ATOM      5  C   UNL     1      59.163  28.846  49.711  1.00  0.00     0.059 C 
BRANCH   5   6
ATOM      6  C   UNL     1      59.938  27.569  49.785  1.00  0.00     0.042 C 
ATOM      7  O   UNL     1      61.195  27.586  49.714  1.00  0.00    -0.550 OA
ATOM      8  O   UNL     1      59.270  26.355  49.882  1.00  0.00    -0.550 OA
ENDBRANCH   5   6
ENDBRANCH   1   5
TORSDOF 3
ENDMDL
MODEL 8
REMARK VINA RESULT:    -2.451      8.548     10.023
REMARK INTER + INTRA:          -2.916
REMARK INTER:                  -2.863
REMARK INTRA:                  -0.054
REMARK UNBOUND:                -0.035
REMARK SMILES O=C([O-])CCC(=O)[O-]
REMARK SMILES IDX 4 1 2 2 1 3 3 4 5 5 6 6 7 7 8 8
REMARK H PARENT
REMARK Flexibility Score: inf
ROOT
ATOM      1  C   UNL     1      58.276  27.675  51.128  1.00  0.00     0.059 C 
ENDROOT
BRANCH   1   2
ATOM      2  C   UNL     1      59.125  28.222  50.025  1.00  0.00     0.042 C 
ATOM      3  O   UNL     1      58.866  29.346  49.523  1.00  0.00    -0.550 OA
ATOM      4  O   UNL     1      60.235  27.510  49.585  1.00  0.00    -0.550 OA
ENDBRANCH   1   2
BRANCH   1   5
ATOM      5  C   UNL     1      56.810  27.614  50.695  1.00  0.00     0.059 C 
BRANCH   5   6
ATOM      6  C   UNL     1      56.331  26.198  50.667  1.00  0.00     0.042 C 
ATOM      7  O   UNL     1      55.365  25.870  49.929  1.00  0.00    -0.550 OA
ATOM      8  O   UNL     1      56.920  25.248  51.493  1.00  0.00    -0.550 OA
ENDBRANCH   5   6
ENDBRANCH   1   5
TORSDOF 3
ENDMDL
MODEL 9
REMARK VINA RESULT:    -2.443     20.368     21.646
REMARK INTER + INTRA:          -2.906
REMARK INTER:                  -2.758
REMARK INTRA:                  -0.148
REMARK UNBOUND:                -0.035
REMARK SMILES O=C([O-])CCC(=O)[O-]
REMARK SMILES IDX 4 1 2 2 1 3 3 4 5 5 6 6 7 7 8 8
REMARK H PARENT
REMARK Flexibility Score: inf
ROOT
ATOM      1  C   UNL     1      72.809  31.032  60.271  1.00  0.00     0.059 C 
ENDROOT
BRANCH   1   2
ATOM      2  C   UNL     1      71.992  32.165  59.736  1.00  0.00     0.042 C 
ATOM      3  O   UNL     1      71.764  33.175  60.451  1.00  0.00    -0.550 OA
ATOM      4  O   UNL     1      71.523  32.126  58.429  1.00  0.00    -0.550 OA
ENDBRANCH   1   2
BRANCH   1   5
ATOM      5  C   UNL     1      72.000  30.217  61.281  1.00  0.00     0.059 C 
BRANCH   5   6
ATOM      6  C   UNL     1      71.049  29.303  60.576  1.00  0.00     0.042 C 
ATOM      7  O   UNL     1      71.406  28.702  59.529  1.00  0.00    -0.550 OA
ATOM      8  O   UNL     1      69.751  29.152  61.048  1.00  0.00    -0.550 OA
ENDBRANCH   5   6
ENDBRANCH   1   5
TORSDOF 3
ENDMDL
