MODEL 1
REMARK VINA RESULT:    -3.955      0.000      0.000
REMARK INTER + INTRA:          -5.459
REMARK INTER:                  -5.111
REMARK INTRA:                  -0.348
REMARK UNBOUND:                -0.348
REMARK SMILES CCCCCCC(=O)[O-]
REMARK SMILES IDX 5 1 6 2 7 3 8 4 9 5 4 6 3 7 2 8 1 9
REMARK H PARENT
REMARK Flexibility Score: inf
ROOT
ATOM      1  C   UNL     1     -29.248 -11.109  17.385  1.00  0.00     0.006 C 
ENDROOT
BRANCH   1   2
ATOM      2  C   UNL     1     -29.564 -12.348  16.543  1.00  0.00     0.053 C 
BRANCH   2   3
ATOM      3  C   UNL     1     -30.128 -13.436  17.402  1.00  0.00     0.041 C 
ATOM      4  O   UNL     1     -29.545 -14.549  17.478  1.00  0.00    -0.550 OA
ATOM      5  O   UNL     1     -31.324 -13.238  18.080  1.00  0.00    -0.550 OA
ENDBRANCH   2   3
ENDBRANCH   1   2
BRANCH   1   6
ATOM      6  C   UNL     1     -27.762 -11.076  17.774  1.00  0.00     0.000 C 
BRANCH   6   7
ATOM      7  C   UNL     1     -26.847 -11.609  16.661  1.00  0.00    -0.000 C 
BRANCH   7   8
ATOM      8  C   UNL     1     -25.606 -12.330  17.209  1.00  0.00    -0.003 C 
ATOM      9  C   UNL     1     -25.996 -13.605  17.951  1.00  0.00     0.004 C 
ENDBRANCH   7   8
ENDBRANCH   6   7
ENDBRANCH   1   6
TORSDOF 5
ENDMDL
MODEL 2
REMARK VINA RESULT:    -3.919      0.770      1.092
REMARK INTER + INTRA:          -5.413
REMARK INTER:                  -5.141
REMARK INTRA:                  -0.272
REMARK UNBOUND:                -0.348
REMARK SMILES CCCCCCC(=O)[O-]
REMARK SMILES IDX 5 1 6 2 7 3 8 4 9 5 4 6 3 7 2 8 1 9
REMARK H PARENT
REMARK Flexibility Score: inf
ROOT
ATOM      1  C   UNL     1     -29.275 -11.257  17.428  1.00  0.00     0.006 C 
ENDROOT
BRANCH   1   2
ATOM      2  C   UNL     1     -29.444 -12.436  16.465  1.00  0.00     0.053 C 
BRANCH   2   3
ATOM      3  C   UNL     1     -30.609 -13.281  16.872  1.00  0.00     0.041 C 
ATOM      4  O   UNL     1     -31.122 -13.144  18.014  1.00  0.00    -0.550 OA
ATOM      5  O   UNL     1     -31.099 -14.254  16.011  1.00  0.00    -0.550 OA
ENDBRANCH   2   3
ENDBRANCH   1   2
BRANCH   1   6
ATOM      6  C   UNL     1     -27.787 -10.966  17.683  1.00  0.00     0.000 C 
BRANCH   6   7
ATOM      7  C   UNL     1     -26.868 -11.630  16.645  1.00  0.00    -0.000 C 
BRANCH   7   8
ATOM      8  C   UNL     1     -25.620 -12.261  17.278  1.00  0.00    -0.003 C 
ATOM      9  C   UNL     1     -25.943 -13.620  17.892  1.00  0.00     0.004 C 
ENDBRANCH   7   8
ENDBRANCH   6   7
ENDBRANCH   1   6
TORSDOF 5
ENDMDL
MODEL 3
REMARK VINA RESULT:    -3.809      0.983      1.115
REMARK INTER + INTRA:          -5.270
REMARK INTER:                  -5.014
REMARK INTRA:                  -0.256
REMARK UNBOUND:                -0.348
REMARK SMILES CCCCCCC(=O)[O-]
REMARK SMILES IDX 5 1 6 2 7 3 8 4 9 5 4 6 3 7 2 8 1 9
REMARK H PARENT
REMARK Flexibility Score: inf
ROOT
ATOM      1  C   UNL     1     -29.317 -11.689  16.999  1.00  0.00     0.006 C 
ENDROOT
BRANCH   1   2
ATOM      2  C   UNL     1     -29.673 -13.033  16.356  1.00  0.00     0.053 C 
BRANCH   2   3
ATOM      3  C   UNL     1     -31.029 -13.482  16.800  1.00  0.00     0.041 C 
ATOM      4  O   UNL     1     -31.841 -13.963  15.967  1.00  0.00    -0.550 OA
ATOM      5  O   UNL     1     -31.416 -13.325  18.125  1.00  0.00    -0.550 OA
ENDBRANCH   2   3
ENDBRANCH   1   2
BRANCH   1   6
ATOM      6  C   UNL     1     -28.014 -11.796  17.807  1.00  0.00     0.000 C 
BRANCH   6   7
ATOM      7  C   UNL     1     -26.811 -11.184  17.072  1.00  0.00    -0.000 C 
BRANCH   7   8
ATOM      8  C   UNL     1     -25.576 -12.097  17.099  1.00  0.00    -0.003 C 
ATOM      9  C   UNL     1     -25.903 -13.445  17.733  1.00  0.00     0.004 C 
ENDBRANCH   7   8
ENDBRANCH   6   7
ENDBRANCH   1   6
TORSDOF 5
ENDMDL
MODEL 4
REMARK VINA RESULT:    -3.726      2.201      3.821
REMARK INTER + INTRA:          -5.164
REMARK INTER:                  -4.817
REMARK INTRA:                  -0.346
REMARK UNBOUND:                -0.348
REMARK SMILES CCCCCCC(=O)[O-]
REMARK SMILES IDX 5 1 6 2 7 3 8 4 9 5 4 6 3 7 2 8 1 9
REMARK H PARENT
REMARK Flexibility Score: inf
ROOT
ATOM      1  C   UNL     1     -27.682 -10.595  17.428  1.00  0.00     0.006 C 
ENDROOT
BRANCH   1   2
ATOM      2  C   UNL     1     -26.977 -11.650  16.570  1.00  0.00     0.053 C 
BRANCH   2   3
ATOM      3  C   UNL     1     -25.951 -12.379  17.377  1.00  0.00     0.041 C 
ATOM      4  O   UNL     1     -24.745 -12.016  17.346  1.00  0.00    -0.550 OA
ATOM      5  O   UNL     1     -26.314 -13.492  18.125  1.00  0.00    -0.550 OA
ENDBRANCH   2   3
ENDBRANCH   1   2
BRANCH   1   6
ATOM      6  C   UNL     1     -29.194 -10.863  17.494  1.00  0.00     0.000 C 
BRANCH   6   7
ATOM      7  C   UNL     1     -29.619 -12.069  16.642  1.00  0.00    -0.000 C 
BRANCH   7   8
ATOM      8  C   UNL     1     -30.378 -13.129  17.454  1.00  0.00    -0.003 C 
ATOM      9  C   UNL     1     -29.686 -14.487  17.367  1.00  0.00     0.004 C 
ENDBRANCH   7   8
ENDBRANCH   6   7
ENDBRANCH   1   6
TORSDOF 5
ENDMDL
MODEL 5
REMARK VINA RESULT:    -3.677      1.280      1.724
REMARK INTER + INTRA:          -5.100
REMARK INTER:                  -4.925
REMARK INTRA:                  -0.175
REMARK UNBOUND:                -0.348
REMARK SMILES CCCCCCC(=O)[O-]
REMARK SMILES IDX 5 1 6 2 7 3 8 4 9 5 4 6 3 7 2 8 1 9
REMARK H PARENT
REMARK Flexibility Score: inf
ROOT
ATOM      1  C   UNL     1     -29.621 -12.081  16.625  1.00  0.00     0.006 C 
ENDROOT
BRANCH   1   2
ATOM      2  C   UNL     1     -30.444 -13.143  17.360  1.00  0.00     0.053 C 
BRANCH   2   3
ATOM      3  C   UNL     1     -31.260 -13.937  16.390  1.00  0.00     0.041 C 
ATOM      4  O   UNL     1     -30.694 -14.669  15.536  1.00  0.00    -0.550 OA
ATOM      5  O   UNL     1     -32.645 -13.830  16.394  1.00  0.00    -0.550 OA
ENDBRANCH   2   3
ENDBRANCH   1   2
BRANCH   1   6
ATOM      6  C   UNL     1     -29.167 -10.974  17.590  1.00  0.00     0.000 C 
BRANCH   6   7
ATOM      7  C   UNL     1     -27.685 -10.608  17.415  1.00  0.00    -0.000 C 
BRANCH   7   8
ATOM      8  C   UNL     1     -26.893 -11.689  16.665  1.00  0.00    -0.003 C 
ATOM      9  C   UNL     1     -25.498 -11.860  17.260  1.00  0.00     0.004 C 
ENDBRANCH   7   8
ENDBRANCH   6   7
ENDBRANCH   1   6
TORSDOF 5
ENDMDL
MODEL 6
REMARK VINA RESULT:    -3.526      1.687      2.442
REMARK INTER + INTRA:          -4.904
REMARK INTER:                  -4.652
REMARK INTRA:                  -0.252
REMARK UNBOUND:                -0.348
REMARK SMILES CCCCCCC(=O)[O-]
REMARK SMILES IDX 5 1 6 2 7 3 8 4 9 5 4 6 3 7 2 8 1 9
REMARK H PARENT
REMARK Flexibility Score: inf
ROOT
ATOM      1  C   UNL     1     -27.978 -14.789  17.480  1.00  0.00     0.006 C 
ENDROOT
BRANCH   1   2
ATOM      2  C   UNL     1     -29.491 -14.551  17.499  1.00  0.00     0.053 C 
BRANCH   2   3
ATOM      3  C   UNL     1     -29.928 -13.859  16.246  1.00  0.00     0.041 C 
ATOM      4  O   UNL     1     -30.199 -14.529  15.215  1.00  0.00    -0.550 OA
ATOM      5  O   UNL     1     -29.988 -12.473  16.201  1.00  0.00    -0.550 OA
ENDBRANCH   2   3
ENDBRANCH   1   2
BRANCH   1   6
ATOM      6  C   UNL     1     -27.230 -13.611  18.124  1.00  0.00     0.000 C 
BRANCH   6   7
ATOM      7  C   UNL     1     -25.754 -13.545  17.699  1.00  0.00    -0.000 C 
BRANCH   7   8
ATOM      8  C   UNL     1     -25.351 -12.158  17.177  1.00  0.00    -0.003 C 
ATOM      9  C   UNL     1     -26.580 -11.307  16.875  1.00  0.00     0.004 C 
ENDBRANCH   7   8
ENDBRANCH   6   7
ENDBRANCH   1   6
TORSDOF 5
ENDMDL
MODEL 7
REMARK VINA RESULT:    -3.368      1.521      2.433
REMARK INTER + INTRA:          -4.700
REMARK INTER:                  -4.505
REMARK INTRA:                  -0.196
REMARK UNBOUND:                -0.348
REMARK SMILES CCCCCCC(=O)[O-]
REMARK SMILES IDX 5 1 6 2 7 3 8 4 9 5 4 6 3 7 2 8 1 9
REMARK H PARENT
REMARK Flexibility Score: inf
ROOT
ATOM      1  C   UNL     1     -27.199 -11.841  17.326  1.00  0.00     0.006 C 
ENDROOT
BRANCH   1   2
ATOM      2  C   UNL     1     -28.596 -11.216  17.381  1.00  0.00     0.053 C 
BRANCH   2   3
ATOM      3  C   UNL     1     -29.639 -12.238  17.057  1.00  0.00     0.041 C 
ATOM      4  O   UNL     1     -30.515 -12.541  17.910  1.00  0.00    -0.550 OA
ATOM      5  O   UNL     1     -29.617 -12.892  15.832  1.00  0.00    -0.550 OA
ENDBRANCH   2   3
ENDBRANCH   1   2
BRANCH   1   6
ATOM      6  C   UNL     1     -27.159 -13.167  18.103  1.00  0.00     0.000 C 
BRANCH   6   7
ATOM      7  C   UNL     1     -25.879 -13.973  17.833  1.00  0.00    -0.000 C 
BRANCH   7   8
ATOM      8  C   UNL     1     -26.155 -15.469  17.626  1.00  0.00    -0.003 C 
ATOM      9  C   UNL     1     -27.644 -15.729  17.419  1.00  0.00     0.004 C 
ENDBRANCH   7   8
ENDBRANCH   6   7
ENDBRANCH   1   6
TORSDOF 5
ENDMDL
MODEL 8
REMARK VINA RESULT:    -3.255      2.920      4.512
REMARK INTER + INTRA:          -4.555
REMARK INTER:                  -4.403
REMARK INTRA:                  -0.151
REMARK UNBOUND:                -0.348
REMARK SMILES CCCCCCC(=O)[O-]
REMARK SMILES IDX 5 1 6 2 7 3 8 4 9 5 4 6 3 7 2 8 1 9
REMARK H PARENT
REMARK Flexibility Score: inf
ROOT
ATOM      1  C   UNL     1     -29.595 -12.085  16.688  1.00  0.00     0.006 C 
ENDROOT
BRANCH   1   2
ATOM      2  C   UNL     1     -28.164 -12.490  17.053  1.00  0.00     0.053 C 
BRANCH   2   3
ATOM      3  C   UNL     1     -27.261 -11.297  17.032  1.00  0.00     0.041 C 
ATOM      4  O   UNL     1     -27.700 -10.166  17.367  1.00  0.00    -0.550 OA
ATOM      5  O   UNL     1     -25.949 -11.424  16.597  1.00  0.00    -0.550 OA
ENDBRANCH   2   3
ENDBRANCH   1   2
BRANCH   1   6
ATOM      6  C   UNL     1     -30.566 -13.259  16.895  1.00  0.00     0.000 C 
BRANCH   6   7
ATOM      7  C   UNL     1     -30.029 -14.579  16.320  1.00  0.00    -0.000 C 
BRANCH   7   8
ATOM      8  C   UNL     1     -30.940 -15.164  15.230  1.00  0.00    -0.003 C 
ATOM      9  C   UNL     1     -30.134 -15.970  14.216  1.00  0.00     0.004 C 
ENDBRANCH   7   8
ENDBRANCH   6   7
ENDBRANCH   1   6
TORSDOF 5
ENDMDL
MODEL 9
REMARK VINA RESULT:    -3.241      2.766      3.809
REMARK INTER + INTRA:          -4.536
REMARK INTER:                  -4.341
REMARK INTRA:                  -0.196
REMARK UNBOUND:                -0.348
REMARK SMILES CCCCCCC(=O)[O-]
REMARK SMILES IDX 5 1 6 2 7 3 8 4 9 5 4 6 3 7 2 8 1 9
REMARK H PARENT
REMARK Flexibility Score: inf
ROOT
ATOM      1  C   UNL     1     -26.189 -13.114  17.698  1.00  0.00     0.006 C 
ENDROOT
BRANCH   1   2
ATOM      2  C   UNL     1     -27.685 -12.792  17.622  1.00  0.00     0.053 C 
BRANCH   2   3
ATOM      3  C   UNL     1     -27.895 -11.320  17.462  1.00  0.00     0.041 C 
ATOM      4  O   UNL     1     -26.913 -10.558  17.261  1.00  0.00    -0.550 OA
ATOM      5  O   UNL     1     -29.170 -10.782  17.582  1.00  0.00    -0.550 OA
ENDBRANCH   2   3
ENDBRANCH   1   2
BRANCH   1   6
ATOM      6  C   UNL     1     -25.963 -14.573  18.125  1.00  0.00     0.000 C 
BRANCH   6   7
ATOM      7  C   UNL     1     -27.210 -15.448  17.922  1.00  0.00    -0.000 C 
BRANCH   7   8
ATOM      8  C   UNL     1     -26.867 -16.934  17.742  1.00  0.00    -0.003 C 
ATOM      9  C   UNL     1     -25.715 -17.116  16.758  1.00  0.00     0.004 C 
ENDBRANCH   7   8
ENDBRANCH   6   7
ENDBRANCH   1   6
TORSDOF 5
ENDMDL
