MODEL 1
REMARK VINA RESULT:    -4.614      0.000      0.000
REMARK INTER + INTRA:          -5.441
REMARK INTER:                  -5.288
REMARK INTRA:                  -0.153
REMARK UNBOUND:                -0.153
REMARK SMILES O=C([O-])C=Cc1ccc(O)cc1
REMARK SMILES IDX 6 1 7 2 12 3 8 4 11 5 9 6 5 7 4 8 2 9 1 10 3 11 10 12
REMARK H PARENT 10 13
REMARK Flexibility Score: inf
ROOT
ATOM      1  C   UNL     1       9.306  14.434 -18.531  1.00  0.00    -0.025 A 
ATOM      2  C   UNL     1       9.450  15.783 -18.914  1.00  0.00     0.012 A 
ATOM      3  C   UNL     1       9.955  13.442 -19.286  1.00  0.00     0.012 A 
ATOM      4  C   UNL     1      10.246  16.125 -20.012  1.00  0.00     0.047 A 
ATOM      5  C   UNL     1      10.752  13.788 -20.381  1.00  0.00     0.047 A 
ATOM      6  C   UNL     1      10.901  15.129 -20.746  1.00  0.00     0.115 A 
ENDROOT
BRANCH   1   7
ATOM      7  C   UNL     1       8.464  14.015 -17.382  1.00  0.00     0.010 C 
ATOM      8  C   UNL     1       8.248  12.735 -17.044  1.00  0.00     0.025 C 
BRANCH   8   9
ATOM      9  C   UNL     1       7.397  12.357 -15.904  1.00  0.00     0.064 C 
ATOM     10  O   UNL     1       6.369  13.023 -15.607  1.00  0.00    -0.545 OA
ATOM     11  O   UNL     1       7.734  11.247 -15.140  1.00  0.00    -0.545 OA
ENDBRANCH   8   9
ENDBRANCH   1   7
BRANCH   6  12
ATOM     12  O   UNL     1      11.698  15.460 -21.840  1.00  0.00    -0.508 OA
ATOM     13  H   UNL     1      11.834  16.423 -22.124  1.00  0.00     0.293 HD
ENDBRANCH   6  12
TORSDOF 3
ENDMDL
MODEL 2
REMARK VINA RESULT:    -4.115      1.141      5.780
REMARK INTER + INTRA:          -4.869
REMARK INTER:                  -4.729
REMARK INTRA:                  -0.140
REMARK UNBOUND:                -0.153
REMARK SMILES O=C([O-])C=Cc1ccc(O)cc1
REMARK SMILES IDX 6 1 7 2 12 3 8 4 11 5 9 6 5 7 4 8 2 9 1 10 3 11 10 12
REMARK H PARENT 10 13
REMARK Flexibility Score: inf
ROOT
ATOM      1  C   UNL     1       8.994  14.577 -18.977  1.00  0.00    -0.025 A 
ATOM      2  C   UNL     1       7.613  14.852 -18.898  1.00  0.00     0.012 A 
ATOM      3  C   UNL     1       9.569  13.717 -18.025  1.00  0.00     0.012 A 
ATOM      4  C   UNL     1       6.830  14.258 -17.903  1.00  0.00     0.047 A 
ATOM      5  C   UNL     1       8.782  13.124 -17.034  1.00  0.00     0.047 A 
ATOM      6  C   UNL     1       7.412  13.391 -16.971  1.00  0.00     0.115 A 
ENDROOT
BRANCH   1   7
ATOM      7  C   UNL     1       9.874  15.189 -20.004  1.00  0.00     0.010 C 
ATOM      8  C   UNL     1      10.581  14.481 -20.897  1.00  0.00     0.025 C 
BRANCH   8   9
ATOM      9  C   UNL     1      11.453  15.124 -21.895  1.00  0.00     0.064 C 
ATOM     10  O   UNL     1      12.158  16.125 -21.598  1.00  0.00    -0.545 OA
ATOM     11  O   UNL     1      11.497  14.619 -23.188  1.00  0.00    -0.545 OA
ENDBRANCH   8   9
ENDBRANCH   1   7
BRANCH   6  12
ATOM     12  O   UNL     1       6.639  12.793 -15.978  1.00  0.00    -0.508 OA
ATOM     13  H   UNL     1       5.666  13.040 -15.843  1.00  0.00     0.293 HD
ENDBRANCH   6  12
TORSDOF 3
ENDMDL
MODEL 3
REMARK VINA RESULT:    -4.110      2.013      2.668
REMARK INTER + INTRA:          -4.863
REMARK INTER:                  -4.713
REMARK INTRA:                  -0.150
REMARK UNBOUND:                -0.153
REMARK SMILES O=C([O-])C=Cc1ccc(O)cc1
REMARK SMILES IDX 6 1 7 2 12 3 8 4 11 5 9 6 5 7 4 8 2 9 1 10 3 11 10 12
REMARK H PARENT 10 13
REMARK Flexibility Score: inf
ROOT
ATOM      1  C   UNL     1       8.092  13.294 -17.318  1.00  0.00    -0.025 A 
ATOM      2  C   UNL     1       7.033  14.039 -17.876  1.00  0.00     0.012 A 
ATOM      3  C   UNL     1       9.394  13.499 -17.805  1.00  0.00     0.012 A 
ATOM      4  C   UNL     1       7.283  14.981 -18.879  1.00  0.00     0.047 A 
ATOM      5  C   UNL     1       9.640  14.443 -18.807  1.00  0.00     0.047 A 
ATOM      6  C   UNL     1       8.587  15.187 -19.345  1.00  0.00     0.115 A 
ENDROOT
BRANCH   1   7
ATOM      7  C   UNL     1       7.881  12.274 -16.261  1.00  0.00     0.010 C 
ATOM      8  C   UNL     1       8.764  11.306 -15.973  1.00  0.00     0.025 C 
BRANCH   8   9
ATOM      9  C   UNL     1       8.515  10.304 -14.924  1.00  0.00     0.064 C 
ATOM     10  O   UNL     1       7.750   9.323 -15.126  1.00  0.00    -0.545 OA
ATOM     11  O   UNL     1       9.133  10.442 -13.688  1.00  0.00    -0.545 OA
ENDBRANCH   8   9
ENDBRANCH   1   7
BRANCH   6  12
ATOM     12  O   UNL     1       8.846  16.125 -20.342  1.00  0.00    -0.508 OA
ATOM     13  H   UNL     1       8.727  17.118 -20.179  1.00  0.00     0.293 HD
ENDBRANCH   6  12
TORSDOF 3
ENDMDL
MODEL 4
REMARK VINA RESULT:    -3.893      2.163      2.983
REMARK INTER + INTRA:          -4.615
REMARK INTER:                  -4.478
REMARK INTRA:                  -0.137
REMARK UNBOUND:                -0.153
REMARK SMILES O=C([O-])C=Cc1ccc(O)cc1
REMARK SMILES IDX 6 1 7 2 12 3 8 4 11 5 9 6 5 7 4 8 2 9 1 10 3 11 10 12
REMARK H PARENT 10 13
REMARK Flexibility Score: inf
ROOT
ATOM      1  C   UNL     1       8.101  13.169 -17.249  1.00  0.00    -0.025 A 
ATOM      2  C   UNL     1       9.368  13.496 -17.775  1.00  0.00     0.012 A 
ATOM      3  C   UNL     1       6.973  13.863 -17.719  1.00  0.00     0.012 A 
ATOM      4  C   UNL     1       9.491  14.476 -18.765  1.00  0.00     0.047 A 
ATOM      5  C   UNL     1       7.100  14.841 -18.710  1.00  0.00     0.047 A 
ATOM      6  C   UNL     1       8.357  15.149 -19.237  1.00  0.00     0.115 A 
ENDROOT
BRANCH   1   7
ATOM      7  C   UNL     1       7.915  12.146 -16.189  1.00  0.00     0.010 C 
ATOM      8  C   UNL     1       8.829  11.214 -15.885  1.00  0.00     0.025 C 
BRANCH   8   9
ATOM      9  C   UNL     1       8.605  10.207 -14.834  1.00  0.00     0.064 C 
ATOM     10  O   UNL     1       9.154  10.309 -13.704  1.00  0.00    -0.545 OA
ATOM     11  O   UNL     1       7.775   9.124 -15.094  1.00  0.00    -0.545 OA
ENDBRANCH   8   9
ENDBRANCH   1   7
BRANCH   6  12
ATOM     12  O   UNL     1       8.470  16.125 -20.224  1.00  0.00    -0.508 OA
ATOM     13  H   UNL     1       9.247  16.135 -20.874  1.00  0.00     0.293 HD
ENDBRANCH   6  12
TORSDOF 3
ENDMDL
MODEL 5
REMARK VINA RESULT:    -2.378      1.687      5.908
REMARK INTER + INTRA:          -2.879
REMARK INTER:                  -2.739
REMARK INTRA:                  -0.140
REMARK UNBOUND:                -0.153
REMARK SMILES O=C([O-])C=Cc1ccc(O)cc1
REMARK SMILES IDX 6 1 7 2 12 3 8 4 11 5 9 6 5 7 4 8 2 9 1 10 3 11 10 12
REMARK H PARENT 10 13
REMARK Flexibility Score: inf
ROOT
ATOM      1  C   UNL     1       8.498  12.864 -16.952  1.00  0.00    -0.025 A 
ATOM      2  C   UNL     1       9.535  11.932 -16.743  1.00  0.00     0.012 A 
ATOM      3  C   UNL     1       7.288  12.699 -16.257  1.00  0.00     0.012 A 
ATOM      4  C   UNL     1       9.366  10.877 -15.840  1.00  0.00     0.047 A 
ATOM      5  C   UNL     1       7.124  11.644 -15.353  1.00  0.00     0.047 A 
ATOM      6  C   UNL     1       8.162  10.733 -15.141  1.00  0.00     0.115 A 
ENDROOT
BRANCH   1   7
ATOM      7  C   UNL     1       8.620  13.994 -17.908  1.00  0.00     0.010 C 
ATOM      8  C   UNL     1       9.660  14.159 -18.738  1.00  0.00     0.025 C 
BRANCH   8   9
ATOM      9  C   UNL     1       9.751  15.299 -19.664  1.00  0.00     0.064 C 
ATOM     10  O   UNL     1       8.744  15.702 -20.306  1.00  0.00    -0.545 OA
ATOM     11  O   UNL     1      10.970  15.942 -19.836  1.00  0.00    -0.545 OA
ENDBRANCH   8   9
ENDBRANCH   1   7
BRANCH   6  12
ATOM     12  O   UNL     1       7.985   9.688 -14.237  1.00  0.00    -0.508 OA
ATOM     13  H   UNL     1       8.199   9.796 -13.253  1.00  0.00     0.293 HD
ENDBRANCH   6  12
TORSDOF 3
ENDMDL
MODEL 6
REMARK VINA RESULT:    -1.987      3.149      5.716
REMARK INTER + INTRA:          -2.430
REMARK INTER:                  -2.293
REMARK INTRA:                  -0.137
REMARK UNBOUND:                -0.153
REMARK SMILES O=C([O-])C=Cc1ccc(O)cc1
REMARK SMILES IDX 6 1 7 2 12 3 8 4 11 5 9 6 5 7 4 8 2 9 1 10 3 11 10 12
REMARK H PARENT 10 13
REMARK Flexibility Score: inf
ROOT
ATOM      1  C   UNL     1       8.022  12.155 -16.315  1.00  0.00    -0.025 A 
ATOM      2  C   UNL     1       9.329  11.776 -16.684  1.00  0.00     0.012 A 
ATOM      3  C   UNL     1       7.404  11.493 -15.240  1.00  0.00     0.012 A 
ATOM      4  C   UNL     1      10.003  10.776 -15.976  1.00  0.00     0.047 A 
ATOM      5  C   UNL     1       8.082  10.495 -14.533  1.00  0.00     0.047 A 
ATOM      6  C   UNL     1       9.382  10.136 -14.897  1.00  0.00     0.115 A 
ENDROOT
BRANCH   1   7
ATOM      7  C   UNL     1       7.258  13.201 -17.040  1.00  0.00     0.010 C 
ATOM      8  C   UNL     1       7.822  14.111 -17.847  1.00  0.00     0.025 C 
BRANCH   8   9
ATOM      9  C   UNL     1       7.032  15.141 -18.541  1.00  0.00     0.064 C 
ATOM     10  O   UNL     1       6.530  16.112 -17.914  1.00  0.00    -0.545 OA
ATOM     11  O   UNL     1       6.834  15.041 -19.912  1.00  0.00    -0.545 OA
ENDBRANCH   8   9
ENDBRANCH   1   7
BRANCH   6  12
ATOM     12  O   UNL     1      10.045   9.140 -14.183  1.00  0.00    -0.508 OA
ATOM     13  H   UNL     1       9.592   8.637 -13.429  1.00  0.00     0.293 HD
ENDBRANCH   6  12
TORSDOF 3
ENDMDL
