MODEL 1
REMARK VINA RESULT:    -6.034      0.000      0.000
REMARK INTER + INTRA:          -6.034
REMARK INTER:                  -6.034
REMARK INTRA:                   0.000
REMARK UNBOUND:                 0.000
REMARK SMILES C[C@@H]1CCC=C2CC[C@@H]3[C@H](C3(C)C)[C@]21C
REMARK SMILES IDX 1 1 2 2 3 3 4 4 5 5 6 6 14 7 10 8 9 9 11 10 12 11 13 12 8 13
REMARK SMILES IDX 7 14 15 15
REMARK H PARENT
REMARK Flexibility Score: inf
ROOT
ATOM      1  C   UNL     1      29.854   7.758  29.677  1.00  0.00     0.008 C 
ATOM      2  C   UNL     1      30.955   8.143  30.682  1.00  0.00    -0.004 C 
ATOM      3  C   UNL     1      30.763   7.375  32.002  1.00  0.00     0.008 C 
ATOM      4  C   UNL     1      31.911   7.648  32.977  1.00  0.00     0.027 C 
ATOM      5  C   UNL     1      32.377   9.081  32.998  1.00  0.00    -0.027 C 
ATOM      6  C   UNL     1      32.139   9.967  32.006  1.00  0.00    -0.068 C 
ATOM      7  C   UNL     1      31.073   9.692  30.917  1.00  0.00    -0.005 C 
ATOM      8  C   UNL     1      31.650  10.315  29.608  1.00  0.00     0.009 C 
ATOM      9  C   UNL     1      31.794  11.851  29.897  1.00  0.00    -0.000 C 
ATOM     10  C   UNL     1      31.345  11.359  28.539  1.00  0.00    -0.028 C 
ATOM     11  C   UNL     1      29.867  11.533  28.168  1.00  0.00     0.012 C 
ATOM     12  C   UNL     1      32.369  11.499  27.406  1.00  0.00     0.012 C 
ATOM     13  C   UNL     1      33.125  11.925  30.632  1.00  0.00     0.009 C 
ATOM     14  C   UNL     1      32.909  11.299  32.032  1.00  0.00     0.031 C 
ATOM     15  C   UNL     1      29.706  10.280  31.378  1.00  0.00     0.017 C 
ENDROOT
TORSDOF 0
ENDMDL
MODEL 2
REMARK VINA RESULT:    -6.019      1.193      2.751
REMARK INTER + INTRA:          -6.019
REMARK INTER:                  -6.019
REMARK INTRA:                   0.000
REMARK UNBOUND:                 0.000
REMARK SMILES C[C@@H]1CCC=C2CC[C@@H]3[C@H](C3(C)C)[C@]21C
REMARK SMILES IDX 1 1 2 2 3 3 4 4 5 5 6 6 14 7 10 8 9 9 11 10 12 11 13 12 8 13
REMARK SMILES IDX 7 14 15 15
REMARK H PARENT
REMARK Flexibility Score: inf
ROOT
ATOM      1  C   UNL     1      30.757   7.706  32.520  1.00  0.00     0.008 C 
ATOM      2  C   UNL     1      31.722   8.837  32.117  1.00  0.00    -0.004 C 
ATOM      3  C   UNL     1      32.076   9.696  33.344  1.00  0.00     0.008 C 
ATOM      4  C   UNL     1      33.125  10.755  32.998  1.00  0.00     0.027 C 
ATOM      5  C   UNL     1      32.927  11.406  31.652  1.00  0.00    -0.027 C 
ATOM      6  C   UNL     1      32.187  10.870  30.657  1.00  0.00    -0.068 C 
ATOM      7  C   UNL     1      31.195   9.712  30.922  1.00  0.00    -0.005 C 
ATOM      8  C   UNL     1      31.246   8.822  29.641  1.00  0.00     0.009 C 
ATOM      9  C   UNL     1      30.757   9.741  28.467  1.00  0.00    -0.000 C 
ATOM     10  C   UNL     1      30.368   8.280  28.519  1.00  0.00    -0.028 C 
ATOM     11  C   UNL     1      28.922   7.938  28.899  1.00  0.00     0.012 C 
ATOM     12  C   UNL     1      31.052   7.370  27.492  1.00  0.00     0.012 C 
ATOM     13  C   UNL     1      32.020  10.508  28.100  1.00  0.00     0.009 C 
ATOM     14  C   UNL     1      32.305  11.499  29.257  1.00  0.00     0.031 C 
ATOM     15  C   UNL     1      29.793  10.304  31.255  1.00  0.00     0.017 C 
ENDROOT
TORSDOF 0
ENDMDL
MODEL 3
REMARK VINA RESULT:    -5.612      1.161      4.799
REMARK INTER + INTRA:          -5.612
REMARK INTER:                  -5.612
REMARK INTRA:                   0.000
REMARK UNBOUND:                 0.000
REMARK SMILES C[C@@H]1CCC=C2CC[C@@H]3[C@H](C3(C)C)[C@]21C
REMARK SMILES IDX 1 1 2 2 3 3 4 4 5 5 6 6 14 7 10 8 9 9 11 10 12 11 13 12 8 13
REMARK SMILES IDX 7 14 15 15
REMARK H PARENT
REMARK Flexibility Score: inf
ROOT
ATOM      1  C   UNL     1      32.392  12.060  31.508  1.00  0.00     0.008 C 
ATOM      2  C   UNL     1      32.355  11.152  30.265  1.00  0.00    -0.004 C 
ATOM      3  C   UNL     1      32.283  12.006  28.986  1.00  0.00     0.008 C 
ATOM      4  C   UNL     1      32.364  11.135  27.730  1.00  0.00     0.027 C 
ATOM      5  C   UNL     1      31.591   9.844  27.821  1.00  0.00    -0.027 C 
ATOM      6  C   UNL     1      31.203   9.278  28.985  1.00  0.00    -0.068 C 
ATOM      7  C   UNL     1      31.214  10.072  30.313  1.00  0.00    -0.005 C 
ATOM      8  C   UNL     1      31.607   9.036  31.411  1.00  0.00     0.009 C 
ATOM      9  C   UNL     1      30.470   7.953  31.399  1.00  0.00    -0.000 C 
ATOM     10  C   UNL     1      31.097   8.401  32.701  1.00  0.00    -0.028 C 
ATOM     11  C   UNL     1      30.269   9.309  33.618  1.00  0.00     0.012 C 
ATOM     12  C   UNL     1      32.025   7.386  33.378  1.00  0.00     0.012 C 
ATOM     13  C   UNL     1      30.894   7.044  30.254  1.00  0.00     0.009 C 
ATOM     14  C   UNL     1      30.675   7.833  28.938  1.00  0.00     0.031 C 
ATOM     15  C   UNL     1      29.827  10.751  30.516  1.00  0.00     0.017 C 
ENDROOT
TORSDOF 0
ENDMDL
MODEL 4
REMARK VINA RESULT:    -5.589      1.463      4.023
REMARK INTER + INTRA:          -5.589
REMARK INTER:                  -5.589
REMARK INTRA:                   0.000
REMARK UNBOUND:                 0.000
REMARK SMILES C[C@@H]1CCC=C2CC[C@@H]3[C@H](C3(C)C)[C@]21C
REMARK SMILES IDX 1 1 2 2 3 3 4 4 5 5 6 6 14 7 10 8 9 9 11 10 12 11 13 12 8 13
REMARK SMILES IDX 7 14 15 15
REMARK H PARENT
REMARK Flexibility Score: inf
ROOT
ATOM      1  C   UNL     1      32.153  11.364  28.219  1.00  0.00     0.008 C 
ATOM      2  C   UNL     1      31.963   9.863  28.507  1.00  0.00    -0.004 C 
ATOM      3  C   UNL     1      31.413   9.149  27.259  1.00  0.00     0.008 C 
ATOM      4  C   UNL     1      31.326   7.636  27.478  1.00  0.00     0.027 C 
ATOM      5  C   UNL     1      30.847   7.236  28.850  1.00  0.00    -0.027 C 
ATOM      6  C   UNL     1      30.879   8.050  29.927  1.00  0.00    -0.068 C 
ATOM      7  C   UNL     1      31.086   9.577  29.780  1.00  0.00    -0.005 C 
ATOM      8  C   UNL     1      31.927  10.002  31.023  1.00  0.00     0.009 C 
ATOM      9  C   UNL     1      31.040   9.661  32.272  1.00  0.00    -0.000 C 
ATOM     10  C   UNL     1      31.887  10.913  32.245  1.00  0.00    -0.028 C 
ATOM     11  C   UNL     1      31.172  12.257  32.062  1.00  0.00     0.012 C 
ATOM     12  C   UNL     1      33.125  10.901  33.150  1.00  0.00     0.012 C 
ATOM     13  C   UNL     1      31.313   8.177  32.475  1.00  0.00     0.009 C 
ATOM     14  C   UNL     1      30.626   7.422  31.309  1.00  0.00     0.031 C 
ATOM     15  C   UNL     1      29.698  10.273  29.655  1.00  0.00     0.017 C 
ENDROOT
TORSDOF 0
ENDMDL
MODEL 5
REMARK VINA RESULT:    -5.489      2.175      5.071
REMARK INTER + INTRA:          -5.489
REMARK INTER:                  -5.489
REMARK INTRA:                   0.000
REMARK UNBOUND:                 0.000
REMARK SMILES C[C@@H]1CCC=C2CC[C@@H]3[C@H](C3(C)C)[C@]21C
REMARK SMILES IDX 1 1 2 2 3 3 4 4 5 5 6 6 14 7 10 8 9 9 11 10 12 11 13 12 8 13
REMARK SMILES IDX 7 14 15 15
REMARK H PARENT
REMARK Flexibility Score: inf
ROOT
ATOM      1  C   UNL     1      29.754   7.004  31.670  1.00  0.00     0.008 C 
ATOM      2  C   UNL     1      30.384   8.409  31.679  1.00  0.00    -0.004 C 
ATOM      3  C   UNL     1      31.101   8.679  30.344  1.00  0.00     0.008 C 
ATOM      4  C   UNL     1      31.634  10.112  30.278  1.00  0.00     0.027 C 
ATOM      5  C   UNL     1      32.231  10.610  31.570  1.00  0.00    -0.027 C 
ATOM      6  C   UNL     1      31.977  10.062  32.778  1.00  0.00    -0.068 C 
ATOM      7  C   UNL     1      31.325   8.665  32.911  1.00  0.00    -0.005 C 
ATOM      8  C   UNL     1      30.416   8.751  34.176  1.00  0.00     0.009 C 
ATOM      9  C   UNL     1      31.383   9.050  35.375  1.00  0.00    -0.000 C 
ATOM     10  C   UNL     1      30.203   8.120  35.548  1.00  0.00    -0.028 C 
ATOM     11  C   UNL     1      30.486   6.616  35.650  1.00  0.00     0.012 C 
ATOM     12  C   UNL     1      29.038   8.668  36.381  1.00  0.00     0.012 C 
ATOM     13  C   UNL     1      31.564  10.559  35.284  1.00  0.00     0.009 C 
ATOM     14  C   UNL     1      32.425  10.842  34.028  1.00  0.00     0.031 C 
ATOM     15  C   UNL     1      32.443   7.582  32.978  1.00  0.00     0.017 C 
ENDROOT
TORSDOF 0
ENDMDL
MODEL 6
REMARK VINA RESULT:    -5.277      3.670      6.280
REMARK INTER + INTRA:          -5.277
REMARK INTER:                  -5.277
REMARK INTRA:                   0.000
REMARK UNBOUND:                 0.000
REMARK SMILES C[C@@H]1CCC=C2CC[C@@H]3[C@H](C3(C)C)[C@]21C
REMARK SMILES IDX 1 1 2 2 3 3 4 4 5 5 6 6 14 7 10 8 9 9 11 10 12 11 13 12 8 13
REMARK SMILES IDX 7 14 15 15
REMARK H PARENT
REMARK Flexibility Score: inf
ROOT
ATOM      1  C   UNL     1      31.862  11.676  33.586  1.00  0.00     0.008 C 
ATOM      2  C   UNL     1      31.986  10.184  33.943  1.00  0.00    -0.004 C 
ATOM      3  C   UNL     1      32.135   9.342  32.663  1.00  0.00     0.008 C 
ATOM      4  C   UNL     1      32.380   7.868  32.992  1.00  0.00     0.027 C 
ATOM      5  C   UNL     1      31.562   7.347  34.146  1.00  0.00    -0.027 C 
ATOM      6  C   UNL     1      30.986   8.137  35.079  1.00  0.00    -0.068 C 
ATOM      7  C   UNL     1      30.819   9.659  34.856  1.00  0.00    -0.005 C 
ATOM      8  C   UNL     1      31.008  10.307  36.263  1.00  0.00     0.009 C 
ATOM      9  C   UNL     1      29.854   9.727  37.155  1.00  0.00    -0.000 C 
ATOM     10  C   UNL     1      30.289  11.169  37.295  1.00  0.00    -0.028 C 
ATOM     11  C   UNL     1      29.359  12.253  36.738  1.00  0.00     0.012 C 
ATOM     12  C   UNL     1      31.072  11.509  38.569  1.00  0.00     0.012 C 
ATOM     13  C   UNL     1      30.419   8.382  37.592  1.00  0.00     0.009 C 
ATOM     14  C   UNL     1      30.427   7.463  36.344  1.00  0.00     0.031 C 
ATOM     15  C   UNL     1      29.439   9.932  34.187  1.00  0.00     0.017 C 
ENDROOT
TORSDOF 0
ENDMDL
MODEL 7
REMARK VINA RESULT:    -5.231      1.460      3.391
REMARK INTER + INTRA:          -5.231
REMARK INTER:                  -5.231
REMARK INTRA:                   0.000
REMARK UNBOUND:                 0.000
REMARK SMILES C[C@@H]1CCC=C2CC[C@@H]3[C@H](C3(C)C)[C@]21C
REMARK SMILES IDX 1 1 2 2 3 3 4 4 5 5 6 6 14 7 10 8 9 9 11 10 12 11 13 12 8 13
REMARK SMILES IDX 7 14 15 15
REMARK H PARENT
REMARK Flexibility Score: inf
ROOT
ATOM      1  C   UNL     1      31.544  11.201  34.465  1.00  0.00     0.008 C 
ATOM      2  C   UNL     1      30.998   9.834  34.011  1.00  0.00    -0.004 C 
ATOM      3  C   UNL     1      31.222   8.781  35.111  1.00  0.00     0.008 C 
ATOM      4  C   UNL     1      30.584   7.441  34.737  1.00  0.00     0.027 C 
ATOM      5  C   UNL     1      30.744   7.064  33.286  1.00  0.00    -0.027 C 
ATOM      6  C   UNL     1      31.034   7.946  32.305  1.00  0.00    -0.068 C 
ATOM      7  C   UNL     1      31.568   9.363  32.624  1.00  0.00    -0.005 C 
ATOM      8  C   UNL     1      30.953  10.293  31.533  1.00  0.00     0.009 C 
ATOM      9  C   UNL     1      31.508   9.765  30.163  1.00  0.00    -0.000 C 
ATOM     10  C   UNL     1      31.342  11.248  30.410  1.00  0.00    -0.028 C 
ATOM     11  C   UNL     1      32.609  12.080  30.641  1.00  0.00     0.012 C 
ATOM     12  C   UNL     1      30.192  11.925  29.656  1.00  0.00     0.012 C 
ATOM     13  C   UNL     1      30.566   8.611  29.848  1.00  0.00     0.009 C 
ATOM     14  C   UNL     1      30.887   7.472  30.848  1.00  0.00     0.031 C 
ATOM     15  C   UNL     1      33.125   9.328  32.656  1.00  0.00     0.017 C 
ENDROOT
TORSDOF 0
ENDMDL
MODEL 8
REMARK VINA RESULT:    -5.169      1.789      2.673
REMARK INTER + INTRA:          -5.169
REMARK INTER:                  -5.169
REMARK INTRA:                   0.000
REMARK UNBOUND:                 0.000
REMARK SMILES C[C@@H]1CCC=C2CC[C@@H]3[C@H](C3(C)C)[C@]21C
REMARK SMILES IDX 1 1 2 2 3 3 4 4 5 5 6 6 14 7 10 8 9 9 11 10 12 11 13 12 8 13
REMARK SMILES IDX 7 14 15 15
REMARK H PARENT
REMARK Flexibility Score: inf
ROOT
ATOM      1  C   UNL     1      30.204   7.459  31.397  1.00  0.00     0.008 C 
ATOM      2  C   UNL     1      30.832   7.729  32.777  1.00  0.00    -0.004 C 
ATOM      3  C   UNL     1      30.225   6.785  33.830  1.00  0.00     0.008 C 
ATOM      4  C   UNL     1      30.914   6.949  35.187  1.00  0.00     0.027 C 
ATOM      5  C   UNL     1      31.235   8.376  35.549  1.00  0.00    -0.027 C 
ATOM      6  C   UNL     1      31.314   9.383  34.651  1.00  0.00    -0.068 C 
ATOM      7  C   UNL     1      30.743   9.235  33.220  1.00  0.00    -0.005 C 
ATOM      8  C   UNL     1      31.713  10.043  32.302  1.00  0.00     0.009 C 
ATOM      9  C   UNL     1      31.630  11.528  32.803  1.00  0.00    -0.000 C 
ATOM     10  C   UNL     1      31.746  11.215  31.328  1.00  0.00    -0.028 C 
ATOM     11  C   UNL     1      30.498  11.404  30.457  1.00  0.00     0.012 C 
ATOM     12  C   UNL     1      33.100  11.532  30.682  1.00  0.00     0.012 C 
ATOM     13  C   UNL     1      32.591  11.532  33.984  1.00  0.00     0.009 C 
ATOM     14  C   UNL     1      31.924  10.716  35.119  1.00  0.00     0.031 C 
ATOM     15  C   UNL     1      29.264   9.723  33.205  1.00  0.00     0.017 C 
ENDROOT
TORSDOF 0
ENDMDL
MODEL 9
REMARK VINA RESULT:    -4.969      1.740      3.225
REMARK INTER + INTRA:          -4.969
REMARK INTER:                  -4.969
REMARK INTRA:                   0.000
REMARK UNBOUND:                 0.000
REMARK SMILES C[C@@H]1CCC=C2CC[C@@H]3[C@H](C3(C)C)[C@]21C
REMARK SMILES IDX 1 1 2 2 3 3 4 4 5 5 6 6 14 7 10 8 9 9 11 10 12 11 13 12 8 13
REMARK SMILES IDX 7 14 15 15
REMARK H PARENT
REMARK Flexibility Score: inf
ROOT
ATOM      1  C   UNL     1      30.286   8.335  30.227  1.00  0.00     0.008 C 
ATOM      2  C   UNL     1      31.292   9.486  30.046  1.00  0.00    -0.004 C 
ATOM      3  C   UNL     1      31.693  10.062  31.416  1.00  0.00     0.008 C 
ATOM      4  C   UNL     1      32.782  11.128  31.274  1.00  0.00     0.027 C 
ATOM      5  C   UNL     1      32.598  12.046  30.093  1.00  0.00    -0.027 C 
ATOM      6  C   UNL     1      31.828  11.754  29.023  1.00  0.00    -0.068 C 
ATOM      7  C   UNL     1      30.791  10.606  29.063  1.00  0.00    -0.005 C 
ATOM      8  C   UNL     1      30.794   9.994  27.628  1.00  0.00     0.009 C 
ATOM      9  C   UNL     1      30.333  11.151  26.673  1.00  0.00    -0.000 C 
ATOM     10  C   UNL     1      29.884   9.727  26.434  1.00  0.00    -0.028 C 
ATOM     11  C   UNL     1      28.429   9.371  26.762  1.00  0.00     0.012 C 
ATOM     12  C   UNL     1      30.520   9.019  25.232  1.00  0.00     0.012 C 
ATOM     13  C   UNL     1      31.623  11.928  26.449  1.00  0.00     0.009 C 
ATOM     14  C   UNL     1      31.959  12.650  27.778  1.00  0.00     0.031 C 
ATOM     15  C   UNL     1      29.418  11.171  29.534  1.00  0.00     0.017 C 
ENDROOT
TORSDOF 0
ENDMDL
