MODEL 1
REMARK VINA RESULT:    -2.825      0.000      0.000
REMARK INTER + INTRA:          -2.908
REMARK INTER:                  -2.908
REMARK INTRA:                   0.000
REMARK UNBOUND:                 0.000
REMARK SMILES C[C@@H]1CC[C@H]2C(C)(C)[C@H]3C[C@@]12CC[C@@]3(C)O
REMARK SMILES IDX 1 1 2 2 3 3 4 4 5 5 11 6 12 7 13 8 14 9 9 10 10 11 6 12 7 13
REMARK SMILES IDX 8 14 15 15 16 16
REMARK H PARENT 16 17
REMARK Flexibility Score: inf
ROOT
ATOM      1  C   UNL     1     126.081 106.933 134.925  1.00  0.00     0.008 C 
ATOM      2  C   UNL     1     125.917 108.352 134.360  1.00  0.00    -0.008 C 
ATOM      3  C   UNL     1     127.124 108.771 133.524  1.00  0.00     0.004 C 
ATOM      4  C   UNL     1     127.075 110.288 133.509  1.00  0.00     0.005 C 
ATOM      5  C   UNL     1     126.611 110.666 134.923  1.00  0.00     0.001 C 
ATOM      6  C   UNL     1     125.719 109.497 135.402  1.00  0.00    -0.023 C 
ATOM      7  C   UNL     1     126.044 109.123 136.881  1.00  0.00     0.010 C 
ATOM      8  C   UNL     1     125.946 110.332 137.843  1.00  0.00     0.036 C 
ATOM      9  C   UNL     1     124.771 111.322 137.530  1.00  0.00     0.065 C 
ATOM     10  C   UNL     1     124.539 111.471 135.973  1.00  0.00     0.027 C 
ATOM     11  C   UNL     1     124.307 110.078 135.380  1.00  0.00     0.014 C 
ATOM     12  C   UNL     1     125.767 111.975 135.128  1.00  0.00    -0.026 C 
ATOM     13  C   UNL     1     126.620 113.080 135.800  1.00  0.00     0.012 C 
ATOM     14  C   UNL     1     125.241 112.603 133.804  1.00  0.00     0.012 C 
ATOM     15  C   UNL     1     123.479 110.824 138.227  1.00  0.00     0.042 C 
ENDROOT
BRANCH   9  16
ATOM     16  O   UNL     1     125.056 112.595 138.062  1.00  0.00    -0.390 OA
ATOM     17  H   UNL     1     125.371 113.180 137.324  1.00  0.00     0.211 HD
ENDBRANCH   9  16
TORSDOF 1
ENDMDL
MODEL 2
REMARK VINA RESULT:    -2.760      1.469      3.335
REMARK INTER + INTRA:          -2.841
REMARK INTER:                  -2.841
REMARK INTRA:                   0.000
REMARK UNBOUND:                 0.000
REMARK SMILES C[C@@H]1CC[C@H]2C(C)(C)[C@H]3C[C@@]12CC[C@@]3(C)O
REMARK SMILES IDX 1 1 2 2 3 3 4 4 5 5 11 6 12 7 13 8 14 9 9 10 10 11 6 12 7 13
REMARK SMILES IDX 8 14 15 15 16 16
REMARK H PARENT 16 17
REMARK Flexibility Score: inf
ROOT
ATOM      1  C   UNL     1     127.125 110.745 132.673  1.00  0.00     0.008 C 
ATOM      2  C   UNL     1     127.099 109.776 133.864  1.00  0.00    -0.008 C 
ATOM      3  C   UNL     1     127.019 108.320 133.409  1.00  0.00     0.004 C 
ATOM      4  C   UNL     1     126.467 107.571 134.608  1.00  0.00     0.005 C 
ATOM      5  C   UNL     1     125.426 108.529 135.207  1.00  0.00     0.001 C 
ATOM      6  C   UNL     1     125.927 109.954 134.880  1.00  0.00    -0.023 C 
ATOM      7  C   UNL     1     124.751 110.857 134.396  1.00  0.00     0.010 C 
ATOM      8  C   UNL     1     123.569 110.894 135.397  1.00  0.00     0.036 C 
ATOM      9  C   UNL     1     123.993 110.909 136.907  1.00  0.00     0.065 C 
ATOM     10  C   UNL     1     125.274 110.017 137.157  1.00  0.00     0.027 C 
ATOM     11  C   UNL     1     126.392 110.498 136.229  1.00  0.00     0.014 C 
ATOM     12  C   UNL     1     125.159 108.499 136.754  1.00  0.00    -0.026 C 
ATOM     13  C   UNL     1     123.794 107.836 137.065  1.00  0.00     0.012 C 
ATOM     14  C   UNL     1     126.211 107.684 137.563  1.00  0.00     0.012 C 
ATOM     15  C   UNL     1     124.252 112.370 137.355  1.00  0.00     0.042 C 
ENDROOT
BRANCH   9  16
ATOM     16  O   UNL     1     122.943 110.418 137.709  1.00  0.00    -0.390 OA
ATOM     17  H   UNL     1     122.883 109.434 137.579  1.00  0.00     0.211 HD
ENDBRANCH   9  16
TORSDOF 1
ENDMDL
MODEL 3
REMARK VINA RESULT:    -2.739      1.219      3.251
REMARK INTER + INTRA:          -2.819
REMARK INTER:                  -2.819
REMARK INTRA:                   0.000
REMARK UNBOUND:                 0.000
REMARK SMILES C[C@@H]1CC[C@H]2C(C)(C)[C@H]3C[C@@]12CC[C@@]3(C)O
REMARK SMILES IDX 1 1 2 2 3 3 4 4 5 5 11 6 12 7 13 8 14 9 9 10 10 11 6 12 7 13
REMARK SMILES IDX 8 14 15 15 16 16
REMARK H PARENT 16 17
REMARK Flexibility Score: inf
ROOT
ATOM      1  C   UNL     1     127.125 108.817 132.324  1.00  0.00     0.008 C 
ATOM      2  C   UNL     1     127.065 109.047 133.841  1.00  0.00    -0.008 C 
ATOM      3  C   UNL     1     126.465 107.849 134.573  1.00  0.00     0.004 C 
ATOM      4  C   UNL     1     125.981 108.409 135.898  1.00  0.00     0.005 C 
ATOM      5  C   UNL     1     125.421 109.794 135.542  1.00  0.00     0.001 C 
ATOM      6  C   UNL     1     126.241 110.281 134.325  1.00  0.00    -0.023 C 
ATOM      7  C   UNL     1     125.310 110.929 133.255  1.00  0.00     0.010 C 
ATOM      8  C   UNL     1     124.432 112.067 133.829  1.00  0.00     0.036 C 
ATOM      9  C   UNL     1     125.149 112.973 134.889  1.00  0.00     0.065 C 
ATOM     10  C   UNL     1     126.131 112.133 135.799  1.00  0.00     0.027 C 
ATOM     11  C   UNL     1     127.120 111.392 134.895  1.00  0.00     0.014 C 
ATOM     12  C   UNL     1     125.491 110.945 136.609  1.00  0.00    -0.026 C 
ATOM     13  C   UNL     1     124.088 111.232 137.201  1.00  0.00     0.012 C 
ATOM     14  C   UNL     1     126.400 110.622 137.831  1.00  0.00     0.012 C 
ATOM     15  C   UNL     1     125.918 114.106 134.161  1.00  0.00     0.042 C 
ENDROOT
BRANCH   9  16
ATOM     16  O   UNL     1     124.195 113.597 135.718  1.00  0.00    -0.390 OA
ATOM     17  H   UNL     1     124.643 113.863 136.565  1.00  0.00     0.211 HD
ENDBRANCH   9  16
TORSDOF 1
ENDMDL
MODEL 4
REMARK VINA RESULT:    -2.726      1.359      1.600
REMARK INTER + INTRA:          -2.806
REMARK INTER:                  -2.806
REMARK INTRA:                   0.000
REMARK UNBOUND:                 0.000
REMARK SMILES C[C@@H]1CC[C@H]2C(C)(C)[C@H]3C[C@@]12CC[C@@]3(C)O
REMARK SMILES IDX 1 1 2 2 3 3 4 4 5 5 11 6 12 7 13 8 14 9 9 10 10 11 6 12 7 13
REMARK SMILES IDX 8 14 15 15 16 16
REMARK H PARENT 16 17
REMARK Flexibility Score: inf
ROOT
ATOM      1  C   UNL     1     125.778 107.607 136.695  1.00  0.00     0.008 C 
ATOM      2  C   UNL     1     125.660 108.476 135.434  1.00  0.00    -0.008 C 
ATOM      3  C   UNL     1     126.721 108.115 134.397  1.00  0.00     0.004 C 
ATOM      4  C   UNL     1     126.831 109.346 133.515  1.00  0.00     0.005 C 
ATOM      5  C   UNL     1     126.691 110.525 134.489  1.00  0.00     0.001 C 
ATOM      6  C   UNL     1     125.789 110.018 135.638  1.00  0.00    -0.023 C 
ATOM      7  C   UNL     1     126.352 110.468 137.021  1.00  0.00     0.010 C 
ATOM      8  C   UNL     1     126.570 111.998 137.115  1.00  0.00     0.036 C 
ATOM      9  C   UNL     1     125.468 112.858 136.404  1.00  0.00     0.065 C 
ATOM     10  C   UNL     1     124.957 112.165 135.078  1.00  0.00     0.027 C 
ATOM     11  C   UNL     1     124.469 110.755 135.422  1.00  0.00     0.014 C 
ATOM     12  C   UNL     1     126.046 111.864 133.982  1.00  0.00    -0.026 C 
ATOM     13  C   UNL     1     127.125 112.962 133.806  1.00  0.00     0.012 C 
ATOM     14  C   UNL     1     125.345 111.745 132.597  1.00  0.00     0.012 C 
ATOM     15  C   UNL     1     124.289 113.095 137.382  1.00  0.00     0.042 C 
ENDROOT
BRANCH   9  16
ATOM     16  O   UNL     1     125.983 114.128 136.074  1.00  0.00    -0.390 OA
ATOM     17  H   UNL     1     125.979 114.220 135.084  1.00  0.00     0.211 HD
ENDBRANCH   9  16
TORSDOF 1
ENDMDL
MODEL 5
REMARK VINA RESULT:    -2.518      2.186      4.447
REMARK INTER + INTRA:          -2.591
REMARK INTER:                  -2.591
REMARK INTRA:                   0.000
REMARK UNBOUND:                 0.000
REMARK SMILES C[C@@H]1CC[C@H]2C(C)(C)[C@H]3C[C@@]12CC[C@@]3(C)O
REMARK SMILES IDX 1 1 2 2 3 3 4 4 5 5 11 6 12 7 13 8 14 9 9 10 10 11 6 12 7 13
REMARK SMILES IDX 8 14 15 15 16 16
REMARK H PARENT 16 17
REMARK Flexibility Score: inf
ROOT
ATOM      1  C   UNL     1     125.314 111.004 137.861  1.00  0.00     0.008 C 
ATOM      2  C   UNL     1     125.115 109.772 136.966  1.00  0.00    -0.008 C 
ATOM      3  C   UNL     1     125.823 108.541 137.529  1.00  0.00     0.004 C 
ATOM      4  C   UNL     1     126.000 107.619 136.337  1.00  0.00     0.005 C 
ATOM      5  C   UNL     1     126.332 108.563 135.173  1.00  0.00     0.001 C 
ATOM      6  C   UNL     1     125.615 109.895 135.492  1.00  0.00    -0.023 C 
ATOM      7  C   UNL     1     126.547 111.110 135.199  1.00  0.00     0.010 C 
ATOM      8  C   UNL     1     127.105 111.107 133.754  1.00  0.00     0.036 C 
ATOM      9  C   UNL     1     126.087 110.625 132.663  1.00  0.00     0.065 C 
ATOM     10  C   UNL     1     125.163 109.463 133.206  1.00  0.00     0.027 C 
ATOM     11  C   UNL     1     124.470 109.947 134.483  1.00  0.00     0.014 C 
ATOM     12  C   UNL     1     125.897 108.167 133.717  1.00  0.00    -0.026 C 
ATOM     13  C   UNL     1     127.122 107.729 132.876  1.00  0.00     0.012 C 
ATOM     14  C   UNL     1     124.903 106.970 133.657  1.00  0.00     0.012 C 
ATOM     15  C   UNL     1     125.227 111.827 132.193  1.00  0.00     0.042 C 
ENDROOT
BRANCH   9  16
ATOM     16  O   UNL     1     126.778 110.152 131.530  1.00  0.00    -0.390 OA
ATOM     17  H   UNL     1     126.370 110.560 130.721  1.00  0.00     0.211 HD
ENDBRANCH   9  16
TORSDOF 1
ENDMDL
MODEL 6
REMARK VINA RESULT:    -2.473      1.446      3.517
REMARK INTER + INTRA:          -2.545
REMARK INTER:                  -2.545
REMARK INTRA:                   0.000
REMARK UNBOUND:                 0.000
REMARK SMILES C[C@@H]1CC[C@H]2C(C)(C)[C@H]3C[C@@]12CC[C@@]3(C)O
REMARK SMILES IDX 1 1 2 2 3 3 4 4 5 5 11 6 12 7 13 8 14 9 9 10 10 11 6 12 7 13
REMARK SMILES IDX 8 14 15 15 16 16
REMARK H PARENT 16 17
REMARK Flexibility Score: inf
ROOT
ATOM      1  C   UNL     1     127.125 111.980 132.897  1.00  0.00     0.008 C 
ATOM      2  C   UNL     1     127.059 111.220 134.230  1.00  0.00    -0.008 C 
ATOM      3  C   UNL     1     126.448 109.831 134.060  1.00  0.00     0.004 C 
ATOM      4  C   UNL     1     125.960 109.452 135.447  1.00  0.00     0.005 C 
ATOM      5  C   UNL     1     125.410 110.763 136.027  1.00  0.00     0.001 C 
ATOM      6  C   UNL     1     126.238 111.894 135.375  1.00  0.00    -0.023 C 
ATOM      7  C   UNL     1     125.316 113.073 134.936  1.00  0.00     0.010 C 
ATOM      8  C   UNL     1     124.441 113.616 136.092  1.00  0.00     0.036 C 
ATOM      9  C   UNL     1     125.158 113.664 137.486  1.00  0.00     0.065 C 
ATOM     10  C   UNL     1     126.131 112.433 137.679  1.00  0.00     0.027 C 
ATOM     11  C   UNL     1     127.120 112.405 136.511  1.00  0.00     0.014 C 
ATOM     12  C   UNL     1     125.480 111.004 137.577  1.00  0.00    -0.026 C 
ATOM     13  C   UNL     1     124.076 110.872 138.218  1.00  0.00     0.012 C 
ATOM     14  C   UNL     1     126.381 109.986 138.336  1.00  0.00     0.012 C 
ATOM     15  C   UNL     1     125.936 114.998 137.618  1.00  0.00     0.042 C 
ENDROOT
BRANCH   9  16
ATOM     16  O   UNL     1     124.203 113.646 138.522  1.00  0.00    -0.390 OA
ATOM     17  H   UNL     1     123.387 114.114 138.204  1.00  0.00     0.211 HD
ENDBRANCH   9  16
TORSDOF 1
ENDMDL
MODEL 7
REMARK VINA RESULT:    -2.390      1.832      3.866
REMARK INTER + INTRA:          -2.459
REMARK INTER:                  -2.459
REMARK INTRA:                   0.000
REMARK UNBOUND:                 0.000
REMARK SMILES C[C@@H]1CC[C@H]2C(C)(C)[C@H]3C[C@@]12CC[C@@]3(C)O
REMARK SMILES IDX 1 1 2 2 3 3 4 4 5 5 11 6 12 7 13 8 14 9 9 10 10 11 6 12 7 13
REMARK SMILES IDX 8 14 15 15 16 16
REMARK H PARENT 16 17
REMARK Flexibility Score: inf
ROOT
ATOM      1  C   UNL     1     126.971 112.233 132.126  1.00  0.00     0.008 C 
ATOM      2  C   UNL     1     126.307 112.254 133.511  1.00  0.00    -0.008 C 
ATOM      3  C   UNL     1     127.124 113.061 134.518  1.00  0.00     0.004 C 
ATOM      4  C   UNL     1     126.673 112.553 135.876  1.00  0.00     0.005 C 
ATOM      5  C   UNL     1     126.477 111.044 135.670  1.00  0.00     0.001 C 
ATOM      6  C   UNL     1     126.069 110.869 134.189  1.00  0.00    -0.023 C 
ATOM      7  C   UNL     1     126.826 109.667 133.545  1.00  0.00     0.010 C 
ATOM      8  C   UNL     1     126.645 108.347 134.335  1.00  0.00     0.036 C 
ATOM      9  C   UNL     1     125.210 108.136 134.932  1.00  0.00     0.065 C 
ATOM     10  C   UNL     1     124.581 109.500 135.424  1.00  0.00     0.027 C 
ATOM     11  C   UNL     1     124.591 110.491 134.258  1.00  0.00     0.014 C 
ATOM     12  C   UNL     1     125.392 110.290 136.518  1.00  0.00    -0.026 C 
ATOM     13  C   UNL     1     126.057 109.411 137.607  1.00  0.00     0.012 C 
ATOM     14  C   UNL     1     124.417 111.233 137.282  1.00  0.00     0.012 C 
ATOM     15  C   UNL     1     124.301 107.473 133.865  1.00  0.00     0.042 C 
ENDROOT
BRANCH   9  16
ATOM     16  O   UNL     1     125.266 107.249 136.025  1.00  0.00    -0.390 OA
ATOM     17  H   UNL     1     124.733 106.441 135.801  1.00  0.00     0.211 HD
ENDBRANCH   9  16
TORSDOF 1
ENDMDL
MODEL 8
REMARK VINA RESULT:    -2.365      2.192      4.614
REMARK INTER + INTRA:          -2.434
REMARK INTER:                  -2.434
REMARK INTRA:                   0.000
REMARK UNBOUND:                 0.000
REMARK SMILES C[C@@H]1CC[C@H]2C(C)(C)[C@H]3C[C@@]12CC[C@@]3(C)O
REMARK SMILES IDX 1 1 2 2 3 3 4 4 5 5 11 6 12 7 13 8 14 9 9 10 10 11 6 12 7 13
REMARK SMILES IDX 8 14 15 15 16 16
REMARK H PARENT 16 17
REMARK Flexibility Score: inf
ROOT
ATOM      1  C   UNL     1     127.046 113.130 134.964  1.00  0.00     0.008 C 
ATOM      2  C   UNL     1     126.231 112.128 135.793  1.00  0.00    -0.008 C 
ATOM      3  C   UNL     1     126.816 111.942 137.192  1.00  0.00     0.004 C 
ATOM      4  C   UNL     1     126.281 110.600 137.659  1.00  0.00     0.005 C 
ATOM      5  C   UNL     1     126.307 109.723 136.398  1.00  0.00     0.001 C 
ATOM      6  C   UNL     1     126.097 110.687 135.208  1.00  0.00    -0.023 C 
ATOM      7  C   UNL     1     127.071 110.344 134.040  1.00  0.00     0.010 C 
ATOM      8  C   UNL     1     126.972 108.866 133.587  1.00  0.00     0.036 C 
ATOM      9  C   UNL     1     125.518 108.279 133.587  1.00  0.00     0.065 C 
ATOM     10  C   UNL     1     124.666 108.844 134.793  1.00  0.00     0.027 C 
ATOM     11  C   UNL     1     124.682 110.374 134.727  1.00  0.00     0.014 C 
ATOM     12  C   UNL     1     125.238 108.584 136.236  1.00  0.00    -0.026 C 
ATOM     13  C   UNL     1     125.882 107.191 136.448  1.00  0.00     0.012 C 
ATOM     14  C   UNL     1     124.069 108.662 137.261  1.00  0.00     0.012 C 
ATOM     15  C   UNL     1     124.831 108.606 132.236  1.00  0.00     0.042 C 
ENDROOT
BRANCH   9  16
ATOM     16  O   UNL     1     125.562 106.875 133.691  1.00  0.00    -0.390 OA
ATOM     17  H   UNL     1     126.065 106.519 132.911  1.00  0.00     0.211 HD
ENDBRANCH   9  16
TORSDOF 1
ENDMDL
MODEL 9
REMARK VINA RESULT:    -2.360      1.409      3.142
REMARK INTER + INTRA:          -2.429
REMARK INTER:                  -2.429
REMARK INTRA:                   0.000
REMARK UNBOUND:                 0.000
REMARK SMILES C[C@@H]1CC[C@H]2C(C)(C)[C@H]3C[C@@]12CC[C@@]3(C)O
REMARK SMILES IDX 1 1 2 2 3 3 4 4 5 5 11 6 12 7 13 8 14 9 9 10 10 11 6 12 7 13
REMARK SMILES IDX 8 14 15 15 16 16
REMARK H PARENT 16 17
REMARK Flexibility Score: inf
ROOT
ATOM      1  C   UNL     1     127.125 107.784 133.546  1.00  0.00     0.008 C 
ATOM      2  C   UNL     1     125.943 107.629 134.514  1.00  0.00    -0.008 C 
ATOM      3  C   UNL     1     124.632 107.377 133.773  1.00  0.00     0.004 C 
ATOM      4  C   UNL     1     123.549 107.784 134.755  1.00  0.00     0.005 C 
ATOM      5  C   UNL     1     124.121 109.024 135.459  1.00  0.00     0.001 C 
ATOM      6  C   UNL     1     125.656 108.838 135.460  1.00  0.00    -0.023 C 
ATOM      7  C   UNL     1     126.375 110.170 135.085  1.00  0.00     0.010 C 
ATOM      8  C   UNL     1     125.955 111.356 135.986  1.00  0.00     0.036 C 
ATOM      9  C   UNL     1     125.739 110.986 137.494  1.00  0.00     0.065 C 
ATOM     10  C   UNL     1     125.100 109.547 137.651  1.00  0.00     0.027 C 
ATOM     11  C   UNL     1     125.989 108.537 136.920  1.00  0.00     0.014 C 
ATOM     12  C   UNL     1     123.712 109.318 136.946  1.00  0.00    -0.026 C 
ATOM     13  C   UNL     1     122.729 110.513 137.020  1.00  0.00     0.012 C 
ATOM     14  C   UNL     1     122.982 108.135 137.647  1.00  0.00     0.012 C 
ATOM     15  C   UNL     1     127.094 111.063 138.243  1.00  0.00     0.042 C 
ENDROOT
BRANCH   9  16
ATOM     16  O   UNL     1     124.883 111.923 138.106  1.00  0.00    -0.390 OA
ATOM     17  H   UNL     1     125.346 112.297 138.902  1.00  0.00     0.211 HD
ENDBRANCH   9  16
TORSDOF 1
ENDMDL
