MODEL 1
REMARK VINA RESULT:    -4.090      0.000      0.000
REMARK INTER + INTRA:          -4.763
REMARK INTER:                  -4.687
REMARK INTRA:                  -0.076
REMARK UNBOUND:                -0.076
REMARK SMILES COc1cc(C(=O)[O-])ccc1O
REMARK SMILES IDX 5 1 9 2 4 3 10 4 3 5 11 6 6 7 7 8 8 9 2 10 1 11 12 12
REMARK H PARENT 12 13
REMARK Flexibility Score: inf
ROOT
ATOM      1  C   UNL     1      69.770   7.875 355.241  1.00  0.00     0.001 A 
ATOM      2  C   UNL     1      70.286   8.123 356.523  1.00  0.00     0.014 A 
ATOM      3  C   UNL     1      70.301   6.815 354.483  1.00  0.00     0.060 A 
ATOM      4  C   UNL     1      71.311   7.327 357.037  1.00  0.00     0.051 A 
ATOM      5  C   UNL     1      71.336   6.009 354.999  1.00  0.00     0.161 A 
ATOM      6  C   UNL     1      71.837   6.273 356.281  1.00  0.00     0.157 A 
ENDROOT
BRANCH   1   7
ATOM      7  C   UNL     1      68.683   8.721 354.700  1.00  0.00     0.072 C 
ATOM      8  O   UNL     1      67.539   8.237 354.487  1.00  0.00    -0.545 OA
ATOM      9  O   UNL     1      68.909  10.064 354.418  1.00  0.00    -0.545 OA
ENDBRANCH   1   7
BRANCH   5  10
ATOM     10  O   UNL     1      71.889   4.943 354.272  1.00  0.00    -0.493 OA
ATOM     11  C   UNL     1      71.334   4.411 353.073  1.00  0.00     0.278 C 
ENDBRANCH   5  10
BRANCH   6  12
ATOM     12  O   UNL     1      72.861   5.481 356.796  1.00  0.00    -0.504 OA
ATOM     13  H   UNL     1      73.241   4.699 356.276  1.00  0.00     0.293 HD
ENDBRANCH   6  12
TORSDOF 3
ENDMDL
MODEL 2
REMARK VINA RESULT:    -3.988      2.451      3.936
REMARK INTER + INTRA:          -4.647
REMARK INTER:                  -4.553
REMARK INTRA:                  -0.093
REMARK UNBOUND:                -0.076
REMARK SMILES COc1cc(C(=O)[O-])ccc1O
REMARK SMILES IDX 5 1 9 2 4 3 10 4 3 5 11 6 6 7 7 8 8 9 2 10 1 11 12 12
REMARK H PARENT 12 13
REMARK Flexibility Score: inf
ROOT
ATOM      1  C   UNL     1      68.938   5.441 353.321  1.00  0.00     0.001 A 
ATOM      2  C   UNL     1      70.181   4.817 353.131  1.00  0.00     0.014 A 
ATOM      3  C   UNL     1      68.835   6.490 354.253  1.00  0.00     0.060 A 
ATOM      4  C   UNL     1      71.299   5.233 353.856  1.00  0.00     0.051 A 
ATOM      5  C   UNL     1      69.961   6.914 354.988  1.00  0.00     0.161 A 
ATOM      6  C   UNL     1      71.193   6.278 354.782  1.00  0.00     0.157 A 
ENDROOT
BRANCH   1   7
ATOM      7  C   UNL     1      67.756   4.997 352.549  1.00  0.00     0.072 C 
ATOM      8  O   UNL     1      66.754   5.750 352.420  1.00  0.00    -0.545 OA
ATOM      9  O   UNL     1      67.735   3.740 351.955  1.00  0.00    -0.545 OA
ENDBRANCH   1   7
BRANCH   5  10
ATOM     10  O   UNL     1      69.896   7.957 355.925  1.00  0.00    -0.493 OA
ATOM     11  C   UNL     1      69.389   9.259 355.648  1.00  0.00     0.278 C 
ENDBRANCH   5  10
BRANCH   6  12
ATOM     12  O   UNL     1      72.310   6.691 355.506  1.00  0.00    -0.504 OA
ATOM     13  H   UNL     1      72.221   7.234 356.356  1.00  0.00     0.293 HD
ENDBRANCH   6  12
TORSDOF 3
ENDMDL
MODEL 3
REMARK VINA RESULT:    -3.811      2.443      3.786
REMARK INTER + INTRA:          -4.444
REMARK INTER:                  -4.345
REMARK INTRA:                  -0.100
REMARK UNBOUND:                -0.076
REMARK SMILES COc1cc(C(=O)[O-])ccc1O
REMARK SMILES IDX 5 1 9 2 4 3 10 4 3 5 11 6 6 7 7 8 8 9 2 10 1 11 12 12
REMARK H PARENT 12 13
REMARK Flexibility Score: inf
ROOT
ATOM      1  C   UNL     1      68.606   5.579 353.541  1.00  0.00     0.001 A 
ATOM      2  C   UNL     1      67.742   6.530 354.107  1.00  0.00     0.014 A 
ATOM      3  C   UNL     1      69.975   5.621 353.862  1.00  0.00     0.060 A 
ATOM      4  C   UNL     1      68.236   7.503 354.978  1.00  0.00     0.051 A 
ATOM      5  C   UNL     1      70.478   6.602 354.741  1.00  0.00     0.161 A 
ATOM      6  C   UNL     1      69.599   7.542 355.296  1.00  0.00     0.157 A 
ENDROOT
BRANCH   1   7
ATOM      7  C   UNL     1      68.078   4.549 352.619  1.00  0.00     0.072 C 
ATOM      8  O   UNL     1      66.993   4.733 352.005  1.00  0.00    -0.545 OA
ATOM      9  O   UNL     1      68.773   3.362 352.415  1.00  0.00    -0.545 OA
ENDBRANCH   1   7
BRANCH   5  10
ATOM     10  O   UNL     1      71.837   6.674 355.085  1.00  0.00    -0.493 OA
ATOM     11  C   UNL     1      72.458   5.876 356.089  1.00  0.00     0.278 C 
ENDBRANCH   5  10
BRANCH   6  12
ATOM     12  O   UNL     1      70.090   8.515 356.165  1.00  0.00    -0.504 OA
ATOM     13  H   UNL     1      70.872   9.106 355.912  1.00  0.00     0.293 HD
ENDBRANCH   6  12
TORSDOF 3
ENDMDL
MODEL 4
REMARK VINA RESULT:    -3.754      9.965     11.115
REMARK INTER + INTRA:          -4.378
REMARK INTER:                  -4.277
REMARK INTRA:                  -0.101
REMARK UNBOUND:                -0.076
REMARK SMILES COc1cc(C(=O)[O-])ccc1O
REMARK SMILES IDX 5 1 9 2 4 3 10 4 3 5 11 6 6 7 7 8 8 9 2 10 1 11 12 12
REMARK H PARENT 12 13
REMARK Flexibility Score: inf
ROOT
ATOM      1  C   UNL     1      77.025  13.342 359.255  1.00  0.00     0.001 A 
ATOM      2  C   UNL     1      78.083  12.927 360.079  1.00  0.00     0.014 A 
ATOM      3  C   UNL     1      77.264  14.320 358.273  1.00  0.00     0.060 A 
ATOM      4  C   UNL     1      79.357  13.478 359.923  1.00  0.00     0.051 A 
ATOM      5  C   UNL     1      78.548  14.878 358.112  1.00  0.00     0.161 A 
ATOM      6  C   UNL     1      79.592  14.451 358.943  1.00  0.00     0.157 A 
ENDROOT
BRANCH   1   7
ATOM      7  C   UNL     1      75.676  12.754 359.424  1.00  0.00     0.072 C 
ATOM      8  O   UNL     1      75.537  11.588 359.880  1.00  0.00    -0.545 OA
ATOM      9  O   UNL     1      74.542  13.483 359.081  1.00  0.00    -0.545 OA
ENDBRANCH   1   7
BRANCH   5  10
ATOM     10  O   UNL     1      78.824  15.855 357.142  1.00  0.00    -0.493 OA
ATOM     11  C   UNL     1      79.067  15.579 355.766  1.00  0.00     0.278 C 
ENDBRANCH   5  10
BRANCH   6  12
ATOM     12  O   UNL     1      80.864  15.000 358.791  1.00  0.00    -0.504 OA
ATOM     13  H   UNL     1      81.399  14.869 357.941  1.00  0.00     0.293 HD
ENDBRANCH   6  12
TORSDOF 3
ENDMDL
MODEL 5
REMARK VINA RESULT:    -3.727      9.580     10.770
REMARK INTER + INTRA:          -4.348
REMARK INTER:                  -4.261
REMARK INTRA:                  -0.087
REMARK UNBOUND:                -0.076
REMARK SMILES COc1cc(C(=O)[O-])ccc1O
REMARK SMILES IDX 5 1 9 2 4 3 10 4 3 5 11 6 6 7 7 8 8 9 2 10 1 11 12 12
REMARK H PARENT 12 13
REMARK Flexibility Score: inf
ROOT
ATOM      1  C   UNL     1      68.692   8.485 366.249  1.00  0.00     0.001 A 
ATOM      2  C   UNL     1      69.925   7.899 366.578  1.00  0.00     0.014 A 
ATOM      3  C   UNL     1      67.877   7.869 365.282  1.00  0.00     0.060 A 
ATOM      4  C   UNL     1      70.334   6.719 365.953  1.00  0.00     0.051 A 
ATOM      5  C   UNL     1      68.287   6.678 364.649  1.00  0.00     0.161 A 
ATOM      6  C   UNL     1      69.521   6.108 364.991  1.00  0.00     0.157 A 
ENDROOT
BRANCH   1   7
ATOM      7  C   UNL     1      68.261   9.735 366.914  1.00  0.00     0.072 C 
ATOM      8  O   UNL     1      68.990  10.763 366.881  1.00  0.00    -0.545 OA
ATOM      9  O   UNL     1      67.045   9.794 367.585  1.00  0.00    -0.545 OA
ENDBRANCH   1   7
BRANCH   5  10
ATOM     10  O   UNL     1      67.500   6.034 363.680  1.00  0.00    -0.493 OA
ATOM     11  C   UNL     1      66.907   6.685 362.561  1.00  0.00     0.278 C 
ENDBRANCH   5  10
BRANCH   6  12
ATOM     12  O   UNL     1      69.933   4.931 364.369  1.00  0.00    -0.504 OA
ATOM     13  H   UNL     1      69.613   4.023 364.685  1.00  0.00     0.293 HD
ENDBRANCH   6  12
TORSDOF 3
ENDMDL
MODEL 6
REMARK VINA RESULT:    -3.726     15.861     17.354
REMARK INTER + INTRA:          -4.347
REMARK INTER:                  -4.260
REMARK INTRA:                  -0.087
REMARK UNBOUND:                -0.076
REMARK SMILES COc1cc(C(=O)[O-])ccc1O
REMARK SMILES IDX 5 1 9 2 4 3 10 4 3 5 11 6 6 7 7 8 8 9 2 10 1 11 12 12
REMARK H PARENT 12 13
REMARK Flexibility Score: inf
ROOT
ATOM      1  C   UNL     1      82.877  11.197 365.991  1.00  0.00     0.001 A 
ATOM      2  C   UNL     1      82.066  10.510 365.074  1.00  0.00     0.014 A 
ATOM      3  C   UNL     1      83.698  10.461 366.864  1.00  0.00     0.060 A 
ATOM      4  C   UNL     1      82.077   9.115 365.029  1.00  0.00     0.051 A 
ATOM      5  C   UNL     1      83.712   9.052 366.823  1.00  0.00     0.161 A 
ATOM      6  C   UNL     1      82.896   8.385 365.900  1.00  0.00     0.157 A 
ENDROOT
BRANCH   1   7
ATOM      7  C   UNL     1      82.863  12.677 366.033  1.00  0.00     0.072 C 
ATOM      8  O   UNL     1      81.890  13.294 366.543  1.00  0.00    -0.545 OA
ATOM      9  O   UNL     1      83.925  13.407 365.511  1.00  0.00    -0.545 OA
ENDBRANCH   1   7
BRANCH   5  10
ATOM     10  O   UNL     1      84.519   8.285 367.678  1.00  0.00    -0.493 OA
ATOM     11  C   UNL     1      85.882   7.959 367.423  1.00  0.00     0.278 C 
ENDBRANCH   5  10
BRANCH   6  12
ATOM     12  O   UNL     1      82.903   6.992 365.854  1.00  0.00    -0.504 OA
ATOM     13  H   UNL     1      83.493   6.444 366.469  1.00  0.00     0.293 HD
ENDBRANCH   6  12
TORSDOF 3
ENDMDL
MODEL 7
REMARK VINA RESULT:    -3.635      9.453     10.171
REMARK INTER + INTRA:          -4.242
REMARK INTER:                  -4.144
REMARK INTRA:                  -0.098
REMARK UNBOUND:                -0.076
REMARK SMILES COc1cc(C(=O)[O-])ccc1O
REMARK SMILES IDX 5 1 9 2 4 3 10 4 3 5 11 6 6 7 7 8 8 9 2 10 1 11 12 12
REMARK H PARENT 12 13
REMARK Flexibility Score: inf
ROOT
ATOM      1  C   UNL     1      67.800   7.947 364.838  1.00  0.00     0.001 A 
ATOM      2  C   UNL     1      68.274   8.686 365.934  1.00  0.00     0.014 A 
ATOM      3  C   UNL     1      68.477   6.775 364.457  1.00  0.00     0.060 A 
ATOM      4  C   UNL     1      69.403   8.260 366.637  1.00  0.00     0.051 A 
ATOM      5  C   UNL     1      69.618   6.342 365.164  1.00  0.00     0.161 A 
ATOM      6  C   UNL     1      70.075   7.092 366.255  1.00  0.00     0.157 A 
ENDROOT
BRANCH   1   7
ATOM      7  C   UNL     1      66.602   8.402 364.097  1.00  0.00     0.072 C 
ATOM      8  O   UNL     1      65.875   9.324 364.556  1.00  0.00    -0.545 OA
ATOM      9  O   UNL     1      66.261   7.818 362.882  1.00  0.00    -0.545 OA
ENDBRANCH   1   7
BRANCH   5  10
ATOM     10  O   UNL     1      70.319   5.177 364.813  1.00  0.00    -0.493 OA
ATOM     11  C   UNL     1      69.756   3.869 364.806  1.00  0.00     0.278 C 
ENDBRANCH   5  10
BRANCH   6  12
ATOM     12  O   UNL     1      71.203   6.670 366.957  1.00  0.00    -0.504 OA
ATOM     13  H   UNL     1      72.032   7.249 367.027  1.00  0.00     0.293 HD
ENDBRANCH   6  12
TORSDOF 3
ENDMDL
MODEL 8
REMARK VINA RESULT:    -3.619      2.141      2.911
REMARK INTER + INTRA:          -4.224
REMARK INTER:                  -4.142
REMARK INTRA:                  -0.081
REMARK UNBOUND:                -0.076
REMARK SMILES COc1cc(C(=O)[O-])ccc1O
REMARK SMILES IDX 5 1 9 2 4 3 10 4 3 5 11 6 6 7 7 8 8 9 2 10 1 11 12 12
REMARK H PARENT 12 13
REMARK Flexibility Score: inf
ROOT
ATOM      1  C   UNL     1      70.105   7.065 355.060  1.00  0.00     0.001 A 
ATOM      2  C   UNL     1      71.432   6.613 355.135  1.00  0.00     0.014 A 
ATOM      3  C   UNL     1      69.203   6.403 354.206  1.00  0.00     0.060 A 
ATOM      4  C   UNL     1      71.849   5.520 354.373  1.00  0.00     0.051 A 
ATOM      5  C   UNL     1      69.620   5.300 353.435  1.00  0.00     0.161 A 
ATOM      6  C   UNL     1      70.949   4.863 353.524  1.00  0.00     0.157 A 
ENDROOT
BRANCH   1   7
ATOM      7  C   UNL     1      69.666   8.223 355.870  1.00  0.00     0.072 C 
ATOM      8  O   UNL     1      68.639   8.879 355.549  1.00  0.00    -0.545 OA
ATOM      9  O   UNL     1      70.383   8.605 357.000  1.00  0.00    -0.545 OA
ENDBRANCH   1   7
BRANCH   5  10
ATOM     10  O   UNL     1      68.749   4.615 352.574  1.00  0.00    -0.493 OA
ATOM     11  C   UNL     1      67.340   4.818 352.522  1.00  0.00     0.278 C 
ENDBRANCH   5  10
BRANCH   6  12
ATOM     12  O   UNL     1      71.369   3.774 352.764  1.00  0.00    -0.504 OA
ATOM     13  H   UNL     1      71.580   2.879 353.189  1.00  0.00     0.293 HD
ENDBRANCH   6  12
TORSDOF 3
ENDMDL
MODEL 9
REMARK VINA RESULT:    -3.574      8.200      9.925
REMARK INTER + INTRA:          -4.172
REMARK INTER:                  -4.087
REMARK INTRA:                  -0.085
REMARK UNBOUND:                -0.076
REMARK SMILES COc1cc(C(=O)[O-])ccc1O
REMARK SMILES IDX 5 1 9 2 4 3 10 4 3 5 11 6 6 7 7 8 8 9 2 10 1 11 12 12
REMARK H PARENT 12 13
REMARK Flexibility Score: inf
ROOT
ATOM      1  C   UNL     1      69.704   6.993 364.801  1.00  0.00     0.001 A 
ATOM      2  C   UNL     1      70.029   7.466 366.082  1.00  0.00     0.014 A 
ATOM      3  C   UNL     1      70.100   7.737 363.675  1.00  0.00     0.060 A 
ATOM      4  C   UNL     1      70.739   8.659 366.235  1.00  0.00     0.051 A 
ATOM      5  C   UNL     1      70.817   8.942 363.824  1.00  0.00     0.161 A 
ATOM      6  C   UNL     1      71.133   9.397 365.112  1.00  0.00     0.157 A 
ENDROOT
BRANCH   1   7
ATOM      7  C   UNL     1      68.952   5.727 364.644  1.00  0.00     0.072 C 
ATOM      8  O   UNL     1      67.714   5.741 364.411  1.00  0.00    -0.545 OA
ATOM      9  O   UNL     1      69.603   4.503 364.753  1.00  0.00    -0.545 OA
ENDBRANCH   1   7
BRANCH   5  10
ATOM     10  O   UNL     1      71.230   9.710 362.724  1.00  0.00    -0.493 OA
ATOM     11  C   UNL     1      70.385  10.085 361.640  1.00  0.00     0.278 C 
ENDBRANCH   5  10
BRANCH   6  12
ATOM     12  O   UNL     1      71.839  10.588 365.267  1.00  0.00    -0.504 OA
ATOM     13  H   UNL     1      72.795  10.684 364.944  1.00  0.00     0.293 HD
ENDBRANCH   6  12
TORSDOF 3
ENDMDL
