MODEL 1
REMARK VINA RESULT:    -4.451      0.000      0.000
REMARK INTER + INTRA:          -6.152
REMARK INTER:                  -6.012
REMARK INTRA:                  -0.139
REMARK UNBOUND:                -0.139
REMARK SMILES [NH3+]CCCC[C@H]([NH3+])C(=O)[O-]
REMARK SMILES IDX 4 1 3 2 2 3 1 4 5 8 6 9 7 10 8 14 9 15 10 16
REMARK H PARENT 1 5 1 6 1 7 7 11 7 12 7 13
REMARK Flexibility Score: inf
ROOT
ATOM      1  C   UNL     1      24.702   6.720  14.214  1.00  0.00     0.012 C 
ENDROOT
BRANCH   1   2
ATOM      2  C   UNL     1      26.129   7.019  14.716  1.00  0.00     0.061 C 
BRANCH   2   3
ATOM      3  C   UNL     1      26.773   5.887  15.540  1.00  0.00     0.258 C 
BRANCH   3   4
ATOM      4  N   UNL     1      28.181   6.152  15.840  1.00  0.00    -0.358 N 
ATOM      5  H   UNL     1      28.800   5.648  15.164  1.00  0.00     0.344 HD
ATOM      6  H   UNL     1      28.392   5.812  16.806  1.00  0.00     0.344 HD
ATOM      7  H   UNL     1      28.373   7.179  15.803  1.00  0.00     0.344 HD
ENDBRANCH   3   4
ENDBRANCH   2   3
ENDBRANCH   1   2
BRANCH   1   8
ATOM      8  C   UNL     1      23.574   7.012  15.224  1.00  0.00     0.072 C 
BRANCH   8   9
ATOM      9  C   UNL     1      22.569   5.855  15.430  1.00  0.00     0.227 C 
BRANCH   9  10
ATOM     10  N   UNL     1      21.281   6.337  15.950  1.00  0.00    -0.350 N 
ATOM     11  H   UNL     1      21.003   7.230  15.481  1.00  0.00     0.345 HD
ATOM     12  H   UNL     1      21.351   6.499  16.981  1.00  0.00     0.345 HD
ATOM     13  H   UNL     1      20.540   5.618  15.795  1.00  0.00     0.345 HD
ENDBRANCH   9  10
BRANCH   9  14
ATOM     14  C   UNL     1      23.162   4.837  16.367  1.00  0.00     0.099 C 
ATOM     15  O   UNL     1      23.936   3.943  15.933  1.00  0.00    -0.544 OA
ATOM     16  O   UNL     1      22.833   4.861  17.716  1.00  0.00    -0.544 OA
ENDBRANCH   9  14
ENDBRANCH   8   9
ENDBRANCH   1   8
TORSDOF 7
ENDMDL
MODEL 2
REMARK VINA RESULT:    -4.215      2.143      4.759
REMARK INTER + INTRA:          -5.832
REMARK INTER:                  -5.729
REMARK INTRA:                  -0.103
REMARK UNBOUND:                -0.139
REMARK SMILES [NH3+]CCCC[C@H]([NH3+])C(=O)[O-]
REMARK SMILES IDX 4 1 3 2 2 3 1 4 5 8 6 9 7 10 8 14 9 15 10 16
REMARK H PARENT 1 5 1 6 1 7 7 11 7 12 7 13
REMARK Flexibility Score: inf
ROOT
ATOM      1  C   UNL     1      24.594   4.400  15.836  1.00  0.00     0.012 C 
ENDROOT
BRANCH   1   2
ATOM      2  C   UNL     1      23.211   4.850  16.348  1.00  0.00     0.061 C 
BRANCH   2   3
ATOM      3  C   UNL     1      22.649   6.110  15.662  1.00  0.00     0.258 C 
BRANCH   3   4
ATOM      4  N   UNL     1      21.225   6.303  15.939  1.00  0.00    -0.358 N 
ATOM      5  H   UNL     1      20.646   5.681  15.328  1.00  0.00     0.344 HD
ATOM      6  H   UNL     1      20.972   7.298  15.741  1.00  0.00     0.344 HD
ATOM      7  H   UNL     1      21.020   6.106  16.945  1.00  0.00     0.344 HD
ENDBRANCH   3   4
ENDBRANCH   2   3
ENDBRANCH   1   2
BRANCH   1   8
ATOM      8  C   UNL     1      25.792   5.198  16.389  1.00  0.00     0.072 C 
BRANCH   8   9
ATOM      9  C   UNL     1      26.773   5.725  15.316  1.00  0.00     0.227 C 
BRANCH   9  10
ATOM     10  N   UNL     1      28.078   6.077  15.896  1.00  0.00    -0.350 N 
ATOM     11  H   UNL     1      28.166   5.700  16.868  1.00  0.00     0.345 HD
ATOM     12  H   UNL     1      28.188   7.117  15.921  1.00  0.00     0.345 HD
ATOM     13  H   UNL     1      28.848   5.694  15.304  1.00  0.00     0.345 HD
ENDBRANCH   9  10
BRANCH   9  14
ATOM     14  C   UNL     1      26.169   6.920  14.628  1.00  0.00     0.099 C 
ATOM     15  O   UNL     1      25.360   6.767  13.674  1.00  0.00    -0.544 OA
ATOM     16  O   UNL     1      26.527   8.203  15.023  1.00  0.00    -0.544 OA
ENDBRANCH   9  14
ENDBRANCH   8   9
ENDBRANCH   1   8
TORSDOF 7
ENDMDL
MODEL 3
REMARK VINA RESULT:    -4.149      3.653      4.100
REMARK INTER + INTRA:          -5.744
REMARK INTER:                  -5.677
REMARK INTRA:                  -0.067
REMARK UNBOUND:                -0.139
REMARK SMILES [NH3+]CCCC[C@H]([NH3+])C(=O)[O-]
REMARK SMILES IDX 4 1 3 2 2 3 1 4 5 8 6 9 7 10 8 14 9 15 10 16
REMARK H PARENT 1 5 1 6 1 7 7 11 7 12 7 13
REMARK Flexibility Score: inf
ROOT
ATOM      1  C   UNL     1      24.967   6.695  11.552  1.00  0.00     0.012 C 
ENDROOT
BRANCH   1   2
ATOM      2  C   UNL     1      26.058   6.663  10.463  1.00  0.00     0.061 C 
BRANCH   2   3
ATOM      3  C   UNL     1      26.292   5.279   9.827  1.00  0.00     0.258 C 
BRANCH   3   4
ATOM      4  N   UNL     1      25.548   5.110   8.578  1.00  0.00    -0.358 N 
ATOM      5  H   UNL     1      25.051   4.189   8.570  1.00  0.00     0.344 HD
ATOM      6  H   UNL     1      26.218   5.137   7.777  1.00  0.00     0.344 HD
ATOM      7  H   UNL     1      24.859   5.888   8.457  1.00  0.00     0.344 HD
ENDBRANCH   3   4
ENDBRANCH   2   3
ENDBRANCH   1   2
BRANCH   1   8
ATOM      8  C   UNL     1      25.485   6.679  13.004  1.00  0.00     0.072 C 
BRANCH   8   9
ATOM      9  C   UNL     1      24.383   6.700  14.089  1.00  0.00     0.227 C 
BRANCH   9  10
ATOM     10  N   UNL     1      24.200   8.044  14.656  1.00  0.00    -0.350 N 
ATOM     11  H   UNL     1      25.114   8.439  14.978  1.00  0.00     0.345 HD
ATOM     12  H   UNL     1      23.541   8.002  15.467  1.00  0.00     0.345 HD
ATOM     13  H   UNL     1      23.779   8.680  13.943  1.00  0.00     0.345 HD
ENDBRANCH   9  10
BRANCH   9  14
ATOM     14  C   UNL     1      24.733   5.719  15.177  1.00  0.00     0.099 C 
ATOM     15  O   UNL     1      23.837   5.010  15.710  1.00  0.00    -0.544 OA
ATOM     16  O   UNL     1      26.044   5.612  15.621  1.00  0.00    -0.544 OA
ENDBRANCH   9  14
ENDBRANCH   8   9
ENDBRANCH   1   8
TORSDOF 7
ENDMDL
MODEL 4
REMARK VINA RESULT:    -4.118      3.588      4.302
REMARK INTER + INTRA:          -5.701
REMARK INTER:                  -5.621
REMARK INTRA:                  -0.080
REMARK UNBOUND:                -0.139
REMARK SMILES [NH3+]CCCC[C@H]([NH3+])C(=O)[O-]
REMARK SMILES IDX 4 1 3 2 2 3 1 4 5 8 6 9 7 10 8 14 9 15 10 16
REMARK H PARENT 1 5 1 6 1 7 7 11 7 12 7 13
REMARK Flexibility Score: inf
ROOT
ATOM      1  C   UNL     1      25.793   6.353  11.892  1.00  0.00     0.012 C 
ENDROOT
BRANCH   1   2
ATOM      2  C   UNL     1      25.440   6.624  10.416  1.00  0.00     0.061 C 
BRANCH   2   3
ATOM      3  C   UNL     1      26.151   5.705   9.404  1.00  0.00     0.258 C 
BRANCH   3   4
ATOM      4  N   UNL     1      25.235   5.188   8.387  1.00  0.00    -0.358 N 
ATOM      5  H   UNL     1      25.311   5.750   7.507  1.00  0.00     0.344 HD
ATOM      6  H   UNL     1      24.255   5.256   8.746  1.00  0.00     0.344 HD
ATOM      7  H   UNL     1      25.443   4.183   8.188  1.00  0.00     0.344 HD
ENDBRANCH   3   4
ENDBRANCH   2   3
ENDBRANCH   1   2
BRANCH   1   8
ATOM      8  C   UNL     1      24.690   6.709  12.909  1.00  0.00     0.072 C 
BRANCH   8   9
ATOM      9  C   UNL     1      25.138   6.692  14.389  1.00  0.00     0.227 C 
BRANCH   9  10
ATOM     10  N   UNL     1      26.541   6.278  14.530  1.00  0.00    -0.350 N 
ATOM     11  H   UNL     1      26.979   6.730  15.366  1.00  0.00     0.345 HD
ATOM     12  H   UNL     1      27.080   6.546  13.674  1.00  0.00     0.345 HD
ATOM     13  H   UNL     1      26.601   5.240  14.626  1.00  0.00     0.345 HD
ENDBRANCH   9  10
BRANCH   9  14
ATOM     14  C   UNL     1      24.241   5.773  15.174  1.00  0.00     0.099 C 
ATOM     15  O   UNL     1      24.643   4.630  15.521  1.00  0.00    -0.544 OA
ATOM     16  O   UNL     1      22.948   6.170  15.494  1.00  0.00    -0.544 OA
ENDBRANCH   9  14
ENDBRANCH   8   9
ENDBRANCH   1   8
TORSDOF 7
ENDMDL
MODEL 5
REMARK VINA RESULT:    -4.110      2.651      4.621
REMARK INTER + INTRA:          -5.691
REMARK INTER:                  -5.610
REMARK INTRA:                  -0.081
REMARK UNBOUND:                -0.139
REMARK SMILES [NH3+]CCCC[C@H]([NH3+])C(=O)[O-]
REMARK SMILES IDX 4 1 3 2 2 3 1 4 5 8 6 9 7 10 8 14 9 15 10 16
REMARK H PARENT 1 5 1 6 1 7 7 11 7 12 7 13
REMARK Flexibility Score: inf
ROOT
ATOM      1  C   UNL     1      22.847   5.453  16.195  1.00  0.00     0.012 C 
ENDROOT
BRANCH   1   2
ATOM      2  C   UNL     1      22.902   4.706  17.543  1.00  0.00     0.061 C 
BRANCH   2   3
ATOM      3  C   UNL     1      21.889   5.199  18.594  1.00  0.00     0.258 C 
BRANCH   3   4
ATOM      4  N   UNL     1      20.774   5.930  17.989  1.00  0.00    -0.358 N 
ATOM      5  H   UNL     1      20.533   5.522  17.056  1.00  0.00     0.344 HD
ATOM      6  H   UNL     1      21.055   6.928  17.857  1.00  0.00     0.344 HD
ATOM      7  H   UNL     1      19.939   5.903  18.617  1.00  0.00     0.344 HD
ENDBRANCH   3   4
ENDBRANCH   2   3
ENDBRANCH   1   2
BRANCH   1   8
ATOM      8  C   UNL     1      24.137   5.387  15.353  1.00  0.00     0.072 C 
BRANCH   8   9
ATOM      9  C   UNL     1      24.548   6.721  14.686  1.00  0.00     0.227 C 
BRANCH   9  10
ATOM     10  N   UNL     1      24.248   6.727  13.247  1.00  0.00    -0.350 N 
ATOM     11  H   UNL     1      24.726   7.528  12.772  1.00  0.00     0.345 HD
ATOM     12  H   UNL     1      23.216   6.809  13.098  1.00  0.00     0.345 HD
ATOM     13  H   UNL     1      24.557   5.830  12.812  1.00  0.00     0.345 HD
ENDBRANCH   9  10
BRANCH   9  14
ATOM     14  C   UNL     1      26.016   6.963  14.914  1.00  0.00     0.099 C 
ATOM     15  O   UNL     1      26.513   8.105  14.721  1.00  0.00    -0.544 OA
ATOM     16  O   UNL     1      26.839   5.917  15.310  1.00  0.00    -0.544 OA
ENDBRANCH   9  14
ENDBRANCH   8   9
ENDBRANCH   1   8
TORSDOF 7
ENDMDL
MODEL 6
REMARK VINA RESULT:    -4.023      2.587      3.523
REMARK INTER + INTRA:          -5.573
REMARK INTER:                  -5.416
REMARK INTRA:                  -0.157
REMARK UNBOUND:                -0.139
REMARK SMILES [NH3+]CCCC[C@H]([NH3+])C(=O)[O-]
REMARK SMILES IDX 4 1 3 2 2 3 1 4 5 8 6 9 7 10 8 14 9 15 10 16
REMARK H PARENT 1 5 1 6 1 7 7 11 7 12 7 13
REMARK Flexibility Score: inf
ROOT
ATOM      1  C   UNL     1      26.467   5.609  15.472  1.00  0.00     0.012 C 
ENDROOT
BRANCH   1   2
ATOM      2  C   UNL     1      25.487   4.908  16.435  1.00  0.00     0.061 C 
BRANCH   2   3
ATOM      3  C   UNL     1      24.617   3.815  15.785  1.00  0.00     0.258 C 
BRANCH   3   4
ATOM      4  N   UNL     1      23.202   3.955  16.134  1.00  0.00    -0.358 N 
ATOM      5  H   UNL     1      22.726   4.612  15.472  1.00  0.00     0.344 HD
ATOM      6  H   UNL     1      23.127   4.341  17.103  1.00  0.00     0.344 HD
ATOM      7  H   UNL     1      22.728   3.023  16.113  1.00  0.00     0.344 HD
ENDBRANCH   3   4
ENDBRANCH   2   3
ENDBRANCH   1   2
BRANCH   1   8
ATOM      8  C   UNL     1      25.893   6.827  14.721  1.00  0.00     0.072 C 
BRANCH   8   9
ATOM      9  C   UNL     1      24.469   6.628  14.149  1.00  0.00     0.227 C 
BRANCH   9  10
ATOM     10  N   UNL     1      24.382   7.047  12.743  1.00  0.00    -0.350 N 
ATOM     11  H   UNL     1      24.247   8.083  12.672  1.00  0.00     0.345 HD
ATOM     12  H   UNL     1      23.578   6.566  12.277  1.00  0.00     0.345 HD
ATOM     13  H   UNL     1      25.250   6.774  12.232  1.00  0.00     0.345 HD
ENDBRANCH   9  10
BRANCH   9  14
ATOM     14  C   UNL     1      23.482   7.398  14.986  1.00  0.00     0.099 C 
ATOM     15  O   UNL     1      23.702   8.601  15.289  1.00  0.00    -0.544 OA
ATOM     16  O   UNL     1      22.333   6.773  15.454  1.00  0.00    -0.544 OA
ENDBRANCH   9  14
ENDBRANCH   8   9
ENDBRANCH   1   8
TORSDOF 7
ENDMDL
MODEL 7
REMARK VINA RESULT:    -3.923      4.653      5.622
REMARK INTER + INTRA:          -5.439
REMARK INTER:                  -5.351
REMARK INTRA:                  -0.088
REMARK UNBOUND:                -0.139
REMARK SMILES [NH3+]CCCC[C@H]([NH3+])C(=O)[O-]
REMARK SMILES IDX 4 1 3 2 2 3 1 4 5 8 6 9 7 10 8 14 9 15 10 16
REMARK H PARENT 1 5 1 6 1 7 7 11 7 12 7 13
REMARK Flexibility Score: inf
ROOT
ATOM      1  C   UNL     1      24.769   6.644  13.001  1.00  0.00     0.012 C 
ENDROOT
BRANCH   1   2
ATOM      2  C   UNL     1      25.187   6.597  14.484  1.00  0.00     0.061 C 
BRANCH   2   3
ATOM      3  C   UNL     1      24.427   5.562  15.336  1.00  0.00     0.258 C 
BRANCH   3   4
ATOM      4  N   UNL     1      25.308   4.512  15.848  1.00  0.00    -0.358 N 
ATOM      5  H   UNL     1      25.491   4.654  16.869  1.00  0.00     0.344 HD
ATOM      6  H   UNL     1      26.218   4.551  15.335  1.00  0.00     0.344 HD
ATOM      7  H   UNL     1      24.881   3.570  15.690  1.00  0.00     0.344 HD
ENDBRANCH   3   4
ENDBRANCH   2   3
ENDBRANCH   1   2
BRANCH   1   8
ATOM      8  C   UNL     1      25.896   6.349  11.990  1.00  0.00     0.072 C 
BRANCH   8   9
ATOM      9  C   UNL     1      25.610   6.814  10.543  1.00  0.00     0.227 C 
BRANCH   9  10
ATOM     10  N   UNL     1      24.167   6.887  10.268  1.00  0.00    -0.350 N 
ATOM     11  H   UNL     1      23.662   6.092  10.723  1.00  0.00     0.345 HD
ATOM     12  H   UNL     1      23.999   6.852   9.236  1.00  0.00     0.345 HD
ATOM     13  H   UNL     1      23.780   7.791  10.618  1.00  0.00     0.345 HD
ENDBRANCH   9  10
BRANCH   9  14
ATOM     14  C   UNL     1      26.278   5.875   9.574  1.00  0.00     0.099 C 
ATOM     15  O   UNL     1      26.323   4.638   9.810  1.00  0.00    -0.544 OA
ATOM     16  O   UNL     1      26.880   6.375   8.426  1.00  0.00    -0.544 OA
ENDBRANCH   9  14
ENDBRANCH   8   9
ENDBRANCH   1   8
TORSDOF 7
ENDMDL
MODEL 8
REMARK VINA RESULT:    -3.910      2.775      3.796
REMARK INTER + INTRA:          -5.420
REMARK INTER:                  -4.916
REMARK INTRA:                  -0.504
REMARK UNBOUND:                -0.139
REMARK SMILES [NH3+]CCCC[C@H]([NH3+])C(=O)[O-]
REMARK SMILES IDX 4 1 3 2 2 3 1 4 5 8 6 9 7 10 8 14 9 15 10 16
REMARK H PARENT 1 5 1 6 1 7 7 11 7 12 7 13
REMARK Flexibility Score: inf
ROOT
ATOM      1  C   UNL     1      22.754   6.345  15.214  1.00  0.00     0.012 C 
ENDROOT
BRANCH   1   2
ATOM      2  C   UNL     1      22.915   5.419  16.436  1.00  0.00     0.061 C 
BRANCH   2   3
ATOM      3  C   UNL     1      23.672   4.106  16.155  1.00  0.00     0.258 C 
BRANCH   3   4
ATOM      4  N   UNL     1      25.039   4.131  16.678  1.00  0.00    -0.358 N 
ATOM      5  H   UNL     1      25.453   3.170  16.664  1.00  0.00     0.344 HD
ATOM      6  H   UNL     1      25.018   4.473  17.666  1.00  0.00     0.344 HD
ATOM      7  H   UNL     1      25.631   4.784  16.117  1.00  0.00     0.344 HD
ENDBRANCH   3   4
ENDBRANCH   2   3
ENDBRANCH   1   2
BRANCH   1   8
ATOM      8  C   UNL     1      23.808   7.464  15.093  1.00  0.00     0.072 C 
BRANCH   8   9
ATOM      9  C   UNL     1      24.957   7.172  14.099  1.00  0.00     0.227 C 
BRANCH   9  10
ATOM     10  N   UNL     1      24.767   5.890  13.406  1.00  0.00    -0.350 N 
ATOM     11  H   UNL     1      24.613   5.116  14.094  1.00  0.00     0.345 HD
ATOM     12  H   UNL     1      25.610   5.669  12.827  1.00  0.00     0.345 HD
ATOM     13  H   UNL     1      23.949   5.948  12.760  1.00  0.00     0.345 HD
ENDBRANCH   9  10
BRANCH   9  14
ATOM     14  C   UNL     1      26.270   7.178  14.836  1.00  0.00     0.099 C 
ATOM     15  O   UNL     1      26.726   6.116  15.338  1.00  0.00    -0.544 OA
ATOM     16  O   UNL     1      26.973   8.366  14.993  1.00  0.00    -0.544 OA
ENDBRANCH   9  14
ENDBRANCH   8   9
ENDBRANCH   1   8
TORSDOF 7
ENDMDL
MODEL 9
REMARK VINA RESULT:    -3.867      1.665      2.030
REMARK INTER + INTRA:          -5.363
REMARK INTER:                  -5.198
REMARK INTRA:                  -0.165
REMARK UNBOUND:                -0.139
REMARK SMILES [NH3+]CCCC[C@H]([NH3+])C(=O)[O-]
REMARK SMILES IDX 4 1 3 2 2 3 1 4 5 8 6 9 7 10 8 14 9 15 10 16
REMARK H PARENT 1 5 1 6 1 7 7 11 7 12 7 13
REMARK Flexibility Score: inf
ROOT
ATOM      1  C   UNL     1      23.293   6.952  15.040  1.00  0.00     0.012 C 
ENDROOT
BRANCH   1   2
ATOM      2  C   UNL     1      24.514   6.549  14.190  1.00  0.00     0.061 C 
BRANCH   2   3
ATOM      3  C   UNL     1      25.856   7.131  14.672  1.00  0.00     0.258 C 
BRANCH   3   4
ATOM      4  N   UNL     1      26.856   6.090  14.918  1.00  0.00    -0.358 N 
ATOM      5  H   UNL     1      27.807   6.514  15.021  1.00  0.00     0.344 HD
ATOM      6  H   UNL     1      26.867   5.432  14.106  1.00  0.00     0.344 HD
ATOM      7  H   UNL     1      26.612   5.548  15.778  1.00  0.00     0.344 HD
ENDBRANCH   3   4
ENDBRANCH   2   3
ENDBRANCH   1   2
BRANCH   1   8
ATOM      8  C   UNL     1      22.639   5.806  15.837  1.00  0.00     0.072 C 
BRANCH   8   9
ATOM      9  C   UNL     1      23.621   4.729  16.355  1.00  0.00     0.227 C 
BRANCH   9  10
ATOM     10  N   UNL     1      23.361   3.415  15.749  1.00  0.00    -0.350 N 
ATOM     11  H   UNL     1      23.084   3.518  14.745  1.00  0.00     0.345 HD
ATOM     12  H   UNL     1      22.593   2.930  16.267  1.00  0.00     0.345 HD
ATOM     13  H   UNL     1      24.212   2.815  15.815  1.00  0.00     0.345 HD
ENDBRANCH   9  10
BRANCH   9  14
ATOM     14  C   UNL     1      23.522   4.641  17.855  1.00  0.00     0.099 C 
ATOM     15  O   UNL     1      24.554   4.456  18.554  1.00  0.00    -0.544 OA
ATOM     16  O   UNL     1      22.283   4.733  18.475  1.00  0.00    -0.544 OA
ENDBRANCH   9  14
ENDBRANCH   8   9
ENDBRANCH   1   8
TORSDOF 7
ENDMDL
