MODEL 1
REMARK VINA RESULT:    -2.586      0.000      0.000
REMARK INTER + INTRA:          -7.537
REMARK INTER:                  -4.853
REMARK INTRA:                  -2.684
REMARK UNBOUND:                -2.684
REMARK SMILES CCCCCCCCC=CCCCCCCCC(=O)[O-]
REMARK SMILES IDX 10 1 9 2 11 3 12 4 13 5 14 6 15 7 16 8 17 9 18 10 19 11
REMARK SMILES IDX 20 12 8 13 7 14 6 15 5 16 4 17 3 18 2 19 1 20
REMARK H PARENT
REMARK Flexibility Score: inf
ROOT
ATOM      1  C   UNL     1      17.153  24.323  42.397  1.00  0.00    -0.031 C 
ATOM      2  C   UNL     1      18.353  23.759  42.632  1.00  0.00    -0.031 C 
ENDROOT
BRANCH   1   3
ATOM      3  C   UNL     1      16.894  25.464  41.443  1.00  0.00     0.027 C 
BRANCH   3   4
ATOM      4  C   UNL     1      15.511  26.086  41.670  1.00  0.00     0.004 C 
BRANCH   4   5
ATOM      5  C   UNL     1      14.831  26.422  40.334  1.00  0.00     0.000 C 
BRANCH   5   6
ATOM      6  C   UNL     1      15.472  25.685  39.147  1.00  0.00     0.000 C 
BRANCH   6   7
ATOM      7  C   UNL     1      15.882  26.641  38.014  1.00  0.00     0.000 C 
BRANCH   7   8
ATOM      8  C   UNL     1      15.028  26.452  36.749  1.00  0.00     0.006 C 
BRANCH   8   9
ATOM      9  C   UNL     1      14.526  25.012  36.593  1.00  0.00     0.053 C 
BRANCH   9  10
ATOM     10  C   UNL     1      14.923  24.462  35.259  1.00  0.00     0.041 C 
ATOM     11  O   UNL     1      14.876  23.220  35.045  1.00  0.00    -0.550 OA
ATOM     12  O   UNL     1      15.392  25.314  34.267  1.00  0.00    -0.550 OA
ENDBRANCH   9  10
ENDBRANCH   8   9
ENDBRANCH   7   8
ENDBRANCH   6   7
ENDBRANCH   5   6
ENDBRANCH   4   5
ENDBRANCH   3   4
ENDBRANCH   1   3
BRANCH   2  13
ATOM     13  C   UNL     1      19.651  24.148  41.962  1.00  0.00     0.027 C 
BRANCH  13  14
ATOM     14  C   UNL     1      20.203  23.013  41.085  1.00  0.00     0.004 C 
BRANCH  14  15
ATOM     15  C   UNL     1      19.249  21.817  40.910  1.00  0.00     0.000 C 
BRANCH  15  16
ATOM     16  C   UNL     1      18.742  21.634  39.463  1.00  0.00     0.000 C 
BRANCH  16  17
ATOM     17  C   UNL     1      17.626  22.630  39.109  1.00  0.00    -0.000 C 
BRANCH  17  18
ATOM     18  C   UNL     1      17.833  23.300  37.738  1.00  0.00    -0.000 C 
BRANCH  18  19
ATOM     19  C   UNL     1      19.159  24.066  37.584  1.00  0.00    -0.003 C 
ATOM     20  C   UNL     1      19.210  25.347  38.417  1.00  0.00     0.004 C 
ENDBRANCH  18  19
ENDBRANCH  17  18
ENDBRANCH  16  17
ENDBRANCH  15  16
ENDBRANCH  14  15
ENDBRANCH  13  14
ENDBRANCH   2  13
TORSDOF 15
ENDMDL
MODEL 2
REMARK VINA RESULT:    -2.579      3.758      6.345
REMARK INTER + INTRA:          -7.524
REMARK INTER:                  -4.748
REMARK INTRA:                  -2.775
REMARK UNBOUND:                -2.684
REMARK SMILES CCCCCCCCC=CCCCCCCCC(=O)[O-]
REMARK SMILES IDX 10 1 9 2 11 3 12 4 13 5 14 6 15 7 16 8 17 9 18 10 19 11
REMARK SMILES IDX 20 12 8 13 7 14 6 15 5 16 4 17 3 18 2 19 1 20
REMARK H PARENT
REMARK Flexibility Score: inf
ROOT
ATOM      1  C   UNL     1      16.850  23.469  34.760  1.00  0.00    -0.031 C 
ATOM      2  C   UNL     1      17.804  22.569  35.065  1.00  0.00    -0.031 C 
ENDROOT
BRANCH   1   3
ATOM      3  C   UNL     1      15.412  23.409  35.215  1.00  0.00     0.027 C 
BRANCH   3   4
ATOM      4  C   UNL     1      14.773  24.801  35.252  1.00  0.00     0.004 C 
BRANCH   4   5
ATOM      5  C   UNL     1      14.405  25.202  36.688  1.00  0.00     0.000 C 
BRANCH   5   6
ATOM      6  C   UNL     1      15.579  25.859  37.432  1.00  0.00     0.000 C 
BRANCH   6   7
ATOM      7  C   UNL     1      16.001  25.064  38.681  1.00  0.00     0.000 C 
BRANCH   7   8
ATOM      8  C   UNL     1      17.291  24.259  38.455  1.00  0.00     0.006 C 
BRANCH   8   9
ATOM      9  C   UNL     1      17.273  22.910  39.183  1.00  0.00     0.053 C 
BRANCH   9  10
ATOM     10  C   UNL     1      18.133  22.964  40.407  1.00  0.00     0.041 C 
ATOM     11  O   UNL     1      18.816  21.961  40.747  1.00  0.00    -0.550 OA
ATOM     12  O   UNL     1      18.141  24.105  41.200  1.00  0.00    -0.550 OA
ENDBRANCH   9  10
ENDBRANCH   8   9
ENDBRANCH   7   8
ENDBRANCH   6   7
ENDBRANCH   5   6
ENDBRANCH   4   5
ENDBRANCH   3   4
ENDBRANCH   1   3
BRANCH   2  13
ATOM     13  C   UNL     1      17.614  21.352  35.941  1.00  0.00     0.027 C 
BRANCH  13  14
ATOM     14  C   UNL     1      17.377  20.082  35.109  1.00  0.00     0.004 C 
BRANCH  14  15
ATOM     15  C   UNL     1      16.082  19.322  35.453  1.00  0.00     0.000 C 
BRANCH  15  16
ATOM     16  C   UNL     1      14.915  19.616  34.487  1.00  0.00     0.000 C 
BRANCH  16  17
ATOM     17  C   UNL     1      15.405  19.951  33.068  1.00  0.00    -0.000 C 
BRANCH  17  18
ATOM     18  C   UNL     1      14.696  21.176  32.462  1.00  0.00    -0.000 C 
BRANCH  18  19
ATOM     19  C   UNL     1      15.571  22.039  31.535  1.00  0.00    -0.003 C 
ATOM     20  C   UNL     1      17.040  21.615  31.533  1.00  0.00     0.004 C 
ENDBRANCH  18  19
ENDBRANCH  17  18
ENDBRANCH  16  17
ENDBRANCH  15  16
ENDBRANCH  14  15
ENDBRANCH  13  14
ENDBRANCH   2  13
TORSDOF 15
ENDMDL
MODEL 3
REMARK VINA RESULT:    -2.578      1.142      2.169
REMARK INTER + INTRA:          -7.521
REMARK INTER:                  -5.033
REMARK INTRA:                  -2.488
REMARK UNBOUND:                -2.684
REMARK SMILES CCCCCCCCC=CCCCCCCCC(=O)[O-]
REMARK SMILES IDX 10 1 9 2 11 3 12 4 13 5 14 6 15 7 16 8 17 9 18 10 19 11
REMARK SMILES IDX 20 12 8 13 7 14 6 15 5 16 4 17 3 18 2 19 1 20
REMARK H PARENT
REMARK Flexibility Score: inf
ROOT
ATOM      1  C   UNL     1      17.007  26.179  40.505  1.00  0.00    -0.031 C 
ATOM      2  C   UNL     1      17.995  25.822  41.347  1.00  0.00    -0.031 C 
ENDROOT
BRANCH   1   3
ATOM      3  C   UNL     1      15.531  26.003  40.763  1.00  0.00     0.027 C 
BRANCH   3   4
ATOM      4  C   UNL     1      14.805  25.443  39.535  1.00  0.00     0.004 C 
BRANCH   4   5
ATOM      5  C   UNL     1      15.238  26.175  38.256  1.00  0.00     0.000 C 
BRANCH   5   6
ATOM      6  C   UNL     1      14.388  25.779  37.038  1.00  0.00     0.000 C 
BRANCH   6   7
ATOM      7  C   UNL     1      15.019  26.235  35.709  1.00  0.00     0.000 C 
BRANCH   7   8
ATOM      8  C   UNL     1      15.133  25.089  34.691  1.00  0.00     0.006 C 
BRANCH   8   9
ATOM      9  C   UNL     1      15.008  23.709  35.346  1.00  0.00     0.053 C 
BRANCH   9  10
ATOM     10  C   UNL     1      15.597  22.655  34.462  1.00  0.00     0.041 C 
ATOM     11  O   UNL     1      16.617  22.013  34.833  1.00  0.00    -0.550 OA
ATOM     12  O   UNL     1      15.052  22.416  33.207  1.00  0.00    -0.550 OA
ENDBRANCH   9  10
ENDBRANCH   8   9
ENDBRANCH   7   8
ENDBRANCH   6   7
ENDBRANCH   5   6
ENDBRANCH   4   5
ENDBRANCH   3   4
ENDBRANCH   1   3
BRANCH   2  13
ATOM     13  C   UNL     1      17.803  25.207  42.715  1.00  0.00     0.027 C 
BRANCH  13  14
ATOM     14  C   UNL     1      18.285  23.749  42.758  1.00  0.00     0.004 C 
BRANCH  14  15
ATOM     15  C   UNL     1      19.283  23.371  41.647  1.00  0.00     0.000 C 
BRANCH  15  16
ATOM     16  C   UNL     1      19.150  21.910  41.165  1.00  0.00     0.000 C 
BRANCH  16  17
ATOM     17  C   UNL     1      18.811  21.821  39.667  1.00  0.00    -0.000 C 
BRANCH  17  18
ATOM     18  C   UNL     1      17.507  22.554  39.303  1.00  0.00    -0.000 C 
BRANCH  18  19
ATOM     19  C   UNL     1      17.575  23.397  38.017  1.00  0.00    -0.003 C 
ATOM     20  C   UNL     1      18.847  24.237  37.918  1.00  0.00     0.004 C 
ENDBRANCH  18  19
ENDBRANCH  17  18
ENDBRANCH  16  17
ENDBRANCH  15  16
ENDBRANCH  14  15
ENDBRANCH  13  14
ENDBRANCH   2  13
TORSDOF 15
ENDMDL
MODEL 4
REMARK VINA RESULT:    -2.577      9.428     12.273
REMARK INTER + INTRA:          -7.521
REMARK INTER:                  -4.321
REMARK INTRA:                  -3.200
REMARK UNBOUND:                -2.684
REMARK SMILES CCCCCCCCC=CCCCCCCCC(=O)[O-]
REMARK SMILES IDX 10 1 9 2 11 3 12 4 13 5 14 6 15 7 16 8 17 9 18 10 19 11
REMARK SMILES IDX 20 12 8 13 7 14 6 15 5 16 4 17 3 18 2 19 1 20
REMARK H PARENT
REMARK Flexibility Score: inf
ROOT
ATOM      1  C   UNL     1      13.440  20.072  31.001  1.00  0.00    -0.031 C 
ATOM      2  C   UNL     1      12.553  19.663  31.927  1.00  0.00    -0.031 C 
ENDROOT
BRANCH   1   3
ATOM      3  C   UNL     1      13.111  20.435  29.573  1.00  0.00     0.027 C 
BRANCH   3   4
ATOM      4  C   UNL     1      13.134  19.205  28.659  1.00  0.00     0.004 C 
BRANCH   4   5
ATOM      5  C   UNL     1      11.953  19.224  27.677  1.00  0.00     0.000 C 
BRANCH   5   6
ATOM      6  C   UNL     1      10.825  18.267  28.097  1.00  0.00     0.000 C 
BRANCH   6   7
ATOM      7  C   UNL     1       9.498  19.002  28.358  1.00  0.00     0.000 C 
BRANCH   7   8
ATOM      8  C   UNL     1       9.640  20.528  28.240  1.00  0.00     0.006 C 
BRANCH   8   9
ATOM      9  C   UNL     1       8.772  21.277  29.258  1.00  0.00     0.053 C 
BRANCH   9  10
ATOM     10  C   UNL     1       7.321  21.014  29.003  1.00  0.00     0.041 C 
ATOM     11  O   UNL     1       6.609  20.473  29.891  1.00  0.00    -0.550 OA
ATOM     12  O   UNL     1       6.767  21.319  27.767  1.00  0.00    -0.550 OA
ENDBRANCH   9  10
ENDBRANCH   8   9
ENDBRANCH   7   8
ENDBRANCH   6   7
ENDBRANCH   5   6
ENDBRANCH   4   5
ENDBRANCH   3   4
ENDBRANCH   1   3
BRANCH   2  13
ATOM     13  C   UNL     1      11.063  19.520  31.712  1.00  0.00     0.027 C 
BRANCH  13  14
ATOM     14  C   UNL     1      10.612  18.054  31.808  1.00  0.00     0.004 C 
BRANCH  14  15
ATOM     15  C   UNL     1      11.734  17.059  32.162  1.00  0.00     0.000 C 
BRANCH  15  16
ATOM     16  C   UNL     1      12.273  16.275  30.946  1.00  0.00     0.000 C 
BRANCH  16  17
ATOM     17  C   UNL     1      13.810  16.278  30.888  1.00  0.00    -0.000 C 
BRANCH  17  18
ATOM     18  C   UNL     1      14.463  16.180  32.279  1.00  0.00    -0.000 C 
BRANCH  18  19
ATOM     19  C   UNL     1      15.488  17.284  32.595  1.00  0.00    -0.003 C 
ATOM     20  C   UNL     1      15.192  18.019  33.902  1.00  0.00     0.004 C 
ENDBRANCH  18  19
ENDBRANCH  17  18
ENDBRANCH  16  17
ENDBRANCH  15  16
ENDBRANCH  14  15
ENDBRANCH  13  14
ENDBRANCH   2  13
TORSDOF 15
ENDMDL
MODEL 5
REMARK VINA RESULT:    -2.524      3.136      4.821
REMARK INTER + INTRA:          -7.421
REMARK INTER:                  -4.596
REMARK INTRA:                  -2.825
REMARK UNBOUND:                -2.684
REMARK SMILES CCCCCCCCC=CCCCCCCCC(=O)[O-]
REMARK SMILES IDX 10 1 9 2 11 3 12 4 13 5 14 6 15 7 16 8 17 9 18 10 19 11
REMARK SMILES IDX 20 12 8 13 7 14 6 15 5 16 4 17 3 18 2 19 1 20
REMARK H PARENT
REMARK Flexibility Score: inf
ROOT
ATOM      1  C   UNL     1      17.787  22.798  38.014  1.00  0.00    -0.031 C 
ATOM      2  C   UNL     1      18.283  21.588  38.334  1.00  0.00    -0.031 C 
ENDROOT
BRANCH   1   3
ATOM      3  C   UNL     1      18.471  24.119  38.268  1.00  0.00     0.027 C 
BRANCH   3   4
ATOM      4  C   UNL     1      17.482  25.182  38.760  1.00  0.00     0.004 C 
BRANCH   4   5
ATOM      5  C   UNL     1      16.033  24.693  38.623  1.00  0.00     0.000 C 
BRANCH   5   6
ATOM      6  C   UNL     1      15.076  25.416  39.584  1.00  0.00     0.000 C 
BRANCH   6   7
ATOM      7  C   UNL     1      15.449  26.897  39.779  1.00  0.00     0.000 C 
BRANCH   7   8
ATOM      8  C   UNL     1      14.965  27.451  41.129  1.00  0.00     0.006 C 
BRANCH   8   9
ATOM      9  C   UNL     1      14.260  26.387  41.979  1.00  0.00     0.053 C 
BRANCH   9  10
ATOM     10  C   UNL     1      12.904  26.865  42.396  1.00  0.00     0.041 C 
ATOM     11  O   UNL     1      12.174  26.141  43.125  1.00  0.00    -0.550 OA
ATOM     12  O   UNL     1      12.427  28.087  41.940  1.00  0.00    -0.550 OA
ENDBRANCH   9  10
ENDBRANCH   8   9
ENDBRANCH   7   8
ENDBRANCH   6   7
ENDBRANCH   5   6
ENDBRANCH   4   5
ENDBRANCH   3   4
ENDBRANCH   1   3
BRANCH   2  13
ATOM     13  C   UNL     1      19.626  21.332  38.980  1.00  0.00     0.027 C 
BRANCH  13  14
ATOM     14  C   UNL     1      19.521  21.281  40.512  1.00  0.00     0.004 C 
BRANCH  14  15
ATOM     15  C   UNL     1      20.346  22.355  41.247  1.00  0.00     0.000 C 
BRANCH  15  16
ATOM     16  C   UNL     1      19.528  23.173  42.269  1.00  0.00     0.000 C 
BRANCH  16  17
ATOM     17  C   UNL     1      18.020  23.137  41.969  1.00  0.00    -0.000 C 
BRANCH  17  18
ATOM     18  C   UNL     1      17.289  24.418  42.411  1.00  0.00    -0.000 C 
BRANCH  18  19
ATOM     19  C   UNL     1      18.198  25.514  42.996  1.00  0.00    -0.003 C 
ATOM     20  C   UNL     1      18.452  26.664  42.022  1.00  0.00     0.004 C 
ENDBRANCH  18  19
ENDBRANCH  17  18
ENDBRANCH  16  17
ENDBRANCH  15  16
ENDBRANCH  14  15
ENDBRANCH  13  14
ENDBRANCH   2  13
TORSDOF 15
ENDMDL
MODEL 6
REMARK VINA RESULT:    -2.515      2.811      5.040
REMARK INTER + INTRA:          -7.404
REMARK INTER:                  -4.531
REMARK INTRA:                  -2.873
REMARK UNBOUND:                -2.684
REMARK SMILES CCCCCCCCC=CCCCCCCCC(=O)[O-]
REMARK SMILES IDX 10 1 9 2 11 3 12 4 13 5 14 6 15 7 16 8 17 9 18 10 19 11
REMARK SMILES IDX 20 12 8 13 7 14 6 15 5 16 4 17 3 18 2 19 1 20
REMARK H PARENT
REMARK Flexibility Score: inf
ROOT
ATOM      1  C   UNL     1      17.633  23.611  38.871  1.00  0.00    -0.031 C 
ATOM      2  C   UNL     1      17.770  22.364  39.359  1.00  0.00    -0.031 C 
ENDROOT
BRANCH   1   3
ATOM      3  C   UNL     1      18.734  24.433  38.248  1.00  0.00     0.027 C 
BRANCH   3   4
ATOM      4  C   UNL     1      18.714  24.337  36.718  1.00  0.00     0.004 C 
BRANCH   4   5
ATOM      5  C   UNL     1      17.335  23.889  36.211  1.00  0.00     0.000 C 
BRANCH   5   6
ATOM      6  C   UNL     1      17.404  22.587  35.397  1.00  0.00     0.000 C 
BRANCH   6   7
ATOM      7  C   UNL     1      18.784  21.911  35.485  1.00  0.00     0.000 C 
BRANCH   7   8
ATOM      8  C   UNL     1      18.683  20.411  35.807  1.00  0.00     0.006 C 
BRANCH   8   9
ATOM      9  C   UNL     1      17.323  20.031  36.403  1.00  0.00     0.053 C 
BRANCH   9  10
ATOM     10  C   UNL     1      16.812  18.770  35.779  1.00  0.00     0.041 C 
ATOM     11  O   UNL     1      15.601  18.674  35.445  1.00  0.00    -0.550 OA
ATOM     12  O   UNL     1      17.662  17.684  35.610  1.00  0.00    -0.550 OA
ENDBRANCH   9  10
ENDBRANCH   8   9
ENDBRANCH   7   8
ENDBRANCH   6   7
ENDBRANCH   5   6
ENDBRANCH   4   5
ENDBRANCH   3   4
ENDBRANCH   1   3
BRANCH   2  13
ATOM     13  C   UNL     1      19.044  21.551  39.345  1.00  0.00     0.027 C 
BRANCH  13  14
ATOM     14  C   UNL     1      19.583  21.310  40.764  1.00  0.00     0.004 C 
BRANCH  14  15
ATOM     15  C   UNL     1      21.020  21.814  40.998  1.00  0.00     0.000 C 
BRANCH  15  16
ATOM     16  C   UNL     1      21.118  22.950  42.038  1.00  0.00     0.000 C 
BRANCH  16  17
ATOM     17  C   UNL     1      20.885  24.335  41.410  1.00  0.00    -0.000 C 
BRANCH  17  18
ATOM     18  C   UNL     1      19.553  24.974  41.843  1.00  0.00    -0.000 C 
BRANCH  18  19
ATOM     19  C   UNL     1      18.841  24.263  43.008  1.00  0.00    -0.003 C 
ATOM     20  C   UNL     1      17.470  23.707  42.622  1.00  0.00     0.004 C 
ENDBRANCH  18  19
ENDBRANCH  17  18
ENDBRANCH  16  17
ENDBRANCH  15  16
ENDBRANCH  14  15
ENDBRANCH  13  14
ENDBRANCH   2  13
TORSDOF 15
ENDMDL
MODEL 7
REMARK VINA RESULT:    -2.508     11.028     14.430
REMARK INTER + INTRA:          -7.391
REMARK INTER:                  -4.694
REMARK INTRA:                  -2.697
REMARK UNBOUND:                -2.684
REMARK SMILES CCCCCCCCC=CCCCCCCCC(=O)[O-]
REMARK SMILES IDX 10 1 9 2 11 3 12 4 13 5 14 6 15 7 16 8 17 9 18 10 19 11
REMARK SMILES IDX 20 12 8 13 7 14 6 15 5 16 4 17 3 18 2 19 1 20
REMARK H PARENT
REMARK Flexibility Score: inf
ROOT
ATOM      1  C   UNL     1      19.509  28.291  25.770  1.00  0.00    -0.031 C 
ATOM      2  C   UNL     1      20.225  28.782  24.742  1.00  0.00    -0.031 C 
ENDROOT
BRANCH   1   3
ATOM      3  C   UNL     1      18.045  27.925  25.721  1.00  0.00     0.027 C 
BRANCH   3   4
ATOM      4  C   UNL     1      17.468  27.715  27.126  1.00  0.00     0.004 C 
BRANCH   4   5
ATOM      5  C   UNL     1      18.354  28.377  28.192  1.00  0.00     0.000 C 
BRANCH   5   6
ATOM      6  C   UNL     1      17.541  28.907  29.384  1.00  0.00     0.000 C 
BRANCH   6   7
ATOM      7  C   UNL     1      16.031  28.952  29.091  1.00  0.00     0.000 C 
BRANCH   7   8
ATOM      8  C   UNL     1      15.255  29.772  30.134  1.00  0.00     0.006 C 
BRANCH   8   9
ATOM      9  C   UNL     1      13.878  30.213  29.626  1.00  0.00     0.053 C 
BRANCH   9  10
ATOM     10  C   UNL     1      13.693  31.685  29.827  1.00  0.00     0.041 C 
ATOM     11  O   UNL     1      13.963  32.211  30.940  1.00  0.00    -0.550 OA
ATOM     12  O   UNL     1      13.176  32.466  28.802  1.00  0.00    -0.550 OA
ENDBRANCH   9  10
ENDBRANCH   8   9
ENDBRANCH   7   8
ENDBRANCH   6   7
ENDBRANCH   5   6
ENDBRANCH   4   5
ENDBRANCH   3   4
ENDBRANCH   1   3
BRANCH   2  13
ATOM     13  C   UNL     1      19.701  29.030  23.346  1.00  0.00     0.027 C 
BRANCH  13  14
ATOM     14  C   UNL     1      19.490  30.527  23.073  1.00  0.00     0.004 C 
BRANCH  14  15
ATOM     15  C   UNL     1      18.029  31.001  23.193  1.00  0.00     0.000 C 
BRANCH  15  16
ATOM     16  C   UNL     1      17.837  32.177  24.175  1.00  0.00     0.000 C 
BRANCH  16  17
ATOM     17  C   UNL     1      18.135  31.773  25.629  1.00  0.00    -0.000 C 
BRANCH  17  18
ATOM     18  C   UNL     1      16.877  31.336  26.400  1.00  0.00    -0.000 C 
BRANCH  18  19
ATOM     19  C   UNL     1      16.359  32.357  27.429  1.00  0.00    -0.003 C 
ATOM     20  C   UNL     1      17.310  32.551  28.610  1.00  0.00     0.004 C 
ENDBRANCH  18  19
ENDBRANCH  17  18
ENDBRANCH  16  17
ENDBRANCH  15  16
ENDBRANCH  14  15
ENDBRANCH  13  14
ENDBRANCH   2  13
TORSDOF 15
ENDMDL
MODEL 8
REMARK VINA RESULT:    -2.505      1.917      3.487
REMARK INTER + INTRA:          -7.385
REMARK INTER:                  -4.522
REMARK INTRA:                  -2.864
REMARK UNBOUND:                -2.684
REMARK SMILES CCCCCCCCC=CCCCCCCCC(=O)[O-]
REMARK SMILES IDX 10 1 9 2 11 3 12 4 13 5 14 6 15 7 16 8 17 9 18 10 19 11
REMARK SMILES IDX 20 12 8 13 7 14 6 15 5 16 4 17 3 18 2 19 1 20
REMARK H PARENT
REMARK Flexibility Score: inf
ROOT
ATOM      1  C   UNL     1      17.815  25.969  41.803  1.00  0.00    -0.031 C 
ATOM      2  C   UNL     1      17.806  24.977  42.714  1.00  0.00    -0.031 C 
ENDROOT
BRANCH   1   3
ATOM      3  C   UNL     1      17.662  25.789  40.312  1.00  0.00     0.027 C 
BRANCH   3   4
ATOM      4  C   UNL     1      16.203  25.526  39.922  1.00  0.00     0.004 C 
BRANCH   4   5
ATOM      5  C   UNL     1      16.093  24.324  38.972  1.00  0.00     0.000 C 
BRANCH   5   6
ATOM      6  C   UNL     1      17.468  23.786  38.545  1.00  0.00     0.000 C 
BRANCH   6   7
ATOM      7  C   UNL     1      17.640  22.291  38.869  1.00  0.00     0.000 C 
BRANCH   7   8
ATOM      8  C   UNL     1      18.017  21.463  37.630  1.00  0.00     0.006 C 
BRANCH   8   9
ATOM      9  C   UNL     1      18.100  22.315  36.359  1.00  0.00     0.053 C 
BRANCH   9  10
ATOM     10  C   UNL     1      17.070  21.875  35.366  1.00  0.00     0.041 C 
ATOM     11  O   UNL     1      17.193  20.769  34.774  1.00  0.00    -0.550 OA
ATOM     12  O   UNL     1      16.003  22.708  35.056  1.00  0.00    -0.550 OA
ENDBRANCH   9  10
ENDBRANCH   8   9
ENDBRANCH   7   8
ENDBRANCH   6   7
ENDBRANCH   5   6
ENDBRANCH   4   5
ENDBRANCH   3   4
ENDBRANCH   1   3
BRANCH   2  13
ATOM     13  C   UNL     1      17.612  23.509  42.411  1.00  0.00     0.027 C 
BRANCH  13  14
ATOM     14  C   UNL     1      18.949  22.803  42.132  1.00  0.00     0.004 C 
BRANCH  14  15
ATOM     15  C   UNL     1      20.187  23.531  42.690  1.00  0.00     0.000 C 
BRANCH  15  16
ATOM     16  C   UNL     1      21.338  23.668  41.671  1.00  0.00     0.000 C 
BRANCH  16  17
ATOM     17  C   UNL     1      20.822  23.806  40.228  1.00  0.00    -0.000 C 
BRANCH  17  18
ATOM     18  C   UNL     1      21.293  22.662  39.311  1.00  0.00    -0.000 C 
BRANCH  18  19
ATOM     19  C   UNL     1      21.734  21.383  40.045  1.00  0.00    -0.003 C 
ATOM     20  C   UNL     1      20.685  20.272  39.993  1.00  0.00     0.004 C 
ENDBRANCH  18  19
ENDBRANCH  17  18
ENDBRANCH  16  17
ENDBRANCH  15  16
ENDBRANCH  14  15
ENDBRANCH  13  14
ENDBRANCH   2  13
TORSDOF 15
ENDMDL
MODEL 9
REMARK VINA RESULT:    -2.480      1.430      3.535
REMARK INTER + INTRA:          -7.339
REMARK INTER:                  -4.598
REMARK INTRA:                  -2.741
REMARK UNBOUND:                -2.684
REMARK SMILES CCCCCCCCC=CCCCCCCCC(=O)[O-]
REMARK SMILES IDX 10 1 9 2 11 3 12 4 13 5 14 6 15 7 16 8 17 9 18 10 19 11
REMARK SMILES IDX 20 12 8 13 7 14 6 15 5 16 4 17 3 18 2 19 1 20
REMARK H PARENT
REMARK Flexibility Score: inf
ROOT
ATOM      1  C   UNL     1      17.854  26.061  38.320  1.00  0.00    -0.031 C 
ATOM      2  C   UNL     1      18.010  24.727  38.232  1.00  0.00    -0.031 C 
ENDROOT
BRANCH   1   3
ATOM      3  C   UNL     1      16.640  26.766  38.873  1.00  0.00     0.027 C 
BRANCH   3   4
ATOM      4  C   UNL     1      15.889  27.538  37.781  1.00  0.00     0.004 C 
BRANCH   4   5
ATOM      5  C   UNL     1      16.499  27.271  36.397  1.00  0.00     0.000 C 
BRANCH   5   6
ATOM      6  C   UNL     1      15.433  26.940  35.341  1.00  0.00     0.000 C 
BRANCH   6   7
ATOM      7  C   UNL     1      14.299  26.066  35.904  1.00  0.00     0.000 C 
BRANCH   7   8
ATOM      8  C   UNL     1      14.744  24.616  36.154  1.00  0.00     0.006 C 
BRANCH   8   9
ATOM      9  C   UNL     1      15.187  23.910  34.868  1.00  0.00     0.053 C 
BRANCH   9  10
ATOM     10  C   UNL     1      16.571  23.361  35.022  1.00  0.00     0.041 C 
ATOM     11  O   UNL     1      17.572  24.098  34.810  1.00  0.00    -0.550 OA
ATOM     12  O   UNL     1      16.757  22.025  35.350  1.00  0.00    -0.550 OA
ENDBRANCH   9  10
ENDBRANCH   8   9
ENDBRANCH   7   8
ENDBRANCH   6   7
ENDBRANCH   5   6
ENDBRANCH   4   5
ENDBRANCH   3   4
ENDBRANCH   1   3
BRANCH   2  13
ATOM     13  C   UNL     1      17.008  23.694  38.695  1.00  0.00     0.027 C 
BRANCH  13  14
ATOM     14  C   UNL     1      17.682  22.353  39.024  1.00  0.00     0.004 C 
BRANCH  14  15
ATOM     15  C   UNL     1      19.095  22.476  39.625  1.00  0.00     0.000 C 
BRANCH  15  16
ATOM     16  C   UNL     1      19.216  21.895  41.050  1.00  0.00     0.000 C 
BRANCH  16  17
ATOM     17  C   UNL     1      19.142  22.988  42.130  1.00  0.00    -0.000 C 
BRANCH  17  18
ATOM     18  C   UNL     1      17.698  23.386  42.483  1.00  0.00    -0.000 C 
BRANCH  18  19
ATOM     19  C   UNL     1      17.358  24.869  42.248  1.00  0.00    -0.003 C 
ATOM     20  C   UNL     1      18.595  25.735  42.008  1.00  0.00     0.004 C 
ENDBRANCH  18  19
ENDBRANCH  17  18
ENDBRANCH  16  17
ENDBRANCH  15  16
ENDBRANCH  14  15
ENDBRANCH  13  14
ENDBRANCH   2  13
TORSDOF 15
ENDMDL
