MODEL 1
REMARK VINA RESULT:    -4.464      0.000      0.000
REMARK INTER + INTRA:          -7.359
REMARK INTER:                  -6.421
REMARK INTRA:                  -0.938
REMARK UNBOUND:                -0.938
REMARK SMILES O=C(CO)[C@@H](O)[C@@H](O)[C@@H](O)CO
REMARK SMILES IDX 7 1 9 2 11 3 12 4 10 6 5 8 2 9 1 10 3 11 4 12 6 14 8 16
REMARK H PARENT 12 5 10 7 4 13 6 15 8 17
REMARK Flexibility Score: inf
ROOT
ATOM      1  C   UNL     1      26.784 -53.064 -10.620  1.00  0.00     0.181 C 
ENDROOT
BRANCH   1   2
ATOM      2  C   UNL     1      26.989 -52.380  -9.238  1.00  0.00     0.171 C 
BRANCH   2   3
ATOM      3  C   UNL     1      26.300 -51.003  -9.146  1.00  0.00     0.190 C 
BRANCH   3   4
ATOM      4  O   UNL     1      24.903 -51.135  -9.112  1.00  0.00    -0.394 OA
ATOM      5  H   UNL     1      24.555 -50.375  -8.575  1.00  0.00     0.210 HD
ENDBRANCH   3   4
ENDBRANCH   2   3
BRANCH   2   6
ATOM      6  O   UNL     1      28.353 -52.259  -8.921  1.00  0.00    -0.388 OA
ATOM      7  H   UNL     1      28.419 -51.816  -8.034  1.00  0.00     0.211 HD
ENDBRANCH   2   6
ENDBRANCH   1   2
BRANCH   1   8
ATOM      8  C   UNL     1      27.293 -54.533 -10.626  1.00  0.00     0.214 C 
BRANCH   8   9
ATOM      9  C   UNL     1      28.632 -54.669 -11.325  1.00  0.00     0.189 C 
ATOM     10  O   UNL     1      29.323 -53.674 -11.486  1.00  0.00    -0.294 OA
BRANCH   9  11
ATOM     11  C   UNL     1      29.133 -55.992 -11.842  1.00  0.00     0.234 C 
BRANCH  11  12
ATOM     12  O   UNL     1      29.215 -56.919 -10.794  1.00  0.00    -0.388 OA
ATOM     13  H   UNL     1      29.233 -56.393  -9.952  1.00  0.00     0.211 HD
ENDBRANCH  11  12
ENDBRANCH   9  11
ENDBRANCH   8   9
BRANCH   8  14
ATOM     14  O   UNL     1      27.371 -55.069  -9.327  1.00  0.00    -0.382 OA
ATOM     15  H   UNL     1      28.302 -54.960  -9.004  1.00  0.00     0.211 HD
ENDBRANCH   8  14
ENDBRANCH   1   8
BRANCH   1  16
ATOM     16  O   UNL     1      25.426 -53.022 -10.988  1.00  0.00    -0.387 OA
ATOM     17  H   UNL     1      25.158 -52.068 -11.041  1.00  0.00     0.211 HD
ENDBRANCH   1  16
TORSDOF 10
ENDMDL
MODEL 2
REMARK VINA RESULT:    -4.369      1.254      4.679
REMARK INTER + INTRA:          -7.222
REMARK INTER:                  -6.443
REMARK INTRA:                  -0.778
REMARK UNBOUND:                -0.938
REMARK SMILES O=C(CO)[C@@H](O)[C@@H](O)[C@@H](O)CO
REMARK SMILES IDX 7 1 9 2 11 3 12 4 10 6 5 8 2 9 1 10 3 11 4 12 6 14 8 16
REMARK H PARENT 12 5 10 7 4 13 6 15 8 17
REMARK Flexibility Score: inf
ROOT
ATOM      1  C   UNL     1      28.277 -54.140 -10.863  1.00  0.00     0.181 C 
ENDROOT
BRANCH   1   2
ATOM      2  C   UNL     1      28.319 -55.675 -10.610  1.00  0.00     0.171 C 
BRANCH   2   3
ATOM      3  C   UNL     1      27.867 -56.493 -11.836  1.00  0.00     0.190 C 
BRANCH   3   4
ATOM      4  O   UNL     1      28.851 -56.497 -12.837  1.00  0.00    -0.394 OA
ATOM      5  H   UNL     1      29.730 -56.531 -12.377  1.00  0.00     0.210 HD
ENDBRANCH   3   4
ENDBRANCH   2   3
BRANCH   2   6
ATOM      6  O   UNL     1      27.557 -56.032  -9.484  1.00  0.00    -0.388 OA
ATOM      7  H   UNL     1      28.089 -55.806  -8.676  1.00  0.00     0.211 HD
ENDBRANCH   2   6
ENDBRANCH   1   2
BRANCH   1   8
ATOM      8  C   UNL     1      27.173 -53.440 -10.021  1.00  0.00     0.214 C 
BRANCH   8   9
ATOM      9  C   UNL     1      27.258 -51.929 -10.116  1.00  0.00     0.189 C 
ATOM     10  O   UNL     1      27.917 -51.425 -11.014  1.00  0.00    -0.294 OA
BRANCH   9  11
ATOM     11  C   UNL     1      26.565 -51.026  -9.130  1.00  0.00     0.234 C 
BRANCH  11  12
ATOM     12  O   UNL     1      25.181 -51.248  -9.162  1.00  0.00    -0.388 OA
ATOM     13  H   UNL     1      24.833 -50.990  -8.269  1.00  0.00     0.211 HD
ENDBRANCH  11  12
ENDBRANCH   9  11
ENDBRANCH   8   9
BRANCH   8  14
ATOM     14  O   UNL     1      25.883 -53.874 -10.379  1.00  0.00    -0.382 OA
ATOM     15  H   UNL     1      25.229 -53.214 -10.032  1.00  0.00     0.211 HD
ENDBRANCH   8  14
ENDBRANCH   1   8
BRANCH   1  16
ATOM     16  O   UNL     1      29.532 -53.566 -10.585  1.00  0.00    -0.387 OA
ATOM     17  H   UNL     1      30.176 -54.308 -10.437  1.00  0.00     0.211 HD
ENDBRANCH   1  16
TORSDOF 10
ENDMDL
MODEL 3
REMARK VINA RESULT:    -4.348      1.348      4.407
REMARK INTER + INTRA:          -7.192
REMARK INTER:                  -6.188
REMARK INTRA:                  -1.004
REMARK UNBOUND:                -0.938
REMARK SMILES O=C(CO)[C@@H](O)[C@@H](O)[C@@H](O)CO
REMARK SMILES IDX 7 1 9 2 11 3 12 4 10 6 5 8 2 9 1 10 3 11 4 12 6 14 8 16
REMARK H PARENT 12 5 10 7 4 13 6 15 8 17
REMARK Flexibility Score: inf
ROOT
ATOM      1  C   UNL     1      27.566 -54.156 -10.078  1.00  0.00     0.181 C 
ENDROOT
BRANCH   1   2
ATOM      2  C   UNL     1      28.049 -55.071 -11.240  1.00  0.00     0.171 C 
BRANCH   2   3
ATOM      3  C   UNL     1      28.191 -56.547 -10.817  1.00  0.00     0.190 C 
BRANCH   3   4
ATOM      4  O   UNL     1      27.650 -56.765  -9.540  1.00  0.00    -0.394 OA
ATOM      5  H   UNL     1      26.978 -57.491  -9.632  1.00  0.00     0.210 HD
ENDBRANCH   3   4
ENDBRANCH   2   3
BRANCH   2   6
ATOM      6  O   UNL     1      29.257 -54.609 -11.791  1.00  0.00    -0.388 OA
ATOM      7  H   UNL     1      29.340 -54.995 -12.702  1.00  0.00     0.211 HD
ENDBRANCH   2   6
ENDBRANCH   1   2
BRANCH   1   8
ATOM      8  C   UNL     1      28.027 -52.682 -10.265  1.00  0.00     0.214 C 
BRANCH   8   9
ATOM      9  C   UNL     1      27.179 -51.715  -9.463  1.00  0.00     0.189 C 
ATOM     10  O   UNL     1      26.053 -51.445  -9.853  1.00  0.00    -0.294 OA
BRANCH   9  11
ATOM     11  C   UNL     1      27.686 -51.062  -8.203  1.00  0.00     0.234 C 
BRANCH  11  12
ATOM     12  O   UNL     1      28.159 -52.036  -7.313  1.00  0.00    -0.388 OA
ATOM     13  H   UNL     1      27.709 -51.867  -6.444  1.00  0.00     0.211 HD
ENDBRANCH  11  12
ENDBRANCH   9  11
ENDBRANCH   8   9
BRANCH   8  14
ATOM     14  O   UNL     1      29.387 -52.511  -9.946  1.00  0.00    -0.382 OA
ATOM     15  H   UNL     1      29.797 -53.410  -9.854  1.00  0.00     0.211 HD
ENDBRANCH   8  14
ENDBRANCH   1   8
BRANCH   1  16
ATOM     16  O   UNL     1      26.164 -54.212  -9.963  1.00  0.00    -0.387 OA
ATOM     17  H   UNL     1      25.788 -53.476 -10.513  1.00  0.00     0.211 HD
ENDBRANCH   1  16
TORSDOF 10
ENDMDL
MODEL 4
REMARK VINA RESULT:    -4.254      1.328      4.557
REMARK INTER + INTRA:          -7.057
REMARK INTER:                  -6.370
REMARK INTRA:                  -0.686
REMARK UNBOUND:                -0.938
REMARK SMILES O=C(CO)[C@@H](O)[C@@H](O)[C@@H](O)CO
REMARK SMILES IDX 7 1 9 2 11 3 12 4 10 6 5 8 2 9 1 10 3 11 4 12 6 14 8 16
REMARK H PARENT 12 5 10 7 4 13 6 15 8 17
REMARK Flexibility Score: inf
ROOT
ATOM      1  C   UNL     1      28.339 -54.259 -11.008  1.00  0.00     0.181 C 
ENDROOT
BRANCH   1   2
ATOM      2  C   UNL     1      27.934 -55.729 -11.316  1.00  0.00     0.171 C 
BRANCH   2   3
ATOM      3  C   UNL     1      28.319 -56.703 -10.184  1.00  0.00     0.190 C 
BRANCH   3   4
ATOM      4  O   UNL     1      27.273 -56.848  -9.259  1.00  0.00    -0.394 OA
ATOM      5  H   UNL     1      26.809 -57.699  -9.480  1.00  0.00     0.210 HD
ENDBRANCH   3   4
ENDBRANCH   2   3
BRANCH   2   6
ATOM      6  O   UNL     1      28.477 -56.167 -12.536  1.00  0.00    -0.388 OA
ATOM      7  H   UNL     1      29.306 -55.647 -12.702  1.00  0.00     0.211 HD
ENDBRANCH   2   6
ENDBRANCH   1   2
BRANCH   1   8
ATOM      8  C   UNL     1      27.404 -53.604  -9.951  1.00  0.00     0.214 C 
BRANCH   8   9
ATOM      9  C   UNL     1      27.517 -52.092  -9.950  1.00  0.00     0.189 C 
ATOM     10  O   UNL     1      28.612 -51.577  -9.780  1.00  0.00    -0.294 OA
BRANCH   9  11
ATOM     11  C   UNL     1      26.317 -51.201 -10.140  1.00  0.00     0.234 C 
BRANCH  11  12
ATOM     12  O   UNL     1      25.451 -51.318  -9.045  1.00  0.00    -0.388 OA
ATOM     13  H   UNL     1      24.987 -50.445  -8.957  1.00  0.00     0.211 HD
ENDBRANCH  11  12
ENDBRANCH   9  11
ENDBRANCH   8   9
BRANCH   8  14
ATOM     14  O   UNL     1      26.062 -53.988 -10.126  1.00  0.00    -0.382 OA
ATOM     15  H   UNL     1      25.491 -53.343  -9.634  1.00  0.00     0.211 HD
ENDBRANCH   8  14
ENDBRANCH   1   8
BRANCH   1  16
ATOM     16  O   UNL     1      29.676 -54.203 -10.570  1.00  0.00    -0.387 OA
ATOM     17  H   UNL     1      30.042 -55.125 -10.605  1.00  0.00     0.211 HD
ENDBRANCH   1  16
TORSDOF 10
ENDMDL
MODEL 5
REMARK VINA RESULT:    -4.185      1.183      1.921
REMARK INTER + INTRA:          -6.958
REMARK INTER:                  -6.128
REMARK INTRA:                  -0.830
REMARK UNBOUND:                -0.938
REMARK SMILES O=C(CO)[C@@H](O)[C@@H](O)[C@@H](O)CO
REMARK SMILES IDX 7 1 9 2 11 3 12 4 10 6 5 8 2 9 1 10 3 11 4 12 6 14 8 16
REMARK H PARENT 12 5 10 7 4 13 6 15 8 17
REMARK Flexibility Score: inf
ROOT
ATOM      1  C   UNL     1      27.968 -52.815 -10.314  1.00  0.00     0.181 C 
ENDROOT
BRANCH   1   2
ATOM      2  C   UNL     1      26.904 -51.784  -9.840  1.00  0.00     0.171 C 
BRANCH   2   3
ATOM      3  C   UNL     1      27.097 -51.360  -8.370  1.00  0.00     0.190 C 
BRANCH   3   4
ATOM      4  O   UNL     1      28.156 -52.061  -7.773  1.00  0.00    -0.394 OA
ATOM      5  H   UNL     1      27.963 -52.100  -6.799  1.00  0.00     0.210 HD
ENDBRANCH   3   4
ENDBRANCH   2   3
BRANCH   2   6
ATOM      6  O   UNL     1      25.598 -52.266 -10.036  1.00  0.00    -0.388 OA
ATOM      7  H   UNL     1      25.654 -53.250 -10.155  1.00  0.00     0.211 HD
ENDBRANCH   2   6
ENDBRANCH   1   2
BRANCH   1   8
ATOM      8  C   UNL     1      27.344 -54.211 -10.597  1.00  0.00     0.214 C 
BRANCH   8   9
ATOM      9  C   UNL     1      28.347 -55.170 -11.208  1.00  0.00     0.189 C 
ATOM     10  O   UNL     1      29.533 -54.875 -11.201  1.00  0.00    -0.294 OA
BRANCH   9  11
ATOM     11  C   UNL     1      27.927 -56.473 -11.835  1.00  0.00     0.234 C 
BRANCH  11  12
ATOM     12  O   UNL     1      27.401 -57.331 -10.860  1.00  0.00    -0.388 OA
ATOM     13  H   UNL     1      27.583 -56.905  -9.982  1.00  0.00     0.211 HD
ENDBRANCH  11  12
ENDBRANCH   9  11
ENDBRANCH   8   9
BRANCH   8  14
ATOM     14  O   UNL     1      26.775 -54.778  -9.442  1.00  0.00    -0.382 OA
ATOM     15  H   UNL     1      27.401 -54.630  -8.687  1.00  0.00     0.211 HD
ENDBRANCH   8  14
ENDBRANCH   1   8
BRANCH   1  16
ATOM     16  O   UNL     1      28.631 -52.341 -11.462  1.00  0.00    -0.387 OA
ATOM     17  H   UNL     1      29.586 -52.211 -11.225  1.00  0.00     0.211 HD
ENDBRANCH   1  16
TORSDOF 10
ENDMDL
MODEL 6
REMARK VINA RESULT:    -4.088      2.015      3.838
REMARK INTER + INTRA:          -6.818
REMARK INTER:                  -5.917
REMARK INTRA:                  -0.901
REMARK UNBOUND:                -0.938
REMARK SMILES O=C(CO)[C@@H](O)[C@@H](O)[C@@H](O)CO
REMARK SMILES IDX 7 1 9 2 11 3 12 4 10 6 5 8 2 9 1 10 3 11 4 12 6 14 8 16
REMARK H PARENT 12 5 10 7 4 13 6 15 8 17
REMARK Flexibility Score: inf
ROOT
ATOM      1  C   UNL     1      28.143 -53.109 -11.009  1.00  0.00     0.181 C 
ENDROOT
BRANCH   1   2
ATOM      2  C   UNL     1      26.655 -53.562 -10.985  1.00  0.00     0.171 C 
BRANCH   2   3
ATOM      3  C   UNL     1      25.670 -52.377 -11.028  1.00  0.00     0.190 C 
BRANCH   3   4
ATOM      4  O   UNL     1      24.410 -52.779 -11.500  1.00  0.00    -0.394 OA
ATOM      5  H   UNL     1      24.144 -53.574 -10.968  1.00  0.00     0.210 HD
ENDBRANCH   3   4
ENDBRANCH   2   3
BRANCH   2   6
ATOM      6  O   UNL     1      26.383 -54.376  -9.871  1.00  0.00    -0.388 OA
ATOM      7  H   UNL     1      25.559 -54.894 -10.070  1.00  0.00     0.211 HD
ENDBRANCH   2   6
ENDBRANCH   1   2
BRANCH   1   8
ATOM      8  C   UNL     1      28.302 -51.607 -10.640  1.00  0.00     0.214 C 
BRANCH   8   9
ATOM      9  C   UNL     1      28.695 -51.416  -9.188  1.00  0.00     0.189 C 
ATOM     10  O   UNL     1      27.869 -51.634  -8.313  1.00  0.00    -0.294 OA
BRANCH   9  11
ATOM     11  C   UNL     1      30.071 -50.953  -8.787  1.00  0.00     0.234 C 
BRANCH  11  12
ATOM     12  O   UNL     1      31.031 -51.892  -9.185  1.00  0.00    -0.388 OA
ATOM     13  H   UNL     1      31.451 -52.237  -8.354  1.00  0.00     0.211 HD
ENDBRANCH  11  12
ENDBRANCH   9  11
ENDBRANCH   8   9
BRANCH   8  14
ATOM     14  O   UNL     1      29.222 -50.953 -11.479  1.00  0.00    -0.382 OA
ATOM     15  H   UNL     1      28.715 -50.520 -12.213  1.00  0.00     0.211 HD
ENDBRANCH   8  14
ENDBRANCH   1   8
BRANCH   1  16
ATOM     16  O   UNL     1      28.909 -53.904 -10.136  1.00  0.00    -0.387 OA
ATOM     17  H   UNL     1      28.284 -54.344  -9.503  1.00  0.00     0.211 HD
ENDBRANCH   1  16
TORSDOF 10
ENDMDL
MODEL 7
REMARK VINA RESULT:    -4.086      1.194      2.164
REMARK INTER + INTRA:          -6.815
REMARK INTER:                  -5.733
REMARK INTRA:                  -1.082
REMARK UNBOUND:                -0.938
REMARK SMILES O=C(CO)[C@@H](O)[C@@H](O)[C@@H](O)CO
REMARK SMILES IDX 7 1 9 2 11 3 12 4 10 6 5 8 2 9 1 10 3 11 4 12 6 14 8 16
REMARK H PARENT 12 5 10 7 4 13 6 15 8 17
REMARK Flexibility Score: inf
ROOT
ATOM      1  C   UNL     1      26.969 -54.260 -10.280  1.00  0.00     0.181 C 
ENDROOT
BRANCH   1   2
ATOM      2  C   UNL     1      26.520 -52.875 -10.828  1.00  0.00     0.171 C 
BRANCH   2   3
ATOM      3  C   UNL     1      27.042 -51.699  -9.977  1.00  0.00     0.190 C 
BRANCH   3   4
ATOM      4  O   UNL     1      28.402 -51.457 -10.223  1.00  0.00    -0.394 OA
ATOM      5  H   UNL     1      28.775 -52.287 -10.621  1.00  0.00     0.210 HD
ENDBRANCH   3   4
ENDBRANCH   2   3
BRANCH   2   6
ATOM      6  O   UNL     1      25.122 -52.798 -10.950  1.00  0.00    -0.388 OA
ATOM      7  H   UNL     1      24.903 -51.926 -11.371  1.00  0.00     0.211 HD
ENDBRANCH   2   6
ENDBRANCH   1   2
BRANCH   1   8
ATOM      8  C   UNL     1      27.755 -55.081 -11.341  1.00  0.00     0.214 C 
BRANCH   8   9
ATOM      9  C   UNL     1      29.255 -54.914 -11.193  1.00  0.00     0.189 C 
ATOM     10  O   UNL     1      29.754 -53.814 -11.382  1.00  0.00    -0.294 OA
BRANCH   9  11
ATOM     11  C   UNL     1      30.155 -56.067 -10.832  1.00  0.00     0.234 C 
BRANCH  11  12
ATOM     12  O   UNL     1      30.087 -57.059 -11.819  1.00  0.00    -0.388 OA
ATOM     13  H   UNL     1      30.995 -57.456 -11.884  1.00  0.00     0.211 HD
ENDBRANCH  11  12
ENDBRANCH   9  11
ENDBRANCH   8   9
BRANCH   8  14
ATOM     14  O   UNL     1      27.416 -56.446 -11.309  1.00  0.00    -0.382 OA
ATOM     15  H   UNL     1      26.559 -56.538 -10.818  1.00  0.00     0.211 HD
ENDBRANCH   8  14
ENDBRANCH   1   8
BRANCH   1  16
ATOM     16  O   UNL     1      27.751 -54.096  -9.120  1.00  0.00    -0.387 OA
ATOM     17  H   UNL     1      27.443 -53.269  -8.665  1.00  0.00     0.211 HD
ENDBRANCH   1  16
TORSDOF 10
ENDMDL
MODEL 8
REMARK VINA RESULT:    -4.054      1.665      2.751
REMARK INTER + INTRA:          -6.769
REMARK INTER:                  -5.689
REMARK INTRA:                  -1.080
REMARK UNBOUND:                -0.938
REMARK SMILES O=C(CO)[C@@H](O)[C@@H](O)[C@@H](O)CO
REMARK SMILES IDX 7 1 9 2 11 3 12 4 10 6 5 8 2 9 1 10 3 11 4 12 6 14 8 16
REMARK H PARENT 12 5 10 7 4 13 6 15 8 17
REMARK Flexibility Score: inf
ROOT
ATOM      1  C   UNL     1      27.702 -54.889 -10.597  1.00  0.00     0.181 C 
ENDROOT
BRANCH   1   2
ATOM      2  C   UNL     1      28.634 -53.645 -10.545  1.00  0.00     0.171 C 
BRANCH   2   3
ATOM      3  C   UNL     1      27.927 -52.393  -9.989  1.00  0.00     0.190 C 
BRANCH   3   4
ATOM      4  O   UNL     1      27.957 -52.372  -8.586  1.00  0.00    -0.394 OA
ATOM      5  H   UNL     1      27.797 -53.304  -8.281  1.00  0.00     0.210 HD
ENDBRANCH   3   4
ENDBRANCH   2   3
BRANCH   2   6
ATOM      6  O   UNL     1      29.190 -53.365 -11.806  1.00  0.00    -0.388 OA
ATOM      7  H   UNL     1      28.794 -54.001 -12.458  1.00  0.00     0.211 HD
ENDBRANCH   2   6
ENDBRANCH   1   2
BRANCH   1   8
ATOM      8  C   UNL     1      28.505 -56.218 -10.690  1.00  0.00     0.214 C 
BRANCH   8   9
ATOM      9  C   UNL     1      28.378 -56.865 -12.055  1.00  0.00     0.189 C 
ATOM     10  O   UNL     1      27.281 -57.251 -12.432  1.00  0.00    -0.294 OA
BRANCH   9  11
ATOM     11  C   UNL     1      29.566 -57.061 -12.960  1.00  0.00     0.234 C 
BRANCH  11  12
ATOM     12  O   UNL     1      30.251 -55.850 -13.126  1.00  0.00    -0.388 OA
ATOM     13  H   UNL     1      30.829 -55.959 -13.926  1.00  0.00     0.211 HD
ENDBRANCH  11  12
ENDBRANCH   9  11
ENDBRANCH   8   9
BRANCH   8  14
ATOM     14  O   UNL     1      29.862 -56.037 -10.366  1.00  0.00    -0.382 OA
ATOM     15  H   UNL     1      30.040 -56.508  -9.512  1.00  0.00     0.211 HD
ENDBRANCH   8  14
ENDBRANCH   1   8
BRANCH   1  16
ATOM     16  O   UNL     1      26.857 -54.914  -9.471  1.00  0.00    -0.387 OA
ATOM     17  H   UNL     1      27.430 -54.823  -8.665  1.00  0.00     0.211 HD
ENDBRANCH   1  16
TORSDOF 10
ENDMDL
MODEL 9
REMARK VINA RESULT:    -3.998      1.202      4.672
REMARK INTER + INTRA:          -6.689
REMARK INTER:                  -6.049
REMARK INTRA:                  -0.640
REMARK UNBOUND:                -0.938
REMARK SMILES O=C(CO)[C@@H](O)[C@@H](O)[C@@H](O)CO
REMARK SMILES IDX 7 1 9 2 11 3 12 4 10 6 5 8 2 9 1 10 3 11 4 12 6 14 8 16
REMARK H PARENT 12 5 10 7 4 13 6 15 8 17
REMARK Flexibility Score: inf
ROOT
ATOM      1  C   UNL     1      27.852 -54.710  -9.919  1.00  0.00     0.181 C 
ENDROOT
BRANCH   1   2
ATOM      2  C   UNL     1      28.208 -55.787 -10.983  1.00  0.00     0.171 C 
BRANCH   2   3
ATOM      3  C   UNL     1      29.643 -55.639 -11.526  1.00  0.00     0.190 C 
BRANCH   3   4
ATOM      4  O   UNL     1      30.581 -55.598 -10.483  1.00  0.00    -0.394 OA
ATOM      5  H   UNL     1      31.257 -56.300 -10.675  1.00  0.00     0.210 HD
ENDBRANCH   3   4
ENDBRANCH   2   3
BRANCH   2   6
ATOM      6  O   UNL     1      27.287 -55.785 -12.045  1.00  0.00    -0.388 OA
ATOM      7  H   UNL     1      27.083 -56.731 -12.270  1.00  0.00     0.211 HD
ENDBRANCH   2   6
ENDBRANCH   1   2
BRANCH   1   8
ATOM      8  C   UNL     1      27.956 -53.267 -10.492  1.00  0.00     0.214 C 
BRANCH   8   9
ATOM      9  C   UNL     1      26.603 -52.588 -10.572  1.00  0.00     0.189 C 
ATOM     10  O   UNL     1      25.727 -53.084 -11.267  1.00  0.00    -0.294 OA
BRANCH   9  11
ATOM     11  C   UNL     1      26.304 -51.312  -9.830  1.00  0.00     0.234 C 
BRANCH  11  12
ATOM     12  O   UNL     1      25.013 -51.360  -9.288  1.00  0.00    -0.388 OA
ATOM     13  H   UNL     1      24.877 -52.288  -8.963  1.00  0.00     0.211 HD
ENDBRANCH  11  12
ENDBRANCH   9  11
ENDBRANCH   8   9
BRANCH   8  14
ATOM     14  O   UNL     1      28.852 -52.471  -9.756  1.00  0.00    -0.382 OA
ATOM     15  H   UNL     1      28.583 -52.507  -8.802  1.00  0.00     0.211 HD
ENDBRANCH   8  14
ENDBRANCH   1   8
BRANCH   1  16
ATOM     16  O   UNL     1      26.560 -54.935  -9.409  1.00  0.00    -0.387 OA
ATOM     17  H   UNL     1      26.203 -54.061  -9.099  1.00  0.00     0.211 HD
ENDBRANCH   1  16
TORSDOF 10
ENDMDL
