MODEL 1
REMARK VINA RESULT:    -4.291      0.000      0.000
REMARK INTER + INTRA:          -6.483
REMARK INTER:                  -5.797
REMARK INTRA:                  -0.686
REMARK UNBOUND:                -0.686
REMARK SMILES CCCCCCC=CC(=O)[O-]
REMARK SMILES IDX 5 1 6 2 7 3 8 4 9 5 10 6 11 7 4 8 3 9 2 10 1 11
REMARK H PARENT
REMARK Flexibility Score: inf
ROOT
ATOM      1  C   UNL     1       6.712  45.842  22.985  1.00  0.00     0.004 C 
ENDROOT
BRANCH   1   2
ATOM      2  C   UNL     1       8.144  45.399  23.314  1.00  0.00     0.027 C 
BRANCH   2   3
ATOM      3  C   UNL     1       8.506  45.735  24.736  1.00  0.00    -0.025 C 
ATOM      4  C   UNL     1       9.174  46.828  25.142  1.00  0.00     0.020 C 
BRANCH   4   5
ATOM      5  C   UNL     1       9.722  47.899  24.282  1.00  0.00     0.064 C 
ATOM      6  O   UNL     1      10.830  47.787  23.699  1.00  0.00    -0.545 OA
ATOM      7  O   UNL     1       9.000  49.075  24.136  1.00  0.00    -0.545 OA
ENDBRANCH   4   5
ENDBRANCH   2   3
ENDBRANCH   1   2
BRANCH   1   8
ATOM      8  C   UNL     1       5.729  44.669  23.125  1.00  0.00     0.000 C 
BRANCH   8   9
ATOM      9  C   UNL     1       4.655  44.921  24.195  1.00  0.00    -0.000 C 
BRANCH   9  10
ATOM     10  C   UNL     1       4.770  46.314  24.831  1.00  0.00    -0.003 C 
ATOM     11  C   UNL     1       5.103  46.214  26.316  1.00  0.00     0.004 C 
ENDBRANCH   9  10
ENDBRANCH   8   9
ENDBRANCH   1   8
TORSDOF 6
ENDMDL
MODEL 2
REMARK VINA RESULT:    -4.287      5.588      6.650
REMARK INTER + INTRA:          -6.477
REMARK INTER:                  -5.602
REMARK INTRA:                  -0.875
REMARK UNBOUND:                -0.686
REMARK SMILES CCCCCCC=CC(=O)[O-]
REMARK SMILES IDX 5 1 6 2 7 3 8 4 9 5 10 6 11 7 4 8 3 9 2 10 1 11
REMARK H PARENT
REMARK Flexibility Score: inf
ROOT
ATOM      1  C   UNL     1       7.616  51.452  20.621  1.00  0.00     0.004 C 
ENDROOT
BRANCH   1   2
ATOM      2  C   UNL     1       8.541  50.272  20.948  1.00  0.00     0.027 C 
BRANCH   2   3
ATOM      3  C   UNL     1       9.768  50.283  20.077  1.00  0.00    -0.025 C 
ATOM      4  C   UNL     1      10.370  49.203  19.550  1.00  0.00     0.020 C 
BRANCH   4   5
ATOM      5  C   UNL     1       9.979  47.791  19.744  1.00  0.00     0.064 C 
ATOM      6  O   UNL     1       9.288  47.166  18.899  1.00  0.00    -0.545 OA
ATOM      7  O   UNL     1      10.368  47.142  20.908  1.00  0.00    -0.545 OA
ENDBRANCH   4   5
ENDBRANCH   2   3
ENDBRANCH   1   2
BRANCH   1   8
ATOM      8  C   UNL     1       6.889  51.225  19.286  1.00  0.00     0.000 C 
BRANCH   8   9
ATOM      9  C   UNL     1       6.223  49.843  19.203  1.00  0.00    -0.000 C 
BRANCH   9  10
ATOM     10  C   UNL     1       6.529  49.117  17.885  1.00  0.00    -0.003 C 
ATOM     11  C   UNL     1       7.621  49.838  17.101  1.00  0.00     0.004 C 
ENDBRANCH   9  10
ENDBRANCH   8   9
ENDBRANCH   1   8
TORSDOF 6
ENDMDL
MODEL 3
REMARK VINA RESULT:    -4.257      5.094      6.241
REMARK INTER + INTRA:          -6.437
REMARK INTER:                  -5.679
REMARK INTRA:                  -0.757
REMARK UNBOUND:                -0.686
REMARK SMILES CCCCCCC=CC(=O)[O-]
REMARK SMILES IDX 5 1 6 2 7 3 8 4 9 5 10 6 11 7 4 8 3 9 2 10 1 11
REMARK H PARENT
REMARK Flexibility Score: inf
ROOT
ATOM      1  C   UNL     1       8.564  49.920  18.868  1.00  0.00     0.004 C 
ENDROOT
BRANCH   1   2
ATOM      2  C   UNL     1       9.391  50.206  20.129  1.00  0.00     0.027 C 
BRANCH   2   3
ATOM      3  C   UNL     1       8.764  51.296  20.956  1.00  0.00    -0.025 C 
ATOM      4  C   UNL     1       8.284  51.161  22.204  1.00  0.00     0.020 C 
BRANCH   4   5
ATOM      5  C   UNL     1       8.235  49.918  23.002  1.00  0.00     0.064 C 
ATOM      6  O   UNL     1       7.206  49.198  23.057  1.00  0.00    -0.545 OA
ATOM      7  O   UNL     1       9.355  49.547  23.735  1.00  0.00    -0.545 OA
ENDBRANCH   4   5
ENDBRANCH   2   3
ENDBRANCH   1   2
BRANCH   1   8
ATOM      8  C   UNL     1       7.262  49.184  19.221  1.00  0.00     0.000 C 
BRANCH   8   9
ATOM      9  C   UNL     1       6.010  50.025  18.930  1.00  0.00    -0.000 C 
BRANCH   9  10
ATOM     10  C   UNL     1       6.333  51.335  18.198  1.00  0.00    -0.003 C 
ATOM     11  C   UNL     1       5.891  52.545  19.015  1.00  0.00     0.004 C 
ENDBRANCH   9  10
ENDBRANCH   8   9
ENDBRANCH   1   8
TORSDOF 6
ENDMDL
MODEL 4
REMARK VINA RESULT:    -4.232      5.371      6.566
REMARK INTER + INTRA:          -6.402
REMARK INTER:                  -5.637
REMARK INTRA:                  -0.765
REMARK UNBOUND:                -0.686
REMARK SMILES CCCCCCC=CC(=O)[O-]
REMARK SMILES IDX 5 1 6 2 7 3 8 4 9 5 10 6 11 7 4 8 3 9 2 10 1 11
REMARK H PARENT
REMARK Flexibility Score: inf
ROOT
ATOM      1  C   UNL     1       7.241  50.407  17.742  1.00  0.00     0.004 C 
ENDROOT
BRANCH   1   2
ATOM      2  C   UNL     1       6.844  50.029  19.176  1.00  0.00     0.027 C 
BRANCH   2   3
ATOM      3  C   UNL     1       7.347  51.045  20.166  1.00  0.00    -0.025 C 
ATOM      4  C   UNL     1       8.573  51.069  20.717  1.00  0.00     0.020 C 
BRANCH   4   5
ATOM      5  C   UNL     1       9.660  50.092  20.497  1.00  0.00     0.064 C 
ATOM      6  O   UNL     1       9.968  49.229  21.358  1.00  0.00    -0.545 OA
ATOM      7  O   UNL     1      10.379  50.146  19.311  1.00  0.00    -0.545 OA
ENDBRANCH   4   5
ENDBRANCH   2   3
ENDBRANCH   1   2
BRANCH   1   8
ATOM      8  C   UNL     1       7.709  49.171  16.959  1.00  0.00     0.000 C 
BRANCH   8   9
ATOM      9  C   UNL     1       7.412  47.856  17.696  1.00  0.00    -0.000 C 
BRANCH   9  10
ATOM     10  C   UNL     1       8.681  47.049  18.003  1.00  0.00    -0.003 C 
ATOM     11  C   UNL     1       8.674  46.539  19.440  1.00  0.00     0.004 C 
ENDBRANCH   9  10
ENDBRANCH   8   9
ENDBRANCH   1   8
TORSDOF 6
ENDMDL
MODEL 5
REMARK VINA RESULT:    -4.225      5.232      6.376
REMARK INTER + INTRA:          -6.393
REMARK INTER:                  -5.592
REMARK INTRA:                  -0.802
REMARK UNBOUND:                -0.686
REMARK SMILES CCCCCCC=CC(=O)[O-]
REMARK SMILES IDX 5 1 6 2 7 3 8 4 9 5 10 6 11 7 4 8 3 9 2 10 1 11
REMARK H PARENT
REMARK Flexibility Score: inf
ROOT
ATOM      1  C   UNL     1       7.828  50.364  19.543  1.00  0.00     0.004 C 
ENDROOT
BRANCH   1   2
ATOM      2  C   UNL     1       9.140  50.355  20.338  1.00  0.00     0.027 C 
BRANCH   2   3
ATOM      3  C   UNL     1      10.283  49.852  19.498  1.00  0.00    -0.025 C 
ATOM      4  C   UNL     1      10.970  48.714  19.700  1.00  0.00     0.020 C 
BRANCH   4   5
ATOM      5  C   UNL     1      10.773  47.748  20.801  1.00  0.00     0.064 C 
ATOM      6  O   UNL     1      10.000  46.762  20.696  1.00  0.00    -0.545 OA
ATOM      7  O   UNL     1      11.445  47.951  21.999  1.00  0.00    -0.545 OA
ENDBRANCH   4   5
ENDBRANCH   2   3
ENDBRANCH   1   2
BRANCH   1   8
ATOM      8  C   UNL     1       7.278  48.939  19.376  1.00  0.00     0.000 C 
BRANCH   8   9
ATOM      9  C   UNL     1       7.424  48.414  17.939  1.00  0.00    -0.000 C 
BRANCH   9  10
ATOM     10  C   UNL     1       8.058  47.017  17.881  1.00  0.00    -0.003 C 
ATOM     11  C   UNL     1       9.225  46.984  16.899  1.00  0.00     0.004 C 
ENDBRANCH   9  10
ENDBRANCH   8   9
ENDBRANCH   1   8
TORSDOF 6
ENDMDL
MODEL 6
REMARK VINA RESULT:    -4.219      2.136      3.935
REMARK INTER + INTRA:          -6.384
REMARK INTER:                  -5.566
REMARK INTRA:                  -0.818
REMARK UNBOUND:                -0.686
REMARK SMILES CCCCCCC=CC(=O)[O-]
REMARK SMILES IDX 5 1 6 2 7 3 8 4 9 5 10 6 11 7 4 8 3 9 2 10 1 11
REMARK H PARENT
REMARK Flexibility Score: inf
ROOT
ATOM      1  C   UNL     1       5.758  46.591  23.061  1.00  0.00     0.004 C 
ENDROOT
BRANCH   1   2
ATOM      2  C   UNL     1       4.578  46.754  24.029  1.00  0.00     0.027 C 
BRANCH   2   3
ATOM      3  C   UNL     1       4.791  45.958  25.288  1.00  0.00    -0.025 C 
ATOM      4  C   UNL     1       5.179  46.451  26.476  1.00  0.00     0.020 C 
BRANCH   4   5
ATOM      5  C   UNL     1       5.511  47.859  26.783  1.00  0.00     0.064 C 
ATOM      6  O   UNL     1       6.643  48.348  26.536  1.00  0.00    -0.545 OA
ATOM      7  O   UNL     1       4.550  48.658  27.387  1.00  0.00    -0.545 OA
ENDBRANCH   4   5
ENDBRANCH   2   3
ENDBRANCH   1   2
BRANCH   1   8
ATOM      8  C   UNL     1       6.216  45.126  22.998  1.00  0.00     0.000 C 
BRANCH   8   9
ATOM      9  C   UNL     1       7.746  44.984  22.983  1.00  0.00    -0.000 C 
BRANCH   9  10
ATOM     10  C   UNL     1       8.456  46.170  23.650  1.00  0.00    -0.003 C 
ATOM     11  C   UNL     1       8.750  45.881  25.118  1.00  0.00     0.004 C 
ENDBRANCH   9  10
ENDBRANCH   8   9
ENDBRANCH   1   8
TORSDOF 6
ENDMDL
MODEL 7
REMARK VINA RESULT:    -4.176      1.942      2.492
REMARK INTER + INTRA:          -6.327
REMARK INTER:                  -5.451
REMARK INTRA:                  -0.876
REMARK UNBOUND:                -0.686
REMARK SMILES CCCCCCC=CC(=O)[O-]
REMARK SMILES IDX 5 1 6 2 7 3 8 4 9 5 10 6 11 7 4 8 3 9 2 10 1 11
REMARK H PARENT
REMARK Flexibility Score: inf
ROOT
ATOM      1  C   UNL     1       6.853  46.149  24.152  1.00  0.00     0.004 C 
ENDROOT
BRANCH   1   2
ATOM      2  C   UNL     1       8.365  45.900  24.073  1.00  0.00     0.027 C 
BRANCH   2   3
ATOM      3  C   UNL     1       9.077  46.486  25.263  1.00  0.00    -0.025 C 
ATOM      4  C   UNL     1       9.893  47.554  25.246  1.00  0.00     0.020 C 
BRANCH   4   5
ATOM      5  C   UNL     1      10.289  48.345  24.062  1.00  0.00     0.064 C 
ATOM      6  O   UNL     1       9.622  49.335  23.665  1.00  0.00    -0.545 OA
ATOM      7  O   UNL     1      11.419  47.966  23.350  1.00  0.00    -0.545 OA
ENDBRANCH   4   5
ENDBRANCH   2   3
ENDBRANCH   1   2
BRANCH   1   8
ATOM      8  C   UNL     1       6.498  47.545  23.616  1.00  0.00     0.000 C 
BRANCH   8   9
ATOM      9  C   UNL     1       5.712  48.387  24.633  1.00  0.00    -0.000 C 
BRANCH   9  10
ATOM     10  C   UNL     1       6.443  49.679  25.023  1.00  0.00    -0.003 C 
ATOM     11  C   UNL     1       7.025  49.578  26.430  1.00  0.00     0.004 C 
ENDBRANCH   9  10
ENDBRANCH   8   9
ENDBRANCH   1   8
TORSDOF 6
ENDMDL
MODEL 8
REMARK VINA RESULT:    -4.174      1.862      3.534
REMARK INTER + INTRA:          -6.324
REMARK INTER:                  -5.502
REMARK INTRA:                  -0.821
REMARK UNBOUND:                -0.686
REMARK SMILES CCCCCCC=CC(=O)[O-]
REMARK SMILES IDX 5 1 6 2 7 3 8 4 9 5 10 6 11 7 4 8 3 9 2 10 1 11
REMARK H PARENT
REMARK Flexibility Score: inf
ROOT
ATOM      1  C   UNL     1       7.060  45.024  22.623  1.00  0.00     0.004 C 
ENDROOT
BRANCH   1   2
ATOM      2  C   UNL     1       7.162  45.882  23.891  1.00  0.00     0.027 C 
BRANCH   2   3
ATOM      3  C   UNL     1       8.531  45.784  24.507  1.00  0.00    -0.025 C 
ATOM      4  C   UNL     1       9.215  46.791  25.075  1.00  0.00     0.020 C 
BRANCH   4   5
ATOM      5  C   UNL     1       8.785  48.202  25.179  1.00  0.00     0.064 C 
ATOM      6  O   UNL     1       9.043  49.047  24.284  1.00  0.00    -0.545 OA
ATOM      7  O   UNL     1       8.096  48.612  26.312  1.00  0.00    -0.545 OA
ENDBRANCH   4   5
ENDBRANCH   2   3
ENDBRANCH   1   2
BRANCH   1   8
ATOM      8  C   UNL     1       8.408  44.973  21.886  1.00  0.00     0.000 C 
BRANCH   8   9
ATOM      9  C   UNL     1       8.417  45.830  20.609  1.00  0.00    -0.000 C 
BRANCH   9  10
ATOM     10  C   UNL     1       8.937  47.253  20.855  1.00  0.00    -0.003 C 
ATOM     11  C   UNL     1      10.321  47.229  21.496  1.00  0.00     0.004 C 
ENDBRANCH   9  10
ENDBRANCH   8   9
ENDBRANCH   1   8
TORSDOF 6
ENDMDL
MODEL 9
REMARK VINA RESULT:    -4.165      6.212      6.977
REMARK INTER + INTRA:          -6.312
REMARK INTER:                  -5.444
REMARK INTRA:                  -0.868
REMARK UNBOUND:                -0.686
REMARK SMILES CCCCCCC=CC(=O)[O-]
REMARK SMILES IDX 5 1 6 2 7 3 8 4 9 5 10 6 11 7 4 8 3 9 2 10 1 11
REMARK H PARENT
REMARK Flexibility Score: inf
ROOT
ATOM      1  C   UNL     1       9.950  50.168  19.613  1.00  0.00     0.004 C 
ENDROOT
BRANCH   1   2
ATOM      2  C   UNL     1      10.561  48.768  19.465  1.00  0.00     0.027 C 
BRANCH   2   3
ATOM      3  C   UNL     1       9.517  47.697  19.628  1.00  0.00    -0.025 C 
ATOM      4  C   UNL     1       8.846  47.091  18.634  1.00  0.00     0.020 C 
BRANCH   4   5
ATOM      5  C   UNL     1       8.964  47.375  17.188  1.00  0.00     0.064 C 
ATOM      6  O   UNL     1       9.898  46.907  16.488  1.00  0.00    -0.545 OA
ATOM      7  O   UNL     1       8.026  48.206  16.589  1.00  0.00    -0.545 OA
ENDBRANCH   4   5
ENDBRANCH   2   3
ENDBRANCH   1   2
BRANCH   1   8
ATOM      8  C   UNL     1       9.156  50.283  20.924  1.00  0.00     0.000 C 
BRANCH   8   9
ATOM      9  C   UNL     1       7.764  50.902  20.721  1.00  0.00    -0.000 C 
BRANCH   9  10
ATOM     10  C   UNL     1       7.250  50.743  19.284  1.00  0.00    -0.003 C 
ATOM     11  C   UNL     1       6.136  49.704  19.211  1.00  0.00     0.004 C 
ENDBRANCH   9  10
ENDBRANCH   8   9
ENDBRANCH   1   8
TORSDOF 6
ENDMDL
