MODEL 1
REMARK VINA RESULT:    -3.220      0.000      0.000
REMARK INTER + INTRA:          -5.222
REMARK INTER:                  -4.349
REMARK INTRA:                  -0.873
REMARK UNBOUND:                -0.873
REMARK SMILES CCCCCCC=CC(=O)[O-]
REMARK SMILES IDX 5 1 6 2 7 3 8 4 9 5 10 6 11 7 4 8 3 9 2 10 1 11
REMARK H PARENT
REMARK Flexibility Score: inf
ROOT
ATOM      1  C   UNL     1      40.523 185.129 172.546  1.00  0.00     0.004 C 
ENDROOT
BRANCH   1   2
ATOM      2  C   UNL     1      39.016 185.418 172.439  1.00  0.00     0.027 C 
BRANCH   2   3
ATOM      3  C   UNL     1      38.211 184.150 172.521  1.00  0.00    -0.025 C 
ATOM      4  C   UNL     1      37.820 183.394 171.482  1.00  0.00     0.020 C 
BRANCH   4   5
ATOM      5  C   UNL     1      38.072 183.666 170.050  1.00  0.00     0.064 C 
ATOM      6  O   UNL     1      39.148 183.264 169.536  1.00  0.00    -0.545 OA
ATOM      7  O   UNL     1      37.156 184.332 169.247  1.00  0.00    -0.545 OA
ENDBRANCH   4   5
ENDBRANCH   2   3
ENDBRANCH   1   2
BRANCH   1   8
ATOM      8  C   UNL     1      40.898 184.413 173.854  1.00  0.00     0.000 C 
BRANCH   8   9
ATOM      9  C   UNL     1      41.529 183.031 173.611  1.00  0.00    -0.000 C 
BRANCH   9  10
ATOM     10  C   UNL     1      41.592 182.666 172.121  1.00  0.00    -0.003 C 
ATOM     11  C   UNL     1      41.022 181.277 171.826  1.00  0.00     0.004 C 
ENDBRANCH   9  10
ENDBRANCH   8   9
ENDBRANCH   1   8
TORSDOF 6
ENDMDL
MODEL 2
REMARK VINA RESULT:    -3.212     21.554     23.051
REMARK INTER + INTRA:          -5.212
REMARK INTER:                  -4.495
REMARK INTRA:                  -0.717
REMARK UNBOUND:                -0.873
REMARK SMILES CCCCCCC=CC(=O)[O-]
REMARK SMILES IDX 5 1 6 2 7 3 8 4 9 5 10 6 11 7 4 8 3 9 2 10 1 11
REMARK H PARENT
REMARK Flexibility Score: inf
ROOT
ATOM      1  C   UNL     1      34.259 168.609 155.368  1.00  0.00     0.004 C 
ENDROOT
BRANCH   1   2
ATOM      2  C   UNL     1      34.233 168.257 156.865  1.00  0.00     0.027 C 
BRANCH   2   3
ATOM      3  C   UNL     1      33.396 167.034 157.123  1.00  0.00    -0.025 C 
ATOM      4  C   UNL     1      32.508 166.880 158.119  1.00  0.00     0.020 C 
BRANCH   4   5
ATOM      5  C   UNL     1      32.192 167.864 159.177  1.00  0.00     0.064 C 
ATOM      6  O   UNL     1      31.564 168.909 158.868  1.00  0.00    -0.545 OA
ATOM      7  O   UNL     1      32.546 167.665 160.506  1.00  0.00    -0.545 OA
ENDBRANCH   4   5
ENDBRANCH   2   3
ENDBRANCH   1   2
BRANCH   1   8
ATOM      8  C   UNL     1      33.075 169.494 154.947  1.00  0.00     0.000 C 
BRANCH   8   9
ATOM      9  C   UNL     1      32.190 168.827 153.879  1.00  0.00    -0.000 C 
BRANCH   9  10
ATOM     10  C   UNL     1      30.990 168.086 154.487  1.00  0.00    -0.003 C 
ATOM     11  C   UNL     1      30.249 168.917 155.535  1.00  0.00     0.004 C 
ENDBRANCH   9  10
ENDBRANCH   8   9
ENDBRANCH   1   8
TORSDOF 6
ENDMDL
MODEL 3
REMARK VINA RESULT:    -3.142      2.127      3.973
REMARK INTER + INTRA:          -5.118
REMARK INTER:                  -4.352
REMARK INTRA:                  -0.766
REMARK UNBOUND:                -0.873
REMARK SMILES CCCCCCC=CC(=O)[O-]
REMARK SMILES IDX 5 1 6 2 7 3 8 4 9 5 10 6 11 7 4 8 3 9 2 10 1 11
REMARK H PARENT
REMARK Flexibility Score: inf
ROOT
ATOM      1  C   UNL     1      40.141 185.720 172.671  1.00  0.00     0.004 C 
ENDROOT
BRANCH   1   2
ATOM      2  C   UNL     1      41.325 184.740 172.595  1.00  0.00     0.027 C 
BRANCH   2   3
ATOM      3  C   UNL     1      41.223 183.680 173.657  1.00  0.00    -0.025 C 
ATOM      4  C   UNL     1      41.532 182.381 173.509  1.00  0.00     0.020 C 
BRANCH   4   5
ATOM      5  C   UNL     1      42.006 181.724 172.272  1.00  0.00     0.064 C 
ATOM      6  O   UNL     1      41.160 181.213 171.494  1.00  0.00    -0.545 OA
ATOM      7  O   UNL     1      43.351 181.669 171.928  1.00  0.00    -0.545 OA
ENDBRANCH   4   5
ENDBRANCH   2   3
ENDBRANCH   1   2
BRANCH   1   8
ATOM      8  C   UNL     1      38.818 185.024 173.025  1.00  0.00     0.000 C 
BRANCH   8   9
ATOM      9  C   UNL     1      37.959 184.720 171.784  1.00  0.00    -0.000 C 
BRANCH   9  10
ATOM     10  C   UNL     1      38.235 183.325 171.205  1.00  0.00    -0.003 C 
ATOM     11  C   UNL     1      39.041 183.371 169.906  1.00  0.00     0.004 C 
ENDBRANCH   9  10
ENDBRANCH   8   9
ENDBRANCH   1   8
TORSDOF 6
ENDMDL
MODEL 4
REMARK VINA RESULT:    -3.098     21.265     22.743
REMARK INTER + INTRA:          -5.059
REMARK INTER:                  -4.561
REMARK INTRA:                  -0.498
REMARK UNBOUND:                -0.873
REMARK SMILES CCCCCCC=CC(=O)[O-]
REMARK SMILES IDX 5 1 6 2 7 3 8 4 9 5 10 6 11 7 4 8 3 9 2 10 1 11
REMARK H PARENT
REMARK Flexibility Score: inf
ROOT
ATOM      1  C   UNL     1      34.018 168.152 156.453  1.00  0.00     0.004 C 
ENDROOT
BRANCH   1   2
ATOM      2  C   UNL     1      32.669 167.723 157.054  1.00  0.00     0.027 C 
BRANCH   2   3
ATOM      3  C   UNL     1      31.927 168.901 157.625  1.00  0.00    -0.025 C 
ATOM      4  C   UNL     1      31.431 168.994 158.869  1.00  0.00     0.020 C 
BRANCH   4   5
ATOM      5  C   UNL     1      31.485 167.955 159.920  1.00  0.00     0.064 C 
ATOM      6  O   UNL     1      30.452 167.277 160.157  1.00  0.00    -0.545 OA
ATOM      7  O   UNL     1      32.641 167.685 160.640  1.00  0.00    -0.545 OA
ENDBRANCH   4   5
ENDBRANCH   2   3
ENDBRANCH   1   2
BRANCH   1   8
ATOM      8  C   UNL     1      33.860 169.155 155.299  1.00  0.00     0.000 C 
BRANCH   8   9
ATOM      9  C   UNL     1      32.775 168.732 154.293  1.00  0.00    -0.000 C 
BRANCH   9  10
ATOM     10  C   UNL     1      31.871 169.901 153.875  1.00  0.00    -0.003 C 
ATOM     11  C   UNL     1      30.414 169.703 154.295  1.00  0.00     0.004 C 
ENDBRANCH   9  10
ENDBRANCH   8   9
ENDBRANCH   1   8
TORSDOF 6
ENDMDL
MODEL 5
REMARK VINA RESULT:    -3.024      1.485      2.040
REMARK INTER + INTRA:          -4.958
REMARK INTER:                  -4.486
REMARK INTRA:                  -0.471
REMARK UNBOUND:                -0.873
REMARK SMILES CCCCCCC=CC(=O)[O-]
REMARK SMILES IDX 5 1 6 2 7 3 8 4 9 5 10 6 11 7 4 8 3 9 2 10 1 11
REMARK H PARENT
REMARK Flexibility Score: inf
ROOT
ATOM      1  C   UNL     1      39.947 182.982 171.075  1.00  0.00     0.004 C 
ENDROOT
BRANCH   1   2
ATOM      2  C   UNL     1      38.629 182.975 171.868  1.00  0.00     0.027 C 
BRANCH   2   3
ATOM      3  C   UNL     1      37.976 184.330 171.852  1.00  0.00    -0.025 C 
ATOM      4  C   UNL     1      37.042 184.746 170.981  1.00  0.00     0.020 C 
BRANCH   4   5
ATOM      5  C   UNL     1      36.488 183.975 169.848  1.00  0.00     0.064 C 
ATOM      6  O   UNL     1      35.523 183.194 170.059  1.00  0.00    -0.545 OA
ATOM      7  O   UNL     1      36.979 184.096 168.555  1.00  0.00    -0.545 OA
ENDBRANCH   4   5
ENDBRANCH   2   3
ENDBRANCH   1   2
BRANCH   1   8
ATOM      8  C   UNL     1      41.046 183.810 171.760  1.00  0.00     0.000 C 
BRANCH   8   9
ATOM      9  C   UNL     1      41.666 183.086 172.968  1.00  0.00    -0.000 C 
BRANCH   9  10
ATOM     10  C   UNL     1      42.031 181.627 172.656  1.00  0.00    -0.003 C 
ATOM     11  C   UNL     1      43.379 181.492 171.948  1.00  0.00     0.004 C 
ENDBRANCH   9  10
ENDBRANCH   8   9
ENDBRANCH   1   8
TORSDOF 6
ENDMDL
MODEL 6
REMARK VINA RESULT:    -2.999     21.745     23.320
REMARK INTER + INTRA:          -4.924
REMARK INTER:                  -4.412
REMARK INTRA:                  -0.512
REMARK UNBOUND:                -0.873
REMARK SMILES CCCCCCC=CC(=O)[O-]
REMARK SMILES IDX 5 1 6 2 7 3 8 4 9 5 10 6 11 7 4 8 3 9 2 10 1 11
REMARK H PARENT
REMARK Flexibility Score: inf
ROOT
ATOM      1  C   UNL     1      33.801 169.117 155.323  1.00  0.00     0.004 C 
ENDROOT
BRANCH   1   2
ATOM      2  C   UNL     1      32.760 168.790 154.239  1.00  0.00     0.027 C 
BRANCH   2   3
ATOM      3  C   UNL     1      31.951 170.005 153.876  1.00  0.00    -0.025 C 
ATOM      4  C   UNL     1      30.645 170.190 154.131  1.00  0.00     0.020 C 
BRANCH   4   5
ATOM      5  C   UNL     1      29.732 169.231 154.790  1.00  0.00     0.064 C 
ATOM      6  O   UNL     1      29.256 169.523 155.918  1.00  0.00    -0.545 OA
ATOM      7  O   UNL     1      29.364 168.029 154.200  1.00  0.00    -0.545 OA
ENDBRANCH   4   5
ENDBRANCH   2   3
ENDBRANCH   1   2
BRANCH   1   8
ATOM      8  C   UNL     1      34.075 167.929 156.259  1.00  0.00     0.000 C 
BRANCH   8   9
ATOM      9  C   UNL     1      33.046 167.824 157.398  1.00  0.00    -0.000 C 
BRANCH   9  10
ATOM     10  C   UNL     1      32.303 169.146 157.644  1.00  0.00    -0.003 C 
ATOM     11  C   UNL     1      31.283 169.050 158.779  1.00  0.00     0.004 C 
ENDBRANCH   9  10
ENDBRANCH   8   9
ENDBRANCH   1   8
TORSDOF 6
ENDMDL
MODEL 7
REMARK VINA RESULT:    -2.943     22.202     23.204
REMARK INTER + INTRA:          -4.849
REMARK INTER:                  -3.952
REMARK INTRA:                  -0.897
REMARK UNBOUND:                -0.873
REMARK SMILES CCCCCCC=CC(=O)[O-]
REMARK SMILES IDX 5 1 6 2 7 3 8 4 9 5 10 6 11 7 4 8 3 9 2 10 1 11
REMARK H PARENT
REMARK Flexibility Score: inf
ROOT
ATOM      1  C   UNL     1      33.499 167.338 156.760  1.00  0.00     0.004 C 
ENDROOT
BRANCH   1   2
ATOM      2  C   UNL     1      32.691 167.399 158.068  1.00  0.00     0.027 C 
BRANCH   2   3
ATOM      3  C   UNL     1      31.881 168.664 158.150  1.00  0.00    -0.025 C 
ATOM      4  C   UNL     1      30.584 168.794 157.826  1.00  0.00     0.020 C 
BRANCH   4   5
ATOM      5  C   UNL     1      29.698 167.735 157.298  1.00  0.00     0.064 C 
ATOM      6  O   UNL     1      28.838 167.224 158.063  1.00  0.00    -0.545 OA
ATOM      7  O   UNL     1      29.764 167.297 155.982  1.00  0.00    -0.545 OA
ENDBRANCH   4   5
ENDBRANCH   2   3
ENDBRANCH   1   2
BRANCH   1   8
ATOM      8  C   UNL     1      34.227 168.656 156.452  1.00  0.00     0.000 C 
BRANCH   8   9
ATOM      9  C   UNL     1      34.011 169.126 155.003  1.00  0.00    -0.000 C 
BRANCH   9  10
ATOM     10  C   UNL     1      32.618 168.763 154.467  1.00  0.00    -0.003 C 
ATOM     11  C   UNL     1      31.667 169.959 154.429  1.00  0.00     0.004 C 
ENDBRANCH   9  10
ENDBRANCH   8   9
ENDBRANCH   1   8
TORSDOF 6
ENDMDL
MODEL 8
REMARK VINA RESULT:    -2.886     21.088     22.507
REMARK INTER + INTRA:          -4.772
REMARK INTER:                  -4.308
REMARK INTRA:                  -0.464
REMARK UNBOUND:                -0.873
REMARK SMILES CCCCCCC=CC(=O)[O-]
REMARK SMILES IDX 5 1 6 2 7 3 8 4 9 5 10 6 11 7 4 8 3 9 2 10 1 11
REMARK H PARENT
REMARK Flexibility Score: inf
ROOT
ATOM      1  C   UNL     1      33.594 167.031 157.144  1.00  0.00     0.004 C 
ENDROOT
BRANCH   1   2
ATOM      2  C   UNL     1      32.273 167.466 157.801  1.00  0.00     0.027 C 
BRANCH   2   3
ATOM      3  C   UNL     1      32.403 167.528 159.298  1.00  0.00    -0.025 C 
ATOM      4  C   UNL     1      31.505 168.052 160.148  1.00  0.00     0.020 C 
BRANCH   4   5
ATOM      5  C   UNL     1      30.225 168.700 159.788  1.00  0.00     0.064 C 
ATOM      6  O   UNL     1      30.175 169.956 159.730  1.00  0.00    -0.545 OA
ATOM      7  O   UNL     1      29.081 167.971 159.491  1.00  0.00    -0.545 OA
ENDBRANCH   4   5
ENDBRANCH   2   3
ENDBRANCH   1   2
BRANCH   1   8
ATOM      8  C   UNL     1      34.253 168.160 156.335  1.00  0.00     0.000 C 
BRANCH   8   9
ATOM      9  C   UNL     1      33.256 169.263 155.940  1.00  0.00    -0.000 C 
BRANCH   9  10
ATOM     10  C   UNL     1      33.077 169.379 154.419  1.00  0.00    -0.003 C 
ATOM     11  C   UNL     1      31.994 168.446 153.877  1.00  0.00     0.004 C 
ENDBRANCH   9  10
ENDBRANCH   8   9
ENDBRANCH   1   8
TORSDOF 6
ENDMDL
