MODEL 1
REMARK VINA RESULT:    -4.609      0.000      0.000
REMARK INTER + INTRA:         -13.083
REMARK INTER:                 -10.536
REMARK INTRA:                  -2.547
REMARK UNBOUND:                -2.547
REMARK SMILES CCCCCCCCCCCCCCCCCCCCCCCC(=O)[O-]
REMARK SMILES IDX 13 1 14 2 15 3 16 4 17 5 18 6 19 7 20 8 21 9 22 10 23 11
REMARK SMILES IDX 24 12 25 13 26 14 12 15 11 16 10 17 9 18 8 19 7 20 6 21 5 22
REMARK SMILES IDX 4 23 3 24 2 25 1 26
REMARK H PARENT
REMARK Flexibility Score: inf
ROOT
ATOM      1  C   UNL     1     166.313 160.878 183.717  1.00  0.00     0.000 C 
ENDROOT
BRANCH   1   2
ATOM      2  C   UNL     1     167.728 160.291 183.587  1.00  0.00     0.000 C 
BRANCH   2   3
ATOM      3  C   UNL     1     168.233 160.300 182.136  1.00  0.00     0.000 C 
BRANCH   3   4
ATOM      4  C   UNL     1     169.764 160.402 182.083  1.00  0.00     0.000 C 
BRANCH   4   5
ATOM      5  C   UNL     1     170.267 161.856 182.098  1.00  0.00     0.000 C 
BRANCH   5   6
ATOM      6  C   UNL     1     171.797 162.017 182.178  1.00  0.00     0.000 C 
BRANCH   6   7
ATOM      7  C   UNL     1     172.590 160.699 182.270  1.00  0.00     0.000 C 
BRANCH   7   8
ATOM      8  C   UNL     1     173.640 160.646 183.395  1.00  0.00     0.000 C 
BRANCH   8   9
ATOM      9  C   UNL     1     175.001 160.113 182.914  1.00  0.00     0.000 C 
BRANCH   9  10
ATOM     10  C   UNL     1     176.081 161.210 182.870  1.00  0.00     0.006 C 
BRANCH  10  11
ATOM     11  C   UNL     1     175.855 162.267 181.777  1.00  0.00     0.053 C 
BRANCH  11  12
ATOM     12  C   UNL     1     175.613 161.643 180.437  1.00  0.00     0.041 C 
ATOM     13  O   UNL     1     174.572 161.922 179.785  1.00  0.00    -0.550 OA
ATOM     14  O   UNL     1     176.549 160.767 179.900  1.00  0.00    -0.550 OA
ENDBRANCH  11  12
ENDBRANCH  10  11
ENDBRANCH   9  10
ENDBRANCH   8   9
ENDBRANCH   7   8
ENDBRANCH   6   7
ENDBRANCH   5   6
ENDBRANCH   4   5
ENDBRANCH   3   4
ENDBRANCH   2   3
ENDBRANCH   1   2
BRANCH   1  15
ATOM     15  C   UNL     1     165.218 159.881 183.299  1.00  0.00     0.000 C 
BRANCH  15  16
ATOM     16  C   UNL     1     163.943 160.582 182.798  1.00  0.00     0.000 C 
BRANCH  16  17
ATOM     17  C   UNL     1     164.235 161.627 181.707  1.00  0.00     0.000 C 
BRANCH  17  18
ATOM     18  C   UNL     1     163.985 163.071 182.196  1.00  0.00    -0.000 C 
BRANCH  18  19
ATOM     19  C   UNL     1     162.800 163.188 183.169  1.00  0.00    -0.000 C 
BRANCH  19  20
ATOM     20  C   UNL     1     161.541 163.765 182.497  1.00  0.00    -0.000 C 
BRANCH  20  21
ATOM     21  C   UNL     1     160.277 162.945 182.797  1.00  0.00    -0.000 C 
BRANCH  21  22
ATOM     22  C   UNL     1     160.576 161.631 183.540  1.00  0.00    -0.000 C 
BRANCH  22  23
ATOM     23  C   UNL     1     160.150 160.397 182.725  1.00  0.00    -0.000 C 
BRANCH  23  24
ATOM     24  C   UNL     1     159.893 160.738 181.247  1.00  0.00    -0.000 C 
BRANCH  24  25
ATOM     25  C   UNL     1     161.104 160.425 180.354  1.00  0.00    -0.003 C 
ATOM     26  C   UNL     1     161.308 161.468 179.253  1.00  0.00     0.004 C 
ENDBRANCH  24  25
ENDBRANCH  23  24
ENDBRANCH  22  23
ENDBRANCH  21  22
ENDBRANCH  20  21
ENDBRANCH  19  20
ENDBRANCH  18  19
ENDBRANCH  17  18
ENDBRANCH  16  17
ENDBRANCH  15  16
ENDBRANCH   1  15
TORSDOF 22
ENDMDL
MODEL 2
REMARK VINA RESULT:    -4.515      4.362      9.196
REMARK INTER + INTRA:         -12.869
REMARK INTER:                  -8.455
REMARK INTRA:                  -4.414
REMARK UNBOUND:                -2.547
REMARK SMILES CCCCCCCCCCCCCCCCCCCCCCCC(=O)[O-]
REMARK SMILES IDX 13 1 14 2 15 3 16 4 17 5 18 6 19 7 20 8 21 9 22 10 23 11
REMARK SMILES IDX 24 12 25 13 26 14 12 15 11 16 10 17 9 18 8 19 7 20 6 21 5 22
REMARK SMILES IDX 4 23 3 24 2 25 1 26
REMARK H PARENT
REMARK Flexibility Score: inf
ROOT
ATOM      1  C   UNL     1     164.121 162.149 182.464  1.00  0.00     0.000 C 
ENDROOT
BRANCH   1   2
ATOM      2  C   UNL     1     163.088 162.887 183.331  1.00  0.00     0.000 C 
BRANCH   2   3
ATOM      3  C   UNL     1     162.029 163.613 182.488  1.00  0.00     0.000 C 
BRANCH   3   4
ATOM      4  C   UNL     1     160.617 163.106 182.813  1.00  0.00     0.000 C 
BRANCH   4   5
ATOM      5  C   UNL     1     160.624 161.793 183.618  1.00  0.00     0.000 C 
BRANCH   5   6
ATOM      6  C   UNL     1     160.254 160.533 182.813  1.00  0.00     0.000 C 
BRANCH   6   7
ATOM      7  C   UNL     1     159.900 160.781 181.333  1.00  0.00     0.000 C 
BRANCH   7   8
ATOM      8  C   UNL     1     161.005 160.414 180.327  1.00  0.00     0.000 C 
BRANCH   8   9
ATOM      9  C   UNL     1     161.183 161.473 179.225  1.00  0.00     0.000 C 
BRANCH   9  10
ATOM     10  C   UNL     1     162.613 162.042 179.179  1.00  0.00     0.006 C 
BRANCH  10  11
ATOM     11  C   UNL     1     163.653 161.073 178.596  1.00  0.00     0.053 C 
BRANCH  11  12
ATOM     12  C   UNL     1     164.055 161.454 177.204  1.00  0.00     0.041 C 
ATOM     13  O   UNL     1     165.132 162.077 177.002  1.00  0.00    -0.550 OA
ATOM     14  O   UNL     1     163.248 161.106 176.128  1.00  0.00    -0.550 OA
ENDBRANCH  11  12
ENDBRANCH  10  11
ENDBRANCH   9  10
ENDBRANCH   8   9
ENDBRANCH   7   8
ENDBRANCH   6   7
ENDBRANCH   5   6
ENDBRANCH   4   5
ENDBRANCH   3   4
ENDBRANCH   2   3
ENDBRANCH   1   2
BRANCH   1  15
ATOM     15  C   UNL     1     164.002 160.620 182.573  1.00  0.00     0.000 C 
BRANCH  15  16
ATOM     16  C   UNL     1     165.253 159.973 183.191  1.00  0.00     0.000 C 
BRANCH  16  17
ATOM     17  C   UNL     1     166.346 161.005 183.523  1.00  0.00     0.000 C 
BRANCH  17  18
ATOM     18  C   UNL     1     167.744 160.359 183.647  1.00  0.00    -0.000 C 
BRANCH  18  19
ATOM     19  C   UNL     1     168.744 160.864 182.593  1.00  0.00    -0.000 C 
BRANCH  19  20
ATOM     20  C   UNL     1     168.470 160.282 181.196  1.00  0.00    -0.000 C 
BRANCH  20  21
ATOM     21  C   UNL     1     168.453 161.355 180.096  1.00  0.00    -0.000 C 
BRANCH  21  22
ATOM     22  C   UNL     1     167.052 161.944 179.854  1.00  0.00    -0.000 C 
BRANCH  22  23
ATOM     23  C   UNL     1     166.909 163.356 180.449  1.00  0.00    -0.000 C 
BRANCH  23  24
ATOM     24  C   UNL     1     165.655 164.080 179.930  1.00  0.00    -0.000 C 
BRANCH  24  25
ATOM     25  C   UNL     1     165.349 165.363 180.719  1.00  0.00    -0.003 C 
ATOM     26  C   UNL     1     165.911 165.326 182.142  1.00  0.00     0.004 C 
ENDBRANCH  24  25
ENDBRANCH  23  24
ENDBRANCH  22  23
ENDBRANCH  21  22
ENDBRANCH  20  21
ENDBRANCH  19  20
ENDBRANCH  18  19
ENDBRANCH  17  18
ENDBRANCH  16  17
ENDBRANCH  15  16
ENDBRANCH   1  15
TORSDOF 22
ENDMDL
MODEL 3
REMARK VINA RESULT:    -4.488      6.401     10.907
REMARK INTER + INTRA:         -12.808
REMARK INTER:                  -9.834
REMARK INTRA:                  -2.974
REMARK UNBOUND:                -2.547
REMARK SMILES CCCCCCCCCCCCCCCCCCCCCCCC(=O)[O-]
REMARK SMILES IDX 13 1 14 2 15 3 16 4 17 5 18 6 19 7 20 8 21 9 22 10 23 11
REMARK SMILES IDX 24 12 25 13 26 14 12 15 11 16 10 17 9 18 8 19 7 20 6 21 5 22
REMARK SMILES IDX 4 23 3 24 2 25 1 26
REMARK H PARENT
REMARK Flexibility Score: inf
ROOT
ATOM      1  C   UNL     1     162.136 162.097 179.211  1.00  0.00     0.000 C 
ENDROOT
BRANCH   1   2
ATOM      2  C   UNL     1     160.954 163.079 179.210  1.00  0.00     0.000 C 
BRANCH   2   3
ATOM      3  C   UNL     1     161.389 164.519 179.522  1.00  0.00     0.000 C 
BRANCH   3   4
ATOM      4  C   UNL     1     162.560 164.542 180.514  1.00  0.00     0.000 C 
BRANCH   4   5
ATOM      5  C   UNL     1     162.164 165.103 181.891  1.00  0.00     0.000 C 
BRANCH   5   6
ATOM      6  C   UNL     1     160.664 165.407 182.065  1.00  0.00     0.000 C 
BRANCH   6   7
ATOM      7  C   UNL     1     160.308 166.902 182.192  1.00  0.00     0.000 C 
BRANCH   7   8
ATOM      8  C   UNL     1     161.417 167.789 182.785  1.00  0.00     0.000 C 
BRANCH   8   9
ATOM      9  C   UNL     1     160.886 168.789 183.826  1.00  0.00     0.000 C 
BRANCH   9  10
ATOM     10  C   UNL     1     160.358 170.086 183.184  1.00  0.00     0.006 C 
BRANCH  10  11
ATOM     11  C   UNL     1     161.451 170.953 182.540  1.00  0.00     0.053 C 
BRANCH  11  12
ATOM     12  C   UNL     1     161.500 172.326 183.138  1.00  0.00     0.041 C 
ATOM     13  O   UNL     1     162.385 172.618 183.986  1.00  0.00    -0.550 OA
ATOM     14  O   UNL     1     160.579 173.288 182.744  1.00  0.00    -0.550 OA
ENDBRANCH  11  12
ENDBRANCH  10  11
ENDBRANCH   9  10
ENDBRANCH   8   9
ENDBRANCH   7   8
ENDBRANCH   6   7
ENDBRANCH   5   6
ENDBRANCH   4   5
ENDBRANCH   3   4
ENDBRANCH   2   3
ENDBRANCH   1   2
BRANCH   1  15
ATOM     15  C   UNL     1     161.772 160.733 179.823  1.00  0.00     0.000 C 
BRANCH  15  16
ATOM     16  C   UNL     1     160.288 160.640 180.216  1.00  0.00     0.000 C 
BRANCH  16  17
ATOM     17  C   UNL     1     160.088 160.489 181.734  1.00  0.00     0.000 C 
BRANCH  17  18
ATOM     18  C   UNL     1     160.169 161.843 182.474  1.00  0.00    -0.000 C 
BRANCH  18  19
ATOM     19  C   UNL     1     161.247 161.875 183.570  1.00  0.00    -0.000 C 
BRANCH  19  20
ATOM     20  C   UNL     1     162.483 161.035 183.205  1.00  0.00    -0.000 C 
BRANCH  20  21
ATOM     21  C   UNL     1     163.695 161.895 182.816  1.00  0.00    -0.000 C 
BRANCH  21  22
ATOM     22  C   UNL     1     164.900 161.060 182.351  1.00  0.00    -0.000 C 
BRANCH  22  23
ATOM     23  C   UNL     1     165.403 160.108 183.450  1.00  0.00    -0.000 C 
BRANCH  23  24
ATOM     24  C   UNL     1     166.906 160.283 183.728  1.00  0.00    -0.000 C 
BRANCH  24  25
ATOM     25  C   UNL     1     167.355 161.749 183.621  1.00  0.00    -0.003 C 
ATOM     26  C   UNL     1     167.284 162.485 184.961  1.00  0.00     0.004 C 
ENDBRANCH  24  25
ENDBRANCH  23  24
ENDBRANCH  22  23
ENDBRANCH  21  22
ENDBRANCH  20  21
ENDBRANCH  19  20
ENDBRANCH  18  19
ENDBRANCH  17  18
ENDBRANCH  16  17
ENDBRANCH  15  16
ENDBRANCH   1  15
TORSDOF 22
ENDMDL
MODEL 4
REMARK VINA RESULT:    -4.448      4.549      6.018
REMARK INTER + INTRA:         -12.716
REMARK INTER:                  -8.612
REMARK INTRA:                  -4.105
REMARK UNBOUND:                -2.547
REMARK SMILES CCCCCCCCCCCCCCCCCCCCCCCC(=O)[O-]
REMARK SMILES IDX 13 1 14 2 15 3 16 4 17 5 18 6 19 7 20 8 21 9 22 10 23 11
REMARK SMILES IDX 24 12 25 13 26 14 12 15 11 16 10 17 9 18 8 19 7 20 6 21 5 22
REMARK SMILES IDX 4 23 3 24 2 25 1 26
REMARK H PARENT
REMARK Flexibility Score: inf
ROOT
ATOM      1  C   UNL     1     166.305 160.148 182.394  1.00  0.00     0.000 C 
ENDROOT
BRANCH   1   2
ATOM      2  C   UNL     1     166.757 160.450 183.832  1.00  0.00     0.000 C 
BRANCH   2   3
ATOM      3  C   UNL     1     167.494 161.793 183.944  1.00  0.00     0.000 C 
BRANCH   3   4
ATOM      4  C   UNL     1     168.231 162.132 182.641  1.00  0.00     0.000 C 
BRANCH   4   5
ATOM      5  C   UNL     1     167.891 163.538 182.112  1.00  0.00     0.000 C 
BRANCH   5   6
ATOM      6  C   UNL     1     166.848 163.574 180.979  1.00  0.00     0.000 C 
BRANCH   6   7
ATOM      7  C   UNL     1     167.069 162.546 179.851  1.00  0.00     0.000 C 
BRANCH   7   8
ATOM      8  C   UNL     1     165.799 162.129 179.090  1.00  0.00     0.000 C 
BRANCH   8   9
ATOM      9  C   UNL     1     165.742 160.617 178.811  1.00  0.00     0.000 C 
BRANCH   9  10
ATOM     10  C   UNL     1     165.418 160.300 177.339  1.00  0.00     0.006 C 
BRANCH  10  11
ATOM     11  C   UNL     1     166.591 160.544 176.375  1.00  0.00     0.053 C 
BRANCH  11  12
ATOM     12  C   UNL     1     166.141 160.592 174.947  1.00  0.00     0.041 C 
ATOM     13  O   UNL     1     166.960 160.370 174.016  1.00  0.00    -0.550 OA
ATOM     14  O   UNL     1     164.812 160.865 174.647  1.00  0.00    -0.550 OA
ENDBRANCH  11  12
ENDBRANCH  10  11
ENDBRANCH   9  10
ENDBRANCH   8   9
ENDBRANCH   7   8
ENDBRANCH   6   7
ENDBRANCH   5   6
ENDBRANCH   4   5
ENDBRANCH   3   4
ENDBRANCH   2   3
ENDBRANCH   1   2
BRANCH   1  15
ATOM     15  C   UNL     1     164.782 159.969 182.277  1.00  0.00     0.000 C 
BRANCH  15  16
ATOM     16  C   UNL     1     164.004 160.947 183.174  1.00  0.00     0.000 C 
BRANCH  16  17
ATOM     17  C   UNL     1     163.899 162.354 182.559  1.00  0.00     0.000 C 
BRANCH  17  18
ATOM     18  C   UNL     1     162.886 163.248 183.308  1.00  0.00    -0.000 C 
BRANCH  18  19
ATOM     19  C   UNL     1     161.860 163.917 182.379  1.00  0.00    -0.000 C 
BRANCH  19  20
ATOM     20  C   UNL     1     160.486 163.226 182.423  1.00  0.00    -0.000 C 
BRANCH  20  21
ATOM     21  C   UNL     1     160.468 161.993 183.337  1.00  0.00    -0.000 C 
BRANCH  21  22
ATOM     22  C   UNL     1     160.291 160.674 182.564  1.00  0.00    -0.000 C 
BRANCH  22  23
ATOM     23  C   UNL     1     160.141 160.908 181.051  1.00  0.00    -0.000 C 
BRANCH  23  24
ATOM     24  C   UNL     1     161.311 160.307 180.252  1.00  0.00    -0.000 C 
BRANCH  24  25
ATOM     25  C   UNL     1     162.179 161.385 179.582  1.00  0.00    -0.003 C 
ATOM     26  C   UNL     1     161.387 162.252 178.602  1.00  0.00     0.004 C 
ENDBRANCH  24  25
ENDBRANCH  23  24
ENDBRANCH  22  23
ENDBRANCH  21  22
ENDBRANCH  20  21
ENDBRANCH  19  20
ENDBRANCH  18  19
ENDBRANCH  17  18
ENDBRANCH  16  17
ENDBRANCH  15  16
ENDBRANCH   1  15
TORSDOF 22
ENDMDL
MODEL 5
REMARK VINA RESULT:    -4.433      3.625      5.699
REMARK INTER + INTRA:         -12.682
REMARK INTER:                  -8.294
REMARK INTRA:                  -4.389
REMARK UNBOUND:                -2.547
REMARK SMILES CCCCCCCCCCCCCCCCCCCCCCCC(=O)[O-]
REMARK SMILES IDX 13 1 14 2 15 3 16 4 17 5 18 6 19 7 20 8 21 9 22 10 23 11
REMARK SMILES IDX 24 12 25 13 26 14 12 15 11 16 10 17 9 18 8 19 7 20 6 21 5 22
REMARK SMILES IDX 4 23 3 24 2 25 1 26
REMARK H PARENT
REMARK Flexibility Score: inf
ROOT
ATOM      1  C   UNL     1     163.294 165.220 181.367  1.00  0.00     0.000 C 
ENDROOT
BRANCH   1   2
ATOM      2  C   UNL     1     164.411 164.425 182.062  1.00  0.00     0.000 C 
BRANCH   2   3
ATOM      3  C   UNL     1     164.307 162.916 181.800  1.00  0.00     0.000 C 
BRANCH   3   4
ATOM      4  C   UNL     1     164.136 162.135 183.111  1.00  0.00     0.000 C 
BRANCH   4   5
ATOM      5  C   UNL     1     164.034 160.615 182.892  1.00  0.00     0.000 C 
BRANCH   5   6
ATOM      6  C   UNL     1     165.384 159.875 182.816  1.00  0.00     0.000 C 
BRANCH   6   7
ATOM      7  C   UNL     1     166.358 160.169 183.974  1.00  0.00     0.000 C 
BRANCH   7   8
ATOM      8  C   UNL     1     167.752 160.661 183.545  1.00  0.00     0.000 C 
BRANCH   8   9
ATOM      9  C   UNL     1     167.955 160.621 182.021  1.00  0.00     0.000 C 
BRANCH   9  10
ATOM     10  C   UNL     1     167.821 162.010 181.371  1.00  0.00     0.006 C 
BRANCH  10  11
ATOM     11  C   UNL     1     168.056 163.179 182.340  1.00  0.00     0.053 C 
BRANCH  11  12
ATOM     12  C   UNL     1     169.409 163.796 182.156  1.00  0.00     0.041 C 
ATOM     13  O   UNL     1     169.546 164.821 181.435  1.00  0.00    -0.550 OA
ATOM     14  O   UNL     1     170.514 163.249 182.795  1.00  0.00    -0.550 OA
ENDBRANCH  11  12
ENDBRANCH  10  11
ENDBRANCH   9  10
ENDBRANCH   8   9
ENDBRANCH   7   8
ENDBRANCH   6   7
ENDBRANCH   5   6
ENDBRANCH   4   5
ENDBRANCH   3   4
ENDBRANCH   2   3
ENDBRANCH   1   2
BRANCH   1  15
ATOM     15  C   UNL     1     161.963 165.167 182.137  1.00  0.00     0.000 C 
BRANCH  15  16
ATOM     16  C   UNL     1     160.830 164.530 181.314  1.00  0.00     0.000 C 
BRANCH  16  17
ATOM     17  C   UNL     1     159.895 163.662 182.175  1.00  0.00     0.000 C 
BRANCH  17  18
ATOM     18  C   UNL     1     160.672 162.677 183.076  1.00  0.00    -0.000 C 
BRANCH  18  19
ATOM     19  C   UNL     1     160.286 161.207 182.847  1.00  0.00    -0.000 C 
BRANCH  19  20
ATOM     20  C   UNL     1     160.121 160.866 181.355  1.00  0.00    -0.000 C 
BRANCH  20  21
ATOM     21  C   UNL     1     161.463 160.778 180.612  1.00  0.00    -0.000 C 
BRANCH  21  22
ATOM     22  C   UNL     1     161.456 161.531 179.270  1.00  0.00    -0.000 C 
BRANCH  22  23
ATOM     23  C   UNL     1     162.877 161.742 178.719  1.00  0.00    -0.000 C 
BRANCH  23  24
ATOM     24  C   UNL     1     163.673 160.428 178.649  1.00  0.00    -0.000 C 
BRANCH  24  25
ATOM     25  C   UNL     1     165.111 160.584 179.171  1.00  0.00    -0.003 C 
ATOM     26  C   UNL     1     165.996 161.394 178.222  1.00  0.00     0.004 C 
ENDBRANCH  24  25
ENDBRANCH  23  24
ENDBRANCH  22  23
ENDBRANCH  21  22
ENDBRANCH  20  21
ENDBRANCH  19  20
ENDBRANCH  18  19
ENDBRANCH  17  18
ENDBRANCH  16  17
ENDBRANCH  15  16
ENDBRANCH   1  15
TORSDOF 22
ENDMDL
MODEL 6
REMARK VINA RESULT:    -4.416      4.822      9.507
REMARK INTER + INTRA:         -12.643
REMARK INTER:                  -7.806
REMARK INTRA:                  -4.838
REMARK UNBOUND:                -2.547
REMARK SMILES CCCCCCCCCCCCCCCCCCCCCCCC(=O)[O-]
REMARK SMILES IDX 13 1 14 2 15 3 16 4 17 5 18 6 19 7 20 8 21 9 22 10 23 11
REMARK SMILES IDX 24 12 25 13 26 14 12 15 11 16 10 17 9 18 8 19 7 20 6 21 5 22
REMARK SMILES IDX 4 23 3 24 2 25 1 26
REMARK H PARENT
REMARK Flexibility Score: inf
ROOT
ATOM      1  C   UNL     1     164.862 161.803 180.922  1.00  0.00     0.000 C 
ENDROOT
BRANCH   1   2
ATOM      2  C   UNL     1     164.131 160.618 181.574  1.00  0.00     0.000 C 
BRANCH   2   3
ATOM      3  C   UNL     1     163.585 160.962 182.968  1.00  0.00     0.000 C 
BRANCH   3   4
ATOM      4  C   UNL     1     163.136 162.428 183.042  1.00  0.00     0.000 C 
BRANCH   4   5
ATOM      5  C   UNL     1     161.673 162.582 183.496  1.00  0.00     0.000 C 
BRANCH   5   6
ATOM      6  C   UNL     1     160.808 161.315 183.350  1.00  0.00     0.000 C 
BRANCH   6   7
ATOM      7  C   UNL     1     159.925 161.267 182.088  1.00  0.00     0.000 C 
BRANCH   7   8
ATOM      8  C   UNL     1     160.447 160.359 180.960  1.00  0.00     0.000 C 
BRANCH   8   9
ATOM      9  C   UNL     1     160.609 161.104 179.624  1.00  0.00     0.000 C 
BRANCH   9  10
ATOM     10  C   UNL     1     161.290 162.474 179.790  1.00  0.00     0.006 C 
BRANCH  10  11
ATOM     11  C   UNL     1     162.146 162.897 178.586  1.00  0.00     0.053 C 
BRANCH  11  12
ATOM     12  C   UNL     1     162.709 164.275 178.756  1.00  0.00     0.041 C 
ATOM     13  O   UNL     1     162.919 165.003 177.749  1.00  0.00    -0.550 OA
ATOM     14  O   UNL     1     162.985 164.761 180.028  1.00  0.00    -0.550 OA
ENDBRANCH  11  12
ENDBRANCH  10  11
ENDBRANCH   9  10
ENDBRANCH   8   9
ENDBRANCH   7   8
ENDBRANCH   6   7
ENDBRANCH   5   6
ENDBRANCH   4   5
ENDBRANCH   3   4
ENDBRANCH   2   3
ENDBRANCH   1   2
BRANCH   1  15
ATOM     15  C   UNL     1     166.213 161.400 180.308  1.00  0.00     0.000 C 
BRANCH  15  16
ATOM     16  C   UNL     1     166.841 160.184 181.011  1.00  0.00     0.000 C 
BRANCH  16  17
ATOM     17  C   UNL     1     168.354 160.351 181.237  1.00  0.00     0.000 C 
BRANCH  17  18
ATOM     18  C   UNL     1     168.700 160.626 182.717  1.00  0.00    -0.000 C 
BRANCH  18  19
ATOM     19  C   UNL     1     167.567 160.250 183.687  1.00  0.00    -0.000 C 
BRANCH  19  20
ATOM     20  C   UNL     1     166.888 161.484 184.306  1.00  0.00    -0.000 C 
BRANCH  20  21
ATOM     21  C   UNL     1     167.654 162.787 184.034  1.00  0.00    -0.000 C 
BRANCH  21  22
ATOM     22  C   UNL     1     166.754 163.910 183.490  1.00  0.00    -0.000 C 
BRANCH  22  23
ATOM     23  C   UNL     1     167.255 164.448 182.138  1.00  0.00    -0.000 C 
BRANCH  23  24
ATOM     24  C   UNL     1     168.791 164.444 182.045  1.00  0.00    -0.000 C 
BRANCH  24  25
ATOM     25  C   UNL     1     169.297 163.836 180.727  1.00  0.00    -0.003 C 
ATOM     26  C   UNL     1     168.444 164.245 179.525  1.00  0.00     0.004 C 
ENDBRANCH  24  25
ENDBRANCH  23  24
ENDBRANCH  22  23
ENDBRANCH  21  22
ENDBRANCH  20  21
ENDBRANCH  19  20
ENDBRANCH  18  19
ENDBRANCH  17  18
ENDBRANCH  16  17
ENDBRANCH  15  16
ENDBRANCH   1  15
TORSDOF 22
ENDMDL
MODEL 7
REMARK VINA RESULT:    -4.413      4.459      6.489
REMARK INTER + INTRA:         -12.636
REMARK INTER:                  -8.199
REMARK INTRA:                  -4.437
REMARK UNBOUND:                -2.547
REMARK SMILES CCCCCCCCCCCCCCCCCCCCCCCC(=O)[O-]
REMARK SMILES IDX 13 1 14 2 15 3 16 4 17 5 18 6 19 7 20 8 21 9 22 10 23 11
REMARK SMILES IDX 24 12 25 13 26 14 12 15 11 16 10 17 9 18 8 19 7 20 6 21 5 22
REMARK SMILES IDX 4 23 3 24 2 25 1 26
REMARK H PARENT
REMARK Flexibility Score: inf
ROOT
ATOM      1  C   UNL     1     164.251 162.088 182.555  1.00  0.00     0.000 C 
ENDROOT
BRANCH   1   2
ATOM      2  C   UNL     1     164.068 160.585 182.826  1.00  0.00     0.000 C 
BRANCH   2   3
ATOM      3  C   UNL     1     165.370 159.909 183.278  1.00  0.00     0.000 C 
BRANCH   3   4
ATOM      4  C   UNL     1     166.412 160.947 183.716  1.00  0.00     0.000 C 
BRANCH   4   5
ATOM      5  C   UNL     1     167.833 160.611 183.228  1.00  0.00     0.000 C 
BRANCH   5   6
ATOM      6  C   UNL     1     167.958 160.352 181.714  1.00  0.00     0.000 C 
BRANCH   6   7
ATOM      7  C   UNL     1     167.903 161.612 180.827  1.00  0.00     0.000 C 
BRANCH   7   8
ATOM      8  C   UNL     1     166.681 161.702 179.896  1.00  0.00     0.000 C 
BRANCH   8   9
ATOM      9  C   UNL     1     166.024 160.335 179.642  1.00  0.00     0.000 C 
BRANCH   9  10
ATOM     10  C   UNL     1     164.930 160.399 178.559  1.00  0.00     0.006 C 
BRANCH  10  11
ATOM     11  C   UNL     1     165.208 161.425 177.450  1.00  0.00     0.053 C 
BRANCH  11  12
ATOM     12  C   UNL     1     165.683 160.771 176.188  1.00  0.00     0.041 C 
ATOM     13  O   UNL     1     164.932 160.722 175.177  1.00  0.00    -0.550 OA
ATOM     14  O   UNL     1     166.961 160.232 176.125  1.00  0.00    -0.550 OA
ENDBRANCH  11  12
ENDBRANCH  10  11
ENDBRANCH   9  10
ENDBRANCH   8   9
ENDBRANCH   7   8
ENDBRANCH   6   7
ENDBRANCH   5   6
ENDBRANCH   4   5
ENDBRANCH   3   4
ENDBRANCH   2   3
ENDBRANCH   1   2
BRANCH   1  15
ATOM     15  C   UNL     1     163.206 162.952 183.281  1.00  0.00     0.000 C 
BRANCH  15  16
ATOM     16  C   UNL     1     161.895 162.192 183.547  1.00  0.00     0.000 C 
BRANCH  16  17
ATOM     17  C   UNL     1     160.665 162.920 182.976  1.00  0.00     0.000 C 
BRANCH  17  18
ATOM     18  C   UNL     1     160.033 162.161 181.788  1.00  0.00    -0.000 C 
BRANCH  18  19
ATOM     19  C   UNL     1     160.575 160.732 181.621  1.00  0.00    -0.000 C 
BRANCH  19  20
ATOM     20  C   UNL     1     161.102 160.464 180.201  1.00  0.00    -0.000 C 
BRANCH  20  21
ATOM     21  C   UNL     1     160.550 161.453 179.163  1.00  0.00    -0.000 C 
BRANCH  21  22
ATOM     22  C   UNL     1     161.573 161.810 178.070  1.00  0.00    -0.000 C 
BRANCH  22  23
ATOM     23  C   UNL     1     162.089 163.253 178.211  1.00  0.00    -0.000 C 
BRANCH  23  24
ATOM     24  C   UNL     1     162.779 163.492 179.565  1.00  0.00    -0.000 C 
BRANCH  24  25
ATOM     25  C   UNL     1     163.425 164.884 179.656  1.00  0.00    -0.003 C 
ATOM     26  C   UNL     1     162.857 165.723 180.802  1.00  0.00     0.004 C 
ENDBRANCH  24  25
ENDBRANCH  23  24
ENDBRANCH  22  23
ENDBRANCH  21  22
ENDBRANCH  20  21
ENDBRANCH  19  20
ENDBRANCH  18  19
ENDBRANCH  17  18
ENDBRANCH  16  17
ENDBRANCH  15  16
ENDBRANCH   1  15
TORSDOF 22
ENDMDL
MODEL 8
REMARK VINA RESULT:    -4.403      4.628      6.110
REMARK INTER + INTRA:         -12.613
REMARK INTER:                  -7.972
REMARK INTRA:                  -4.642
REMARK UNBOUND:                -2.547
REMARK SMILES CCCCCCCCCCCCCCCCCCCCCCCC(=O)[O-]
REMARK SMILES IDX 13 1 14 2 15 3 16 4 17 5 18 6 19 7 20 8 21 9 22 10 23 11
REMARK SMILES IDX 24 12 25 13 26 14 12 15 11 16 10 17 9 18 8 19 7 20 6 21 5 22
REMARK SMILES IDX 4 23 3 24 2 25 1 26
REMARK H PARENT
REMARK Flexibility Score: inf
ROOT
ATOM      1  C   UNL     1     163.711 164.629 181.489  1.00  0.00     0.000 C 
ENDROOT
BRANCH   1   2
ATOM      2  C   UNL     1     164.206 163.175 181.571  1.00  0.00     0.000 C 
BRANCH   2   3
ATOM      3  C   UNL     1     164.480 162.730 183.015  1.00  0.00     0.000 C 
BRANCH   3   4
ATOM      4  C   UNL     1     165.579 163.586 183.660  1.00  0.00     0.000 C 
BRANCH   4   5
ATOM      5  C   UNL     1     166.764 162.747 184.173  1.00  0.00     0.000 C 
BRANCH   5   6
ATOM      6  C   UNL     1     166.646 161.232 183.924  1.00  0.00     0.000 C 
BRANCH   6   7
ATOM      7  C   UNL     1     167.850 160.590 183.206  1.00  0.00     0.000 C 
BRANCH   7   8
ATOM      8  C   UNL     1     167.645 160.315 181.705  1.00  0.00     0.000 C 
BRANCH   8   9
ATOM      9  C   UNL     1     166.187 159.969 181.358  1.00  0.00     0.000 C 
BRANCH   9  10
ATOM     10  C   UNL     1     165.812 160.372 179.919  1.00  0.00     0.006 C 
BRANCH  10  11
ATOM     11  C   UNL     1     166.904 161.169 179.189  1.00  0.00     0.053 C 
BRANCH  11  12
ATOM     12  C   UNL     1     166.324 162.202 178.271  1.00  0.00     0.041 C 
ATOM     13  O   UNL     1     166.163 163.386 178.669  1.00  0.00    -0.550 OA
ATOM     14  O   UNL     1     165.979 161.858 176.970  1.00  0.00    -0.550 OA
ENDBRANCH  11  12
ENDBRANCH  10  11
ENDBRANCH   9  10
ENDBRANCH   8   9
ENDBRANCH   7   8
ENDBRANCH   6   7
ENDBRANCH   5   6
ENDBRANCH   4   5
ENDBRANCH   3   4
ENDBRANCH   2   3
ENDBRANCH   1   2
BRANCH   1  15
ATOM     15  C   UNL     1     162.369 164.838 182.211  1.00  0.00     0.000 C 
BRANCH  15  16
ATOM     16  C   UNL     1     161.161 164.509 181.317  1.00  0.00     0.000 C 
BRANCH  16  17
ATOM     17  C   UNL     1     160.114 163.641 182.038  1.00  0.00     0.000 C 
BRANCH  17  18
ATOM     18  C   UNL     1     160.689 162.954 183.297  1.00  0.00    -0.000 C 
BRANCH  18  19
ATOM     19  C   UNL     1     160.544 161.423 183.276  1.00  0.00    -0.000 C 
BRANCH  19  20
ATOM     20  C   UNL     1     160.530 160.853 181.847  1.00  0.00    -0.000 C 
BRANCH  20  21
ATOM     21  C   UNL     1     161.940 160.591 181.296  1.00  0.00    -0.000 C 
BRANCH  21  22
ATOM     22  C   UNL     1     162.026 160.746 179.768  1.00  0.00    -0.000 C 
BRANCH  22  23
ATOM     23  C   UNL     1     160.709 161.265 179.165  1.00  0.00    -0.000 C 
BRANCH  23  24
ATOM     24  C   UNL     1     160.923 162.510 178.286  1.00  0.00    -0.000 C 
BRANCH  24  25
ATOM     25  C   UNL     1     162.395 162.699 177.886  1.00  0.00    -0.003 C 
ATOM     26  C   UNL     1     162.828 164.166 177.914  1.00  0.00     0.004 C 
ENDBRANCH  24  25
ENDBRANCH  23  24
ENDBRANCH  22  23
ENDBRANCH  21  22
ENDBRANCH  20  21
ENDBRANCH  19  20
ENDBRANCH  18  19
ENDBRANCH  17  18
ENDBRANCH  16  17
ENDBRANCH  15  16
ENDBRANCH   1  15
TORSDOF 22
ENDMDL
MODEL 9
REMARK VINA RESULT:    -4.364      5.235      9.607
REMARK INTER + INTRA:         -12.523
REMARK INTER:                  -8.046
REMARK INTRA:                  -4.476
REMARK UNBOUND:                -2.547
REMARK SMILES CCCCCCCCCCCCCCCCCCCCCCCC(=O)[O-]
REMARK SMILES IDX 13 1 14 2 15 3 16 4 17 5 18 6 19 7 20 8 21 9 22 10 23 11
REMARK SMILES IDX 24 12 25 13 26 14 12 15 11 16 10 17 9 18 8 19 7 20 6 21 5 22
REMARK SMILES IDX 4 23 3 24 2 25 1 26
REMARK H PARENT
REMARK Flexibility Score: inf
ROOT
ATOM      1  C   UNL     1     164.361 160.531 182.997  1.00  0.00     0.000 C 
ENDROOT
BRANCH   1   2
ATOM      2  C   UNL     1     164.024 162.024 182.851  1.00  0.00     0.000 C 
BRANCH   2   3
ATOM      3  C   UNL     1     162.575 162.340 183.253  1.00  0.00     0.000 C 
BRANCH   3   4
ATOM      4  C   UNL     1     161.712 161.070 183.258  1.00  0.00     0.000 C 
BRANCH   4   5
ATOM      5  C   UNL     1     160.249 161.342 182.866  1.00  0.00     0.000 C 
BRANCH   5   6
ATOM      6  C   UNL     1     159.876 160.947 181.424  1.00  0.00     0.000 C 
BRANCH   6   7
ATOM      7  C   UNL     1     161.026 160.349 180.590  1.00  0.00     0.000 C 
BRANCH   7   8
ATOM      8  C   UNL     1     161.686 161.321 179.596  1.00  0.00     0.000 C 
BRANCH   8   9
ATOM      9  C   UNL     1     160.999 162.696 179.563  1.00  0.00     0.000 C 
BRANCH   9  10
ATOM     10  C   UNL     1     161.952 163.843 179.948  1.00  0.00     0.006 C 
BRANCH  10  11
ATOM     11  C   UNL     1     161.285 165.226 179.983  1.00  0.00     0.053 C 
BRANCH  11  12
ATOM     12  C   UNL     1     160.987 165.669 181.383  1.00  0.00     0.041 C 
ATOM     13  O   UNL     1     159.875 165.400 181.911  1.00  0.00    -0.550 OA
ATOM     14  O   UNL     1     161.946 166.363 182.111  1.00  0.00    -0.550 OA
ENDBRANCH  11  12
ENDBRANCH  10  11
ENDBRANCH   9  10
ENDBRANCH   8   9
ENDBRANCH   7   8
ENDBRANCH   6   7
ENDBRANCH   5   6
ENDBRANCH   4   5
ENDBRANCH   3   4
ENDBRANCH   2   3
ENDBRANCH   1   2
BRANCH   1  15
ATOM     15  C   UNL     1     165.811 160.294 183.452  1.00  0.00     0.000 C 
BRANCH  15  16
ATOM     16  C   UNL     1     166.563 161.606 183.735  1.00  0.00     0.000 C 
BRANCH  16  17
ATOM     17  C   UNL     1     167.999 161.593 183.181  1.00  0.00     0.000 C 
BRANCH  17  18
ATOM     18  C   UNL     1     168.300 160.319 182.360  1.00  0.00    -0.000 C 
BRANCH  18  19
ATOM     19  C   UNL     1     168.830 160.615 180.947  1.00  0.00    -0.000 C 
BRANCH  19  20
ATOM     20  C   UNL     1     167.778 161.295 180.053  1.00  0.00    -0.000 C 
BRANCH  20  21
ATOM     21  C   UNL     1     166.615 160.361 179.685  1.00  0.00    -0.000 C 
BRANCH  21  22
ATOM     22  C   UNL     1     165.267 161.095 179.577  1.00  0.00    -0.000 C 
BRANCH  22  23
ATOM     23  C   UNL     1     165.444 162.622 179.517  1.00  0.00    -0.000 C 
BRANCH  23  24
ATOM     24  C   UNL     1     165.122 163.189 178.123  1.00  0.00    -0.000 C 
BRANCH  24  25
ATOM     25  C   UNL     1     164.347 162.191 177.249  1.00  0.00    -0.003 C 
ATOM     26  C   UNL     1     163.196 162.848 176.485  1.00  0.00     0.004 C 
ENDBRANCH  24  25
ENDBRANCH  23  24
ENDBRANCH  22  23
ENDBRANCH  21  22
ENDBRANCH  20  21
ENDBRANCH  19  20
ENDBRANCH  18  19
ENDBRANCH  17  18
ENDBRANCH  16  17
ENDBRANCH  15  16
ENDBRANCH   1  15
TORSDOF 22
ENDMDL
