MODEL 1
REMARK VINA RESULT:    -5.119      0.000      0.000
REMARK INTER + INTRA:          -5.594
REMARK INTER:                  -5.568
REMARK INTRA:                  -0.027
REMARK UNBOUND:                -0.027
REMARK SMILES COc1ccccc1O
REMARK SMILES IDX 3 1 4 2 5 3 6 4 7 5 8 6 2 7 1 8 9 9
REMARK H PARENT 9 10
REMARK Flexibility Score: inf
ROOT
ATOM      1  C   UNL     1      19.100  26.365  36.123  1.00  0.00     0.160 A 
ATOM      2  C   UNL     1      17.733  26.143  36.387  1.00  0.00     0.050 A 
ATOM      3  C   UNL     1      16.933  27.174  36.886  1.00  0.00     0.004 A 
ATOM      4  C   UNL     1      17.483  28.434  37.125  1.00  0.00     0.004 A 
ATOM      5  C   UNL     1      18.836  28.666  36.868  1.00  0.00     0.050 A 
ATOM      6  C   UNL     1      19.646  27.640  36.369  1.00  0.00     0.157 A 
ENDROOT
BRANCH   1   7
ATOM      7  O   UNL     1      19.934  25.354  35.622  1.00  0.00    -0.493 OA
ATOM      8  C   UNL     1      19.486  24.248  34.845  1.00  0.00     0.278 C 
ENDBRANCH   1   7
BRANCH   6   9
ATOM      9  O   UNL     1      20.994  27.905  36.122  1.00  0.00    -0.504 OA
ATOM     10  H   UNL     1      21.392  27.857  35.192  1.00  0.00     0.293 HD
ENDBRANCH   6   9
TORSDOF 2
ENDMDL
MODEL 2
REMARK VINA RESULT:    -4.646      1.259      2.341
REMARK INTER + INTRA:          -5.080
REMARK INTER:                  -5.043
REMARK INTRA:                  -0.037
REMARK UNBOUND:                -0.027
REMARK SMILES COc1ccccc1O
REMARK SMILES IDX 3 1 4 2 5 3 6 4 7 5 8 6 2 7 1 8 9 9
REMARK H PARENT 9 10
REMARK Flexibility Score: inf
ROOT
ATOM      1  C   UNL     1      19.219  26.350  36.390  1.00  0.00     0.160 A 
ATOM      2  C   UNL     1      20.223  27.341  36.407  1.00  0.00     0.050 A 
ATOM      3  C   UNL     1      19.913  28.655  36.769  1.00  0.00     0.004 A 
ATOM      4  C   UNL     1      18.605  28.995  37.118  1.00  0.00     0.004 A 
ATOM      5  C   UNL     1      17.603  28.024  37.104  1.00  0.00     0.050 A 
ATOM      6  C   UNL     1      17.902  26.705  36.744  1.00  0.00     0.157 A 
ENDROOT
BRANCH   1   7
ATOM      7  O   UNL     1      19.493  25.022  36.033  1.00  0.00    -0.493 OA
ATOM      8  C   UNL     1      20.062  24.620  34.790  1.00  0.00     0.278 C 
ENDBRANCH   1   7
BRANCH   6   9
ATOM      9  O   UNL     1      16.877  25.758  36.741  1.00  0.00    -0.504 OA
ATOM     10  H   UNL     1      16.199  25.694  37.490  1.00  0.00     0.293 HD
ENDBRANCH   6   9
TORSDOF 2
ENDMDL
MODEL 3
REMARK VINA RESULT:    -4.338     15.301     17.116
REMARK INTER + INTRA:          -4.745
REMARK INTER:                  -4.699
REMARK INTRA:                  -0.046
REMARK UNBOUND:                -0.027
REMARK SMILES COc1ccccc1O
REMARK SMILES IDX 3 1 4 2 5 3 6 4 7 5 8 6 2 7 1 8 9 9
REMARK H PARENT 9 10
REMARK Flexibility Score: inf
ROOT
ATOM      1  C   UNL     1      20.119  23.566  20.495  1.00  0.00     0.160 A 
ATOM      2  C   UNL     1      21.349  22.879  20.578  1.00  0.00     0.050 A 
ATOM      3  C   UNL     1      22.088  22.614  19.423  1.00  0.00     0.004 A 
ATOM      4  C   UNL     1      21.616  23.029  18.177  1.00  0.00     0.004 A 
ATOM      5  C   UNL     1      20.400  23.709  18.083  1.00  0.00     0.050 A 
ATOM      6  C   UNL     1      19.651  23.980  19.233  1.00  0.00     0.157 A 
ENDROOT
BRANCH   1   7
ATOM      7  O   UNL     1      19.349  23.850  21.633  1.00  0.00    -0.493 OA
ATOM      8  C   UNL     1      18.501  22.912  22.289  1.00  0.00     0.278 C 
ENDBRANCH   1   7
BRANCH   6   9
ATOM      9  O   UNL     1      18.441  24.663  19.104  1.00  0.00    -0.504 OA
ATOM     10  H   UNL     1      17.586  24.199  18.825  1.00  0.00     0.293 HD
ENDBRANCH   6   9
TORSDOF 2
ENDMDL
MODEL 4
REMARK VINA RESULT:    -4.338     16.261     17.608
REMARK INTER + INTRA:          -4.745
REMARK INTER:                  -4.704
REMARK INTRA:                  -0.041
REMARK UNBOUND:                -0.027
REMARK SMILES COc1ccccc1O
REMARK SMILES IDX 3 1 4 2 5 3 6 4 7 5 8 6 2 7 1 8 9 9
REMARK H PARENT 9 10
REMARK Flexibility Score: inf
ROOT
ATOM      1  C   UNL     1      20.841  24.049  18.908  1.00  0.00     0.160 A 
ATOM      2  C   UNL     1      20.159  24.580  20.022  1.00  0.00     0.050 A 
ATOM      3  C   UNL     1      20.312  24.002  21.285  1.00  0.00     0.004 A 
ATOM      4  C   UNL     1      21.144  22.894  21.453  1.00  0.00     0.004 A 
ATOM      5  C   UNL     1      21.824  22.359  20.357  1.00  0.00     0.050 A 
ATOM      6  C   UNL     1      21.678  22.930  19.088  1.00  0.00     0.157 A 
ENDROOT
BRANCH   1   7
ATOM      7  O   UNL     1      20.712  24.602  17.625  1.00  0.00    -0.493 OA
ATOM      8  C   UNL     1      19.501  24.630  16.875  1.00  0.00     0.278 C 
ENDBRANCH   1   7
BRANCH   6   9
ATOM      9  O   UNL     1      22.373  22.372  18.014  1.00  0.00    -0.504 OA
ATOM     10  H   UNL     1      22.641  22.916  17.203  1.00  0.00     0.293 HD
ENDBRANCH   6   9
TORSDOF 2
ENDMDL
MODEL 5
REMARK VINA RESULT:    -4.332     15.986     17.025
REMARK INTER + INTRA:          -4.738
REMARK INTER:                  -4.692
REMARK INTRA:                  -0.046
REMARK UNBOUND:                -0.027
REMARK SMILES COc1ccccc1O
REMARK SMILES IDX 3 1 4 2 5 3 6 4 7 5 8 6 2 7 1 8 9 9
REMARK H PARENT 9 10
REMARK Flexibility Score: inf
ROOT
ATOM      1  C   UNL     1      21.070  22.541  20.243  1.00  0.00     0.160 A 
ATOM      2  C   UNL     1      20.292  23.342  21.104  1.00  0.00     0.050 A 
ATOM      3  C   UNL     1      19.948  24.646  20.736  1.00  0.00     0.004 A 
ATOM      4  C   UNL     1      20.372  25.164  19.512  1.00  0.00     0.004 A 
ATOM      5  C   UNL     1      21.143  24.380  18.651  1.00  0.00     0.050 A 
ATOM      6  C   UNL     1      21.493  23.073  19.009  1.00  0.00     0.157 A 
ENDROOT
BRANCH   1   7
ATOM      7  O   UNL     1      21.435  21.229  20.578  1.00  0.00    -0.493 OA
ATOM      8  C   UNL     1      22.535  20.884  21.416  1.00  0.00     0.278 C 
ENDBRANCH   1   7
BRANCH   6   9
ATOM      9  O   UNL     1      22.264  22.316  18.126  1.00  0.00    -0.504 OA
ATOM     10  H   UNL     1      22.173  21.310  18.056  1.00  0.00     0.293 HD
ENDBRANCH   6   9
TORSDOF 2
ENDMDL
MODEL 6
REMARK VINA RESULT:    -4.289     15.527     17.226
REMARK INTER + INTRA:          -4.691
REMARK INTER:                  -4.645
REMARK INTRA:                  -0.046
REMARK UNBOUND:                -0.027
REMARK SMILES COc1ccccc1O
REMARK SMILES IDX 3 1 4 2 5 3 6 4 7 5 8 6 2 7 1 8 9 9
REMARK H PARENT 9 10
REMARK Flexibility Score: inf
ROOT
ATOM      1  C   UNL     1      21.040  24.019  19.155  1.00  0.00     0.160 A 
ATOM      2  C   UNL     1      21.941  22.940  19.035  1.00  0.00     0.050 A 
ATOM      3  C   UNL     1      22.236  22.141  20.143  1.00  0.00     0.004 A 
ATOM      4  C   UNL     1      21.639  22.405  21.377  1.00  0.00     0.004 A 
ATOM      5  C   UNL     1      20.747  23.470  21.507  1.00  0.00     0.050 A 
ATOM      6  C   UNL     1      20.444  24.277  20.404  1.00  0.00     0.157 A 
ENDROOT
BRANCH   1   7
ATOM      7  O   UNL     1      20.720  24.843  18.065  1.00  0.00    -0.493 OA
ATOM      8  C   UNL     1      19.740  24.534  17.079  1.00  0.00     0.278 C 
ENDBRANCH   1   7
BRANCH   6   9
ATOM      9  O   UNL     1      19.546  25.333  20.568  1.00  0.00    -0.504 OA
ATOM     10  H   UNL     1      18.620  25.323  20.160  1.00  0.00     0.293 HD
ENDBRANCH   6   9
TORSDOF 2
ENDMDL
MODEL 7
REMARK VINA RESULT:    -4.183     15.961     17.037
REMARK INTER + INTRA:          -4.576
REMARK INTER:                  -4.551
REMARK INTRA:                  -0.025
REMARK UNBOUND:                -0.027
REMARK SMILES COc1ccccc1O
REMARK SMILES IDX 3 1 4 2 5 3 6 4 7 5 8 6 2 7 1 8 9 9
REMARK H PARENT 9 10
REMARK Flexibility Score: inf
ROOT
ATOM      1  C   UNL     1      21.405  23.023  20.245  1.00  0.00     0.160 A 
ATOM      2  C   UNL     1      21.742  22.639  18.930  1.00  0.00     0.050 A 
ATOM      3  C   UNL     1      21.388  23.446  17.846  1.00  0.00     0.004 A 
ATOM      4  C   UNL     1      20.699  24.641  18.057  1.00  0.00     0.004 A 
ATOM      5  C   UNL     1      20.360  25.032  19.354  1.00  0.00     0.050 A 
ATOM      6  C   UNL     1      20.710  24.232  20.447  1.00  0.00     0.157 A 
ENDROOT
BRANCH   1   7
ATOM      7  O   UNL     1      21.744  22.239  21.358  1.00  0.00    -0.493 OA
ATOM      8  C   UNL     1      22.450  21.004  21.291  1.00  0.00     0.278 C 
ENDBRANCH   1   7
BRANCH   6   9
ATOM      9  O   UNL     1      20.357  24.652  21.730  1.00  0.00    -0.504 OA
ATOM     10  H   UNL     1      20.904  24.410  22.547  1.00  0.00     0.293 HD
ENDBRANCH   6   9
TORSDOF 2
ENDMDL
MODEL 8
REMARK VINA RESULT:    -4.167      6.503      7.927
REMARK INTER + INTRA:          -4.560
REMARK INTER:                  -4.545
REMARK INTRA:                  -0.015
REMARK UNBOUND:                -0.027
REMARK SMILES COc1ccccc1O
REMARK SMILES IDX 3 1 4 2 5 3 6 4 7 5 8 6 2 7 1 8 9 9
REMARK H PARENT 9 10
REMARK Flexibility Score: inf
ROOT
ATOM      1  C   UNL     1      21.353  33.724  34.419  1.00  0.00     0.160 A 
ATOM      2  C   UNL     1      21.397  33.698  33.010  1.00  0.00     0.050 A 
ATOM      3  C   UNL     1      20.432  34.377  32.261  1.00  0.00     0.004 A 
ATOM      4  C   UNL     1      19.418  35.088  32.904  1.00  0.00     0.004 A 
ATOM      5  C   UNL     1      19.364  35.120  34.298  1.00  0.00     0.050 A 
ATOM      6  C   UNL     1      20.325  34.444  35.059  1.00  0.00     0.157 A 
ENDROOT
BRANCH   1   7
ATOM      7  O   UNL     1      22.303  33.054  35.204  1.00  0.00    -0.493 OA
ATOM      8  C   UNL     1      22.136  31.742  35.732  1.00  0.00     0.278 C 
ENDBRANCH   1   7
BRANCH   6   9
ATOM      9  O   UNL     1      20.243  34.497  36.451  1.00  0.00    -0.504 OA
ATOM     10  H   UNL     1      20.920  34.042  37.049  1.00  0.00     0.293 HD
ENDBRANCH   6   9
TORSDOF 2
ENDMDL
