MODEL 1
REMARK VINA RESULT:    -3.725      0.000      0.000
REMARK INTER + INTRA:          -4.080
REMARK INTER:                  -4.051
REMARK INTRA:                  -0.029
REMARK UNBOUND:                -0.029
REMARK SMILES O=C([O-])c1ccc(O)cc1
REMARK SMILES IDX 4 1 5 2 10 3 6 4 9 5 7 6 2 7 1 8 3 9 8 10
REMARK H PARENT 8 11
REMARK Flexibility Score: inf
ROOT
ATOM      1  C   UNL     1      31.013 167.781 156.144  1.00  0.00    -0.003 A 
ATOM      2  C   UNL     1      32.355 167.671 155.736  1.00  0.00     0.014 A 
ATOM      3  C   UNL     1      30.636 167.258 157.394  1.00  0.00     0.014 A 
ATOM      4  C   UNL     1      33.298 167.054 156.562  1.00  0.00     0.047 A 
ATOM      5  C   UNL     1      31.583 166.641 158.218  1.00  0.00     0.047 A 
ATOM      6  C   UNL     1      32.914 166.536 157.806  1.00  0.00     0.115 A 
ENDROOT
BRANCH   1   7
ATOM      7  C   UNL     1      30.009 168.433 155.275  1.00  0.00     0.071 C 
ATOM      8  O   UNL     1      28.992 167.800 154.884  1.00  0.00    -0.545 OA
ATOM      9  O   UNL     1      30.174 169.754 154.876  1.00  0.00    -0.545 OA
ENDBRANCH   1   7
BRANCH   6  10
ATOM     10  O   UNL     1      33.846 165.920 158.638  1.00  0.00    -0.508 OA
ATOM     11  H   UNL     1      33.698 164.984 158.997  1.00  0.00     0.293 HD
ENDBRANCH   6  10
TORSDOF 2
ENDMDL
MODEL 2
REMARK VINA RESULT:    -3.693     22.367     22.991
REMARK INTER + INTRA:          -4.046
REMARK INTER:                  -4.019
REMARK INTRA:                  -0.027
REMARK UNBOUND:                -0.029
REMARK SMILES O=C([O-])c1ccc(O)cc1
REMARK SMILES IDX 4 1 5 2 10 3 6 4 9 5 7 6 2 7 1 8 3 9 8 10
REMARK H PARENT 8 11
REMARK Flexibility Score: inf
ROOT
ATOM      1  C   UNL     1      37.532 182.211 172.361  1.00  0.00    -0.003 A 
ATOM      2  C   UNL     1      38.677 181.407 172.206  1.00  0.00     0.014 A 
ATOM      3  C   UNL     1      37.558 183.262 173.294  1.00  0.00     0.014 A 
ATOM      4  C   UNL     1      39.822 181.652 172.969  1.00  0.00     0.047 A 
ATOM      5  C   UNL     1      38.706 183.505 174.055  1.00  0.00     0.047 A 
ATOM      6  C   UNL     1      39.840 182.703 173.897  1.00  0.00     0.115 A 
ENDROOT
BRANCH   1   7
ATOM      7  C   UNL     1      36.316 181.956 171.557  1.00  0.00     0.071 C 
ATOM      8  O   UNL     1      35.331 181.353 172.059  1.00  0.00    -0.545 OA
ATOM      9  O   UNL     1      36.244 182.379 170.235  1.00  0.00    -0.545 OA
ENDBRANCH   1   7
BRANCH   6  10
ATOM     10  O   UNL     1      40.976 182.957 174.661  1.00  0.00    -0.508 OA
ATOM     11  H   UNL     1      41.519 182.205 175.069  1.00  0.00     0.293 HD
ENDBRANCH   6  10
TORSDOF 2
ENDMDL
MODEL 3
REMARK VINA RESULT:    -3.675     22.350     23.000
REMARK INTER + INTRA:          -4.027
REMARK INTER:                  -4.000
REMARK INTRA:                  -0.027
REMARK UNBOUND:                -0.029
REMARK SMILES O=C([O-])c1ccc(O)cc1
REMARK SMILES IDX 4 1 5 2 10 3 6 4 9 5 7 6 2 7 1 8 3 9 8 10
REMARK H PARENT 8 11
REMARK Flexibility Score: inf
ROOT
ATOM      1  C   UNL     1      37.509 182.195 172.366  1.00  0.00    -0.003 A 
ATOM      2  C   UNL     1      37.533 183.250 173.297  1.00  0.00     0.014 A 
ATOM      3  C   UNL     1      38.649 181.383 172.227  1.00  0.00     0.014 A 
ATOM      4  C   UNL     1      38.672 183.485 174.072  1.00  0.00     0.047 A 
ATOM      5  C   UNL     1      39.787 181.622 173.004  1.00  0.00     0.047 A 
ATOM      6  C   UNL     1      39.803 182.670 173.927  1.00  0.00     0.115 A 
ENDROOT
BRANCH   1   7
ATOM      7  C   UNL     1      36.306 181.941 171.543  1.00  0.00     0.071 C 
ATOM      8  O   UNL     1      35.306 181.352 172.034  1.00  0.00    -0.545 OA
ATOM      9  O   UNL     1      36.262 182.349 170.215  1.00  0.00    -0.545 OA
ENDBRANCH   1   7
BRANCH   6  10
ATOM     10  O   UNL     1      40.944 182.895 174.694  1.00  0.00    -0.508 OA
ATOM     11  H   UNL     1      41.650 182.178 174.816  1.00  0.00     0.293 HD
ENDBRANCH   6  10
TORSDOF 2
ENDMDL
MODEL 4
REMARK VINA RESULT:    -3.648     22.734     23.912
REMARK INTER + INTRA:          -3.997
REMARK INTER:                  -3.969
REMARK INTRA:                  -0.028
REMARK UNBOUND:                -0.029
REMARK SMILES O=C([O-])c1ccc(O)cc1
REMARK SMILES IDX 4 1 5 2 10 3 6 4 9 5 7 6 2 7 1 8 3 9 8 10
REMARK H PARENT 8 11
REMARK Flexibility Score: inf
ROOT
ATOM      1  C   UNL     1      40.616 180.692 173.625  1.00  0.00    -0.003 A 
ATOM      2  C   UNL     1      39.436 180.612 172.862  1.00  0.00     0.014 A 
ATOM      3  C   UNL     1      40.893 181.878 174.328  1.00  0.00     0.014 A 
ATOM      4  C   UNL     1      38.553 181.694 172.808  1.00  0.00     0.047 A 
ATOM      5  C   UNL     1      40.007 182.958 174.272  1.00  0.00     0.047 A 
ATOM      6  C   UNL     1      38.837 182.872 173.513  1.00  0.00     0.115 A 
ENDROOT
BRANCH   1   7
ATOM      7  C   UNL     1      41.555 179.550 173.686  1.00  0.00     0.071 C 
ATOM      8  O   UNL     1      41.224 178.479 174.263  1.00  0.00    -0.545 OA
ATOM      9  O   UNL     1      42.815 179.642 173.108  1.00  0.00    -0.545 OA
ENDBRANCH   1   7
BRANCH   6  10
ATOM     10  O   UNL     1      37.965 183.956 173.467  1.00  0.00    -0.508 OA
ATOM     11  H   UNL     1      38.055 184.679 172.763  1.00  0.00     0.293 HD
ENDBRANCH   6  10
TORSDOF 2
ENDMDL
MODEL 5
REMARK VINA RESULT:    -3.450     22.775     23.661
REMARK INTER + INTRA:          -3.781
REMARK INTER:                  -3.746
REMARK INTRA:                  -0.035
REMARK UNBOUND:                -0.029
REMARK SMILES O=C([O-])c1ccc(O)cc1
REMARK SMILES IDX 4 1 5 2 10 3 6 4 9 5 7 6 2 7 1 8 3 9 8 10
REMARK H PARENT 8 11
REMARK Flexibility Score: inf
ROOT
ATOM      1  C   UNL     1      39.580 181.734 173.724  1.00  0.00    -0.003 A 
ATOM      2  C   UNL     1      40.625 181.709 174.667  1.00  0.00     0.014 A 
ATOM      3  C   UNL     1      39.375 180.610 172.905  1.00  0.00     0.014 A 
ATOM      4  C   UNL     1      41.443 180.582 174.788  1.00  0.00     0.047 A 
ATOM      5  C   UNL     1      40.196 179.484 173.028  1.00  0.00     0.047 A 
ATOM      6  C   UNL     1      41.231 179.466 173.967  1.00  0.00     0.115 A 
ENDROOT
BRANCH   1   7
ATOM      7  C   UNL     1      38.711 182.924 173.592  1.00  0.00     0.071 C 
ATOM      8  O   UNL     1      39.054 184.027 174.093  1.00  0.00    -0.545 OA
ATOM      9  O   UNL     1      37.502 182.840 172.912  1.00  0.00    -0.545 OA
ENDBRANCH   1   7
BRANCH   6  10
ATOM     10  O   UNL     1      42.039 178.338 174.079  1.00  0.00    -0.508 OA
ATOM     11  H   UNL     1      41.726 177.428 173.761  1.00  0.00     0.293 HD
ENDBRANCH   6  10
TORSDOF 2
ENDMDL
MODEL 6
REMARK VINA RESULT:    -3.348     21.440     22.152
REMARK INTER + INTRA:          -3.670
REMARK INTER:                  -3.638
REMARK INTRA:                  -0.032
REMARK UNBOUND:                -0.029
REMARK SMILES O=C([O-])c1ccc(O)cc1
REMARK SMILES IDX 4 1 5 2 10 3 6 4 9 5 7 6 2 7 1 8 3 9 8 10
REMARK H PARENT 8 11
REMARK Flexibility Score: inf
ROOT
ATOM      1  C   UNL     1      37.168 181.375 172.397  1.00  0.00    -0.003 A 
ATOM      2  C   UNL     1      36.846 180.868 173.670  1.00  0.00     0.014 A 
ATOM      3  C   UNL     1      38.503 181.319 171.960  1.00  0.00     0.014 A 
ATOM      4  C   UNL     1      37.839 180.317 174.485  1.00  0.00     0.047 A 
ATOM      5  C   UNL     1      39.494 180.767 172.778  1.00  0.00     0.047 A 
ATOM      6  C   UNL     1      39.167 180.265 174.040  1.00  0.00     0.115 A 
ENDROOT
BRANCH   1   7
ATOM      7  C   UNL     1      36.122 181.960 171.530  1.00  0.00     0.071 C 
ATOM      8  O   UNL     1      36.375 182.961 170.808  1.00  0.00    -0.545 OA
ATOM      9  O   UNL     1      34.845 181.413 171.500  1.00  0.00    -0.545 OA
ENDBRANCH   1   7
BRANCH   6  10
ATOM     10  O   UNL     1      40.164 179.717 174.843  1.00  0.00    -0.508 OA
ATOM     11  H   UNL     1      40.449 178.749 174.748  1.00  0.00     0.293 HD
ENDBRANCH   6  10
TORSDOF 2
ENDMDL
MODEL 7
REMARK VINA RESULT:    -3.297     21.586     22.683
REMARK INTER + INTRA:          -3.615
REMARK INTER:                  -3.588
REMARK INTRA:                  -0.027
REMARK UNBOUND:                -0.029
REMARK SMILES O=C([O-])c1ccc(O)cc1
REMARK SMILES IDX 4 1 5 2 10 3 6 4 9 5 7 6 2 7 1 8 3 9 8 10
REMARK H PARENT 8 11
REMARK Flexibility Score: inf
ROOT
ATOM      1  C   UNL     1      39.027 180.692 173.203  1.00  0.00    -0.003 A 
ATOM      2  C   UNL     1      38.795 181.306 171.959  1.00  0.00     0.014 A 
ATOM      3  C   UNL     1      37.936 180.445 174.055  1.00  0.00     0.014 A 
ATOM      4  C   UNL     1      37.498 181.663 171.576  1.00  0.00     0.047 A 
ATOM      5  C   UNL     1      36.640 180.803 173.669  1.00  0.00     0.047 A 
ATOM      6  C   UNL     1      36.417 181.413 172.432  1.00  0.00     0.115 A 
ENDROOT
BRANCH   1   7
ATOM      7  C   UNL     1      40.397 180.311 173.614  1.00  0.00     0.071 C 
ATOM      8  O   UNL     1      40.844 179.160 173.364  1.00  0.00    -0.545 OA
ATOM      9  O   UNL     1      41.209 181.219 174.282  1.00  0.00    -0.545 OA
ENDBRANCH   1   7
BRANCH   6  10
ATOM     10  O   UNL     1      35.122 181.764 172.061  1.00  0.00    -0.508 OA
ATOM     11  H   UNL     1      34.530 182.323 172.665  1.00  0.00     0.293 HD
ENDBRANCH   6  10
TORSDOF 2
ENDMDL
MODEL 8
REMARK VINA RESULT:    -3.285     19.210     20.065
REMARK INTER + INTRA:          -3.602
REMARK INTER:                  -3.571
REMARK INTRA:                  -0.031
REMARK UNBOUND:                -0.029
REMARK SMILES O=C([O-])c1ccc(O)cc1
REMARK SMILES IDX 4 1 5 2 10 3 6 4 9 5 7 6 2 7 1 8 3 9 8 10
REMARK H PARENT 8 11
REMARK Flexibility Score: inf
ROOT
ATOM      1  C   UNL     1      34.160 180.220 172.072  1.00  0.00    -0.003 A 
ATOM      2  C   UNL     1      34.252 179.076 172.885  1.00  0.00     0.014 A 
ATOM      3  C   UNL     1      33.210 180.245 171.035  1.00  0.00     0.014 A 
ATOM      4  C   UNL     1      33.409 177.982 172.667  1.00  0.00     0.047 A 
ATOM      5  C   UNL     1      32.369 179.149 170.819  1.00  0.00     0.047 A 
ATOM      6  C   UNL     1      32.465 178.016 171.631  1.00  0.00     0.115 A 
ENDROOT
BRANCH   1   7
ATOM      7  C   UNL     1      35.049 181.381 172.298  1.00  0.00     0.071 C 
ATOM      8  O   UNL     1      35.200 181.856 173.455  1.00  0.00    -0.545 OA
ATOM      9  O   UNL     1      35.731 181.964 171.236  1.00  0.00    -0.545 OA
ENDBRANCH   1   7
BRANCH   6  10
ATOM     10  O   UNL     1      31.620 176.933 171.405  1.00  0.00    -0.508 OA
ATOM     11  H   UNL     1      31.513 176.192 172.088  1.00  0.00     0.293 HD
ENDBRANCH   6  10
TORSDOF 2
ENDMDL
MODEL 9
REMARK VINA RESULT:    -3.258     22.330     23.384
REMARK INTER + INTRA:          -3.572
REMARK INTER:                  -3.538
REMARK INTRA:                  -0.035
REMARK UNBOUND:                -0.029
REMARK SMILES O=C([O-])c1ccc(O)cc1
REMARK SMILES IDX 4 1 5 2 10 3 6 4 9 5 7 6 2 7 1 8 3 9 8 10
REMARK H PARENT 8 11
REMARK Flexibility Score: inf
ROOT
ATOM      1  C   UNL     1      39.029 182.058 173.291  1.00  0.00    -0.003 A 
ATOM      2  C   UNL     1      37.888 182.821 173.602  1.00  0.00     0.014 A 
ATOM      3  C   UNL     1      39.078 181.375 172.062  1.00  0.00     0.014 A 
ATOM      4  C   UNL     1      36.822 182.899 172.701  1.00  0.00     0.047 A 
ATOM      5  C   UNL     1      38.009 181.455 171.164  1.00  0.00     0.047 A 
ATOM      6  C   UNL     1      36.880 182.215 171.479  1.00  0.00     0.115 A 
ENDROOT
BRANCH   1   7
ATOM      7  C   UNL     1      40.162 181.971 174.239  1.00  0.00     0.071 C 
ATOM      8  O   UNL     1      40.325 182.853 175.124  1.00  0.00    -0.545 OA
ATOM      9  O   UNL     1      41.061 180.914 174.168  1.00  0.00    -0.545 OA
ENDBRANCH   1   7
BRANCH   6  10
ATOM     10  O   UNL     1      35.823 182.286 170.575  1.00  0.00    -0.508 OA
ATOM     11  H   UNL     1      35.892 181.883 169.647  1.00  0.00     0.293 HD
ENDBRANCH   6  10
TORSDOF 2
ENDMDL
