MODEL 1
REMARK VINA RESULT:    -3.567      0.000      0.000
REMARK INTER + INTRA:          -4.978
REMARK INTER:                  -4.819
REMARK INTRA:                  -0.160
REMARK UNBOUND:                -0.160
REMARK SMILES [NH3+]CCCC[C@@H]([NH3+])C(=O)[O-]
REMARK SMILES IDX 4 1 3 2 2 3 1 4 5 8 6 9 7 10 8 14 9 15 10 16
REMARK H PARENT 1 5 1 6 1 7 7 11 7 12 7 13
REMARK Flexibility Score: inf
ROOT
ATOM      1  C   UNL     1       0.067   7.115   3.590  1.00  0.00     0.012 C 
ENDROOT
BRANCH   1   2
ATOM      2  C   UNL     1       0.729   7.638   4.873  1.00  0.00     0.061 C 
BRANCH   2   3
ATOM      3  C   UNL     1       0.293   9.072   5.220  1.00  0.00     0.258 C 
BRANCH   3   4
ATOM      4  N   UNL     1      -0.168   9.808   4.042  1.00  0.00    -0.358 N 
ATOM      5  H   UNL     1      -1.160   9.563   3.822  1.00  0.00     0.344 HD
ATOM      6  H   UNL     1       0.431   9.550   3.224  1.00  0.00     0.344 HD
ATOM      7  H   UNL     1      -0.081  10.838   4.200  1.00  0.00     0.344 HD
ENDBRANCH   3   4
ENDBRANCH   2   3
ENDBRANCH   1   2
BRANCH   1   8
ATOM      8  C   UNL     1       1.107   6.479   2.655  1.00  0.00     0.072 C 
BRANCH   8   9
ATOM      9  C   UNL     1       0.845   6.818   1.171  1.00  0.00     0.227 C 
BRANCH   9  10
ATOM     10  N   UNL     1       1.054   8.251   0.928  1.00  0.00    -0.350 N 
ATOM     11  H   UNL     1       1.953   8.396   0.412  1.00  0.00     0.345 HD
ATOM     12  H   UNL     1       1.087   8.779   1.831  1.00  0.00     0.345 HD
ATOM     13  H   UNL     1       0.277   8.628   0.339  1.00  0.00     0.345 HD
ENDBRANCH   9  10
BRANCH   9  14
ATOM     14  C   UNL     1       1.736   6.008   0.266  1.00  0.00     0.099 C 
ATOM     15  O   UNL     1       2.974   5.941   0.491  1.00  0.00    -0.544 OA
ATOM     16  O   UNL     1       1.202   5.334  -0.826  1.00  0.00    -0.544 OA
ENDBRANCH   9  14
ENDBRANCH   8   9
ENDBRANCH   1   8
TORSDOF 7
ENDMDL
MODEL 2
REMARK VINA RESULT:    -3.517      1.564      1.817
REMARK INTER + INTRA:          -4.910
REMARK INTER:                  -4.395
REMARK INTRA:                  -0.515
REMARK UNBOUND:                -0.160
REMARK SMILES [NH3+]CCCC[C@@H]([NH3+])C(=O)[O-]
REMARK SMILES IDX 4 1 3 2 2 3 1 4 5 8 6 9 7 10 8 14 9 15 10 16
REMARK H PARENT 1 5 1 6 1 7 7 11 7 12 7 13
REMARK Flexibility Score: inf
ROOT
ATOM      1  C   UNL     1       0.428   7.063   3.293  1.00  0.00     0.012 C 
ENDROOT
BRANCH   1   2
ATOM      2  C   UNL     1       1.308   7.438   4.494  1.00  0.00     0.061 C 
BRANCH   2   3
ATOM      3  C   UNL     1       2.693   7.956   4.072  1.00  0.00     0.258 C 
BRANCH   3   4
ATOM      4  N   UNL     1       2.602   9.140   3.217  1.00  0.00    -0.358 N 
ATOM      5  H   UNL     1       2.287   9.969   3.771  1.00  0.00     0.344 HD
ATOM      6  H   UNL     1       1.902   8.959   2.460  1.00  0.00     0.344 HD
ATOM      7  H   UNL     1       3.525   9.338   2.769  1.00  0.00     0.344 HD
ENDBRANCH   3   4
ENDBRANCH   2   3
ENDBRANCH   1   2
BRANCH   1   8
ATOM      8  C   UNL     1       1.096   5.971   2.442  1.00  0.00     0.072 C 
BRANCH   8   9
ATOM      9  C   UNL     1       1.255   6.395   0.966  1.00  0.00     0.227 C 
BRANCH   9  10
ATOM     10  N   UNL     1       0.450   7.591   0.687  1.00  0.00    -0.350 N 
ATOM     11  H   UNL     1      -0.567   7.363   0.777  1.00  0.00     0.345 HD
ATOM     12  H   UNL     1       0.638   7.947  -0.279  1.00  0.00     0.345 HD
ATOM     13  H   UNL     1       0.678   8.341   1.379  1.00  0.00     0.345 HD
ENDBRANCH   9  10
BRANCH   9  14
ATOM     14  C   UNL     1       2.701   6.661   0.633  1.00  0.00     0.099 C 
ATOM     15  O   UNL     1       3.542   5.723   0.670  1.00  0.00    -0.544 OA
ATOM     16  O   UNL     1       3.118   7.941   0.287  1.00  0.00    -0.544 OA
ENDBRANCH   9  14
ENDBRANCH   8   9
ENDBRANCH   1   8
TORSDOF 7
ENDMDL
MODEL 3
REMARK VINA RESULT:    -3.414      1.653      1.843
REMARK INTER + INTRA:          -4.771
REMARK INTER:                  -4.660
REMARK INTRA:                  -0.112
REMARK UNBOUND:                -0.160
REMARK SMILES [NH3+]CCCC[C@@H]([NH3+])C(=O)[O-]
REMARK SMILES IDX 4 1 3 2 2 3 1 4 5 8 6 9 7 10 8 14 9 15 10 16
REMARK H PARENT 1 5 1 6 1 7 7 11 7 12 7 13
REMARK Flexibility Score: inf
ROOT
ATOM      1  C   UNL     1       0.739   6.597   3.186  1.00  0.00     0.012 C 
ENDROOT
BRANCH   1   2
ATOM      2  C   UNL     1       0.005   7.679   3.991  1.00  0.00     0.061 C 
BRANCH   2   3
ATOM      3  C   UNL     1       0.380   9.102   3.543  1.00  0.00     0.258 C 
BRANCH   3   4
ATOM      4  N   UNL     1      -0.379  10.125   4.266  1.00  0.00    -0.358 N 
ATOM      5  H   UNL     1      -0.165  10.086   5.288  1.00  0.00     0.344 HD
ATOM      6  H   UNL     1      -1.401   9.948   4.131  1.00  0.00     0.344 HD
ATOM      7  H   UNL     1      -0.159  11.075   3.890  1.00  0.00     0.344 HD
ENDBRANCH   3   4
ENDBRANCH   2   3
ENDBRANCH   1   2
BRANCH   1   8
ATOM      8  C   UNL     1       0.733   6.928   1.685  1.00  0.00     0.072 C 
BRANCH   8   9
ATOM      9  C   UNL     1       1.666   6.000   0.877  1.00  0.00     0.227 C 
BRANCH   9  10
ATOM     10  N   UNL     1       1.042   5.634  -0.401  1.00  0.00    -0.350 N 
ATOM     11  H   UNL     1       1.511   4.784  -0.793  1.00  0.00     0.345 HD
ATOM     12  H   UNL     1       1.119   6.418  -1.089  1.00  0.00     0.345 HD
ATOM     13  H   UNL     1       0.033   5.408  -0.250  1.00  0.00     0.345 HD
ENDBRANCH   9  10
BRANCH   9  14
ATOM     14  C   UNL     1       2.999   6.658   0.628  1.00  0.00     0.099 C 
ATOM     15  O   UNL     1       3.057   7.884   0.345  1.00  0.00    -0.544 OA
ATOM     16  O   UNL     1       4.172   5.917   0.703  1.00  0.00    -0.544 OA
ENDBRANCH   9  14
ENDBRANCH   8   9
ENDBRANCH   1   8
TORSDOF 7
ENDMDL
MODEL 4
REMARK VINA RESULT:    -3.338      1.426      1.585
REMARK INTER + INTRA:          -4.668
REMARK INTER:                  -4.181
REMARK INTRA:                  -0.487
REMARK UNBOUND:                -0.160
REMARK SMILES [NH3+]CCCC[C@@H]([NH3+])C(=O)[O-]
REMARK SMILES IDX 4 1 3 2 2 3 1 4 5 8 6 9 7 10 8 14 9 15 10 16
REMARK H PARENT 1 5 1 6 1 7 7 11 7 12 7 13
REMARK Flexibility Score: inf
ROOT
ATOM      1  C   UNL     1       0.328   7.002   3.310  1.00  0.00     0.012 C 
ENDROOT
BRANCH   1   2
ATOM      2  C   UNL     1       1.112   7.297   4.596  1.00  0.00     0.061 C 
BRANCH   2   3
ATOM      3  C   UNL     1       1.503   8.779   4.722  1.00  0.00     0.258 C 
BRANCH   3   4
ATOM      4  N   UNL     1       2.198   9.269   3.530  1.00  0.00    -0.358 N 
ATOM      5  H   UNL     1       3.213   9.418   3.733  1.00  0.00     0.344 HD
ATOM      6  H   UNL     1       1.777  10.183   3.243  1.00  0.00     0.344 HD
ATOM      7  H   UNL     1       2.087   8.594   2.741  1.00  0.00     0.344 HD
ENDBRANCH   3   4
ENDBRANCH   2   3
ENDBRANCH   1   2
BRANCH   1   8
ATOM      8  C   UNL     1       1.042   5.935   2.464  1.00  0.00     0.072 C 
BRANCH   8   9
ATOM      9  C   UNL     1       1.322   6.421   1.025  1.00  0.00     0.227 C 
BRANCH   9  10
ATOM     10  N   UNL     1       0.483   7.582   0.703  1.00  0.00    -0.350 N 
ATOM     11  H   UNL     1       0.032   7.446  -0.231  1.00  0.00     0.345 HD
ATOM     12  H   UNL     1       1.054   8.459   0.686  1.00  0.00     0.345 HD
ATOM     13  H   UNL     1      -0.274   7.680   1.418  1.00  0.00     0.345 HD
ENDBRANCH   9  10
BRANCH   9  14
ATOM     14  C   UNL     1       2.777   6.775   0.848  1.00  0.00     0.099 C 
ATOM     15  O   UNL     1       3.141   7.981   0.862  1.00  0.00    -0.544 OA
ATOM     16  O   UNL     1       3.725   5.776   0.663  1.00  0.00    -0.544 OA
ENDBRANCH   9  14
ENDBRANCH   8   9
ENDBRANCH   1   8
TORSDOF 7
ENDMDL
MODEL 5
REMARK VINA RESULT:    -3.256      3.881      5.054
REMARK INTER + INTRA:          -4.558
REMARK INTER:                  -4.468
REMARK INTRA:                  -0.090
REMARK UNBOUND:                -0.160
REMARK SMILES [NH3+]CCCC[C@@H]([NH3+])C(=O)[O-]
REMARK SMILES IDX 4 1 3 2 2 3 1 4 5 8 6 9 7 10 8 14 9 15 10 16
REMARK H PARENT 1 5 1 6 1 7 7 11 7 12 7 13
REMARK Flexibility Score: inf
ROOT
ATOM      1  C   UNL     1       4.665   6.068   2.143  1.00  0.00     0.012 C 
ENDROOT
BRANCH   1   2
ATOM      2  C   UNL     1       5.668   4.955   1.808  1.00  0.00     0.061 C 
BRANCH   2   3
ATOM      3  C   UNL     1       6.541   4.565   3.012  1.00  0.00     0.258 C 
BRANCH   3   4
ATOM      4  N   UNL     1       7.883   4.142   2.607  1.00  0.00    -0.358 N 
ATOM      5  H   UNL     1       8.091   3.185   2.972  1.00  0.00     0.344 HD
ATOM      6  H   UNL     1       8.584   4.811   3.002  1.00  0.00     0.344 HD
ATOM      7  H   UNL     1       7.969   4.154   1.566  1.00  0.00     0.344 HD
ENDBRANCH   3   4
ENDBRANCH   2   3
ENDBRANCH   1   2
BRANCH   1   8
ATOM      8  C   UNL     1       3.748   6.361   0.944  1.00  0.00     0.072 C 
BRANCH   8   9
ATOM      9  C   UNL     1       2.479   7.140   1.355  1.00  0.00     0.227 C 
BRANCH   9  10
ATOM     10  N   UNL     1       2.195   8.203   0.383  1.00  0.00    -0.350 N 
ATOM     11  H   UNL     1       2.066   7.790  -0.569  1.00  0.00     0.345 HD
ATOM     12  H   UNL     1       2.978   8.898   0.354  1.00  0.00     0.345 HD
ATOM     13  H   UNL     1       1.310   8.696   0.646  1.00  0.00     0.345 HD
ENDBRANCH   9  10
BRANCH   9  14
ATOM     14  C   UNL     1       1.293   6.218   1.469  1.00  0.00     0.099 C 
ATOM     15  O   UNL     1       0.788   5.973   2.598  1.00  0.00    -0.544 OA
ATOM     16  O   UNL     1       0.749   5.629   0.334  1.00  0.00    -0.544 OA
ENDBRANCH   9  14
ENDBRANCH   8   9
ENDBRANCH   1   8
TORSDOF 7
ENDMDL
MODEL 6
REMARK VINA RESULT:    -3.217      6.289      6.931
REMARK INTER + INTRA:          -4.505
REMARK INTER:                  -4.385
REMARK INTRA:                  -0.120
REMARK UNBOUND:                -0.160
REMARK SMILES [NH3+]CCCC[C@@H]([NH3+])C(=O)[O-]
REMARK SMILES IDX 4 1 3 2 2 3 1 4 5 8 6 9 7 10 8 14 9 15 10 16
REMARK H PARENT 1 5 1 6 1 7 7 11 7 12 7 13
REMARK Flexibility Score: inf
ROOT
ATOM      1  C   UNL     1       6.816   4.106   3.753  1.00  0.00     0.012 C 
ENDROOT
BRANCH   1   2
ATOM      2  C   UNL     1       6.742   4.232   5.281  1.00  0.00     0.061 C 
BRANCH   2   3
ATOM      3  C   UNL     1       7.054   2.908   5.999  1.00  0.00     0.258 C 
BRANCH   3   4
ATOM      4  N   UNL     1       6.236   1.803   5.497  1.00  0.00    -0.358 N 
ATOM      5  H   UNL     1       5.412   1.645   6.121  1.00  0.00     0.344 HD
ATOM      6  H   UNL     1       6.816   0.932   5.481  1.00  0.00     0.344 HD
ATOM      7  H   UNL     1       5.915   2.001   4.523  1.00  0.00     0.344 HD
ENDBRANCH   3   4
ENDBRANCH   2   3
ENDBRANCH   1   2
BRANCH   1   8
ATOM      8  C   UNL     1       6.224   5.349   3.069  1.00  0.00     0.072 C 
BRANCH   8   9
ATOM      9  C   UNL     1       7.015   5.754   1.806  1.00  0.00     0.227 C 
BRANCH   9  10
ATOM     10  N   UNL     1       8.266   4.991   1.718  1.00  0.00    -0.350 N 
ATOM     11  H   UNL     1       8.062   3.966   1.774  1.00  0.00     0.345 HD
ATOM     12  H   UNL     1       8.916   5.256   2.495  1.00  0.00     0.345 HD
ATOM     13  H   UNL     1       8.733   5.180   0.802  1.00  0.00     0.345 HD
ENDBRANCH   9  10
BRANCH   9  14
ATOM     14  C   UNL     1       6.193   5.536   0.561  1.00  0.00     0.099 C 
ATOM     15  O   UNL     1       4.943   5.401   0.644  1.00  0.00    -0.544 OA
ATOM     16  O   UNL     1       6.806   5.478  -0.684  1.00  0.00    -0.544 OA
ENDBRANCH   9  14
ENDBRANCH   8   9
ENDBRANCH   1   8
TORSDOF 7
ENDMDL
MODEL 7
REMARK VINA RESULT:    -3.175      1.475      1.614
REMARK INTER + INTRA:          -4.448
REMARK INTER:                  -4.232
REMARK INTRA:                  -0.216
REMARK UNBOUND:                -0.160
REMARK SMILES [NH3+]CCCC[C@@H]([NH3+])C(=O)[O-]
REMARK SMILES IDX 4 1 3 2 2 3 1 4 5 8 6 9 7 10 8 14 9 15 10 16
REMARK H PARENT 1 5 1 6 1 7 7 11 7 12 7 13
REMARK Flexibility Score: inf
ROOT
ATOM      1  C   UNL     1       0.752   6.842   3.037  1.00  0.00     0.012 C 
ENDROOT
BRANCH   1   2
ATOM      2  C   UNL     1      -0.100   7.462   4.154  1.00  0.00     0.061 C 
BRANCH   2   3
ATOM      3  C   UNL     1       0.707   7.722   5.437  1.00  0.00     0.258 C 
BRANCH   3   4
ATOM      4  N   UNL     1       2.151   7.686   5.197  1.00  0.00    -0.358 N 
ATOM      5  H   UNL     1       2.352   7.697   4.171  1.00  0.00     0.344 HD
ATOM      6  H   UNL     1       2.541   6.805   5.606  1.00  0.00     0.344 HD
ATOM      7  H   UNL     1       2.618   8.497   5.662  1.00  0.00     0.344 HD
ENDBRANCH   3   4
ENDBRANCH   2   3
ENDBRANCH   1   2
BRANCH   1   8
ATOM      8  C   UNL     1       0.623   7.649   1.735  1.00  0.00     0.072 C 
BRANCH   8   9
ATOM      9  C   UNL     1       1.965   7.761   0.981  1.00  0.00     0.227 C 
BRANCH   9  10
ATOM     10  N   UNL     1       3.012   8.276   1.872  1.00  0.00    -0.350 N 
ATOM     11  H   UNL     1       2.584   8.882   2.610  1.00  0.00     0.345 HD
ATOM     12  H   UNL     1       3.715   8.834   1.334  1.00  0.00     0.345 HD
ATOM     13  H   UNL     1       3.497   7.480   2.346  1.00  0.00     0.345 HD
ENDBRANCH   9  10
BRANCH   9  14
ATOM     14  C   UNL     1       2.382   6.427   0.417  1.00  0.00     0.099 C 
ATOM     15  O   UNL     1       3.518   5.954   0.685  1.00  0.00    -0.544 OA
ATOM     16  O   UNL     1       1.520   5.712  -0.406  1.00  0.00    -0.544 OA
ENDBRANCH   9  14
ENDBRANCH   8   9
ENDBRANCH   1   8
TORSDOF 7
ENDMDL
MODEL 8
REMARK VINA RESULT:    -3.117      2.759      4.421
REMARK INTER + INTRA:          -4.370
REMARK INTER:                  -3.946
REMARK INTRA:                  -0.425
REMARK UNBOUND:                -0.160
REMARK SMILES [NH3+]CCCC[C@@H]([NH3+])C(=O)[O-]
REMARK SMILES IDX 4 1 3 2 2 3 1 4 5 8 6 9 7 10 8 14 9 15 10 16
REMARK H PARENT 1 5 1 6 1 7 7 11 7 12 7 13
REMARK Flexibility Score: inf
ROOT
ATOM      1  C   UNL     1       0.874   6.009   1.818  1.00  0.00     0.012 C 
ENDROOT
BRANCH   1   2
ATOM      2  C   UNL     1       1.709   6.134   0.535  1.00  0.00     0.061 C 
BRANCH   2   3
ATOM      3  C   UNL     1       2.883   7.116   0.688  1.00  0.00     0.258 C 
BRANCH   3   4
ATOM      4  N   UNL     1       2.608   8.405   0.050  1.00  0.00    -0.358 N 
ATOM      5  H   UNL     1       2.202   8.264  -0.902  1.00  0.00     0.344 HD
ATOM      6  H   UNL     1       3.506   8.935  -0.044  1.00  0.00     0.344 HD
ATOM      7  H   UNL     1       1.955   8.970   0.638  1.00  0.00     0.344 HD
ENDBRANCH   3   4
ENDBRANCH   2   3
ENDBRANCH   1   2
BRANCH   1   8
ATOM      8  C   UNL     1       1.486   6.843   2.955  1.00  0.00     0.072 C 
BRANCH   8   9
ATOM      9  C   UNL     1       0.428   7.693   3.692  1.00  0.00     0.227 C 
BRANCH   9  10
ATOM     10  N   UNL     1       0.489   7.446   5.138  1.00  0.00    -0.350 N 
ATOM     11  H   UNL     1       0.849   8.297   5.628  1.00  0.00     0.345 HD
ATOM     12  H   UNL     1       1.117   6.635   5.349  1.00  0.00     0.345 HD
ATOM     13  H   UNL     1      -0.469   7.241   5.503  1.00  0.00     0.345 HD
ENDBRANCH   9  10
BRANCH   9  14
ATOM     14  C   UNL     1       0.623   9.161   3.413  1.00  0.00     0.099 C 
ATOM     15  O   UNL     1       0.528  10.001   4.347  1.00  0.00    -0.544 OA
ATOM     16  O   UNL     1       0.904   9.600   2.124  1.00  0.00    -0.544 OA
ENDBRANCH   9  14
ENDBRANCH   8   9
ENDBRANCH   1   8
TORSDOF 7
ENDMDL
MODEL 9
REMARK VINA RESULT:    -3.040      3.663      5.061
REMARK INTER + INTRA:          -4.265
REMARK INTER:                  -4.157
REMARK INTRA:                  -0.109
REMARK UNBOUND:                -0.160
REMARK SMILES [NH3+]CCCC[C@@H]([NH3+])C(=O)[O-]
REMARK SMILES IDX 4 1 3 2 2 3 1 4 5 8 6 9 7 10 8 14 9 15 10 16
REMARK H PARENT 1 5 1 6 1 7 7 11 7 12 7 13
REMARK Flexibility Score: inf
ROOT
ATOM      1  C   UNL     1       3.972   6.309   1.847  1.00  0.00     0.012 C 
ENDROOT
BRANCH   1   2
ATOM      2  C   UNL     1       5.113   5.495   1.222  1.00  0.00     0.061 C 
BRANCH   2   3
ATOM      3  C   UNL     1       5.993   4.804   2.277  1.00  0.00     0.258 C 
BRANCH   3   4
ATOM      4  N   UNL     1       7.392   4.711   1.854  1.00  0.00    -0.358 N 
ATOM      5  H   UNL     1       8.009   4.503   2.672  1.00  0.00     0.344 HD
ATOM      6  H   UNL     1       7.683   5.627   1.440  1.00  0.00     0.344 HD
ATOM      7  H   UNL     1       7.503   3.971   1.125  1.00  0.00     0.344 HD
ENDBRANCH   3   4
ENDBRANCH   2   3
ENDBRANCH   1   2
BRANCH   1   8
ATOM      8  C   UNL     1       3.258   7.160   0.785  1.00  0.00     0.072 C 
BRANCH   8   9
ATOM      9  C   UNL     1       1.738   6.891   0.744  1.00  0.00     0.227 C 
BRANCH   9  10
ATOM     10  N   UNL     1       1.463   5.601   0.099  1.00  0.00    -0.350 N 
ATOM     11  H   UNL     1       0.437   5.400   0.130  1.00  0.00     0.345 HD
ATOM     12  H   UNL     1       1.980   4.829   0.581  1.00  0.00     0.345 HD
ATOM     13  H   UNL     1       1.758   5.637  -0.903  1.00  0.00     0.345 HD
ENDBRANCH   9  10
BRANCH   9  14
ATOM     14  C   UNL     1       1.149   6.907   2.131  1.00  0.00     0.099 C 
ATOM     15  O   UNL     1       0.755   5.836   2.665  1.00  0.00    -0.544 OA
ATOM     16  O   UNL     1       1.030   8.103   2.830  1.00  0.00    -0.544 OA
ENDBRANCH   9  14
ENDBRANCH   8   9
ENDBRANCH   1   8
TORSDOF 7
ENDMDL
