MODEL 1
REMARK VINA RESULT:    -4.668      0.000      0.000
REMARK INTER + INTRA:          -5.038
REMARK INTER:                  -4.941
REMARK INTRA:                  -0.097
REMARK UNBOUND:                -0.097
REMARK SMILES C=C(C)[C@H]1CC=C(C)C(=O)C1
REMARK SMILES IDX 8 1 7 2 6 3 5 4 4 5 11 6 9 7 10 8 2 9 1 10 3 11
REMARK H PARENT
REMARK Flexibility Score: inf
ROOT
ATOM      1  C   UNL     1      65.609 -14.025  11.331  1.00  0.00     0.048 C 
ATOM      2  C   UNL     1      66.367 -14.773  12.393  1.00  0.00    -0.012 C 
ATOM      3  C   UNL     1      67.666 -14.504  12.603  1.00  0.00    -0.019 C 
ATOM      4  C   UNL     1      68.476 -15.236  13.640  1.00  0.00     0.036 C 
ATOM      5  C   UNL     1      67.604 -15.632  14.847  1.00  0.00     0.025 C 
ATOM      6  C   UNL     1      66.383 -16.445  14.378  1.00  0.00     0.089 C 
ATOM      7  C   UNL     1      65.650 -15.717  13.286  1.00  0.00     0.158 C 
ATOM      8  O   UNL     1      64.422 -15.944  13.114  1.00  0.00    -0.295 OA
ENDROOT
BRANCH   5   9
ATOM      9  C   UNL     1      68.408 -16.383  15.900  1.00  0.00    -0.077 C 
ATOM     10  C   UNL     1      67.809 -16.967  16.952  1.00  0.00     0.008 C 
ATOM     11  C   UNL     1      69.906 -16.485  15.776  1.00  0.00     0.039 C 
ENDBRANCH   5   9
TORSDOF 1
ENDMDL
MODEL 2
REMARK VINA RESULT:    -4.508      1.541      2.117
REMARK INTER + INTRA:          -4.868
REMARK INTER:                  -4.773
REMARK INTRA:                  -0.095
REMARK UNBOUND:                -0.097
REMARK SMILES C=C(C)[C@H]1CC=C(C)C(=O)C1
REMARK SMILES IDX 8 1 7 2 6 3 5 4 4 5 11 6 9 7 10 8 2 9 1 10 3 11
REMARK H PARENT
REMARK Flexibility Score: inf
ROOT
ATOM      1  C   UNL     1      65.848 -14.382  10.893  1.00  0.00     0.048 C 
ATOM      2  C   UNL     1      66.372 -14.820  12.233  1.00  0.00    -0.012 C 
ATOM      3  C   UNL     1      65.519 -15.263  13.173  1.00  0.00    -0.019 C 
ATOM      4  C   UNL     1      65.989 -15.697  14.536  1.00  0.00     0.036 C 
ATOM      5  C   UNL     1      67.394 -16.324  14.465  1.00  0.00     0.025 C 
ATOM      6  C   UNL     1      68.379 -15.352  13.791  1.00  0.00     0.089 C 
ATOM      7  C   UNL     1      67.836 -14.879  12.471  1.00  0.00     0.158 C 
ATOM      8  O   UNL     1      68.640 -14.498  11.578  1.00  0.00    -0.295 OA
ENDROOT
BRANCH   5   9
ATOM      9  C   UNL     1      67.886 -16.759  15.839  1.00  0.00    -0.077 C 
ATOM     10  C   UNL     1      67.027 -17.125  16.806  1.00  0.00     0.008 C 
ATOM     11  C   UNL     1      69.363 -16.789  16.139  1.00  0.00     0.039 C 
ENDBRANCH   5   9
TORSDOF 1
ENDMDL
MODEL 3
REMARK VINA RESULT:    -4.465      1.947      4.640
REMARK INTER + INTRA:          -4.823
REMARK INTER:                  -4.734
REMARK INTRA:                  -0.089
REMARK UNBOUND:                -0.097
REMARK SMILES C=C(C)[C@H]1CC=C(C)C(=O)C1
REMARK SMILES IDX 8 1 7 2 6 3 5 4 4 5 11 6 9 7 10 8 2 9 1 10 3 11
REMARK H PARENT
REMARK Flexibility Score: inf
ROOT
ATOM      1  C   UNL     1      67.809 -17.096  17.048  1.00  0.00     0.048 C 
ATOM      2  C   UNL     1      67.453 -16.561  15.687  1.00  0.00    -0.012 C 
ATOM      3  C   UNL     1      66.166 -16.499  15.309  1.00  0.00    -0.019 C 
ATOM      4  C   UNL     1      65.756 -15.989  13.952  1.00  0.00     0.036 C 
ATOM      5  C   UNL     1      66.721 -14.895  13.456  1.00  0.00     0.025 C 
ATOM      6  C   UNL     1      68.170 -15.416  13.471  1.00  0.00     0.089 C 
ATOM      7  C   UNL     1      68.512 -15.990  14.818  1.00  0.00     0.158 C 
ATOM      8  O   UNL     1      69.717 -16.015  15.187  1.00  0.00    -0.295 OA
ENDROOT
BRANCH   5   9
ATOM      9  C   UNL     1      66.325 -14.377  12.080  1.00  0.00    -0.077 C 
ATOM     10  C   UNL     1      65.381 -13.432  11.934  1.00  0.00     0.008 C 
ATOM     11  C   UNL     1      66.996 -14.922  10.845  1.00  0.00     0.039 C 
ENDBRANCH   5   9
TORSDOF 1
ENDMDL
MODEL 4
REMARK VINA RESULT:    -3.999      2.848      3.502
REMARK INTER + INTRA:          -4.329
REMARK INTER:                  -4.234
REMARK INTRA:                  -0.095
REMARK UNBOUND:                -0.097
REMARK SMILES C=C(C)[C@H]1CC=C(C)C(=O)C1
REMARK SMILES IDX 8 1 7 2 6 3 5 4 4 5 11 6 9 7 10 8 2 9 1 10 3 11
REMARK H PARENT
REMARK Flexibility Score: inf
ROOT
ATOM      1  C   UNL     1      68.357 -16.592   8.596  1.00  0.00     0.048 C 
ATOM      2  C   UNL     1      67.974 -16.290  10.018  1.00  0.00    -0.012 C 
ATOM      3  C   UNL     1      67.111 -17.093  10.663  1.00  0.00    -0.019 C 
ATOM      4  C   UNL     1      66.680 -16.827  12.081  1.00  0.00     0.036 C 
ATOM      5  C   UNL     1      67.813 -16.166  12.891  1.00  0.00     0.025 C 
ATOM      6  C   UNL     1      68.302 -14.890  12.180  1.00  0.00     0.089 C 
ATOM      7  C   UNL     1      68.643 -15.182  10.745  1.00  0.00     0.158 C 
ATOM      8  O   UNL     1      69.481 -14.450  10.153  1.00  0.00    -0.295 OA
ENDROOT
BRANCH   5   9
ATOM      9  C   UNL     1      67.388 -15.882  14.325  1.00  0.00    -0.077 C 
ATOM     10  C   UNL     1      66.096 -15.695  14.648  1.00  0.00     0.008 C 
ATOM     11  C   UNL     1      68.422 -15.808  15.419  1.00  0.00     0.039 C 
ENDBRANCH   5   9
TORSDOF 1
ENDMDL
MODEL 5
REMARK VINA RESULT:    -3.890      1.428      4.279
REMARK INTER + INTRA:          -4.215
REMARK INTER:                  -4.126
REMARK INTRA:                  -0.089
REMARK UNBOUND:                -0.097
REMARK SMILES C=C(C)[C@H]1CC=C(C)C(=O)C1
REMARK SMILES IDX 8 1 7 2 6 3 5 4 4 5 11 6 9 7 10 8 2 9 1 10 3 11
REMARK H PARENT
REMARK Flexibility Score: inf
ROOT
ATOM      1  C   UNL     1      68.502 -17.120  16.889  1.00  0.00     0.048 C 
ATOM      2  C   UNL     1      67.969 -16.405  15.679  1.00  0.00    -0.012 C 
ATOM      3  C   UNL     1      68.815 -15.773  14.848  1.00  0.00    -0.019 C 
ATOM      4  C   UNL     1      68.333 -15.027  13.632  1.00  0.00     0.036 C 
ATOM      5  C   UNL     1      67.077 -15.691  13.035  1.00  0.00     0.025 C 
ATOM      6  C   UNL     1      65.983 -15.825  14.110  1.00  0.00     0.089 C 
ATOM      7  C   UNL     1      66.527 -16.501  15.338  1.00  0.00     0.158 C 
ATOM      8  O   UNL     1      65.736 -17.124  16.097  1.00  0.00    -0.295 OA
ENDROOT
BRANCH   5   9
ATOM      9  C   UNL     1      66.572 -14.941  11.810  1.00  0.00    -0.077 C 
ATOM     10  C   UNL     1      66.979 -15.269  10.572  1.00  0.00     0.008 C 
ATOM     11  C   UNL     1      65.593 -13.806  11.970  1.00  0.00     0.039 C 
ENDBRANCH   5   9
TORSDOF 1
ENDMDL
MODEL 6
REMARK VINA RESULT:    -3.838      2.255      4.253
REMARK INTER + INTRA:          -4.160
REMARK INTER:                  -4.062
REMARK INTRA:                  -0.097
REMARK UNBOUND:                -0.097
REMARK SMILES C=C(C)[C@H]1CC=C(C)C(=O)C1
REMARK SMILES IDX 8 1 7 2 6 3 5 4 4 5 11 6 9 7 10 8 2 9 1 10 3 11
REMARK H PARENT
REMARK Flexibility Score: inf
ROOT
ATOM      1  C   UNL     1      65.991 -15.951  14.945  1.00  0.00     0.048 C 
ATOM      2  C   UNL     1      66.608 -15.703  13.596  1.00  0.00    -0.012 C 
ATOM      3  C   UNL     1      67.798 -15.085  13.509  1.00  0.00    -0.019 C 
ATOM      4  C   UNL     1      68.452 -14.797  12.184  1.00  0.00     0.036 C 
ATOM      5  C   UNL     1      68.112 -15.886  11.148  1.00  0.00     0.025 C 
ATOM      6  C   UNL     1      66.586 -16.045  11.023  1.00  0.00     0.089 C 
ATOM      7  C   UNL     1      65.963 -16.249  12.376  1.00  0.00     0.158 C 
ATOM      8  O   UNL     1      64.864 -16.861  12.460  1.00  0.00    -0.295 OA
ENDROOT
BRANCH   5   9
ATOM      9  C   UNL     1      68.759 -15.601   9.799  1.00  0.00    -0.077 C 
ATOM     10  C   UNL     1      68.431 -16.308   8.704  1.00  0.00     0.008 C 
ATOM     11  C   UNL     1      69.789 -14.508   9.670  1.00  0.00     0.039 C 
ENDBRANCH   5   9
TORSDOF 1
ENDMDL
MODEL 7
REMARK VINA RESULT:    -3.813      2.717      4.694
REMARK INTER + INTRA:          -4.133
REMARK INTER:                  -4.035
REMARK INTRA:                  -0.098
REMARK UNBOUND:                -0.097
REMARK SMILES C=C(C)[C@H]1CC=C(C)C(=O)C1
REMARK SMILES IDX 8 1 7 2 6 3 5 4 4 5 11 6 9 7 10 8 2 9 1 10 3 11
REMARK H PARENT
REMARK Flexibility Score: inf
ROOT
ATOM      1  C   UNL     1      64.794 -16.156  13.369  1.00  0.00     0.048 C 
ATOM      2  C   UNL     1      65.987 -16.041  12.462  1.00  0.00    -0.012 C 
ATOM      3  C   UNL     1      65.985 -16.665  11.271  1.00  0.00    -0.019 C 
ATOM      4  C   UNL     1      67.160 -16.597  10.332  1.00  0.00     0.036 C 
ATOM      5  C   UNL     1      67.888 -15.245  10.451  1.00  0.00     0.025 C 
ATOM      6  C   UNL     1      68.294 -14.983  11.913  1.00  0.00     0.089 C 
ATOM      7  C   UNL     1      67.110 -15.141  12.826  1.00  0.00     0.158 C 
ATOM      8  O   UNL     1      67.097 -14.526  13.927  1.00  0.00    -0.295 OA
ENDROOT
BRANCH   5   9
ATOM      9  C   UNL     1      69.086 -15.166   9.514  1.00  0.00    -0.077 C 
ATOM     10  C   UNL     1      70.075 -14.278   9.715  1.00  0.00     0.008 C 
ATOM     11  C   UNL     1      69.183 -16.096   8.331  1.00  0.00     0.039 C 
ENDBRANCH   5   9
TORSDOF 1
ENDMDL
MODEL 8
REMARK VINA RESULT:    -3.796      9.410     11.465
REMARK INTER + INTRA:          -4.115
REMARK INTER:                  -4.022
REMARK INTRA:                  -0.093
REMARK UNBOUND:                -0.097
REMARK SMILES C=C(C)[C@H]1CC=C(C)C(=O)C1
REMARK SMILES IDX 8 1 7 2 6 3 5 4 4 5 11 6 9 7 10 8 2 9 1 10 3 11
REMARK H PARENT
REMARK Flexibility Score: inf
ROOT
ATOM      1  C   UNL     1      57.333 -17.065  15.254  1.00  0.00     0.048 C 
ATOM      2  C   UNL     1      57.022 -16.905  13.791  1.00  0.00    -0.012 C 
ATOM      3  C   UNL     1      55.763 -16.645  13.400  1.00  0.00    -0.019 C 
ATOM      4  C   UNL     1      55.393 -16.492  11.948  1.00  0.00     0.036 C 
ATOM      5  C   UNL     1      56.554 -15.879  11.141  1.00  0.00     0.025 C 
ATOM      6  C   UNL     1      57.835 -16.712  11.334  1.00  0.00     0.089 C 
ATOM      7  C   UNL     1      58.123 -16.910  12.796  1.00  0.00     0.158 C 
ATOM      8  O   UNL     1      59.310 -17.118  13.165  1.00  0.00    -0.295 OA
ENDROOT
BRANCH   5   9
ATOM      9  C   UNL     1      56.199 -15.728   9.669  1.00  0.00    -0.077 C 
ATOM     10  C   UNL     1      55.766 -16.774   8.943  1.00  0.00     0.008 C 
ATOM     11  C   UNL     1      56.325 -14.386   8.994  1.00  0.00     0.039 C 
ENDBRANCH   5   9
TORSDOF 1
ENDMDL
MODEL 9
REMARK VINA RESULT:    -3.795     14.760     16.827
REMARK INTER + INTRA:          -4.114
REMARK INTER:                  -4.019
REMARK INTRA:                  -0.095
REMARK UNBOUND:                -0.097
REMARK SMILES C=C(C)[C@H]1CC=C(C)C(=O)C1
REMARK SMILES IDX 8 1 7 2 6 3 5 4 4 5 11 6 9 7 10 8 2 9 1 10 3 11
REMARK H PARENT
REMARK Flexibility Score: inf
ROOT
ATOM      1  C   UNL     1      69.786  -2.073  12.075  1.00  0.00     0.048 C 
ATOM      2  C   UNL     1      68.933  -1.120  11.283  1.00  0.00    -0.012 C 
ATOM      3  C   UNL     1      68.711   0.122  11.746  1.00  0.00    -0.019 C 
ATOM      4  C   UNL     1      67.851   1.109  11.002  1.00  0.00     0.036 C 
ATOM      5  C   UNL     1      67.957   0.901   9.479  1.00  0.00     0.025 C 
ATOM      6  C   UNL     1      67.620  -0.557   9.116  1.00  0.00     0.089 C 
ATOM      7  C   UNL     1      68.442  -1.510   9.938  1.00  0.00     0.158 C 
ATOM      8  O   UNL     1      68.680  -2.663   9.486  1.00  0.00    -0.295 OA
ENDROOT
BRANCH   5   9
ATOM      9  C   UNL     1      67.084   1.886   8.714  1.00  0.00    -0.077 C 
ATOM     10  C   UNL     1      66.851   3.125   9.183  1.00  0.00     0.008 C 
ATOM     11  C   UNL     1      66.461   1.484   7.402  1.00  0.00     0.039 C 
ENDBRANCH   5   9
TORSDOF 1
ENDMDL
