MODEL 1
REMARK VINA RESULT:    -5.078      0.000      0.000
REMARK INTER + INTRA:          -5.226
REMARK INTER:                  -5.226
REMARK INTRA:                   0.000
REMARK UNBOUND:                 0.000
REMARK SMILES Oc1ccc2[nH]ccc2c1
REMARK SMILES IDX 3 1 4 2 5 3 9 4 8 5 7 6 6 7 10 8 2 9 1 11
REMARK H PARENT 6 10 1 12
REMARK Flexibility Score: inf
ROOT
ATOM      1  C   UNL     1      15.574  39.157  20.796  1.00  0.00     0.048 A 
ATOM      2  C   UNL     1      16.139  38.546  21.931  1.00  0.00     0.030 A 
ATOM      3  C   UNL     1      17.405  37.980  21.803  1.00  0.00     0.046 A 
ATOM      4  C   UNL     1      18.091  38.010  20.619  1.00  0.00     0.003 A 
ATOM      5  C   UNL     1      19.296  37.375  20.823  1.00  0.00     0.028 A 
ATOM      6  C   UNL     1      19.277  36.981  22.158  1.00  0.00     0.083 A 
ATOM      7  N   UNL     1      18.120  37.354  22.752  1.00  0.00    -0.361 N 
ATOM      8  C   UNL     1      17.562  38.607  19.477  1.00  0.00     0.056 A 
ATOM      9  C   UNL     1      16.280  39.189  19.571  1.00  0.00     0.116 A 
ATOM     10  H   UNL     1      17.843  37.186  23.746  1.00  0.00     0.166 HD
ENDROOT
BRANCH   9  11
ATOM     11  O   UNL     1      15.699  39.801  18.463  1.00  0.00    -0.508 OA
ATOM     12  H   UNL     1      15.317  39.256  17.698  1.00  0.00     0.293 HD
ENDBRANCH   9  11
TORSDOF 1
ENDMDL
MODEL 2
REMARK VINA RESULT:    -4.989     14.539     15.622
REMARK INTER + INTRA:          -5.135
REMARK INTER:                  -5.135
REMARK INTRA:                   0.000
REMARK UNBOUND:                 0.000
REMARK SMILES Oc1ccc2[nH]ccc2c1
REMARK SMILES IDX 3 1 4 2 5 3 9 4 8 5 7 6 6 7 10 8 2 9 1 11
REMARK H PARENT 6 10 1 12
REMARK Flexibility Score: inf
ROOT
ATOM      1  C   UNL     1       1.955  31.597  17.170  1.00  0.00     0.048 A 
ATOM      2  C   UNL     1       1.822  32.939  17.573  1.00  0.00     0.030 A 
ATOM      3  C   UNL     1       2.884  33.520  18.263  1.00  0.00     0.046 A 
ATOM      4  C   UNL     1       4.027  32.822  18.545  1.00  0.00     0.003 A 
ATOM      5  C   UNL     1       4.872  33.670  19.227  1.00  0.00     0.028 A 
ATOM      6  C   UNL     1       4.177  34.872  19.324  1.00  0.00     0.083 A 
ATOM      7  N   UNL     1       2.964  34.775  18.734  1.00  0.00    -0.361 N 
ATOM      8  C   UNL     1       4.193  31.493  18.161  1.00  0.00     0.056 A 
ATOM      9  C   UNL     1       3.135  30.873  17.461  1.00  0.00     0.116 A 
ATOM     10  H   UNL     1       2.240  35.525  18.661  1.00  0.00     0.166 HD
ENDROOT
BRANCH   9  11
ATOM     11  O   UNL     1       3.242  29.546  17.050  1.00  0.00    -0.508 OA
ATOM     12  H   UNL     1       2.605  28.835  17.391  1.00  0.00     0.293 HD
ENDBRANCH   9  11
TORSDOF 1
ENDMDL
MODEL 3
REMARK VINA RESULT:    -4.986     11.835     12.847
REMARK INTER + INTRA:          -5.131
REMARK INTER:                  -5.131
REMARK INTRA:                   0.000
REMARK UNBOUND:                 0.000
REMARK SMILES Oc1ccc2[nH]ccc2c1
REMARK SMILES IDX 3 1 4 2 5 3 9 4 8 5 7 6 6 7 10 8 2 9 1 11
REMARK H PARENT 6 10 1 12
REMARK Flexibility Score: inf
ROOT
ATOM      1  C   UNL     1      14.074  31.912  30.138  1.00  0.00     0.048 A 
ATOM      2  C   UNL     1      13.088  32.187  31.103  1.00  0.00     0.030 A 
ATOM      3  C   UNL     1      11.769  31.853  30.799  1.00  0.00     0.046 A 
ATOM      4  C   UNL     1      11.430  31.274  29.606  1.00  0.00     0.003 A 
ATOM      5  C   UNL     1      10.067  31.071  29.618  1.00  0.00     0.028 A 
ATOM      6  C   UNL     1       9.640  31.551  30.853  1.00  0.00     0.083 A 
ATOM      7  N   UNL     1      10.684  32.026  31.570  1.00  0.00    -0.361 N 
ATOM      8  C   UNL     1      12.381  30.988  28.629  1.00  0.00     0.056 A 
ATOM      9  C   UNL     1      13.726  31.315  28.904  1.00  0.00     0.116 A 
ATOM     10  H   UNL     1      10.648  32.443  32.528  1.00  0.00     0.166 HD
ENDROOT
BRANCH   9  11
ATOM     11  O   UNL     1      14.722  31.053  27.966  1.00  0.00    -0.508 OA
ATOM     12  H   UNL     1      15.521  30.473  28.193  1.00  0.00     0.293 HD
ENDBRANCH   9  11
TORSDOF 1
ENDMDL
MODEL 4
REMARK VINA RESULT:    -4.896      1.867      2.481
REMARK INTER + INTRA:          -5.039
REMARK INTER:                  -5.039
REMARK INTRA:                   0.000
REMARK UNBOUND:                 0.000
REMARK SMILES Oc1ccc2[nH]ccc2c1
REMARK SMILES IDX 3 1 4 2 5 3 9 4 8 5 7 6 6 7 10 8 2 9 1 11
REMARK H PARENT 6 10 1 12
REMARK Flexibility Score: inf
ROOT
ATOM      1  C   UNL     1      15.327  39.621  20.300  1.00  0.00     0.048 A 
ATOM      2  C   UNL     1      16.418  39.369  19.447  1.00  0.00     0.030 A 
ATOM      3  C   UNL     1      17.459  38.583  19.935  1.00  0.00     0.046 A 
ATOM      4  C   UNL     1      17.435  38.062  21.201  1.00  0.00     0.003 A 
ATOM      5  C   UNL     1      18.596  37.341  21.373  1.00  0.00     0.028 A 
ATOM      6  C   UNL     1      19.281  37.464  20.169  1.00  0.00     0.083 A 
ATOM      7  N   UNL     1      18.583  38.223  19.294  1.00  0.00    -0.361 N 
ATOM      8  C   UNL     1      16.371  38.291  22.072  1.00  0.00     0.056 A 
ATOM      9  C   UNL     1      15.301  39.085  21.609  1.00  0.00     0.116 A 
ATOM     10  H   UNL     1      18.863  38.476  18.319  1.00  0.00     0.166 HD
ENDROOT
BRANCH   9  11
ATOM     11  O   UNL     1      14.209  39.349  22.433  1.00  0.00    -0.508 OA
ATOM     12  H   UNL     1      14.062  40.266  22.838  1.00  0.00     0.293 HD
ENDBRANCH   9  11
TORSDOF 1
ENDMDL
MODEL 5
REMARK VINA RESULT:    -4.779     13.927     15.084
REMARK INTER + INTRA:          -4.919
REMARK INTER:                  -4.919
REMARK INTRA:                   0.000
REMARK UNBOUND:                 0.000
REMARK SMILES Oc1ccc2[nH]ccc2c1
REMARK SMILES IDX 3 1 4 2 5 3 9 4 8 5 7 6 6 7 10 8 2 9 1 11
REMARK H PARENT 6 10 1 12
REMARK Flexibility Score: inf
ROOT
ATOM      1  C   UNL     1       3.882  35.119  19.222  1.00  0.00     0.048 A 
ATOM      2  C   UNL     1       2.736  34.635  18.564  1.00  0.00     0.030 A 
ATOM      3  C   UNL     1       2.732  33.302  18.158  1.00  0.00     0.046 A 
ATOM      4  C   UNL     1       3.800  32.477  18.386  1.00  0.00     0.003 A 
ATOM      5  C   UNL     1       3.484  31.240  17.871  1.00  0.00     0.028 A 
ATOM      6  C   UNL     1       2.204  31.383  17.343  1.00  0.00     0.083 A 
ATOM      7  N   UNL     1       1.749  32.644  17.521  1.00  0.00    -0.361 N 
ATOM      8  C   UNL     1       4.950  32.923  19.034  1.00  0.00     0.056 A 
ATOM      9  C   UNL     1       4.988  34.269  19.458  1.00  0.00     0.116 A 
ATOM     10  H   UNL     1       0.823  33.025  17.223  1.00  0.00     0.166 HD
ENDROOT
BRANCH   9  11
ATOM     11  O   UNL     1       6.110  34.773  20.112  1.00  0.00    -0.508 OA
ATOM     12  H   UNL     1       7.030  34.374  19.964  1.00  0.00     0.293 HD
ENDBRANCH   9  11
TORSDOF 1
ENDMDL
MODEL 6
REMARK VINA RESULT:    -4.773     11.482     12.524
REMARK INTER + INTRA:          -4.913
REMARK INTER:                  -4.913
REMARK INTRA:                   0.000
REMARK UNBOUND:                 0.000
REMARK SMILES Oc1ccc2[nH]ccc2c1
REMARK SMILES IDX 3 1 4 2 5 3 9 4 8 5 7 6 6 7 10 8 2 9 1 11
REMARK H PARENT 6 10 1 12
REMARK Flexibility Score: inf
ROOT
ATOM      1  C   UNL     1      12.428  31.238  27.188  1.00  0.00     0.048 A 
ATOM      2  C   UNL     1      11.041  31.407  27.358  1.00  0.00     0.030 A 
ATOM      3  C   UNL     1      10.560  31.580  28.654  1.00  0.00     0.046 A 
ATOM      4  C   UNL     1      11.397  31.589  29.737  1.00  0.00     0.003 A 
ATOM      5  C   UNL     1      10.619  31.780  30.858  1.00  0.00     0.028 A 
ATOM      6  C   UNL     1       9.316  31.879  30.383  1.00  0.00     0.083 A 
ATOM      7  N   UNL     1       9.285  31.757  29.036  1.00  0.00    -0.361 N 
ATOM      8  C   UNL     1      12.774  31.425  29.605  1.00  0.00     0.056 A 
ATOM      9  C   UNL     1      13.295  31.246  28.306  1.00  0.00     0.116 A 
ATOM     10  H   UNL     1       8.440  31.794  28.422  1.00  0.00     0.166 HD
ENDROOT
BRANCH   9  11
ATOM     11  O   UNL     1      14.664  31.077  28.111  1.00  0.00    -0.508 OA
ATOM     12  H   UNL     1      15.048  30.902  27.189  1.00  0.00     0.293 HD
ENDBRANCH   9  11
TORSDOF 1
ENDMDL
MODEL 7
REMARK VINA RESULT:    -4.770      9.597     10.578
REMARK INTER + INTRA:          -4.910
REMARK INTER:                  -4.910
REMARK INTRA:                   0.000
REMARK UNBOUND:                 0.000
REMARK SMILES Oc1ccc2[nH]ccc2c1
REMARK SMILES IDX 3 1 4 2 5 3 9 4 8 5 7 6 6 7 10 8 2 9 1 11
REMARK H PARENT 6 10 1 12
REMARK Flexibility Score: inf
ROOT
ATOM      1  C   UNL     1      10.026  33.278  24.391  1.00  0.00     0.048 A 
ATOM      2  C   UNL     1       9.331  32.335  25.171  1.00  0.00     0.030 A 
ATOM      3  C   UNL     1       9.707  32.189  26.505  1.00  0.00     0.046 A 
ATOM      4  C   UNL     1      10.717  32.932  27.053  1.00  0.00     0.003 A 
ATOM      5  C   UNL     1      10.839  32.554  28.372  1.00  0.00     0.028 A 
ATOM      6  C   UNL     1       9.869  31.574  28.559  1.00  0.00     0.083 A 
ATOM      7  N   UNL     1       9.180  31.355  27.416  1.00  0.00    -0.361 N 
ATOM      8  C   UNL     1      11.426  33.874  26.310  1.00  0.00     0.056 A 
ATOM      9  C   UNL     1      11.071  34.047  24.955  1.00  0.00     0.116 A 
ATOM     10  H   UNL     1       8.399  30.676  27.275  1.00  0.00     0.166 HD
ENDROOT
BRANCH   9  11
ATOM     11  O   UNL     1      11.743  34.974  24.162  1.00  0.00    -0.508 OA
ATOM     12  H   UNL     1      12.435  35.601  24.554  1.00  0.00     0.293 HD
ENDBRANCH   9  11
TORSDOF 1
ENDMDL
MODEL 8
REMARK VINA RESULT:    -4.761     14.665     15.500
REMARK INTER + INTRA:          -4.900
REMARK INTER:                  -4.900
REMARK INTRA:                   0.000
REMARK UNBOUND:                 0.000
REMARK SMILES Oc1ccc2[nH]ccc2c1
REMARK SMILES IDX 3 1 4 2 5 3 9 4 8 5 7 6 6 7 10 8 2 9 1 11
REMARK H PARENT 6 10 1 12
REMARK Flexibility Score: inf
ROOT
ATOM      1  C   UNL     1       2.063  33.216  17.731  1.00  0.00     0.048 A 
ATOM      2  C   UNL     1       2.232  31.907  17.242  1.00  0.00     0.030 A 
ATOM      3  C   UNL     1       3.360  31.200  17.651  1.00  0.00     0.046 A 
ATOM      4  C   UNL     1       4.281  31.745  18.504  1.00  0.00     0.003 A 
ATOM      5  C   UNL     1       5.263  30.801  18.710  1.00  0.00     0.028 A 
ATOM      6  C   UNL     1       4.874  29.701  17.951  1.00  0.00     0.083 A 
ATOM      7  N   UNL     1       3.711  29.950  17.307  1.00  0.00    -0.361 N 
ATOM      8  C   UNL     1       4.145  33.037  19.008  1.00  0.00     0.056 A 
ATOM      9  C   UNL     1       3.014  33.782  18.611  1.00  0.00     0.116 A 
ATOM     10  H   UNL     1       3.194  29.300  16.672  1.00  0.00     0.166 HD
ENDROOT
BRANCH   9  11
ATOM     11  O   UNL     1       2.822  35.079  19.083  1.00  0.00    -0.508 OA
ATOM     12  H   UNL     1       2.515  35.824  18.468  1.00  0.00     0.293 HD
ENDBRANCH   9  11
TORSDOF 1
ENDMDL
MODEL 9
REMARK VINA RESULT:    -4.616     14.897     16.002
REMARK INTER + INTRA:          -4.751
REMARK INTER:                  -4.751
REMARK INTRA:                   0.000
REMARK UNBOUND:                 0.000
REMARK SMILES Oc1ccc2[nH]ccc2c1
REMARK SMILES IDX 3 1 4 2 5 3 9 4 8 5 7 6 6 7 10 8 2 9 1 11
REMARK H PARENT 6 10 1 12
REMARK Flexibility Score: inf
ROOT
ATOM      1  C   UNL     1       4.372  33.254  19.081  1.00  0.00     0.048 A 
ATOM      2  C   UNL     1       4.577  31.904  18.742  1.00  0.00     0.030 A 
ATOM      3  C   UNL     1       3.592  31.265  17.992  1.00  0.00     0.046 A 
ATOM      4  C   UNL     1       2.457  31.916  17.590  1.00  0.00     0.003 A 
ATOM      5  C   UNL     1       1.697  31.017  16.875  1.00  0.00     0.028 A 
ATOM      6  C   UNL     1       2.431  29.835  16.881  1.00  0.00     0.083 A 
ATOM      7  N   UNL     1       3.588  29.992  17.564  1.00  0.00    -0.361 N 
ATOM      8  C   UNL     1       2.222  33.251  17.908  1.00  0.00     0.056 A 
ATOM      9  C   UNL     1       3.200  33.929  18.668  1.00  0.00     0.116 A 
ATOM     10  H   UNL     1       4.325  29.268  17.724  1.00  0.00     0.166 HD
ENDROOT
BRANCH   9  11
ATOM     11  O   UNL     1       3.021  35.266  19.017  1.00  0.00    -0.508 OA
ATOM     12  H   UNL     1       2.499  35.901  18.425  1.00  0.00     0.293 HD
ENDBRANCH   9  11
TORSDOF 1
ENDMDL
