MODEL 1
REMARK VINA RESULT:     0.000      0.000      0.000
REMARK INTER + INTRA:           0.000
REMARK INTER:                   0.000
REMARK INTRA:                   0.000
REMARK UNBOUND:                 0.000
REMARK SMILES CC(=O)[O-]
REMARK SMILES IDX 1 1 2 2 3 3 4 4
REMARK H PARENT
REMARK Flexibility Score: inf
ROOT
ATOM      1  C   UNL     1     -10.110 -12.173  -3.241  1.00  0.00     0.063 C 
ATOM      2  C   UNL     1     -10.325 -10.930  -2.446  1.00  0.00     0.038 C 
ATOM      3  O   UNL     1     -10.835 -10.995  -1.297  1.00  0.00    -0.550 OA
ATOM      4  O   UNL     1      -9.913  -9.703  -2.948  1.00  0.00    -0.550 OA
ENDROOT
TORSDOF 0
ENDMDL
MODEL 2
REMARK VINA RESULT:     0.000      4.913      5.255
REMARK INTER + INTRA:           0.000
REMARK INTER:                   0.000
REMARK INTRA:                   0.000
REMARK UNBOUND:                 0.000
REMARK SMILES CC(=O)[O-]
REMARK SMILES IDX 1 1 2 2 3 3 4 4
REMARK H PARENT
REMARK Flexibility Score: inf
ROOT
ATOM      1  C   UNL     1      -5.994 -10.596  -4.414  1.00  0.00     0.063 C 
ATOM      2  C   UNL     1      -5.526 -11.557  -3.373  1.00  0.00     0.038 C 
ATOM      3  O   UNL     1      -4.368 -12.046  -3.441  1.00  0.00    -0.550 OA
ATOM      4  O   UNL     1      -6.345 -11.871  -2.297  1.00  0.00    -0.550 OA
ENDROOT
TORSDOF 0
ENDMDL
MODEL 3
REMARK VINA RESULT:     0.000      4.726      4.888
REMARK INTER + INTRA:           0.000
REMARK INTER:                   0.000
REMARK INTRA:                   0.000
REMARK UNBOUND:                 0.000
REMARK SMILES CC(=O)[O-]
REMARK SMILES IDX 1 1 2 2 3 3 4 4
REMARK H PARENT
REMARK Flexibility Score: inf
ROOT
ATOM      1  C   UNL     1      -4.404 -10.550  -3.280  1.00  0.00     0.063 C 
ATOM      2  C   UNL     1      -5.651 -10.097  -2.598  1.00  0.00     0.038 C 
ATOM      3  O   UNL     1      -6.560 -10.925  -2.330  1.00  0.00    -0.550 OA
ATOM      4  O   UNL     1      -5.788  -8.772  -2.207  1.00  0.00    -0.550 OA
ENDROOT
TORSDOF 0
ENDMDL
MODEL 4
REMARK VINA RESULT:     0.000     14.675     15.195
REMARK INTER + INTRA:           0.000
REMARK INTER:                   0.000
REMARK INTRA:                   0.000
REMARK UNBOUND:                 0.000
REMARK SMILES CC(=O)[O-]
REMARK SMILES IDX 1 1 2 2 3 3 4 4
REMARK H PARENT
REMARK Flexibility Score: inf
ROOT
ATOM      1  C   UNL     1      -9.496  -3.729 -17.013  1.00  0.00     0.063 C 
ATOM      2  C   UNL     1      -9.966  -4.929 -16.263  1.00  0.00     0.038 C 
ATOM      3  O   UNL     1     -10.264  -4.835 -15.044  1.00  0.00    -0.550 OA
ATOM      4  O   UNL     1     -10.128  -6.142 -16.920  1.00  0.00    -0.550 OA
ENDROOT
TORSDOF 0
ENDMDL
MODEL 5
REMARK VINA RESULT:     0.000     13.232     13.583
REMARK INTER + INTRA:           0.000
REMARK INTER:                   0.000
REMARK INTRA:                   0.000
REMARK UNBOUND:                 0.000
REMARK SMILES CC(=O)[O-]
REMARK SMILES IDX 1 1 2 2 3 3 4 4
REMARK H PARENT
REMARK Flexibility Score: inf
ROOT
ATOM      1  C   UNL     1      -8.976  -1.955 -10.895  1.00  0.00     0.063 C 
ATOM      2  C   UNL     1      -8.370  -0.602 -11.055  1.00  0.00     0.038 C 
ATOM      3  O   UNL     1      -8.966   0.413 -10.610  1.00  0.00    -0.550 OA
ATOM      4  O   UNL     1      -7.121  -0.465 -11.646  1.00  0.00    -0.550 OA
ENDROOT
TORSDOF 0
ENDMDL
MODEL 6
REMARK VINA RESULT:     0.000     14.266     14.631
REMARK INTER + INTRA:           0.000
REMARK INTER:                   0.000
REMARK INTRA:                   0.000
REMARK UNBOUND:                 0.000
REMARK SMILES CC(=O)[O-]
REMARK SMILES IDX 1 1 2 2 3 3 4 4
REMARK H PARENT
REMARK Flexibility Score: inf
ROOT
ATOM      1  C   UNL     1      -7.489  -2.078 -11.791  1.00  0.00     0.063 C 
ATOM      2  C   UNL     1      -7.363  -1.452 -13.139  1.00  0.00     0.038 C 
ATOM      3  O   UNL     1      -8.311  -0.770 -13.609  1.00  0.00    -0.550 OA
ATOM      4  O   UNL     1      -6.180  -1.572 -13.855  1.00  0.00    -0.550 OA
ENDROOT
TORSDOF 0
ENDMDL
MODEL 7
REMARK VINA RESULT:     0.000     13.505     13.947
REMARK INTER + INTRA:           0.000
REMARK INTER:                   0.000
REMARK INTRA:                   0.000
REMARK UNBOUND:                 0.000
REMARK SMILES CC(=O)[O-]
REMARK SMILES IDX 1 1 2 2 3 3 4 4
REMARK H PARENT
REMARK Flexibility Score: inf
ROOT
ATOM      1  C   UNL     1      -6.654  -2.070 -12.188  1.00  0.00     0.063 C 
ATOM      2  C   UNL     1      -6.797  -3.079 -13.276  1.00  0.00     0.038 C 
ATOM      3  O   UNL     1      -7.771  -3.876 -13.274  1.00  0.00    -0.550 OA
ATOM      4  O   UNL     1      -5.888  -3.105 -14.325  1.00  0.00    -0.550 OA
ENDROOT
TORSDOF 0
ENDMDL
MODEL 8
REMARK VINA RESULT:     0.000     11.777     12.419
REMARK INTER + INTRA:           0.000
REMARK INTER:                   0.000
REMARK INTRA:                   0.000
REMARK UNBOUND:                 0.000
REMARK SMILES CC(=O)[O-]
REMARK SMILES IDX 1 1 2 2 3 3 4 4
REMARK H PARENT
REMARK Flexibility Score: inf
ROOT
ATOM      1  C   UNL     1      -2.462  -2.160  -2.510  1.00  0.00     0.063 C 
ATOM      2  C   UNL     1      -1.143  -2.803  -2.774  1.00  0.00     0.038 C 
ATOM      3  O   UNL     1      -0.173  -2.112  -3.182  1.00  0.00    -0.550 OA
ATOM      4  O   UNL     1      -0.965  -4.156  -2.519  1.00  0.00    -0.550 OA
ENDROOT
TORSDOF 0
ENDMDL
MODEL 9
REMARK VINA RESULT:     0.000     11.425     11.808
REMARK INTER + INTRA:           0.000
REMARK INTER:                   0.000
REMARK INTRA:                   0.000
REMARK UNBOUND:                 0.000
REMARK SMILES CC(=O)[O-]
REMARK SMILES IDX 1 1 2 2 3 3 4 4
REMARK H PARENT
REMARK Flexibility Score: inf
ROOT
ATOM      1  C   UNL     1      -4.227  -2.744  -3.894  1.00  0.00     0.063 C 
ATOM      2  C   UNL     1      -3.451  -1.599  -4.451  1.00  0.00     0.038 C 
ATOM      3  O   UNL     1      -3.968  -0.453  -4.505  1.00  0.00    -0.550 OA
ATOM      4  O   UNL     1      -2.138  -1.783  -4.863  1.00  0.00    -0.550 OA
ENDROOT
TORSDOF 0
ENDMDL
