MODEL 1
REMARK VINA RESULT:    -3.565      0.000      0.000
REMARK INTER + INTRA:          -5.852
REMARK INTER:                  -5.441
REMARK INTRA:                  -0.411
REMARK UNBOUND:                -0.411
REMARK SMILES O=C([O-])CCCCCCCCC(=O)[O-]
REMARK SMILES IDX 7 1 6 2 5 3 4 4 2 5 1 6 3 7 8 8 9 9 10 10 11 11 12 12 13 13
REMARK SMILES IDX 14 14
REMARK H PARENT
REMARK Flexibility Score: inf
ROOT
ATOM      1  C   UNL     1      15.964  -3.720  14.879  1.00  0.00     0.000 C 
ENDROOT
BRANCH   1   2
ATOM      2  C   UNL     1      16.249  -5.025  14.116  1.00  0.00     0.000 C 
BRANCH   2   3
ATOM      3  C   UNL     1      15.929  -4.908  12.611  1.00  0.00     0.006 C 
BRANCH   3   4
ATOM      4  C   UNL     1      15.658  -6.261  11.936  1.00  0.00     0.053 C 
BRANCH   4   5
ATOM      5  C   UNL     1      15.242  -6.109  10.506  1.00  0.00     0.041 C 
ATOM      6  O   UNL     1      14.098  -6.481  10.135  1.00  0.00    -0.550 OA
ATOM      7  O   UNL     1      16.130  -5.580   9.576  1.00  0.00    -0.550 OA
ENDBRANCH   4   5
ENDBRANCH   3   4
ENDBRANCH   2   3
ENDBRANCH   1   2
BRANCH   1   8
ATOM      8  C   UNL     1      15.560  -2.559  13.951  1.00  0.00     0.000 C 
BRANCH   8   9
ATOM      9  C   UNL     1      15.949  -1.158  14.457  1.00  0.00     0.000 C 
BRANCH   9  10
ATOM     10  C   UNL     1      15.867  -1.028  15.984  1.00  0.00     0.006 C 
BRANCH  10  11
ATOM     11  C   UNL     1      16.885  -0.008  16.504  1.00  0.00     0.053 C 
BRANCH  11  12
ATOM     12  C   UNL     1      18.073  -0.704  17.088  1.00  0.00     0.041 C 
ATOM     13  O   UNL     1      18.242  -1.937  16.899  1.00  0.00    -0.550 OA
ATOM     14  O   UNL     1      18.969  -0.000  17.883  1.00  0.00    -0.550 OA
ENDBRANCH  11  12
ENDBRANCH  10  11
ENDBRANCH   9  10
ENDBRANCH   8   9
ENDBRANCH   1   8
TORSDOF 9
ENDMDL
MODEL 2
REMARK VINA RESULT:    -3.551      1.093      7.036
REMARK INTER + INTRA:          -5.829
REMARK INTER:                  -5.430
REMARK INTRA:                  -0.400
REMARK UNBOUND:                -0.411
REMARK SMILES O=C([O-])CCCCCCCCC(=O)[O-]
REMARK SMILES IDX 7 1 6 2 5 3 4 4 2 5 1 6 3 7 8 8 9 9 10 10 11 11 12 12 13 13
REMARK SMILES IDX 14 14
REMARK H PARENT
REMARK Flexibility Score: inf
ROOT
ATOM      1  C   UNL     1      16.151  -4.231  15.975  1.00  0.00     0.000 C 
ENDROOT
BRANCH   1   2
ATOM      2  C   UNL     1      15.479  -2.851  15.863  1.00  0.00     0.000 C 
BRANCH   2   3
ATOM      3  C   UNL     1      15.686  -2.208  14.476  1.00  0.00     0.006 C 
BRANCH   3   4
ATOM      4  C   UNL     1      16.236  -0.775  14.542  1.00  0.00     0.053 C 
BRANCH   4   5
ATOM      5  C   UNL     1      17.112  -0.557  15.735  1.00  0.00     0.041 C 
ATOM      6  O   UNL     1      16.756   0.233  16.648  1.00  0.00    -0.550 OA
ATOM      7  O   UNL     1      18.336  -1.209  15.828  1.00  0.00    -0.550 OA
ENDBRANCH   4   5
ENDBRANCH   3   4
ENDBRANCH   2   3
ENDBRANCH   1   2
BRANCH   1   8
ATOM      8  C   UNL     1      15.587  -5.256  14.974  1.00  0.00     0.000 C 
BRANCH   8   9
ATOM      9  C   UNL     1      16.560  -5.676  13.857  1.00  0.00     0.000 C 
BRANCH   9  10
ATOM     10  C   UNL     1      16.033  -5.356  12.451  1.00  0.00     0.006 C 
BRANCH  10  11
ATOM     11  C   UNL     1      15.451  -6.607  11.785  1.00  0.00     0.053 C 
BRANCH  11  12
ATOM     12  C   UNL     1      15.055  -6.313  10.373  1.00  0.00     0.041 C 
ATOM     13  O   UNL     1      13.886  -6.559   9.978  1.00  0.00    -0.550 OA
ATOM     14  O   UNL     1      15.992  -5.813   9.478  1.00  0.00    -0.550 OA
ENDBRANCH  11  12
ENDBRANCH  10  11
ENDBRANCH   9  10
ENDBRANCH   8   9
ENDBRANCH   1   8
TORSDOF 9
ENDMDL
MODEL 3
REMARK VINA RESULT:    -3.461      5.993      9.234
REMARK INTER + INTRA:          -5.693
REMARK INTER:                  -5.318
REMARK INTRA:                  -0.375
REMARK UNBOUND:                -0.411
REMARK SMILES O=C([O-])CCCCCCCCC(=O)[O-]
REMARK SMILES IDX 7 1 6 2 5 3 4 4 2 5 1 6 3 7 8 8 9 9 10 10 11 11 12 12 13 13
REMARK SMILES IDX 14 14
REMARK H PARENT
REMARK Flexibility Score: inf
ROOT
ATOM      1  C   UNL     1      16.138   3.674  14.186  1.00  0.00     0.000 C 
ENDROOT
BRANCH   1   2
ATOM      2  C   UNL     1      16.910   4.998  14.058  1.00  0.00     0.000 C 
BRANCH   2   3
ATOM      3  C   UNL     1      16.024   6.226  14.358  1.00  0.00     0.006 C 
BRANCH   3   4
ATOM      4  C   UNL     1      15.349   6.814  13.109  1.00  0.00     0.053 C 
BRANCH   4   5
ATOM      5  C   UNL     1      16.120   7.960  12.533  1.00  0.00     0.041 C 
ATOM      6  O   UNL     1      15.802   9.145  12.816  1.00  0.00    -0.550 OA
ATOM      7  O   UNL     1      17.175   7.720  11.661  1.00  0.00    -0.550 OA
ENDBRANCH   4   5
ENDBRANCH   3   4
ENDBRANCH   2   3
ENDBRANCH   1   2
BRANCH   1   8
ATOM      8  C   UNL     1      15.472   3.498  15.563  1.00  0.00     0.000 C 
BRANCH   8   9
ATOM      9  C   UNL     1      15.347   2.041  16.044  1.00  0.00     0.000 C 
BRANCH   9  10
ATOM     10  C   UNL     1      16.058   1.043  15.121  1.00  0.00     0.006 C 
BRANCH  10  11
ATOM     11  C   UNL     1      16.494  -0.206  15.894  1.00  0.00     0.053 C 
BRANCH  11  12
ATOM     12  C   UNL     1      16.296  -1.433  15.063  1.00  0.00     0.041 C 
ATOM     13  O   UNL     1      15.620  -1.379  14.002  1.00  0.00    -0.550 OA
ATOM     14  O   UNL     1      16.816  -2.650  15.486  1.00  0.00    -0.550 OA
ENDBRANCH  11  12
ENDBRANCH  10  11
ENDBRANCH   9  10
ENDBRANCH   8   9
ENDBRANCH   1   8
TORSDOF 9
ENDMDL
MODEL 4
REMARK VINA RESULT:    -3.447     14.497     16.326
REMARK INTER + INTRA:          -5.671
REMARK INTER:                  -5.408
REMARK INTRA:                  -0.264
REMARK UNBOUND:                -0.411
REMARK SMILES O=C([O-])CCCCCCCCC(=O)[O-]
REMARK SMILES IDX 7 1 6 2 5 3 4 4 2 5 1 6 3 7 8 8 9 9 10 10 11 11 12 12 13 13
REMARK SMILES IDX 14 14
REMARK H PARENT
REMARK Flexibility Score: inf
ROOT
ATOM      1  C   UNL     1      22.500  10.538   7.509  1.00  0.00     0.000 C 
ENDROOT
BRANCH   1   2
ATOM      2  C   UNL     1      22.800  10.749   6.015  1.00  0.00     0.000 C 
BRANCH   2   3
ATOM      3  C   UNL     1      24.280  11.100   5.757  1.00  0.00     0.006 C 
BRANCH   3   4
ATOM      4  C   UNL     1      25.143   9.884   5.385  1.00  0.00     0.053 C 
BRANCH   4   5
ATOM      5  C   UNL     1      26.240   9.643   6.374  1.00  0.00     0.041 C 
ATOM      6  O   UNL     1      26.279   8.569   7.029  1.00  0.00    -0.550 OA
ATOM      7  O   UNL     1      27.207  10.617   6.592  1.00  0.00    -0.550 OA
ENDBRANCH   4   5
ENDBRANCH   3   4
ENDBRANCH   2   3
ENDBRANCH   1   2
BRANCH   1   8
ATOM      8  C   UNL     1      21.057  10.919   7.891  1.00  0.00     0.000 C 
BRANCH   8   9
ATOM      9  C   UNL     1      20.414  10.029   8.970  1.00  0.00     0.000 C 
BRANCH   9  10
ATOM     10  C   UNL     1      19.136   9.329   8.486  1.00  0.00     0.006 C 
BRANCH  10  11
ATOM     11  C   UNL     1      18.726   8.210   9.448  1.00  0.00     0.053 C 
BRANCH  11  12
ATOM     12  C   UNL     1      17.695   8.700  10.414  1.00  0.00     0.041 C 
ATOM     13  O   UNL     1      17.458   8.056  11.469  1.00  0.00    -0.550 OA
ATOM     14  O   UNL     1      16.961   9.843  10.126  1.00  0.00    -0.550 OA
ENDBRANCH  11  12
ENDBRANCH  10  11
ENDBRANCH   9  10
ENDBRANCH   8   9
ENDBRANCH   1   8
TORSDOF 9
ENDMDL
MODEL 5
REMARK VINA RESULT:    -3.372      2.433      7.104
REMARK INTER + INTRA:          -5.557
REMARK INTER:                  -5.103
REMARK INTRA:                  -0.454
REMARK UNBOUND:                -0.411
REMARK SMILES O=C([O-])CCCCCCCCC(=O)[O-]
REMARK SMILES IDX 7 1 6 2 5 3 4 4 2 5 1 6 3 7 8 8 9 9 10 10 11 11 12 12 13 13
REMARK SMILES IDX 14 14
REMARK H PARENT
REMARK Flexibility Score: inf
ROOT
ATOM      1  C   UNL     1      16.256  -6.299  11.991  1.00  0.00     0.000 C 
ENDROOT
BRANCH   1   2
ATOM      2  C   UNL     1      15.639  -5.900  13.342  1.00  0.00     0.000 C 
BRANCH   2   3
ATOM      3  C   UNL     1      16.568  -4.980  14.163  1.00  0.00     0.006 C 
BRANCH   3   4
ATOM      4  C   UNL     1      15.811  -4.019  15.092  1.00  0.00     0.053 C 
BRANCH   4   5
ATOM      5  C   UNL     1      16.129  -2.585  14.806  1.00  0.00     0.041 C 
ATOM      6  O   UNL     1      17.015  -1.986  15.471  1.00  0.00    -0.550 OA
ATOM      7  O   UNL     1      15.429  -1.900  13.820  1.00  0.00    -0.550 OA
ENDBRANCH   4   5
ENDBRANCH   3   4
ENDBRANCH   2   3
ENDBRANCH   1   2
BRANCH   1   8
ATOM      8  C   UNL     1      15.532  -5.663  10.789  1.00  0.00     0.000 C 
BRANCH   8   9
ATOM      9  C   UNL     1      15.215  -6.630   9.634  1.00  0.00     0.000 C 
BRANCH   9  10
ATOM     10  C   UNL     1      16.304  -6.648   8.552  1.00  0.00     0.006 C 
BRANCH  10  11
ATOM     11  C   UNL     1      16.979  -5.278   8.431  1.00  0.00     0.053 C 
BRANCH  11  12
ATOM     12  C   UNL     1      18.465  -5.414   8.541  1.00  0.00     0.041 C 
ATOM     13  O   UNL     1      19.217  -4.848   7.705  1.00  0.00    -0.550 OA
ATOM     14  O   UNL     1      19.018  -6.207   9.538  1.00  0.00    -0.550 OA
ENDBRANCH  11  12
ENDBRANCH  10  11
ENDBRANCH   9  10
ENDBRANCH   8   9
ENDBRANCH   1   8
TORSDOF 9
ENDMDL
MODEL 6
REMARK VINA RESULT:    -3.370      1.676      2.180
REMARK INTER + INTRA:          -5.554
REMARK INTER:                  -5.249
REMARK INTRA:                  -0.304
REMARK UNBOUND:                -0.411
REMARK SMILES O=C([O-])CCCCCCCCC(=O)[O-]
REMARK SMILES IDX 7 1 6 2 5 3 4 4 2 5 1 6 3 7 8 8 9 9 10 10 11 11 12 12 13 13
REMARK SMILES IDX 14 14
REMARK H PARENT
REMARK Flexibility Score: inf
ROOT
ATOM      1  C   UNL     1      15.944  -4.462  13.459  1.00  0.00     0.000 C 
ENDROOT
BRANCH   1   2
ATOM      2  C   UNL     1      17.007  -5.574  13.469  1.00  0.00     0.000 C 
BRANCH   2   3
ATOM      3  C   UNL     1      16.855  -6.542  12.277  1.00  0.00     0.006 C 
BRANCH   3   4
ATOM      4  C   UNL     1      15.393  -6.816  11.892  1.00  0.00     0.053 C 
BRANCH   4   5
ATOM      5  C   UNL     1      15.060  -6.302  10.527  1.00  0.00     0.041 C 
ATOM      6  O   UNL     1      15.889  -5.596   9.895  1.00  0.00    -0.550 OA
ATOM      7  O   UNL     1      13.821  -6.581   9.961  1.00  0.00    -0.550 OA
ENDBRANCH   4   5
ENDBRANCH   3   4
ENDBRANCH   2   3
ENDBRANCH   1   2
BRANCH   1   8
ATOM      8  C   UNL     1      15.997  -3.571  14.714  1.00  0.00     0.000 C 
BRANCH   8   9
ATOM      9  C   UNL     1      15.584  -2.105  14.488  1.00  0.00     0.000 C 
BRANCH   9  10
ATOM     10  C   UNL     1      16.715  -1.111  14.784  1.00  0.00     0.006 C 
BRANCH  10  11
ATOM     11  C   UNL     1      16.194   0.329  14.789  1.00  0.00     0.053 C 
BRANCH  11  12
ATOM     12  C   UNL     1      15.831   0.751  16.176  1.00  0.00     0.041 C 
ATOM     13  O   UNL     1      16.583   0.464  17.144  1.00  0.00    -0.550 OA
ATOM     14  O   UNL     1      14.635   1.420  16.409  1.00  0.00    -0.550 OA
ENDBRANCH  11  12
ENDBRANCH  10  11
ENDBRANCH   9  10
ENDBRANCH   8   9
ENDBRANCH   1   8
TORSDOF 9
ENDMDL
MODEL 7
REMARK VINA RESULT:    -3.356     16.960     18.763
REMARK INTER + INTRA:          -5.532
REMARK INTER:                  -5.047
REMARK INTRA:                  -0.486
REMARK UNBOUND:                -0.411
REMARK SMILES O=C([O-])CCCCCCCCC(=O)[O-]
REMARK SMILES IDX 7 1 6 2 5 3 4 4 2 5 1 6 3 7 8 8 9 9 10 10 11 11 12 12 13 13
REMARK SMILES IDX 14 14
REMARK H PARENT
REMARK Flexibility Score: inf
ROOT
ATOM      1  C   UNL     1      23.466  10.535   6.070  1.00  0.00     0.000 C 
ENDROOT
BRANCH   1   2
ATOM      2  C   UNL     1      23.335  12.063   6.196  1.00  0.00     0.000 C 
BRANCH   2   3
ATOM      3  C   UNL     1      22.056  12.482   6.952  1.00  0.00     0.006 C 
BRANCH   3   4
ATOM      4  C   UNL     1      21.042  11.340   7.122  1.00  0.00     0.053 C 
BRANCH   4   5
ATOM      5  C   UNL     1      20.569  11.208   8.536  1.00  0.00     0.041 C 
ATOM      6  O   UNL     1      20.181  12.222   9.173  1.00  0.00    -0.550 OA
ATOM      7  O   UNL     1      20.580   9.966   9.159  1.00  0.00    -0.550 OA
ENDBRANCH   4   5
ENDBRANCH   3   4
ENDBRANCH   2   3
ENDBRANCH   1   2
BRANCH   1   8
ATOM      8  C   UNL     1      24.868  10.089   5.615  1.00  0.00     0.000 C 
BRANCH   8   9
ATOM      9  C   UNL     1      25.727   9.429   6.708  1.00  0.00     0.000 C 
BRANCH   9  10
ATOM     10  C   UNL     1      27.225   9.730   6.557  1.00  0.00     0.006 C 
BRANCH  10  11
ATOM     11  C   UNL     1      27.484  10.629   5.344  1.00  0.00     0.053 C 
BRANCH  11  12
ATOM     12  C   UNL     1      28.112  11.917   5.770  1.00  0.00     0.041 C 
ATOM     13  O   UNL     1      29.250  12.240   5.341  1.00  0.00    -0.550 OA
ATOM     14  O   UNL     1      27.461  12.740   6.681  1.00  0.00    -0.550 OA
ENDBRANCH  11  12
ENDBRANCH  10  11
ENDBRANCH   9  10
ENDBRANCH   8   9
ENDBRANCH   1   8
TORSDOF 9
ENDMDL
MODEL 8
REMARK VINA RESULT:    -3.303     11.887     12.865
REMARK INTER + INTRA:          -5.452
REMARK INTER:                  -4.556
REMARK INTRA:                  -0.896
REMARK UNBOUND:                -0.411
REMARK SMILES O=C([O-])CCCCCCCCC(=O)[O-]
REMARK SMILES IDX 7 1 6 2 5 3 4 4 2 5 1 6 3 7 8 8 9 9 10 10 11 11 12 12 13 13
REMARK SMILES IDX 14 14
REMARK H PARENT
REMARK Flexibility Score: inf
ROOT
ATOM      1  C   UNL     1      21.088   1.266   2.491  1.00  0.00     0.000 C 
ENDROOT
BRANCH   1   2
ATOM      2  C   UNL     1      19.783   1.519   3.266  1.00  0.00     0.000 C 
BRANCH   2   3
ATOM      3  C   UNL     1      19.420   3.017   3.334  1.00  0.00     0.006 C 
BRANCH   3   4
ATOM      4  C   UNL     1      19.625   3.635   4.725  1.00  0.00     0.053 C 
BRANCH   4   5
ATOM      5  C   UNL     1      18.538   4.600   5.083  1.00  0.00     0.041 C 
ATOM      6  O   UNL     1      17.340   4.339   4.801  1.00  0.00    -0.550 OA
ATOM      7  O   UNL     1      18.853   5.801   5.707  1.00  0.00    -0.550 OA
ENDBRANCH   4   5
ENDBRANCH   3   4
ENDBRANCH   2   3
ENDBRANCH   1   2
BRANCH   1   8
ATOM      8  C   UNL     1      22.086   0.386   3.266  1.00  0.00     0.000 C 
BRANCH   8   9
ATOM      9  C   UNL     1      21.728   0.144   4.744  1.00  0.00     0.000 C 
BRANCH   9  10
ATOM     10  C   UNL     1      22.802   0.661   5.711  1.00  0.00     0.006 C 
BRANCH  10  11
ATOM     11  C   UNL     1      22.454   2.064   6.219  1.00  0.00     0.053 C 
BRANCH  11  12
ATOM     12  C   UNL     1      23.400   3.076   5.656  1.00  0.00     0.041 C 
ATOM     13  O   UNL     1      23.159   3.621   4.547  1.00  0.00    -0.550 OA
ATOM     14  O   UNL     1      24.574   3.382   6.331  1.00  0.00    -0.550 OA
ENDBRANCH  11  12
ENDBRANCH  10  11
ENDBRANCH   9  10
ENDBRANCH   8   9
ENDBRANCH   1   8
TORSDOF 9
ENDMDL
MODEL 9
REMARK VINA RESULT:    -3.277     17.499     19.170
REMARK INTER + INTRA:          -5.411
REMARK INTER:                  -4.732
REMARK INTRA:                  -0.679
REMARK UNBOUND:                -0.411
REMARK SMILES O=C([O-])CCCCCCCCC(=O)[O-]
REMARK SMILES IDX 7 1 6 2 5 3 4 4 2 5 1 6 3 7 8 8 9 9 10 10 11 11 12 12 13 13
REMARK SMILES IDX 14 14
REMARK H PARENT
REMARK Flexibility Score: inf
ROOT
ATOM      1  C   UNL     1      25.760   9.415   6.609  1.00  0.00     0.000 C 
ENDROOT
BRANCH   1   2
ATOM      2  C   UNL     1      27.223   9.203   6.184  1.00  0.00     0.000 C 
BRANCH   2   3
ATOM      3  C   UNL     1      27.505   9.735   4.762  1.00  0.00     0.006 C 
BRANCH   3   4
ATOM      4  C   UNL     1      28.511  10.896   4.731  1.00  0.00     0.053 C 
BRANCH   4   5
ATOM      5  C   UNL     1      27.924  12.169   5.255  1.00  0.00     0.041 C 
ATOM      6  O   UNL     1      27.363  12.979   4.471  1.00  0.00    -0.550 OA
ATOM      7  O   UNL     1      28.020  12.474   6.607  1.00  0.00    -0.550 OA
ENDBRANCH   4   5
ENDBRANCH   3   4
ENDBRANCH   2   3
ENDBRANCH   1   2
BRANCH   1   8
ATOM      8  C   UNL     1      24.887  10.002   5.484  1.00  0.00     0.000 C 
BRANCH   8   9
ATOM      9  C   UNL     1      24.316  11.404   5.768  1.00  0.00     0.000 C 
BRANCH   9  10
ATOM     10  C   UNL     1      22.782  11.439   5.761  1.00  0.00     0.006 C 
BRANCH  10  11
ATOM     11  C   UNL     1      22.208  10.592   6.901  1.00  0.00     0.053 C 
BRANCH  11  12
ATOM     12  C   UNL     1      21.583  11.466   7.940  1.00  0.00     0.041 C 
ATOM     13  O   UNL     1      20.770  10.982   8.771  1.00  0.00    -0.550 OA
ATOM     14  O   UNL     1      21.859  12.828   7.961  1.00  0.00    -0.550 OA
ENDBRANCH  11  12
ENDBRANCH  10  11
ENDBRANCH   9  10
ENDBRANCH   8   9
ENDBRANCH   1   8
TORSDOF 9
ENDMDL
