MODEL 1
REMARK VINA RESULT:    -4.669      0.000      0.000
REMARK INTER + INTRA:          -5.421
REMARK INTER:                  -5.215
REMARK INTRA:                  -0.206
REMARK UNBOUND:                -0.206
REMARK SMILES CC(C)c1ccc(C(=O)[O-])cc1
REMARK SMILES IDX 7 1 6 2 11 3 5 4 12 5 4 6 8 7 9 8 10 9 2 10 1 11 3 12
REMARK H PARENT
REMARK Flexibility Score: inf
ROOT
ATOM      1  C   UNL     1     -14.984 -29.337  -6.362  1.00  0.00    -0.003 A 
ATOM      2  C   UNL     1     -15.842 -28.730  -7.293  1.00  0.00     0.010 A 
ATOM      3  C   UNL     1     -15.393 -30.523  -5.730  1.00  0.00     0.010 A 
ATOM      4  C   UNL     1     -17.085 -29.298  -7.588  1.00  0.00     0.004 A 
ATOM      5  C   UNL     1     -16.636 -31.091  -6.024  1.00  0.00     0.004 A 
ATOM      6  C   UNL     1     -17.495 -30.486  -6.955  1.00  0.00    -0.045 A 
ENDROOT
BRANCH   1   7
ATOM      7  C   UNL     1     -13.666 -28.739  -6.047  1.00  0.00     0.071 C 
ATOM      8  O   UNL     1     -12.938 -28.276  -6.965  1.00  0.00    -0.545 OA
ATOM      9  O   UNL     1     -13.215 -28.680  -4.734  1.00  0.00    -0.545 OA
ENDBRANCH   1   7
BRANCH   6  10
ATOM     10  C   UNL     1     -18.842 -31.114  -7.264  1.00  0.00     0.013 C 
ATOM     11  C   UNL     1     -19.754 -31.100  -6.031  1.00  0.00     0.012 C 
ATOM     12  C   UNL     1     -18.676 -32.537  -7.812  1.00  0.00     0.012 C 
ENDBRANCH   6  10
TORSDOF 2
ENDMDL
MODEL 2
REMARK VINA RESULT:    -4.636      2.695      5.799
REMARK INTER + INTRA:          -5.384
REMARK INTER:                  -5.178
REMARK INTRA:                  -0.206
REMARK UNBOUND:                -0.206
REMARK SMILES CC(C)c1ccc(C(=O)[O-])cc1
REMARK SMILES IDX 7 1 6 2 11 3 5 4 12 5 4 6 8 7 9 8 10 9 2 10 1 11 3 12
REMARK H PARENT
REMARK Flexibility Score: inf
ROOT
ATOM      1  C   UNL     1     -15.075 -29.342  -6.206  1.00  0.00    -0.003 A 
ATOM      2  C   UNL     1     -15.031 -29.423  -4.804  1.00  0.00     0.010 A 
ATOM      3  C   UNL     1     -13.922 -28.940  -6.900  1.00  0.00     0.010 A 
ATOM      4  C   UNL     1     -13.859 -29.106  -4.111  1.00  0.00     0.004 A 
ATOM      5  C   UNL     1     -12.750 -28.623  -6.208  1.00  0.00     0.004 A 
ATOM      6  C   UNL     1     -12.705 -28.703  -4.807  1.00  0.00    -0.045 A 
ENDROOT
BRANCH   1   7
ATOM      7  C   UNL     1     -16.314 -29.677  -6.944  1.00  0.00     0.071 C 
ATOM      8  O   UNL     1     -16.833 -30.819  -6.838  1.00  0.00    -0.545 OA
ATOM      9  O   UNL     1     -16.920 -28.734  -7.764  1.00  0.00    -0.545 OA
ENDBRANCH   1   7
BRANCH   6  10
ATOM     10  C   UNL     1     -11.425 -28.356  -4.067  1.00  0.00     0.013 C 
ATOM     11  C   UNL     1     -10.594 -27.334  -4.852  1.00  0.00     0.012 C 
ATOM     12  C   UNL     1     -10.606 -29.615  -3.761  1.00  0.00     0.012 C 
ENDBRANCH   6  10
TORSDOF 2
ENDMDL
MODEL 3
REMARK VINA RESULT:    -4.627      2.698      5.680
REMARK INTER + INTRA:          -5.374
REMARK INTER:                  -5.170
REMARK INTRA:                  -0.204
REMARK UNBOUND:                -0.206
REMARK SMILES CC(C)c1ccc(C(=O)[O-])cc1
REMARK SMILES IDX 7 1 6 2 11 3 5 4 12 5 4 6 8 7 9 8 10 9 2 10 1 11 3 12
REMARK H PARENT
REMARK Flexibility Score: inf
ROOT
ATOM      1  C   UNL     1     -15.135 -29.318  -6.198  1.00  0.00    -0.003 A 
ATOM      2  C   UNL     1     -13.976 -28.959  -6.908  1.00  0.00     0.010 A 
ATOM      3  C   UNL     1     -15.089 -29.356  -4.795  1.00  0.00     0.010 A 
ATOM      4  C   UNL     1     -12.797 -28.644  -6.227  1.00  0.00     0.004 A 
ATOM      5  C   UNL     1     -13.910 -29.041  -4.114  1.00  0.00     0.004 A 
ATOM      6  C   UNL     1     -12.751 -28.682  -4.822  1.00  0.00    -0.045 A 
ENDROOT
BRANCH   1   7
ATOM      7  C   UNL     1     -16.386 -29.653  -6.915  1.00  0.00     0.071 C 
ATOM      8  O   UNL     1     -16.931 -30.778  -6.760  1.00  0.00    -0.545 OA
ATOM      9  O   UNL     1     -16.977 -28.729  -7.768  1.00  0.00    -0.545 OA
ENDBRANCH   1   7
BRANCH   6  10
ATOM     10  C   UNL     1     -11.477 -28.342  -4.070  1.00  0.00     0.013 C 
ATOM     11  C   UNL     1     -10.604 -27.370  -4.873  1.00  0.00     0.012 C 
ATOM     12  C   UNL     1     -10.697 -29.611  -3.703  1.00  0.00     0.012 C 
ENDBRANCH   6  10
TORSDOF 2
ENDMDL
MODEL 4
REMARK VINA RESULT:    -4.623      3.091      6.540
REMARK INTER + INTRA:          -5.369
REMARK INTER:                  -5.154
REMARK INTRA:                  -0.215
REMARK UNBOUND:                -0.206
REMARK SMILES CC(C)c1ccc(C(=O)[O-])cc1
REMARK SMILES IDX 7 1 6 2 11 3 5 4 12 5 4 6 8 7 9 8 10 9 2 10 1 11 3 12
REMARK H PARENT
REMARK Flexibility Score: inf
ROOT
ATOM      1  C   UNL     1     -13.812 -28.739  -5.999  1.00  0.00    -0.003 A 
ATOM      2  C   UNL     1     -13.369 -28.851  -4.671  1.00  0.00     0.010 A 
ATOM      3  C   UNL     1     -12.877 -28.448  -7.006  1.00  0.00     0.010 A 
ATOM      4  C   UNL     1     -12.018 -28.676  -4.355  1.00  0.00     0.004 A 
ATOM      5  C   UNL     1     -11.526 -28.271  -6.691  1.00  0.00     0.004 A 
ATOM      6  C   UNL     1     -11.082 -28.384  -5.364  1.00  0.00    -0.045 A 
ENDROOT
BRANCH   1   7
ATOM      7  C   UNL     1     -15.241 -28.924  -6.337  1.00  0.00     0.071 C 
ATOM      8  O   UNL     1     -15.882 -28.014  -6.927  1.00  0.00    -0.545 OA
ATOM      9  O   UNL     1     -15.896 -30.105  -6.008  1.00  0.00    -0.545 OA
ENDBRANCH   1   7
BRANCH   6  10
ATOM     10  C   UNL     1      -9.613 -28.191  -5.036  1.00  0.00     0.013 C 
ATOM     11  C   UNL     1      -8.733 -28.466  -6.262  1.00  0.00     0.012 C 
ATOM     12  C   UNL     1      -9.192 -29.064  -3.848  1.00  0.00     0.012 C 
ENDBRANCH   6  10
TORSDOF 2
ENDMDL
MODEL 5
REMARK VINA RESULT:    -4.574      2.152      3.255
REMARK INTER + INTRA:          -5.315
REMARK INTER:                  -5.111
REMARK INTRA:                  -0.204
REMARK UNBOUND:                -0.206
REMARK SMILES CC(C)c1ccc(C(=O)[O-])cc1
REMARK SMILES IDX 7 1 6 2 11 3 5 4 12 5 4 6 8 7 9 8 10 9 2 10 1 11 3 12
REMARK H PARENT
REMARK Flexibility Score: inf
ROOT
ATOM      1  C   UNL     1     -12.652 -28.650  -4.999  1.00  0.00    -0.003 A 
ATOM      2  C   UNL     1     -12.690 -28.883  -6.383  1.00  0.00     0.010 A 
ATOM      3  C   UNL     1     -13.817 -28.854  -4.242  1.00  0.00     0.010 A 
ATOM      4  C   UNL     1     -13.870 -29.312  -6.999  1.00  0.00     0.004 A 
ATOM      5  C   UNL     1     -14.998 -29.282  -4.857  1.00  0.00     0.004 A 
ATOM      6  C   UNL     1     -15.038 -29.516  -6.241  1.00  0.00    -0.045 A 
ENDROOT
BRANCH   1   7
ATOM      7  C   UNL     1     -11.405 -28.197  -4.343  1.00  0.00     0.071 C 
ATOM      8  O   UNL     1     -11.032 -28.709  -3.254  1.00  0.00    -0.545 OA
ATOM      9  O   UNL     1     -10.628 -27.199  -4.920  1.00  0.00    -0.545 OA
ENDBRANCH   1   7
BRANCH   6  10
ATOM     10  C   UNL     1     -16.326 -29.980  -6.895  1.00  0.00     0.013 C 
ATOM     11  C   UNL     1     -16.084 -31.210  -7.779  1.00  0.00     0.012 C 
ATOM     12  C   UNL     1     -16.980 -28.846  -7.695  1.00  0.00     0.012 C 
ENDBRANCH   6  10
TORSDOF 2
ENDMDL
MODEL 6
REMARK VINA RESULT:    -4.504     16.333     18.516
REMARK INTER + INTRA:          -5.236
REMARK INTER:                  -5.018
REMARK INTRA:                  -0.218
REMARK UNBOUND:                -0.206
REMARK SMILES CC(C)c1ccc(C(=O)[O-])cc1
REMARK SMILES IDX 7 1 6 2 11 3 5 4 12 5 4 6 8 7 9 8 10 9 2 10 1 11 3 12
REMARK H PARENT
REMARK Flexibility Score: inf
ROOT
ATOM      1  C   UNL     1      -3.972 -18.355  -9.761  1.00  0.00    -0.003 A 
ATOM      2  C   UNL     1      -3.465 -17.056  -9.934  1.00  0.00     0.010 A 
ATOM      3  C   UNL     1      -3.860 -19.275 -10.815  1.00  0.00     0.010 A 
ATOM      4  C   UNL     1      -2.860 -16.685 -11.139  1.00  0.00     0.004 A 
ATOM      5  C   UNL     1      -3.256 -18.905 -12.020  1.00  0.00     0.004 A 
ATOM      6  C   UNL     1      -2.749 -17.607 -12.196  1.00  0.00    -0.045 A 
ENDROOT
BRANCH   1   7
ATOM      7  C   UNL     1      -4.613 -18.752  -8.487  1.00  0.00     0.071 C 
ATOM      8  O   UNL     1      -4.992 -17.878  -7.662  1.00  0.00    -0.545 OA
ATOM      9  O   UNL     1      -4.806 -20.094  -8.184  1.00  0.00    -0.545 OA
ENDBRANCH   1   7
BRANCH   6  10
ATOM     10  C   UNL     1      -2.095 -17.219 -13.509  1.00  0.00     0.013 C 
ATOM     11  C   UNL     1      -2.748 -15.964 -14.101  1.00  0.00     0.012 C 
ATOM     12  C   UNL     1      -2.128 -18.382 -14.508  1.00  0.00     0.012 C 
ENDBRANCH   6  10
TORSDOF 2
ENDMDL
MODEL 7
REMARK VINA RESULT:    -4.490      3.752      5.414
REMARK INTER + INTRA:          -5.221
REMARK INTER:                  -5.001
REMARK INTRA:                  -0.220
REMARK UNBOUND:                -0.206
REMARK SMILES CC(C)c1ccc(C(=O)[O-])cc1
REMARK SMILES IDX 7 1 6 2 11 3 5 4 12 5 4 6 8 7 9 8 10 9 2 10 1 11 3 12
REMARK H PARENT
REMARK Flexibility Score: inf
ROOT
ATOM      1  C   UNL     1     -10.109 -28.544  -5.152  1.00  0.00    -0.003 A 
ATOM      2  C   UNL     1     -10.937 -28.365  -6.272  1.00  0.00     0.010 A 
ATOM      3  C   UNL     1     -10.696 -28.850  -3.913  1.00  0.00     0.010 A 
ATOM      4  C   UNL     1     -12.324 -28.490  -6.157  1.00  0.00     0.004 A 
ATOM      5  C   UNL     1     -12.083 -28.974  -3.797  1.00  0.00     0.004 A 
ATOM      6  C   UNL     1     -12.913 -28.797  -4.916  1.00  0.00    -0.045 A 
ENDROOT
BRANCH   1   7
ATOM      7  C   UNL     1      -8.639 -28.412  -5.270  1.00  0.00     0.071 C 
ATOM      8  O   UNL     1      -8.095 -28.302  -6.401  1.00  0.00    -0.545 OA
ATOM      9  O   UNL     1      -7.839 -28.409  -4.134  1.00  0.00    -0.545 OA
ENDBRANCH   1   7
BRANCH   6  10
ATOM     10  C   UNL     1     -14.418 -28.935  -4.775  1.00  0.00     0.013 C 
ATOM     11  C   UNL     1     -15.133 -28.529  -6.070  1.00  0.00     0.012 C 
ATOM     12  C   UNL     1     -14.938 -28.127  -3.580  1.00  0.00     0.012 C 
ENDBRANCH   6  10
TORSDOF 2
ENDMDL
MODEL 8
REMARK VINA RESULT:    -4.486      3.687      5.394
REMARK INTER + INTRA:          -5.216
REMARK INTER:                  -4.995
REMARK INTRA:                  -0.221
REMARK UNBOUND:                -0.206
REMARK SMILES CC(C)c1ccc(C(=O)[O-])cc1
REMARK SMILES IDX 7 1 6 2 11 3 5 4 12 5 4 6 8 7 9 8 10 9 2 10 1 11 3 12
REMARK H PARENT
REMARK Flexibility Score: inf
ROOT
ATOM      1  C   UNL     1     -10.264 -28.567  -5.285  1.00  0.00    -0.003 A 
ATOM      2  C   UNL     1     -10.847 -28.610  -4.007  1.00  0.00     0.010 A 
ATOM      3  C   UNL     1     -11.096 -28.630  -6.415  1.00  0.00     0.010 A 
ATOM      4  C   UNL     1     -12.234 -28.715  -3.863  1.00  0.00     0.004 A 
ATOM      5  C   UNL     1     -12.483 -28.736  -6.271  1.00  0.00     0.004 A 
ATOM      6  C   UNL     1     -13.067 -28.779  -4.995  1.00  0.00    -0.045 A 
ENDROOT
BRANCH   1   7
ATOM      7  C   UNL     1      -8.797 -28.455  -5.443  1.00  0.00     0.071 C 
ATOM      8  O   UNL     1      -8.287 -28.281  -6.581  1.00  0.00    -0.545 OA
ATOM      9  O   UNL     1      -7.961 -28.542  -4.336  1.00  0.00    -0.545 OA
ENDBRANCH   1   7
BRANCH   6  10
ATOM     10  C   UNL     1     -14.574 -28.894  -4.853  1.00  0.00     0.013 C 
ATOM     11  C   UNL     1     -15.286 -28.403  -6.119  1.00  0.00     0.012 C 
ATOM     12  C   UNL     1     -15.071 -28.141  -3.613  1.00  0.00     0.012 C 
ENDBRANCH   6  10
TORSDOF 2
ENDMDL
MODEL 9
REMARK VINA RESULT:    -4.414      2.882      5.196
REMARK INTER + INTRA:          -5.136
REMARK INTER:                  -4.924
REMARK INTRA:                  -0.212
REMARK UNBOUND:                -0.206
REMARK SMILES CC(C)c1ccc(C(=O)[O-])cc1
REMARK SMILES IDX 7 1 6 2 11 3 5 4 12 5 4 6 8 7 9 8 10 9 2 10 1 11 3 12
REMARK H PARENT
REMARK Flexibility Score: inf
ROOT
ATOM      1  C   UNL     1     -17.185 -30.371  -6.772  1.00  0.00    -0.003 A 
ATOM      2  C   UNL     1     -16.382 -31.050  -5.841  1.00  0.00     0.010 A 
ATOM      3  C   UNL     1     -16.714 -29.171  -7.330  1.00  0.00     0.010 A 
ATOM      4  C   UNL     1     -15.133 -30.540  -5.475  1.00  0.00     0.004 A 
ATOM      5  C   UNL     1     -15.465 -28.660  -6.964  1.00  0.00     0.004 A 
ATOM      6  C   UNL     1     -14.661 -29.338  -6.034  1.00  0.00    -0.045 A 
ENDROOT
BRANCH   1   7
ATOM      7  C   UNL     1     -18.508 -30.907  -7.163  1.00  0.00     0.071 C 
ATOM      8  O   UNL     1     -18.719 -31.293  -8.343  1.00  0.00    -0.545 OA
ATOM      9  O   UNL     1     -19.537 -30.990  -6.232  1.00  0.00    -0.545 OA
ENDBRANCH   1   7
BRANCH   6  10
ATOM     10  C   UNL     1     -13.307 -28.773  -5.645  1.00  0.00     0.013 C 
ATOM     11  C   UNL     1     -12.488 -28.400  -6.887  1.00  0.00     0.012 C 
ATOM     12  C   UNL     1     -12.536 -29.750  -4.749  1.00  0.00     0.012 C 
ENDBRANCH   6  10
TORSDOF 2
ENDMDL
