MODEL 1
REMARK VINA RESULT:    -4.334      0.000      0.000
REMARK INTER + INTRA:          -4.890
REMARK INTER:                  -4.841
REMARK INTRA:                  -0.049
REMARK UNBOUND:                -0.049
REMARK SMILES COc1cc2ccc(=O)oc2c(O)c1O
REMARK SMILES IDX 3 1 14 2 12 3 11 4 5 5 4 6 6 7 7 8 8 9 9 10 10 11 2 12 1 13
REMARK SMILES IDX 15 14 13 16
REMARK H PARENT 15 15 13 17
REMARK Flexibility Score: inf
ROOT
ATOM      1  C   UNL     1      11.936 -13.579 -25.278  1.00  0.00     0.165 A 
ATOM      2  C   UNL     1      13.124 -13.871 -25.977  1.00  0.00     0.204 A 
ATOM      3  C   UNL     1      13.717 -12.898 -26.803  1.00  0.00     0.205 A 
ATOM      4  C   UNL     1      13.128 -11.634 -26.931  1.00  0.00     0.184 A 
ATOM      5  C   UNL     1      11.939 -11.339 -26.232  1.00  0.00     0.025 A 
ATOM      6  C   UNL     1      11.348 -12.306 -25.411  1.00  0.00     0.062 A 
ATOM      7  C   UNL     1      11.375 -10.066 -26.381  1.00  0.00     0.020 A 
ATOM      8  C   UNL     1      11.998  -9.135 -27.210  1.00  0.00     0.094 A 
ATOM      9  C   UNL     1      13.176  -9.498 -27.872  1.00  0.00     0.336 A 
ATOM     10  O   UNL     1      13.754  -8.671 -28.625  1.00  0.00    -0.246 OA
ATOM     11  O   UNL     1      13.690 -10.714 -27.712  1.00  0.00    -0.419 OA
ENDROOT
BRANCH   1  12
ATOM     12  O   UNL     1      11.371 -14.573 -24.462  1.00  0.00    -0.493 OA
ATOM     13  C   UNL     1      10.258 -14.375 -23.597  1.00  0.00     0.278 C 
ENDBRANCH   1  12
BRANCH   2  14
ATOM     14  O   UNL     1      13.725 -15.125 -25.861  1.00  0.00    -0.502 OA
ATOM     15  H   UNL     1      14.532 -15.394 -26.411  1.00  0.00     0.293 HD
ENDBRANCH   2  14
BRANCH   3  16
ATOM     16  O   UNL     1      14.893 -13.172 -27.502  1.00  0.00    -0.502 OA
ATOM     17  H   UNL     1      14.986 -13.979 -28.108  1.00  0.00     0.293 HD
ENDBRANCH   3  16
TORSDOF 3
ENDMDL
MODEL 2
REMARK VINA RESULT:    -3.900      2.053      5.040
REMARK INTER + INTRA:          -4.405
REMARK INTER:                  -4.356
REMARK INTRA:                  -0.049
REMARK UNBOUND:                -0.049
REMARK SMILES COc1cc2ccc(=O)oc2c(O)c1O
REMARK SMILES IDX 3 1 14 2 12 3 11 4 5 5 4 6 6 7 7 8 8 9 9 10 10 11 2 12 1 13
REMARK SMILES IDX 15 14 13 16
REMARK H PARENT 15 15 13 17
REMARK Flexibility Score: inf
ROOT
ATOM      1  C   UNL     1      12.125 -10.295 -28.072  1.00  0.00     0.165 A 
ATOM      2  C   UNL     1      11.642 -11.419 -28.771  1.00  0.00     0.204 A 
ATOM      3  C   UNL     1      11.170 -12.542 -28.066  1.00  0.00     0.205 A 
ATOM      4  C   UNL     1      11.177 -12.544 -26.666  1.00  0.00     0.184 A 
ATOM      5  C   UNL     1      11.658 -11.420 -25.964  1.00  0.00     0.025 A 
ATOM      6  C   UNL     1      12.129 -10.303 -26.663  1.00  0.00     0.062 A 
ATOM      7  C   UNL     1      11.651 -11.453 -24.564  1.00  0.00     0.020 A 
ATOM      8  C   UNL     1      11.174 -12.587 -23.909  1.00  0.00     0.094 A 
ATOM      9  C   UNL     1      10.711 -13.665 -24.671  1.00  0.00     0.336 A 
ATOM     10  O   UNL     1      10.275 -14.698 -24.099  1.00  0.00    -0.246 OA
ATOM     11  O   UNL     1      10.729 -13.606 -26.000  1.00  0.00    -0.419 OA
ENDROOT
BRANCH   1  12
ATOM     12  O   UNL     1      12.589  -9.191 -28.807  1.00  0.00    -0.493 OA
ATOM     13  C   UNL     1      13.231  -8.053 -28.241  1.00  0.00     0.278 C 
ENDBRANCH   1  12
BRANCH   2  14
ATOM     14  O   UNL     1      11.629 -11.434 -30.166  1.00  0.00    -0.502 OA
ATOM     15  H   UNL     1      11.738 -10.592 -30.719  1.00  0.00     0.293 HD
ENDBRANCH   2  14
BRANCH   3  16
ATOM     16  O   UNL     1      10.689 -13.663 -28.744  1.00  0.00    -0.502 OA
ATOM     17  H   UNL     1      11.181 -14.549 -28.739  1.00  0.00     0.293 HD
ENDBRANCH   3  16
TORSDOF 3
ENDMDL
MODEL 3
REMARK VINA RESULT:    -2.934      2.100      2.871
REMARK INTER + INTRA:          -3.326
REMARK INTER:                  -3.277
REMARK INTRA:                  -0.049
REMARK UNBOUND:                -0.049
REMARK SMILES COc1cc2ccc(=O)oc2c(O)c1O
REMARK SMILES IDX 3 1 14 2 12 3 11 4 5 5 4 6 6 7 7 8 8 9 9 10 10 11 2 12 1 13
REMARK SMILES IDX 15 14 13 16
REMARK H PARENT 15 15 13 17
REMARK Flexibility Score: inf
ROOT
ATOM      1  C   UNL     1      12.724 -13.676 -26.991  1.00  0.00     0.165 A 
ATOM      2  C   UNL     1      11.509 -13.618 -27.703  1.00  0.00     0.204 A 
ATOM      3  C   UNL     1      11.060 -12.397 -28.238  1.00  0.00     0.205 A 
ATOM      4  C   UNL     1      11.819 -11.234 -28.067  1.00  0.00     0.184 A 
ATOM      5  C   UNL     1      13.036 -11.289 -27.355  1.00  0.00     0.025 A 
ATOM      6  C   UNL     1      13.485 -12.502 -26.821  1.00  0.00     0.062 A 
ATOM      7  C   UNL     1      13.772 -10.108 -27.200  1.00  0.00     0.020 A 
ATOM      8  C   UNL     1      13.287  -8.922 -27.748  1.00  0.00     0.094 A 
ATOM      9  C   UNL     1      12.072  -8.944 -28.442  1.00  0.00     0.336 A 
ATOM     10  O   UNL     1      11.617  -7.883 -28.945  1.00  0.00    -0.246 OA
ATOM     11  O   UNL     1      11.394 -10.080 -28.574  1.00  0.00    -0.419 OA
ENDROOT
BRANCH   1  12
ATOM     12  O   UNL     1      13.143 -14.911 -26.470  1.00  0.00    -0.493 OA
ATOM     13  C   UNL     1      14.373 -15.125 -25.784  1.00  0.00     0.278 C 
ENDBRANCH   1  12
BRANCH   2  14
ATOM     14  O   UNL     1      10.739 -14.768 -27.884  1.00  0.00    -0.502 OA
ATOM     15  H   UNL     1      11.136 -15.699 -27.843  1.00  0.00     0.293 HD
ENDBRANCH   2  14
BRANCH   3  16
ATOM     16  O   UNL     1       9.859 -12.325 -28.946  1.00  0.00    -0.502 OA
ATOM     17  H   UNL     1       9.412 -11.441 -29.163  1.00  0.00     0.293 HD
ENDBRANCH   3  16
TORSDOF 3
ENDMDL
MODEL 4
REMARK VINA RESULT:    -2.767      0.933      4.713
REMARK INTER + INTRA:          -3.140
REMARK INTER:                  -3.090
REMARK INTRA:                  -0.050
REMARK UNBOUND:                -0.049
REMARK SMILES COc1cc2ccc(=O)oc2c(O)c1O
REMARK SMILES IDX 3 1 14 2 12 3 11 4 5 5 4 6 6 7 7 8 8 9 9 10 10 11 2 12 1 13
REMARK SMILES IDX 15 14 13 16
REMARK H PARENT 15 15 13 17
REMARK Flexibility Score: inf
ROOT
ATOM      1  C   UNL     1      13.000 -11.268 -26.958  1.00  0.00     0.165 A 
ATOM      2  C   UNL     1      13.377 -12.602 -27.216  1.00  0.00     0.204 A 
ATOM      3  C   UNL     1      12.871 -13.647 -26.421  1.00  0.00     0.205 A 
ATOM      4  C   UNL     1      11.990 -13.365 -25.371  1.00  0.00     0.184 A 
ATOM      5  C   UNL     1      11.611 -12.032 -25.111  1.00  0.00     0.025 A 
ATOM      6  C   UNL     1      12.113 -10.991 -25.900  1.00  0.00     0.062 A 
ATOM      7  C   UNL     1      10.728 -11.783 -24.053  1.00  0.00     0.020 A 
ATOM      8  C   UNL     1      10.252 -12.851 -23.293  1.00  0.00     0.094 A 
ATOM      9  C   UNL     1      10.672 -14.147 -23.609  1.00  0.00     0.336 A 
ATOM     10  O   UNL     1      10.254 -15.125 -22.935  1.00  0.00    -0.246 OA
ATOM     11  O   UNL     1      11.511 -14.354 -24.620  1.00  0.00    -0.419 OA
ENDROOT
BRANCH   1  12
ATOM     12  O   UNL     1      13.524 -10.249 -27.771  1.00  0.00    -0.493 OA
ATOM     13  C   UNL     1      12.912  -8.979 -27.972  1.00  0.00     0.278 C 
ENDBRANCH   1  12
BRANCH   2  14
ATOM     14  O   UNL     1      14.254 -12.900 -28.259  1.00  0.00    -0.502 OA
ATOM     15  H   UNL     1      13.932 -13.213 -29.168  1.00  0.00     0.293 HD
ENDBRANCH   2  14
BRANCH   3  16
ATOM     16  O   UNL     1      13.235 -14.972 -26.665  1.00  0.00    -0.502 OA
ATOM     17  H   UNL     1      13.922 -15.224 -27.366  1.00  0.00     0.293 HD
ENDBRANCH   3  16
TORSDOF 3
ENDMDL
MODEL 5
REMARK VINA RESULT:    -2.517      2.770      3.500
REMARK INTER + INTRA:          -2.860
REMARK INTER:                  -2.809
REMARK INTRA:                  -0.051
REMARK UNBOUND:                -0.049
REMARK SMILES COc1cc2ccc(=O)oc2c(O)c1O
REMARK SMILES IDX 3 1 14 2 12 3 11 4 5 5 4 6 6 7 7 8 8 9 9 10 10 11 2 12 1 13
REMARK SMILES IDX 15 14 13 16
REMARK H PARENT 15 15 13 17
REMARK Flexibility Score: inf
ROOT
ATOM      1  C   UNL     1      10.543 -12.980 -28.640  1.00  0.00     0.165 A 
ATOM      2  C   UNL     1      11.007 -13.895 -27.674  1.00  0.00     0.204 A 
ATOM      3  C   UNL     1      12.120 -13.576 -26.873  1.00  0.00     0.205 A 
ATOM      4  C   UNL     1      12.769 -12.346 -27.033  1.00  0.00     0.184 A 
ATOM      5  C   UNL     1      12.306 -11.428 -27.999  1.00  0.00     0.025 A 
ATOM      6  C   UNL     1      11.201 -11.744 -28.797  1.00  0.00     0.062 A 
ATOM      7  C   UNL     1      12.978 -10.207 -28.135  1.00  0.00     0.020 A 
ATOM      8  C   UNL     1      14.075  -9.934 -27.320  1.00  0.00     0.094 A 
ATOM      9  C   UNL     1      14.476 -10.892 -26.383  1.00  0.00     0.336 A 
ATOM     10  O   UNL     1      15.465 -10.666 -25.636  1.00  0.00    -0.246 OA
ATOM     11  O   UNL     1      13.820 -12.044 -26.275  1.00  0.00    -0.419 OA
ENDROOT
BRANCH   1  12
ATOM     12  O   UNL     1       9.431 -13.331 -29.423  1.00  0.00    -0.493 OA
ATOM     13  C   UNL     1       9.194 -12.867 -30.748  1.00  0.00     0.278 C 
ENDBRANCH   1  12
BRANCH   2  14
ATOM     14  O   UNL     1      10.372 -15.125 -27.501  1.00  0.00    -0.502 OA
ATOM     15  H   UNL     1       9.503 -15.357 -27.965  1.00  0.00     0.293 HD
ENDBRANCH   2  14
BRANCH   3  16
ATOM     16  O   UNL     1      12.590 -14.471 -25.912  1.00  0.00    -0.502 OA
ATOM     17  H   UNL     1      13.353 -14.240 -25.285  1.00  0.00     0.293 HD
ENDBRANCH   3  16
TORSDOF 3
ENDMDL
MODEL 6
REMARK VINA RESULT:    -2.317      2.280      2.866
REMARK INTER + INTRA:          -2.636
REMARK INTER:                  -2.577
REMARK INTRA:                  -0.059
REMARK UNBOUND:                -0.049
REMARK SMILES COc1cc2ccc(=O)oc2c(O)c1O
REMARK SMILES IDX 3 1 14 2 12 3 11 4 5 5 4 6 6 7 7 8 8 9 9 10 10 11 2 12 1 13
REMARK SMILES IDX 15 14 13 16
REMARK H PARENT 15 15 13 17
REMARK Flexibility Score: inf
ROOT
ATOM      1  C   UNL     1      11.123 -12.032 -24.351  1.00  0.00     0.165 A 
ATOM      2  C   UNL     1      10.789 -13.258 -24.960  1.00  0.00     0.204 A 
ATOM      3  C   UNL     1      10.854 -13.394 -26.359  1.00  0.00     0.205 A 
ATOM      4  C   UNL     1      11.254 -12.312 -27.151  1.00  0.00     0.184 A 
ATOM      5  C   UNL     1      11.590 -11.083 -26.545  1.00  0.00     0.025 A 
ATOM      6  C   UNL     1      11.524 -10.945 -25.154  1.00  0.00     0.062 A 
ATOM      7  C   UNL     1      11.986 -10.020 -27.365  1.00  0.00     0.020 A 
ATOM      8  C   UNL     1      12.036 -10.202 -28.746  1.00  0.00     0.094 A 
ATOM      9  C   UNL     1      11.689 -11.449 -29.277  1.00  0.00     0.336 A 
ATOM     10  O   UNL     1      11.729 -11.635 -30.522  1.00  0.00    -0.246 OA
ATOM     11  O   UNL     1      11.317 -12.442 -28.475  1.00  0.00    -0.419 OA
ENDROOT
BRANCH   1  12
ATOM     12  O   UNL     1      11.046 -11.929 -22.953  1.00  0.00    -0.493 OA
ATOM     13  C   UNL     1      10.320 -10.924 -22.253  1.00  0.00     0.278 C 
ENDBRANCH   1  12
BRANCH   2  14
ATOM     14  O   UNL     1      10.388 -14.347 -24.186  1.00  0.00    -0.502 OA
ATOM     15  H   UNL     1       9.661 -14.986 -24.484  1.00  0.00     0.293 HD
ENDBRANCH   2  14
BRANCH   3  16
ATOM     16  O   UNL     1      10.527 -14.602 -26.977  1.00  0.00    -0.502 OA
ATOM     17  H   UNL     1       9.681 -14.718 -27.524  1.00  0.00     0.293 HD
ENDBRANCH   3  16
TORSDOF 3
ENDMDL
MODEL 7
REMARK VINA RESULT:    -2.084      3.173      4.154
REMARK INTER + INTRA:          -2.377
REMARK INTER:                  -2.327
REMARK INTRA:                  -0.049
REMARK UNBOUND:                -0.049
REMARK SMILES COc1cc2ccc(=O)oc2c(O)c1O
REMARK SMILES IDX 3 1 14 2 12 3 11 4 5 5 4 6 6 7 7 8 8 9 9 10 10 11 2 12 1 13
REMARK SMILES IDX 15 14 13 16
REMARK H PARENT 15 15 13 17
REMARK Flexibility Score: inf
ROOT
ATOM      1  C   UNL     1      13.052 -12.210 -26.483  1.00  0.00     0.165 A 
ATOM      2  C   UNL     1      12.149 -13.211 -26.075  1.00  0.00     0.204 A 
ATOM      3  C   UNL     1      11.089 -13.595 -26.918  1.00  0.00     0.205 A 
ATOM      4  C   UNL     1      10.931 -12.984 -28.167  1.00  0.00     0.184 A 
ATOM      5  C   UNL     1      11.834 -11.982 -28.579  1.00  0.00     0.025 A 
ATOM      6  C   UNL     1      12.888 -11.598 -27.742  1.00  0.00     0.062 A 
ATOM      7  C   UNL     1      11.648 -11.390 -29.834  1.00  0.00     0.020 A 
ATOM      8  C   UNL     1      10.585 -11.803 -30.635  1.00  0.00     0.094 A 
ATOM      9  C   UNL     1       9.729 -12.803 -30.161  1.00  0.00     0.336 A 
ATOM     10  O   UNL     1       8.763 -13.191 -30.869  1.00  0.00    -0.246 OA
ATOM     11  O   UNL     1       9.929 -13.348 -28.965  1.00  0.00    -0.419 OA
ENDROOT
BRANCH   1  12
ATOM     12  O   UNL     1      14.098 -11.850 -25.617  1.00  0.00    -0.493 OA
ATOM     13  C   UNL     1      15.228 -11.068 -25.992  1.00  0.00     0.278 C 
ENDBRANCH   1  12
BRANCH   2  14
ATOM     14  O   UNL     1      12.292 -13.830 -24.833  1.00  0.00    -0.502 OA
ATOM     15  H   UNL     1      11.766 -13.539 -24.017  1.00  0.00     0.293 HD
ENDBRANCH   2  14
BRANCH   3  16
ATOM     16  O   UNL     1      10.187 -14.585 -26.527  1.00  0.00    -0.502 OA
ATOM     17  H   UNL     1       9.198 -14.396 -26.403  1.00  0.00     0.293 HD
ENDBRANCH   3  16
TORSDOF 3
ENDMDL
MODEL 8
REMARK VINA RESULT:    -2.070      2.380      4.851
REMARK INTER + INTRA:          -2.361
REMARK INTER:                  -2.308
REMARK INTRA:                  -0.053
REMARK UNBOUND:                -0.049
REMARK SMILES COc1cc2ccc(=O)oc2c(O)c1O
REMARK SMILES IDX 3 1 14 2 12 3 11 4 5 5 4 6 6 7 7 8 8 9 9 10 10 11 2 12 1 13
REMARK SMILES IDX 15 14 13 16
REMARK H PARENT 15 15 13 17
REMARK Flexibility Score: inf
ROOT
ATOM      1  C   UNL     1      13.320  -9.781 -27.778  1.00  0.00     0.165 A 
ATOM      2  C   UNL     1      13.774 -10.657 -26.772  1.00  0.00     0.204 A 
ATOM      3  C   UNL     1      13.193 -11.931 -26.627  1.00  0.00     0.205 A 
ATOM      4  C   UNL     1      12.163 -12.333 -27.485  1.00  0.00     0.184 A 
ATOM      5  C   UNL     1      11.706 -11.458 -28.493  1.00  0.00     0.025 A 
ATOM      6  C   UNL     1      12.282 -10.191 -28.638  1.00  0.00     0.062 A 
ATOM      7  C   UNL     1      10.674 -11.890 -29.335  1.00  0.00     0.020 A 
ATOM      8  C   UNL     1      10.130 -13.160 -29.154  1.00  0.00     0.094 A 
ATOM      9  C   UNL     1      10.633 -13.974 -28.133  1.00  0.00     0.336 A 
ATOM     10  O   UNL     1      10.156 -15.125 -27.954  1.00  0.00    -0.246 OA
ATOM     11  O   UNL     1      11.615 -13.539 -27.349  1.00  0.00    -0.419 OA
ENDROOT
BRANCH   1  12
ATOM     12  O   UNL     1      13.921  -8.517 -27.893  1.00  0.00    -0.493 OA
ATOM     13  C   UNL     1      13.233  -7.323 -28.251  1.00  0.00     0.278 C 
ENDBRANCH   1  12
BRANCH   2  14
ATOM     14  O   UNL     1      14.800 -10.273 -25.908  1.00  0.00    -0.502 OA
ATOM     15  H   UNL     1      14.788  -9.392 -25.408  1.00  0.00     0.293 HD
ENDBRANCH   2  14
BRANCH   3  16
ATOM     16  O   UNL     1      13.632 -12.810 -25.636  1.00  0.00    -0.502 OA
ATOM     17  H   UNL     1      13.003 -13.448 -25.163  1.00  0.00     0.293 HD
ENDBRANCH   3  16
TORSDOF 3
ENDMDL
MODEL 9
REMARK VINA RESULT:    -2.011      2.498      3.324
REMARK INTER + INTRA:          -2.295
REMARK INTER:                  -2.244
REMARK INTRA:                  -0.051
REMARK UNBOUND:                -0.049
REMARK SMILES COc1cc2ccc(=O)oc2c(O)c1O
REMARK SMILES IDX 3 1 14 2 12 3 11 4 5 5 4 6 6 7 7 8 8 9 9 10 10 11 2 12 1 13
REMARK SMILES IDX 15 14 13 16
REMARK H PARENT 15 15 13 17
REMARK Flexibility Score: inf
ROOT
ATOM      1  C   UNL     1      10.819 -13.136 -24.199  1.00  0.00     0.165 A 
ATOM      2  C   UNL     1      10.931 -11.731 -24.205  1.00  0.00     0.204 A 
ATOM      3  C   UNL     1      11.154 -11.043 -25.412  1.00  0.00     0.205 A 
ATOM      4  C   UNL     1      11.264 -11.754 -26.613  1.00  0.00     0.184 A 
ATOM      5  C   UNL     1      11.151 -13.159 -26.611  1.00  0.00     0.025 A 
ATOM      6  C   UNL     1      10.930 -13.845 -25.412  1.00  0.00     0.062 A 
ATOM      7  C   UNL     1      11.266 -13.840 -27.829  1.00  0.00     0.020 A 
ATOM      8  C   UNL     1      11.486 -13.117 -29.000  1.00  0.00     0.094 A 
ATOM      9  C   UNL     1      11.587 -11.724 -28.926  1.00  0.00     0.336 A 
ATOM     10  O   UNL     1      11.786 -11.051 -29.972  1.00  0.00    -0.246 OA
ATOM     11  O   UNL     1      11.474 -11.102 -27.755  1.00  0.00    -0.419 OA
ENDROOT
BRANCH   1  12
ATOM     12  O   UNL     1      10.597 -13.790 -22.977  1.00  0.00    -0.493 OA
ATOM     13  C   UNL     1       9.922 -15.037 -22.837  1.00  0.00     0.278 C 
ENDBRANCH   1  12
BRANCH   2  14
ATOM     14  O   UNL     1      10.824 -11.007 -23.017  1.00  0.00    -0.502 OA
ATOM     15  H   UNL     1      10.474 -10.057 -22.989  1.00  0.00     0.293 HD
ENDBRANCH   2  14
BRANCH   3  16
ATOM     16  O   UNL     1      11.268  -9.653 -25.434  1.00  0.00    -0.502 OA
ATOM     17  H   UNL     1      12.165  -9.183 -25.396  1.00  0.00     0.293 HD
ENDBRANCH   3  16
TORSDOF 3
ENDMDL
