MODEL 1
REMARK VINA RESULT:    -4.279      0.000      0.000
REMARK INTER + INTRA:          -5.493
REMARK INTER:                  -5.279
REMARK INTRA:                  -0.214
REMARK UNBOUND:                -0.214
REMARK SMILES C=CC(=C)CCC=C(C)C
REMARK SMILES IDX 5 1 6 2 7 3 9 4 8 5 10 6 3 7 4 8 2 9 1 10
REMARK H PARENT
REMARK Flexibility Score: inf
ROOT
ATOM      1  C   UNL     1     -14.894  -1.992  20.871  1.00  0.00     0.039 C 
ENDROOT
BRANCH   1   2
ATOM      2  C   UNL     1     -14.273  -2.327  19.509  1.00  0.00     0.032 C 
BRANCH   2   3
ATOM      3  C   UNL     1     -15.233  -2.018  18.386  1.00  0.00    -0.028 C 
ATOM      4  C   UNL     1     -13.617  -2.681  16.590  1.00  0.00     0.039 C 
ATOM      5  C   UNL     1     -14.950  -2.158  17.072  1.00  0.00    -0.080 C 
ATOM      6  C   UNL     1     -16.011  -1.794  16.067  1.00  0.00     0.039 C 
ENDBRANCH   2   3
ENDBRANCH   1   2
BRANCH   1   7
ATOM      7  C   UNL     1     -13.831  -1.943  21.948  1.00  0.00    -0.055 C 
ATOM      8  C   UNL     1     -12.669  -2.575  21.744  1.00  0.00     0.012 C 
BRANCH   7   9
ATOM      9  C   UNL     1     -14.013  -1.180  23.209  1.00  0.00    -0.005 C 
ATOM     10  C   UNL     1     -15.153  -0.583  23.562  1.00  0.00     0.009 C 
ENDBRANCH   7   9
ENDBRANCH   1   7
TORSDOF 4
ENDMDL
MODEL 2
REMARK VINA RESULT:    -3.833      1.261      5.608
REMARK INTER + INTRA:          -4.943
REMARK INTER:                  -4.746
REMARK INTRA:                  -0.197
REMARK UNBOUND:                -0.214
REMARK SMILES C=CC(=C)CCC=C(C)C
REMARK SMILES IDX 5 1 6 2 7 3 9 4 8 5 10 6 3 7 4 8 2 9 1 10
REMARK H PARENT
REMARK Flexibility Score: inf
ROOT
ATOM      1  C   UNL     1     -14.902  -2.147  17.915  1.00  0.00     0.039 C 
ENDROOT
BRANCH   1   2
ATOM      2  C   UNL     1     -14.036  -2.472  19.138  1.00  0.00     0.032 C 
BRANCH   2   3
ATOM      3  C   UNL     1     -14.686  -1.977  20.408  1.00  0.00    -0.028 C 
ATOM      4  C   UNL     1     -12.665  -2.422  21.820  1.00  0.00     0.039 C 
ATOM      5  C   UNL     1     -14.090  -1.962  21.620  1.00  0.00    -0.080 C 
ATOM      6  C   UNL     1     -14.875  -1.450  22.800  1.00  0.00     0.039 C 
ENDBRANCH   2   3
ENDBRANCH   1   2
BRANCH   1   7
ATOM      7  C   UNL     1     -14.438  -2.929  16.705  1.00  0.00    -0.055 C 
ATOM      8  C   UNL     1     -13.179  -2.777  16.277  1.00  0.00     0.012 C 
BRANCH   7   9
ATOM      9  C   UNL     1     -15.317  -3.896  15.999  1.00  0.00    -0.005 C 
ATOM     10  C   UNL     1     -14.908  -5.083  15.548  1.00  0.00     0.009 C 
ENDBRANCH   7   9
ENDBRANCH   1   7
TORSDOF 4
ENDMDL
MODEL 3
REMARK VINA RESULT:    -3.778      0.510      5.516
REMARK INTER + INTRA:          -4.876
REMARK INTER:                  -4.643
REMARK INTRA:                  -0.233
REMARK UNBOUND:                -0.214
REMARK SMILES C=CC(=C)CCC=C(C)C
REMARK SMILES IDX 5 1 6 2 7 3 9 4 8 5 10 6 3 7 4 8 2 9 1 10
REMARK H PARENT
REMARK Flexibility Score: inf
ROOT
ATOM      1  C   UNL     1     -15.366  -1.990  18.445  1.00  0.00     0.039 C 
ENDROOT
BRANCH   1   2
ATOM      2  C   UNL     1     -14.372  -2.378  19.547  1.00  0.00     0.032 C 
BRANCH   2   3
ATOM      3  C   UNL     1     -14.774  -1.780  20.873  1.00  0.00    -0.028 C 
ATOM      4  C   UNL     1     -12.643  -2.440  22.014  1.00  0.00     0.039 C 
ATOM      5  C   UNL     1     -14.017  -1.812  21.992  1.00  0.00    -0.080 C 
ATOM      6  C   UNL     1     -14.564  -1.182  23.247  1.00  0.00     0.039 C 
ENDBRANCH   2   3
ENDBRANCH   1   2
BRANCH   1   7
ATOM      7  C   UNL     1     -14.821  -2.352  17.080  1.00  0.00    -0.055 C 
ATOM      8  C   UNL     1     -15.630  -2.274  16.017  1.00  0.00     0.012 C 
BRANCH   7   9
ATOM      9  C   UNL     1     -13.406  -2.749  16.869  1.00  0.00    -0.005 C 
ATOM     10  C   UNL     1     -12.810  -2.784  15.676  1.00  0.00     0.009 C 
ENDBRANCH   7   9
ENDBRANCH   1   7
TORSDOF 4
ENDMDL
MODEL 4
REMARK VINA RESULT:    -3.736      0.874      5.184
REMARK INTER + INTRA:          -4.823
REMARK INTER:                  -4.550
REMARK INTRA:                  -0.273
REMARK UNBOUND:                -0.214
REMARK SMILES C=CC(=C)CCC=C(C)C
REMARK SMILES IDX 5 1 6 2 7 3 9 4 8 5 10 6 3 7 4 8 2 9 1 10
REMARK H PARENT
REMARK Flexibility Score: inf
ROOT
ATOM      1  C   UNL     1     -15.444  -2.464  18.870  1.00  0.00     0.039 C 
ENDROOT
BRANCH   1   2
ATOM      2  C   UNL     1     -14.215  -2.236  19.758  1.00  0.00     0.032 C 
BRANCH   2   3
ATOM      3  C   UNL     1     -14.604  -1.591  21.066  1.00  0.00    -0.028 C 
ATOM      4  C   UNL     1     -12.562  -2.400  22.272  1.00  0.00     0.039 C 
ATOM      5  C   UNL     1     -13.882  -1.668  22.205  1.00  0.00    -0.080 C 
ATOM      6  C   UNL     1     -14.411  -0.981  23.438  1.00  0.00     0.039 C 
ENDBRANCH   2   3
ENDBRANCH   1   2
BRANCH   1   7
ATOM      7  C   UNL     1     -15.167  -2.028  17.446  1.00  0.00    -0.055 C 
ATOM      8  C   UNL     1     -14.077  -2.493  16.825  1.00  0.00     0.012 C 
BRANCH   7   9
ATOM      9  C   UNL     1     -16.086  -1.135  16.696  1.00  0.00    -0.005 C 
ATOM     10  C   UNL     1     -16.762  -0.126  17.249  1.00  0.00     0.009 C 
ENDBRANCH   7   9
ENDBRANCH   1   7
TORSDOF 4
ENDMDL
MODEL 5
REMARK VINA RESULT:    -2.807      0.535      1.708
REMARK INTER + INTRA:          -3.677
REMARK INTER:                  -3.458
REMARK INTRA:                  -0.219
REMARK UNBOUND:                -0.214
REMARK SMILES C=CC(=C)CCC=C(C)C
REMARK SMILES IDX 5 1 6 2 7 3 9 4 8 5 10 6 3 7 4 8 2 9 1 10
REMARK H PARENT
REMARK Flexibility Score: inf
ROOT
ATOM      1  C   UNL     1     -15.109  -2.339  20.763  1.00  0.00     0.039 C 
ENDROOT
BRANCH   1   2
ATOM      2  C   UNL     1     -14.332  -2.178  19.451  1.00  0.00     0.032 C 
BRANCH   2   3
ATOM      3  C   UNL     1     -15.271  -1.962  18.289  1.00  0.00    -0.028 C 
ATOM      4  C   UNL     1     -13.600  -2.704  16.576  1.00  0.00     0.039 C 
ATOM      5  C   UNL     1     -14.954  -2.179  16.993  1.00  0.00    -0.080 C 
ATOM      6  C   UNL     1     -15.997  -1.903  15.942  1.00  0.00     0.039 C 
ENDBRANCH   2   3
ENDBRANCH   1   2
BRANCH   1   7
ATOM      7  C   UNL     1     -14.308  -1.804  21.931  1.00  0.00    -0.055 C 
ATOM      8  C   UNL     1     -14.956  -1.269  22.972  1.00  0.00     0.012 C 
BRANCH   7   9
ATOM      9  C   UNL     1     -12.826  -1.892  21.983  1.00  0.00    -0.005 C 
ATOM     10  C   UNL     1     -12.153  -3.024  22.197  1.00  0.00     0.009 C 
ENDBRANCH   7   9
ENDBRANCH   1   7
TORSDOF 4
ENDMDL
MODEL 6
REMARK VINA RESULT:    -2.133      3.180      5.234
REMARK INTER + INTRA:          -2.846
REMARK INTER:                  -2.198
REMARK INTRA:                  -0.648
REMARK UNBOUND:                -0.214
REMARK SMILES C=CC(=C)CCC=C(C)C
REMARK SMILES IDX 5 1 6 2 7 3 9 4 8 5 10 6 3 7 4 8 2 9 1 10
REMARK H PARENT
REMARK Flexibility Score: inf
ROOT
ATOM      1  C   UNL     1     -13.859  -2.770  17.778  1.00  0.00     0.039 C 
ENDROOT
BRANCH   1   2
ATOM      2  C   UNL     1     -15.210  -2.272  18.308  1.00  0.00     0.032 C 
BRANCH   2   3
ATOM      3  C   UNL     1     -15.316  -0.771  18.194  1.00  0.00    -0.028 C 
ATOM      4  C   UNL     1     -17.062  -0.856  16.400  1.00  0.00     0.039 C 
ATOM      5  C   UNL     1     -16.130  -0.121  17.334  1.00  0.00    -0.080 C 
ATOM      6  C   UNL     1     -16.113   1.386  17.329  1.00  0.00     0.039 C 
ENDBRANCH   2   3
ENDBRANCH   1   2
BRANCH   1   7
ATOM      7  C   UNL     1     -13.942  -3.069  16.296  1.00  0.00    -0.055 C 
ATOM      8  C   UNL     1     -12.966  -2.633  15.490  1.00  0.00     0.012 C 
BRANCH   7   9
ATOM      9  C   UNL     1     -15.046  -3.869  15.708  1.00  0.00    -0.005 C 
ATOM     10  C   UNL     1     -14.913  -5.129  15.289  1.00  0.00     0.009 C 
ENDBRANCH   7   9
ENDBRANCH   1   7
TORSDOF 4
ENDMDL
