MODEL 1
REMARK VINA RESULT:    -3.166      0.000      0.000
REMARK INTER + INTRA:          -7.979
REMARK INTER:                  -5.756
REMARK INTRA:                  -2.222
REMARK UNBOUND:                -2.222
REMARK SMILES CCCCCCCCCCCCCCCC(=O)[O-]
REMARK SMILES IDX 9 1 10 2 11 3 12 4 13 5 14 6 15 7 16 8 17 9 18 10 8 11 7 12
REMARK SMILES IDX 6 13 5 14 4 15 3 16 2 17 1 18
REMARK H PARENT
REMARK Flexibility Score: inf
ROOT
ATOM      1  C   UNL     1      11.535  21.209  20.187  1.00  0.00     0.000 C 
ENDROOT
BRANCH   1   2
ATOM      2  C   UNL     1      10.014  21.223  20.427  1.00  0.00     0.000 C 
BRANCH   2   3
ATOM      3  C   UNL     1       9.329  22.477  19.859  1.00  0.00     0.000 C 
BRANCH   3   4
ATOM      4  C   UNL     1       7.886  22.208  19.406  1.00  0.00     0.000 C 
BRANCH   4   5
ATOM      5  C   UNL     1       7.260  20.991  20.106  1.00  0.00     0.000 C 
BRANCH   5   6
ATOM      6  C   UNL     1       5.905  20.637  19.483  1.00  0.00     0.006 C 
BRANCH   6   7
ATOM      7  C   UNL     1       6.072  20.149  18.040  1.00  0.00     0.053 C 
BRANCH   7   8
ATOM      8  C   UNL     1       4.848  19.418  17.588  1.00  0.00     0.041 C 
ATOM      9  O   UNL     1       3.987  19.043  18.428  1.00  0.00    -0.550 OA
ATOM     10  O   UNL     1       4.679  19.107  16.245  1.00  0.00    -0.550 OA
ENDBRANCH   7   8
ENDBRANCH   6   7
ENDBRANCH   5   6
ENDBRANCH   4   5
ENDBRANCH   3   4
ENDBRANCH   2   3
ENDBRANCH   1   2
BRANCH   1  11
ATOM     11  C   UNL     1      12.185  22.595  20.031  1.00  0.00     0.000 C 
BRANCH  11  12
ATOM     12  C   UNL     1      13.028  22.723  18.751  1.00  0.00    -0.000 C 
BRANCH  12  13
ATOM     13  C   UNL     1      12.174  22.585  17.473  1.00  0.00    -0.000 C 
BRANCH  13  14
ATOM     14  C   UNL     1      12.721  21.553  16.473  1.00  0.00    -0.000 C 
BRANCH  14  15
ATOM     15  C   UNL     1      11.707  20.448  16.135  1.00  0.00    -0.000 C 
BRANCH  15  16
ATOM     16  C   UNL     1      10.281  20.803  16.609  1.00  0.00    -0.000 C 
BRANCH  16  17
ATOM     17  C   UNL     1       9.467  19.583  17.074  1.00  0.00    -0.003 C 
ATOM     18  C   UNL     1      10.287  18.598  17.904  1.00  0.00     0.004 C 
ENDBRANCH  16  17
ENDBRANCH  15  16
ENDBRANCH  14  15
ENDBRANCH  13  14
ENDBRANCH  12  13
ENDBRANCH  11  12
ENDBRANCH   1  11
TORSDOF 14
ENDMDL
MODEL 2
REMARK VINA RESULT:    -3.153      2.647      3.076
REMARK INTER + INTRA:          -7.956
REMARK INTER:                  -5.566
REMARK INTRA:                  -2.391
REMARK UNBOUND:                -2.222
REMARK SMILES CCCCCCCCCCCCCCCC(=O)[O-]
REMARK SMILES IDX 9 1 10 2 11 3 12 4 13 5 14 6 15 7 16 8 17 9 18 10 8 11 7 12
REMARK SMILES IDX 6 13 5 14 4 15 3 16 2 17 1 18
REMARK H PARENT
REMARK Flexibility Score: inf
ROOT
ATOM      1  C   UNL     1      11.496  21.243  20.081  1.00  0.00     0.000 C 
ENDROOT
BRANCH   1   2
ATOM      2  C   UNL     1       9.993  21.270  20.413  1.00  0.00     0.000 C 
BRANCH   2   3
ATOM      3  C   UNL     1       9.281  22.519  19.865  1.00  0.00     0.000 C 
BRANCH   3   4
ATOM      4  C   UNL     1       7.937  22.187  19.198  1.00  0.00     0.000 C 
BRANCH   4   5
ATOM      5  C   UNL     1       7.329  20.871  19.709  1.00  0.00     0.000 C 
BRANCH   5   6
ATOM      6  C   UNL     1       6.130  21.140  20.625  1.00  0.00     0.006 C 
BRANCH   6   7
ATOM      7  C   UNL     1       6.495  20.904  22.094  1.00  0.00     0.053 C 
BRANCH   7   8
ATOM      8  C   UNL     1       6.415  22.183  22.866  1.00  0.00     0.041 C 
ATOM      9  O   UNL     1       7.364  23.010  22.823  1.00  0.00    -0.550 OA
ATOM     10  O   UNL     1       5.314  22.440  23.673  1.00  0.00    -0.550 OA
ENDBRANCH   7   8
ENDBRANCH   6   7
ENDBRANCH   5   6
ENDBRANCH   4   5
ENDBRANCH   3   4
ENDBRANCH   2   3
ENDBRANCH   1   2
BRANCH   1  11
ATOM     11  C   UNL     1      12.154  22.624  19.908  1.00  0.00     0.000 C 
BRANCH  11  12
ATOM     12  C   UNL     1      13.001  22.730  18.629  1.00  0.00    -0.000 C 
BRANCH  12  13
ATOM     13  C   UNL     1      12.137  22.695  17.351  1.00  0.00    -0.000 C 
BRANCH  13  14
ATOM     14  C   UNL     1      12.621  21.675  16.306  1.00  0.00    -0.000 C 
BRANCH  14  15
ATOM     15  C   UNL     1      11.724  20.429  16.225  1.00  0.00    -0.000 C 
BRANCH  15  16
ATOM     16  C   UNL     1      10.249  20.751  16.547  1.00  0.00    -0.000 C 
BRANCH  16  17
ATOM     17  C   UNL     1       9.450  19.537  17.050  1.00  0.00    -0.003 C 
ATOM     18  C   UNL     1      10.281  18.590  17.914  1.00  0.00     0.004 C 
ENDBRANCH  16  17
ENDBRANCH  15  16
ENDBRANCH  14  15
ENDBRANCH  13  14
ENDBRANCH  12  13
ENDBRANCH  11  12
ENDBRANCH   1  11
TORSDOF 14
ENDMDL
MODEL 3
REMARK VINA RESULT:    -3.125     21.137     22.598
REMARK INTER + INTRA:          -7.905
REMARK INTER:                  -5.433
REMARK INTRA:                  -2.471
REMARK UNBOUND:                -2.222
REMARK SMILES CCCCCCCCCCCCCCCC(=O)[O-]
REMARK SMILES IDX 9 1 10 2 11 3 12 4 13 5 14 6 15 7 16 8 17 9 18 10 8 11 7 12
REMARK SMILES IDX 6 13 5 14 4 15 3 16 2 17 1 18
REMARK H PARENT
REMARK Flexibility Score: inf
ROOT
ATOM      1  C   UNL     1      10.355   4.120  31.577  1.00  0.00     0.000 C 
ENDROOT
BRANCH   1   2
ATOM      2  C   UNL     1       9.444   3.037  32.182  1.00  0.00     0.000 C 
BRANCH   2   3
ATOM      3  C   UNL     1       8.220   3.620  32.908  1.00  0.00     0.000 C 
BRANCH   3   4
ATOM      4  C   UNL     1       7.392   4.554  32.011  1.00  0.00     0.000 C 
BRANCH   4   5
ATOM      5  C   UNL     1       6.667   5.652  32.805  1.00  0.00     0.000 C 
BRANCH   5   6
ATOM      6  C   UNL     1       6.152   5.112  34.144  1.00  0.00     0.006 C 
BRANCH   6   7
ATOM      7  C   UNL     1       5.822   6.255  35.109  1.00  0.00     0.053 C 
BRANCH   7   8
ATOM      8  C   UNL     1       4.368   6.599  35.036  1.00  0.00     0.041 C 
ATOM      9  O   UNL     1       3.547   5.781  34.543  1.00  0.00    -0.550 OA
ATOM     10  O   UNL     1       3.924   7.843  35.469  1.00  0.00    -0.550 OA
ENDBRANCH   7   8
ENDBRANCH   6   7
ENDBRANCH   5   6
ENDBRANCH   4   5
ENDBRANCH   3   4
ENDBRANCH   2   3
ENDBRANCH   1   2
BRANCH   1  11
ATOM     11  C   UNL     1      11.786   4.162  32.142  1.00  0.00     0.000 C 
BRANCH  11  12
ATOM     12  C   UNL     1      12.095   2.986  33.084  1.00  0.00    -0.000 C 
BRANCH  12  13
ATOM     13  C   UNL     1      12.320   3.446  34.540  1.00  0.00    -0.000 C 
BRANCH  13  14
ATOM     14  C   UNL     1      11.203   3.013  35.504  1.00  0.00    -0.000 C 
BRANCH  14  15
ATOM     15  C   UNL     1      10.395   4.199  36.056  1.00  0.00    -0.000 C 
BRANCH  15  16
ATOM     16  C   UNL     1      10.809   5.538  35.408  1.00  0.00    -0.000 C 
BRANCH  16  17
ATOM     17  C   UNL     1       9.642   6.286  34.743  1.00  0.00    -0.003 C 
ATOM     18  C   UNL     1      10.088   7.195  33.600  1.00  0.00     0.004 C 
ENDBRANCH  16  17
ENDBRANCH  15  16
ENDBRANCH  14  15
ENDBRANCH  13  14
ENDBRANCH  12  13
ENDBRANCH  11  12
ENDBRANCH   1  11
TORSDOF 14
ENDMDL
MODEL 4
REMARK VINA RESULT:    -3.049      1.899      4.022
REMARK INTER + INTRA:          -7.767
REMARK INTER:                  -5.618
REMARK INTRA:                  -2.149
REMARK UNBOUND:                -2.222
REMARK SMILES CCCCCCCCCCCCCCCC(=O)[O-]
REMARK SMILES IDX 9 1 10 2 11 3 12 4 13 5 14 6 15 7 16 8 17 9 18 10 8 11 7 12
REMARK SMILES IDX 6 13 5 14 4 15 3 16 2 17 1 18
REMARK H PARENT
REMARK Flexibility Score: inf
ROOT
ATOM      1  C   UNL     1       8.894  18.428  17.376  1.00  0.00     0.000 C 
ENDROOT
BRANCH   1   2
ATOM      2  C   UNL     1       8.133  18.386  16.038  1.00  0.00     0.000 C 
BRANCH   2   3
ATOM      3  C   UNL     1       6.902  19.309  16.019  1.00  0.00     0.000 C 
BRANCH   3   4
ATOM      4  C   UNL     1       6.490  19.771  17.425  1.00  0.00     0.000 C 
BRANCH   4   5
ATOM      5  C   UNL     1       6.458  21.301  17.563  1.00  0.00     0.000 C 
BRANCH   5   6
ATOM      6  C   UNL     1       7.616  21.797  18.437  1.00  0.00     0.006 C 
BRANCH   6   7
ATOM      7  C   UNL     1       7.707  20.992  19.738  1.00  0.00     0.053 C 
BRANCH   7   8
ATOM      8  C   UNL     1       6.740  21.520  20.750  1.00  0.00     0.041 C 
ATOM      9  O   UNL     1       5.878  20.757  21.261  1.00  0.00    -0.550 OA
ATOM     10  O   UNL     1       6.759  22.866  21.094  1.00  0.00    -0.550 OA
ENDBRANCH   7   8
ENDBRANCH   6   7
ENDBRANCH   5   6
ENDBRANCH   4   5
ENDBRANCH   3   4
ENDBRANCH   2   3
ENDBRANCH   1   2
BRANCH   1  11
ATOM     11  C   UNL     1      10.173  19.283  17.375  1.00  0.00     0.000 C 
BRANCH  11  12
ATOM     12  C   UNL     1      10.228  20.281  16.206  1.00  0.00    -0.000 C 
BRANCH  12  13
ATOM     13  C   UNL     1      11.597  20.986  16.103  1.00  0.00    -0.000 C 
BRANCH  13  14
ATOM     14  C   UNL     1      11.656  22.330  16.848  1.00  0.00    -0.000 C 
BRANCH  14  15
ATOM     15  C   UNL     1      12.935  22.496  17.685  1.00  0.00    -0.000 C 
BRANCH  15  16
ATOM     16  C   UNL     1      12.629  22.698  19.184  1.00  0.00    -0.000 C 
BRANCH  16  17
ATOM     17  C   UNL     1      11.264  22.134  19.613  1.00  0.00    -0.003 C 
ATOM     18  C   UNL     1      11.379  20.874  20.468  1.00  0.00     0.004 C 
ENDBRANCH  16  17
ENDBRANCH  15  16
ENDBRANCH  14  15
ENDBRANCH  13  14
ENDBRANCH  12  13
ENDBRANCH  11  12
ENDBRANCH   1  11
TORSDOF 14
ENDMDL
MODEL 5
REMARK VINA RESULT:    -3.048      2.352      3.917
REMARK INTER + INTRA:          -7.764
REMARK INTER:                  -5.880
REMARK INTRA:                  -1.884
REMARK UNBOUND:                -2.222
REMARK SMILES CCCCCCCCCCCCCCCC(=O)[O-]
REMARK SMILES IDX 9 1 10 2 11 3 12 4 13 5 14 6 15 7 16 8 17 9 18 10 8 11 7 12
REMARK SMILES IDX 6 13 5 14 4 15 3 16 2 17 1 18
REMARK H PARENT
REMARK Flexibility Score: inf
ROOT
ATOM      1  C   UNL     1       9.785  19.532  17.197  1.00  0.00     0.000 C 
ENDROOT
BRANCH   1   2
ATOM      2  C   UNL     1       9.200  20.163  18.474  1.00  0.00     0.000 C 
BRANCH   2   3
ATOM      3  C   UNL     1       8.802  21.636  18.286  1.00  0.00     0.000 C 
BRANCH   3   4
ATOM      4  C   UNL     1       8.820  22.426  19.605  1.00  0.00     0.000 C 
BRANCH   4   5
ATOM      5  C   UNL     1       8.554  21.540  20.832  1.00  0.00     0.000 C 
BRANCH   5   6
ATOM      6  C   UNL     1       7.272  21.972  21.552  1.00  0.00     0.006 C 
BRANCH   6   7
ATOM      7  C   UNL     1       6.092  21.077  21.160  1.00  0.00     0.053 C 
BRANCH   7   8
ATOM      8  C   UNL     1       5.400  20.557  22.381  1.00  0.00     0.041 C 
ATOM      9  O   UNL     1       4.152  20.388  22.377  1.00  0.00    -0.550 OA
ATOM     10  O   UNL     1       6.125  20.306  23.538  1.00  0.00    -0.550 OA
ENDBRANCH   7   8
ENDBRANCH   6   7
ENDBRANCH   5   6
ENDBRANCH   4   5
ENDBRANCH   3   4
ENDBRANCH   2   3
ENDBRANCH   1   2
BRANCH   1  11
ATOM     11  C   UNL     1      10.420  20.525  16.209  1.00  0.00     0.000 C 
BRANCH  11  12
ATOM     12  C   UNL     1      11.925  20.284  15.999  1.00  0.00    -0.000 C 
BRANCH  12  13
ATOM     13  C   UNL     1      12.730  21.601  15.972  1.00  0.00    -0.000 C 
BRANCH  13  14
ATOM     14  C   UNL     1      12.108  22.722  16.821  1.00  0.00    -0.000 C 
BRANCH  14  15
ATOM     15  C   UNL     1      12.914  23.027  18.094  1.00  0.00    -0.000 C 
BRANCH  15  16
ATOM     16  C   UNL     1      12.499  22.127  19.277  1.00  0.00    -0.000 C 
BRANCH  16  17
ATOM     17  C   UNL     1      12.750  22.766  20.653  1.00  0.00    -0.003 C 
ATOM     18  C   UNL     1      12.059  22.022  21.794  1.00  0.00     0.004 C 
ENDBRANCH  16  17
ENDBRANCH  15  16
ENDBRANCH  14  15
ENDBRANCH  13  14
ENDBRANCH  12  13
ENDBRANCH  11  12
ENDBRANCH   1  11
TORSDOF 14
ENDMDL
MODEL 6
REMARK VINA RESULT:    -3.034     20.926     22.539
REMARK INTER + INTRA:          -7.739
REMARK INTER:                  -5.291
REMARK INTRA:                  -2.448
REMARK UNBOUND:                -2.222
REMARK SMILES CCCCCCCCCCCCCCCC(=O)[O-]
REMARK SMILES IDX 9 1 10 2 11 3 12 4 13 5 14 6 15 7 16 8 17 9 18 10 8 11 7 12
REMARK SMILES IDX 6 13 5 14 4 15 3 16 2 17 1 18
REMARK H PARENT
REMARK Flexibility Score: inf
ROOT
ATOM      1  C   UNL     1       8.049   6.497  35.482  1.00  0.00     0.000 C 
ENDROOT
BRANCH   1   2
ATOM      2  C   UNL     1       8.682   7.024  34.181  1.00  0.00     0.000 C 
BRANCH   2   3
ATOM      3  C   UNL     1      10.050   6.388  33.880  1.00  0.00     0.000 C 
BRANCH   3   4
ATOM      4  C   UNL     1      10.538   5.473  35.014  1.00  0.00     0.000 C 
BRANCH   4   5
ATOM      5  C   UNL     1      11.395   4.302  34.506  1.00  0.00     0.000 C 
BRANCH   5   6
ATOM      6  C   UNL     1      10.883   3.794  33.153  1.00  0.00     0.006 C 
BRANCH   6   7
ATOM      7  C   UNL     1      12.037   3.600  32.166  1.00  0.00     0.053 C 
BRANCH   7   8
ATOM      8  C   UNL     1      11.685   4.168  30.827  1.00  0.00     0.041 C 
ATOM      9  O   UNL     1      10.617   4.819  30.677  1.00  0.00    -0.550 OA
ATOM     10  O   UNL     1      12.510   3.939  29.734  1.00  0.00    -0.550 OA
ENDBRANCH   7   8
ENDBRANCH   6   7
ENDBRANCH   5   6
ENDBRANCH   4   5
ENDBRANCH   3   4
ENDBRANCH   2   3
ENDBRANCH   1   2
BRANCH   1  11
ATOM     11  C   UNL     1       6.520   6.324  35.442  1.00  0.00     0.000 C 
BRANCH  11  12
ATOM     12  C   UNL     1       6.074   4.870  35.672  1.00  0.00    -0.000 C 
BRANCH  12  13
ATOM     13  C   UNL     1       7.085   3.851  35.104  1.00  0.00    -0.000 C 
BRANCH  13  14
ATOM     14  C   UNL     1       6.703   3.311  33.716  1.00  0.00    -0.000 C 
BRANCH  14  15
ATOM     15  C   UNL     1       7.423   4.039  32.570  1.00  0.00    -0.000 C 
BRANCH  15  16
ATOM     16  C   UNL     1       6.495   5.030  31.836  1.00  0.00    -0.000 C 
BRANCH  16  17
ATOM     17  C   UNL     1       4.999   4.742  32.047  1.00  0.00    -0.003 C 
ATOM     18  C   UNL     1       4.226   5.950  32.574  1.00  0.00     0.004 C 
ENDBRANCH  16  17
ENDBRANCH  15  16
ENDBRANCH  14  15
ENDBRANCH  13  14
ENDBRANCH  12  13
ENDBRANCH  11  12
ENDBRANCH   1  11
TORSDOF 14
ENDMDL
MODEL 7
REMARK VINA RESULT:    -3.017      2.735      3.412
REMARK INTER + INTRA:          -7.709
REMARK INTER:                  -6.106
REMARK INTRA:                  -1.603
REMARK UNBOUND:                -2.222
REMARK SMILES CCCCCCCCCCCCCCCC(=O)[O-]
REMARK SMILES IDX 9 1 10 2 11 3 12 4 13 5 14 6 15 7 16 8 17 9 18 10 8 11 7 12
REMARK SMILES IDX 6 13 5 14 4 15 3 16 2 17 1 18
REMARK H PARENT
REMARK Flexibility Score: inf
ROOT
ATOM      1  C   UNL     1      11.634  22.206  19.672  1.00  0.00     0.000 C 
ENDROOT
BRANCH   1   2
ATOM      2  C   UNL     1      10.253  22.814  19.364  1.00  0.00     0.000 C 
BRANCH   2   3
ATOM      3  C   UNL     1       9.370  22.959  20.615  1.00  0.00     0.000 C 
BRANCH   3   4
ATOM      4  C   UNL     1       8.504  21.717  20.874  1.00  0.00     0.000 C 
BRANCH   4   5
ATOM      5  C   UNL     1       7.904  21.694  22.288  1.00  0.00     0.000 C 
BRANCH   5   6
ATOM      6  C   UNL     1       6.570  20.939  22.305  1.00  0.00     0.006 C 
BRANCH   6   7
ATOM      7  C   UNL     1       5.977  20.901  23.718  1.00  0.00     0.053 C 
BRANCH   7   8
ATOM      8  C   UNL     1       5.144  19.672  23.905  1.00  0.00     0.041 C 
ATOM      9  O   UNL     1       3.941  19.660  23.535  1.00  0.00    -0.550 OA
ATOM     10  O   UNL     1       5.683  18.555  24.531  1.00  0.00    -0.550 OA
ENDBRANCH   7   8
ENDBRANCH   6   7
ENDBRANCH   5   6
ENDBRANCH   4   5
ENDBRANCH   3   4
ENDBRANCH   2   3
ENDBRANCH   1   2
BRANCH   1  11
ATOM     11  C   UNL     1      12.739  22.544  18.656  1.00  0.00     0.000 C 
BRANCH  11  12
ATOM     12  C   UNL     1      12.210  22.688  17.218  1.00  0.00    -0.000 C 
BRANCH  12  13
ATOM     13  C   UNL     1      12.736  21.576  16.287  1.00  0.00    -0.000 C 
BRANCH  13  14
ATOM     14  C   UNL     1      11.779  20.379  16.154  1.00  0.00    -0.000 C 
BRANCH  14  15
ATOM     15  C   UNL     1      10.299  20.793  16.141  1.00  0.00    -0.000 C 
BRANCH  15  16
ATOM     16  C   UNL     1       9.466  20.008  17.176  1.00  0.00    -0.000 C 
BRANCH  16  17
ATOM     17  C   UNL     1      10.181  18.761  17.723  1.00  0.00    -0.003 C 
ATOM     18  C   UNL     1      10.474  18.848  19.220  1.00  0.00     0.004 C 
ENDBRANCH  16  17
ENDBRANCH  15  16
ENDBRANCH  14  15
ENDBRANCH  13  14
ENDBRANCH  12  13
ENDBRANCH  11  12
ENDBRANCH   1  11
TORSDOF 14
ENDMDL
MODEL 8
REMARK VINA RESULT:    -3.008      1.983      4.763
REMARK INTER + INTRA:          -7.692
REMARK INTER:                  -5.715
REMARK INTRA:                  -1.977
REMARK UNBOUND:                -2.222
REMARK SMILES CCCCCCCCCCCCCCCC(=O)[O-]
REMARK SMILES IDX 9 1 10 2 11 3 12 4 13 5 14 6 15 7 16 8 17 9 18 10 8 11 7 12
REMARK SMILES IDX 6 13 5 14 4 15 3 16 2 17 1 18
REMARK H PARENT
REMARK Flexibility Score: inf
ROOT
ATOM      1  C   UNL     1      11.876  21.667  20.026  1.00  0.00     0.000 C 
ENDROOT
BRANCH   1   2
ATOM      2  C   UNL     1      12.961  22.739  19.819  1.00  0.00     0.000 C 
BRANCH   2   3
ATOM      3  C   UNL     1      13.168  23.105  18.339  1.00  0.00     0.000 C 
BRANCH   3   4
ATOM      4  C   UNL     1      12.088  22.502  17.426  1.00  0.00     0.000 C 
BRANCH   4   5
ATOM      5  C   UNL     1      12.664  21.523  16.391  1.00  0.00     0.000 C 
BRANCH   5   6
ATOM      6  C   UNL     1      11.618  20.479  15.983  1.00  0.00     0.006 C 
BRANCH   6   7
ATOM      7  C   UNL     1      10.320  20.661  16.776  1.00  0.00     0.053 C 
BRANCH   7   8
ATOM      8  C   UNL     1       9.882  19.359  17.370  1.00  0.00     0.041 C 
ATOM      9  O   UNL     1      10.431  18.923  18.415  1.00  0.00    -0.550 OA
ATOM     10  O   UNL     1       8.900  18.604  16.741  1.00  0.00    -0.550 OA
ENDBRANCH   7   8
ENDBRANCH   6   7
ENDBRANCH   5   6
ENDBRANCH   4   5
ENDBRANCH   3   4
ENDBRANCH   2   3
ENDBRANCH   1   2
BRANCH   1  11
ATOM     11  C   UNL     1      11.240  21.642  21.427  1.00  0.00     0.000 C 
BRANCH  11  12
ATOM     12  C   UNL     1       9.723  21.897  21.403  1.00  0.00    -0.000 C 
BRANCH  12  13
ATOM     13  C   UNL     1       9.202  22.188  19.980  1.00  0.00    -0.000 C 
BRANCH  13  14
ATOM     14  C   UNL     1       7.679  22.034  19.836  1.00  0.00    -0.000 C 
BRANCH  14  15
ATOM     15  C   UNL     1       7.247  20.588  19.544  1.00  0.00    -0.000 C 
BRANCH  15  16
ATOM     16  C   UNL     1       6.236  20.505  18.382  1.00  0.00    -0.000 C 
BRANCH  16  17
ATOM     17  C   UNL     1       6.391  21.635  17.350  1.00  0.00    -0.003 C 
ATOM     18  C   UNL     1       6.504  21.124  15.915  1.00  0.00     0.004 C 
ENDBRANCH  16  17
ENDBRANCH  15  16
ENDBRANCH  14  15
ENDBRANCH  13  14
ENDBRANCH  12  13
ENDBRANCH  11  12
ENDBRANCH   1  11
TORSDOF 14
ENDMDL
MODEL 9
REMARK VINA RESULT:    -2.927     20.367     21.831
REMARK INTER + INTRA:          -7.545
REMARK INTER:                  -5.317
REMARK INTRA:                  -2.228
REMARK UNBOUND:                -2.222
REMARK SMILES CCCCCCCCCCCCCCCC(=O)[O-]
REMARK SMILES IDX 9 1 10 2 11 3 12 4 13 5 14 6 15 7 16 8 17 9 18 10 8 11 7 12
REMARK SMILES IDX 6 13 5 14 4 15 3 16 2 17 1 18
REMARK H PARENT
REMARK Flexibility Score: inf
ROOT
ATOM      1  C   UNL     1      10.422   3.955  31.782  1.00  0.00     0.000 C 
ENDROOT
BRANCH   1   2
ATOM      2  C   UNL     1       9.541   2.875  32.435  1.00  0.00     0.000 C 
BRANCH   2   3
ATOM      3  C   UNL     1       8.134   3.385  32.793  1.00  0.00     0.000 C 
BRANCH   3   4
ATOM      4  C   UNL     1       7.718   4.606  31.958  1.00  0.00     0.000 C 
BRANCH   4   5
ATOM      5  C   UNL     1       6.765   4.243  30.809  1.00  0.00     0.000 C 
BRANCH   5   6
ATOM      6  C   UNL     1       7.474   4.348  29.454  1.00  0.00     0.006 C 
BRANCH   6   7
ATOM      7  C   UNL     1       6.684   3.619  28.362  1.00  0.00     0.053 C 
BRANCH   7   8
ATOM      8  C   UNL     1       5.679   4.536  27.741  1.00  0.00     0.041 C 
ATOM      9  O   UNL     1       4.715   4.065  27.080  1.00  0.00    -0.550 OA
ATOM     10  O   UNL     1       5.832   5.913  27.850  1.00  0.00    -0.550 OA
ENDBRANCH   7   8
ENDBRANCH   6   7
ENDBRANCH   5   6
ENDBRANCH   4   5
ENDBRANCH   3   4
ENDBRANCH   2   3
ENDBRANCH   1   2
BRANCH   1  11
ATOM     11  C   UNL     1      11.883   3.987  32.265  1.00  0.00     0.000 C 
BRANCH  11  12
ATOM     12  C   UNL     1      12.186   2.922  33.333  1.00  0.00    -0.000 C 
BRANCH  12  13
ATOM     13  C   UNL     1      12.554   3.549  34.695  1.00  0.00    -0.000 C 
BRANCH  13  14
ATOM     14  C   UNL     1      11.583   3.176  35.828  1.00  0.00    -0.000 C 
BRANCH  14  15
ATOM     15  C   UNL     1      10.359   4.104  35.897  1.00  0.00    -0.000 C 
BRANCH  15  16
ATOM     16  C   UNL     1      10.699   5.549  35.477  1.00  0.00    -0.000 C 
BRANCH  16  17
ATOM     17  C   UNL     1       9.594   6.224  34.646  1.00  0.00    -0.003 C 
ATOM     18  C   UNL     1      10.141   7.150  33.563  1.00  0.00     0.004 C 
ENDBRANCH  16  17
ENDBRANCH  15  16
ENDBRANCH  14  15
ENDBRANCH  13  14
ENDBRANCH  12  13
ENDBRANCH  11  12
ENDBRANCH   1  11
TORSDOF 14
ENDMDL
