MODEL 1
REMARK VINA RESULT:    -3.748      0.000      0.000
REMARK INTER + INTRA:          -6.440
REMARK INTER:                  -5.720
REMARK INTRA:                  -0.720
REMARK UNBOUND:                -0.720
REMARK SMILES O=C([O-])CCCCCCCCC(=O)[O-]
REMARK SMILES IDX 7 1 6 2 5 3 4 4 2 5 1 6 3 7 8 8 9 9 10 10 11 11 12 12 13 13
REMARK SMILES IDX 14 14
REMARK H PARENT
REMARK Flexibility Score: inf
ROOT
ATOM      1  C   UNL     1      36.490  24.375 223.804  1.00  0.00     0.000 C 
ENDROOT
BRANCH   1   2
ATOM      2  C   UNL     1      36.294  25.007 222.417  1.00  0.00     0.000 C 
BRANCH   2   3
ATOM      3  C   UNL     1      35.630  24.047 221.418  1.00  0.00     0.006 C 
BRANCH   3   4
ATOM      4  C   UNL     1      36.584  23.603 220.300  1.00  0.00     0.053 C 
BRANCH   4   5
ATOM      5  C   UNL     1      35.944  23.794 218.961  1.00  0.00     0.041 C 
ATOM      6  O   UNL     1      36.606  23.602 217.908  1.00  0.00    -0.550 OA
ATOM      7  O   UNL     1      34.600  24.139 218.876  1.00  0.00    -0.550 OA
ENDBRANCH   4   5
ENDBRANCH   3   4
ENDBRANCH   2   3
ENDBRANCH   1   2
BRANCH   1   8
ATOM      8  C   UNL     1      37.584  23.299 223.766  1.00  0.00     0.000 C 
BRANCH   8   9
ATOM      9  C   UNL     1      38.908  23.765 224.400  1.00  0.00     0.000 C 
BRANCH   9  10
ATOM     10  C   UNL     1      39.829  24.570 223.465  1.00  0.00     0.006 C 
BRANCH  10  11
ATOM     11  C   UNL     1      40.013  23.910 222.094  1.00  0.00     0.053 C 
BRANCH  11  12
ATOM     12  C   UNL     1      40.920  22.726 222.201  1.00  0.00     0.041 C 
ATOM     13  O   UNL     1      40.695  21.692 221.518  1.00  0.00    -0.550 OA
ATOM     14  O   UNL     1      41.986  22.745 223.090  1.00  0.00    -0.550 OA
ENDBRANCH  11  12
ENDBRANCH  10  11
ENDBRANCH   9  10
ENDBRANCH   8   9
ENDBRANCH   1   8
TORSDOF 9
ENDMDL
MODEL 2
REMARK VINA RESULT:    -3.707      1.442      5.370
REMARK INTER + INTRA:          -6.378
REMARK INTER:                  -5.770
REMARK INTRA:                  -0.608
REMARK UNBOUND:                -0.720
REMARK SMILES O=C([O-])CCCCCCCCC(=O)[O-]
REMARK SMILES IDX 7 1 6 2 5 3 4 4 2 5 1 6 3 7 8 8 9 9 10 10 11 11 12 12 13 13
REMARK SMILES IDX 14 14
REMARK H PARENT
REMARK Flexibility Score: inf
ROOT
ATOM      1  C   UNL     1      39.071  24.403 223.426  1.00  0.00     0.000 C 
ENDROOT
BRANCH   1   2
ATOM      2  C   UNL     1      40.151  24.046 222.394  1.00  0.00     0.000 C 
BRANCH   2   3
ATOM      3  C   UNL     1      39.935  22.661 221.765  1.00  0.00     0.006 C 
BRANCH   3   4
ATOM      4  C   UNL     1      40.411  21.518 222.673  1.00  0.00     0.053 C 
BRANCH   4   5
ATOM      5  C   UNL     1      41.188  20.514 221.882  1.00  0.00     0.041 C 
ATOM      6  O   UNL     1      40.862  19.298 221.906  1.00  0.00    -0.550 OA
ATOM      7  O   UNL     1      42.245  20.927 221.080  1.00  0.00    -0.550 OA
ENDBRANCH   4   5
ENDBRANCH   3   4
ENDBRANCH   2   3
ENDBRANCH   1   2
BRANCH   1   8
ATOM      8  C   UNL     1      38.332  25.687 223.023  1.00  0.00     0.000 C 
BRANCH   8   9
ATOM      9  C   UNL     1      36.828  25.464 222.780  1.00  0.00     0.000 C 
BRANCH   9  10
ATOM     10  C   UNL     1      36.416  23.999 222.549  1.00  0.00     0.006 C 
BRANCH  10  11
ATOM     11  C   UNL     1      35.343  23.841 221.466  1.00  0.00     0.053 C 
BRANCH  11  12
ATOM     12  C   UNL     1      35.975  23.763 220.112  1.00  0.00     0.041 C 
ATOM     13  O   UNL     1      37.140  23.303 219.983  1.00  0.00    -0.550 OA
ATOM     14  O   UNL     1      35.297  24.242 218.999  1.00  0.00    -0.550 OA
ENDBRANCH  11  12
ENDBRANCH  10  11
ENDBRANCH   9  10
ENDBRANCH   8   9
ENDBRANCH   1   8
TORSDOF 9
ENDMDL
MODEL 3
REMARK VINA RESULT:    -3.639      1.164      5.030
REMARK INTER + INTRA:          -6.274
REMARK INTER:                  -5.341
REMARK INTRA:                  -0.934
REMARK UNBOUND:                -0.720
REMARK SMILES O=C([O-])CCCCCCCCC(=O)[O-]
REMARK SMILES IDX 7 1 6 2 5 3 4 4 2 5 1 6 3 7 8 8 9 9 10 10 11 11 12 12 13 13
REMARK SMILES IDX 14 14
REMARK H PARENT
REMARK Flexibility Score: inf
ROOT
ATOM      1  C   UNL     1      38.371  25.701 222.971  1.00  0.00     0.000 C 
ENDROOT
BRANCH   1   2
ATOM      2  C   UNL     1      39.563  24.761 223.210  1.00  0.00     0.000 C 
BRANCH   2   3
ATOM      3  C   UNL     1      39.835  23.834 222.016  1.00  0.00     0.006 C 
BRANCH   3   4
ATOM      4  C   UNL     1      39.479  22.370 222.310  1.00  0.00     0.053 C 
BRANCH   4   5
ATOM      5  C   UNL     1      40.717  21.532 222.360  1.00  0.00     0.041 C 
ATOM      6  O   UNL     1      40.635  20.276 222.333  1.00  0.00    -0.550 OA
ATOM      7  O   UNL     1      41.967  22.139 222.389  1.00  0.00    -0.550 OA
ENDBRANCH   4   5
ENDBRANCH   3   4
ENDBRANCH   2   3
ENDBRANCH   1   2
BRANCH   1   8
ATOM      8  C   UNL     1      37.229  25.398 223.951  1.00  0.00     0.000 C 
BRANCH   8   9
ATOM      9  C   UNL     1      36.364  24.201 223.516  1.00  0.00     0.000 C 
BRANCH   9  10
ATOM     10  C   UNL     1      35.689  24.352 222.141  1.00  0.00     0.006 C 
BRANCH  10  11
ATOM     11  C   UNL     1      35.962  23.167 221.207  1.00  0.00     0.053 C 
BRANCH  11  12
ATOM     12  C   UNL     1      36.386  23.652 219.857  1.00  0.00     0.041 C 
ATOM     13  O   UNL     1      35.637  24.420 219.197  1.00  0.00    -0.550 OA
ATOM     14  O   UNL     1      37.585  23.219 219.307  1.00  0.00    -0.550 OA
ENDBRANCH  11  12
ENDBRANCH  10  11
ENDBRANCH   9  10
ENDBRANCH   8   9
ENDBRANCH   1   8
TORSDOF 9
ENDMDL
MODEL 4
REMARK VINA RESULT:    -3.597      1.591      2.279
REMARK INTER + INTRA:          -6.211
REMARK INTER:                  -5.485
REMARK INTRA:                  -0.725
REMARK UNBOUND:                -0.720
REMARK SMILES O=C([O-])CCCCCCCCC(=O)[O-]
REMARK SMILES IDX 7 1 6 2 5 3 4 4 2 5 1 6 3 7 8 8 9 9 10 10 11 11 12 12 13 13
REMARK SMILES IDX 14 14
REMARK H PARENT
REMARK Flexibility Score: inf
ROOT
ATOM      1  C   UNL     1      38.078  25.042 222.909  1.00  0.00     0.000 C 
ENDROOT
BRANCH   1   2
ATOM      2  C   UNL     1      36.980  24.152 223.509  1.00  0.00     0.000 C 
BRANCH   2   3
ATOM      3  C   UNL     1      36.299  23.262 222.458  1.00  0.00     0.006 C 
BRANCH   3   4
ATOM      4  C   UNL     1      35.504  24.070 221.423  1.00  0.00     0.053 C 
BRANCH   4   5
ATOM      5  C   UNL     1      36.061  23.851 220.052  1.00  0.00     0.041 C 
ATOM      6  O   UNL     1      37.206  23.350 219.905  1.00  0.00    -0.550 OA
ATOM      7  O   UNL     1      35.295  24.157 218.934  1.00  0.00    -0.550 OA
ENDBRANCH   4   5
ENDBRANCH   3   4
ENDBRANCH   2   3
ENDBRANCH   1   2
BRANCH   1   8
ATOM      8  C   UNL     1      39.472  24.494 223.245  1.00  0.00     0.000 C 
BRANCH   8   9
ATOM      9  C   UNL     1      40.234  23.987 222.007  1.00  0.00     0.000 C 
BRANCH   9  10
ATOM     10  C   UNL     1      40.235  22.459 221.824  1.00  0.00     0.006 C 
BRANCH  10  11
ATOM     11  C   UNL     1      40.562  21.701 223.117  1.00  0.00     0.053 C 
BRANCH  11  12
ATOM     12  C   UNL     1      40.580  20.227 222.868  1.00  0.00     0.041 C 
ATOM     13  O   UNL     1      40.230  19.427 223.775  1.00  0.00    -0.550 OA
ATOM     14  O   UNL     1      41.030  19.733 221.651  1.00  0.00    -0.550 OA
ENDBRANCH  11  12
ENDBRANCH  10  11
ENDBRANCH   9  10
ENDBRANCH   8   9
ENDBRANCH   1   8
TORSDOF 9
ENDMDL
MODEL 5
REMARK VINA RESULT:    -3.584      1.643      2.475
REMARK INTER + INTRA:          -6.190
REMARK INTER:                  -5.314
REMARK INTRA:                  -0.876
REMARK UNBOUND:                -0.720
REMARK SMILES O=C([O-])CCCCCCCCC(=O)[O-]
REMARK SMILES IDX 7 1 6 2 5 3 4 4 2 5 1 6 3 7 8 8 9 9 10 10 11 11 12 12 13 13
REMARK SMILES IDX 14 14
REMARK H PARENT
REMARK Flexibility Score: inf
ROOT
ATOM      1  C   UNL     1      37.780  24.248 222.900  1.00  0.00     0.000 C 
ENDROOT
BRANCH   1   2
ATOM      2  C   UNL     1      37.127  22.906 222.537  1.00  0.00     0.000 C 
BRANCH   2   3
ATOM      3  C   UNL     1      35.821  23.078 221.746  1.00  0.00     0.006 C 
BRANCH   3   4
ATOM      4  C   UNL     1      35.814  24.347 220.883  1.00  0.00     0.053 C 
BRANCH   4   5
ATOM      5  C   UNL     1      35.871  23.991 219.431  1.00  0.00     0.041 C 
ATOM      6  O   UNL     1      34.864  24.164 218.696  1.00  0.00    -0.550 OA
ATOM      7  O   UNL     1      37.053  23.513 218.879  1.00  0.00    -0.550 OA
ENDBRANCH   4   5
ENDBRANCH   3   4
ENDBRANCH   2   3
ENDBRANCH   1   2
BRANCH   1   8
ATOM      8  C   UNL     1      39.164  24.378 222.247  1.00  0.00     0.000 C 
BRANCH   8   9
ATOM      9  C   UNL     1      39.597  23.105 221.497  1.00  0.00     0.000 C 
BRANCH   9  10
ATOM     10  C   UNL     1      40.831  22.394 222.081  1.00  0.00     0.006 C 
BRANCH  10  11
ATOM     11  C   UNL     1      40.469  21.173 222.935  1.00  0.00     0.053 C 
BRANCH  11  12
ATOM     12  C   UNL     1      40.212  21.583 224.350  1.00  0.00     0.041 C 
ATOM     13  O   UNL     1      41.072  22.251 224.982  1.00  0.00    -0.550 OA
ATOM     14  O   UNL     1      39.045  21.186 224.988  1.00  0.00    -0.550 OA
ENDBRANCH  11  12
ENDBRANCH  10  11
ENDBRANCH   9  10
ENDBRANCH   8   9
ENDBRANCH   1   8
TORSDOF 9
ENDMDL
MODEL 6
REMARK VINA RESULT:    -3.567      1.265      1.719
REMARK INTER + INTRA:          -6.165
REMARK INTER:                  -5.479
REMARK INTRA:                  -0.686
REMARK UNBOUND:                -0.720
REMARK SMILES O=C([O-])CCCCCCCCC(=O)[O-]
REMARK SMILES IDX 7 1 6 2 5 3 4 4 2 5 1 6 3 7 8 8 9 9 10 10 11 11 12 12 13 13
REMARK SMILES IDX 14 14
REMARK H PARENT
REMARK Flexibility Score: inf
ROOT
ATOM      1  C   UNL     1      37.934  25.895 223.252  1.00  0.00     0.000 C 
ENDROOT
BRANCH   1   2
ATOM      2  C   UNL     1      36.640  25.614 222.474  1.00  0.00     0.000 C 
BRANCH   2   3
ATOM      3  C   UNL     1      36.130  24.178 222.672  1.00  0.00     0.006 C 
BRANCH   3   4
ATOM      4  C   UNL     1      35.353  23.653 221.456  1.00  0.00     0.053 C 
BRANCH   4   5
ATOM      5  C   UNL     1      36.166  23.811 220.210  1.00  0.00     0.041 C 
ATOM      6  O   UNL     1      35.709  24.460 219.233  1.00  0.00    -0.550 OA
ATOM      7  O   UNL     1      37.449  23.282 220.146  1.00  0.00    -0.550 OA
ENDBRANCH   4   5
ENDBRANCH   3   4
ENDBRANCH   2   3
ENDBRANCH   1   2
BRANCH   1   8
ATOM      8  C   UNL     1      38.564  24.589 223.757  1.00  0.00     0.000 C 
BRANCH   8   9
ATOM      9  C   UNL     1      40.030  24.758 224.196  1.00  0.00     0.000 C 
BRANCH   9  10
ATOM     10  C   UNL     1      41.059  24.004 223.334  1.00  0.00     0.006 C 
BRANCH  10  11
ATOM     11  C   UNL     1      40.439  23.365 222.085  1.00  0.00     0.053 C 
BRANCH  11  12
ATOM     12  C   UNL     1      40.514  21.874 222.169  1.00  0.00     0.041 C 
ATOM     13  O   UNL     1      41.244  21.230 221.370  1.00  0.00    -0.550 OA
ATOM     14  O   UNL     1      39.740  21.190 223.098  1.00  0.00    -0.550 OA
ENDBRANCH  11  12
ENDBRANCH  10  11
ENDBRANCH   9  10
ENDBRANCH   8   9
ENDBRANCH   1   8
TORSDOF 9
ENDMDL
MODEL 7
REMARK VINA RESULT:    -3.567      1.097      5.233
REMARK INTER + INTRA:          -6.164
REMARK INTER:                  -5.309
REMARK INTRA:                  -0.855
REMARK UNBOUND:                -0.720
REMARK SMILES O=C([O-])CCCCCCCCC(=O)[O-]
REMARK SMILES IDX 7 1 6 2 5 3 4 4 2 5 1 6 3 7 8 8 9 9 10 10 11 11 12 12 13 13
REMARK SMILES IDX 14 14
REMARK H PARENT
REMARK Flexibility Score: inf
ROOT
ATOM      1  C   UNL     1      37.761  25.209 223.780  1.00  0.00     0.000 C 
ENDROOT
BRANCH   1   2
ATOM      2  C   UNL     1      37.349  23.947 224.552  1.00  0.00     0.000 C 
BRANCH   2   3
ATOM      3  C   UNL     1      38.455  22.881 224.579  1.00  0.00     0.006 C 
BRANCH   3   4
ATOM      4  C   UNL     1      38.850  22.403 223.174  1.00  0.00     0.053 C 
BRANCH   4   5
ATOM      5  C   UNL     1      40.313  22.614 222.944  1.00  0.00     0.041 C 
ATOM      6  O   UNL     1      40.707  23.341 221.995  1.00  0.00    -0.550 OA
ATOM      7  O   UNL     1      41.242  22.046 223.807  1.00  0.00    -0.550 OA
ENDBRANCH   4   5
ENDBRANCH   3   4
ENDBRANCH   2   3
ENDBRANCH   1   2
BRANCH   1   8
ATOM      8  C   UNL     1      36.843  25.436 222.570  1.00  0.00     0.000 C 
BRANCH   8   9
ATOM      9  C   UNL     1      35.556  24.594 222.626  1.00  0.00     0.000 C 
BRANCH   9  10
ATOM     10  C   UNL     1      35.432  23.520 221.530  1.00  0.00     0.006 C 
BRANCH  10  11
ATOM     11  C   UNL     1      36.551  23.600 220.485  1.00  0.00     0.053 C 
BRANCH  11  12
ATOM     12  C   UNL     1      35.979  23.849 219.125  1.00  0.00     0.041 C 
ATOM     13  O   UNL     1      34.774  24.190 218.998  1.00  0.00    -0.550 OA
ATOM     14  O   UNL     1      36.763  23.657 217.996  1.00  0.00    -0.550 OA
ENDBRANCH  11  12
ENDBRANCH  10  11
ENDBRANCH   9  10
ENDBRANCH   8   9
ENDBRANCH   1   8
TORSDOF 9
ENDMDL
MODEL 8
REMARK VINA RESULT:    -3.428      1.479      5.151
REMARK INTER + INTRA:          -5.951
REMARK INTER:                  -5.196
REMARK INTRA:                  -0.755
REMARK UNBOUND:                -0.720
REMARK SMILES O=C([O-])CCCCCCCCC(=O)[O-]
REMARK SMILES IDX 7 1 6 2 5 3 4 4 2 5 1 6 3 7 8 8 9 9 10 10 11 11 12 12 13 13
REMARK SMILES IDX 14 14
REMARK H PARENT
REMARK Flexibility Score: inf
ROOT
ATOM      1  C   UNL     1      39.780  25.572 224.701  1.00  0.00     0.000 C 
ENDROOT
BRANCH   1   2
ATOM      2  C   UNL     1      40.875  24.689 224.085  1.00  0.00     0.000 C 
BRANCH   2   3
ATOM      3  C   UNL     1      40.756  23.216 224.509  1.00  0.00     0.006 C 
BRANCH   3   4
ATOM      4  C   UNL     1      39.842  22.405 223.580  1.00  0.00     0.053 C 
BRANCH   4   5
ATOM      5  C   UNL     1      40.211  22.639 222.149  1.00  0.00     0.041 C 
ATOM      6  O   UNL     1      41.298  22.196 221.695  1.00  0.00    -0.550 OA
ATOM      7  O   UNL     1      39.333  23.306 221.305  1.00  0.00    -0.550 OA
ENDBRANCH   4   5
ENDBRANCH   3   4
ENDBRANCH   2   3
ENDBRANCH   1   2
BRANCH   1   8
ATOM      8  C   UNL     1      38.732  25.961 223.648  1.00  0.00     0.000 C 
BRANCH   8   9
ATOM      9  C   UNL     1      37.409  25.189 223.801  1.00  0.00     0.000 C 
BRANCH   9  10
ATOM     10  C   UNL     1      36.464  25.271 222.589  1.00  0.00     0.006 C 
BRANCH  10  11
ATOM     11  C   UNL     1      35.688  23.971 222.346  1.00  0.00     0.053 C 
BRANCH  11  12
ATOM     12  C   UNL     1      35.174  23.924 220.943  1.00  0.00     0.041 C 
ATOM     13  O   UNL     1      33.938  23.821 220.724  1.00  0.00    -0.550 OA
ATOM     14  O   UNL     1      36.062  23.943 219.876  1.00  0.00    -0.550 OA
ENDBRANCH  11  12
ENDBRANCH  10  11
ENDBRANCH   9  10
ENDBRANCH   8   9
ENDBRANCH   1   8
TORSDOF 9
ENDMDL
MODEL 9
REMARK VINA RESULT:    -3.411      1.874      2.773
REMARK INTER + INTRA:          -5.926
REMARK INTER:                  -5.349
REMARK INTRA:                  -0.577
REMARK UNBOUND:                -0.720
REMARK SMILES O=C([O-])CCCCCCCCC(=O)[O-]
REMARK SMILES IDX 7 1 6 2 5 3 4 4 2 5 1 6 3 7 8 8 9 9 10 10 11 11 12 12 13 13
REMARK SMILES IDX 14 14
REMARK H PARENT
REMARK Flexibility Score: inf
ROOT
ATOM      1  C   UNL     1      39.080  26.305 224.358  1.00  0.00     0.000 C 
ENDROOT
BRANCH   1   2
ATOM      2  C   UNL     1      37.916  25.309 224.237  1.00  0.00     0.000 C 
BRANCH   2   3
ATOM      3  C   UNL     1      37.131  25.471 222.926  1.00  0.00     0.006 C 
BRANCH   3   4
ATOM      4  C   UNL     1      35.704  24.914 223.019  1.00  0.00     0.053 C 
BRANCH   4   5
ATOM      5  C   UNL     1      35.479  23.879 221.962  1.00  0.00     0.041 C 
ATOM      6  O   UNL     1      34.419  23.886 221.284  1.00  0.00    -0.550 OA
ATOM      7  O   UNL     1      36.462  22.935 221.693  1.00  0.00    -0.550 OA
ENDBRANCH   4   5
ENDBRANCH   3   4
ENDBRANCH   2   3
ENDBRANCH   1   2
BRANCH   1   8
ATOM      8  C   UNL     1      40.416  25.568 224.526  1.00  0.00     0.000 C 
BRANCH   8   9
ATOM      9  C   UNL     1      40.356  24.100 224.064  1.00  0.00     0.000 C 
BRANCH   9  10
ATOM     10  C   UNL     1      40.791  23.858 222.607  1.00  0.00     0.006 C 
BRANCH  10  11
ATOM     11  C   UNL     1      40.270  22.533 222.040  1.00  0.00     0.053 C 
BRANCH  11  12
ATOM     12  C   UNL     1      41.399  21.575 221.829  1.00  0.00     0.041 C 
ATOM     13  O   UNL     1      42.462  21.694 222.492  1.00  0.00    -0.550 OA
ATOM     14  O   UNL     1      41.296  20.581 220.865  1.00  0.00    -0.550 OA
ENDBRANCH  11  12
ENDBRANCH  10  11
ENDBRANCH   9  10
ENDBRANCH   8   9
ENDBRANCH   1   8
TORSDOF 9
ENDMDL
