MODEL 1
REMARK VINA RESULT:    -5.461      0.000      0.000
REMARK INTER + INTRA:          -6.702
REMARK INTER:                  -6.418
REMARK INTRA:                  -0.284
REMARK UNBOUND:                -0.284
REMARK SMILES O=c1cc(-c2ccc(O)c(O)c2)oc2cc(O)cc(O)c12
REMARK SMILES IDX 4 1 3 2 2 3 1 4 21 5 19 6 18 7 16 8 15 9 14 10 13 11 5 12
REMARK SMILES IDX 6 13 7 14 8 15 12 16 10 17 9 18 11 20 20 22 17 24
REMARK H PARENT 9 19 11 21 20 23 17 25
REMARK Flexibility Score: inf
ROOT
ATOM      1  C   UNL     1     -58.049  24.725 -13.174  1.00  0.00     0.138 A 
ATOM      2  C   UNL     1     -58.837  25.527 -12.338  1.00  0.00     0.100 A 
ATOM      3  C   UNL     1     -59.366  24.988 -11.164  1.00  0.00     0.197 A 
ATOM      4  O   UNL     1     -60.121  25.713 -10.464  1.00  0.00    -0.289 OA
ATOM      5  C   UNL     1     -59.078  23.647 -10.813  1.00  0.00     0.107 A 
ATOM      6  C   UNL     1     -59.529  23.005  -9.621  1.00  0.00     0.134 A 
ATOM      7  C   UNL     1     -59.279  21.639  -9.437  1.00  0.00     0.093 A 
ATOM      8  C   UNL     1     -58.540  20.909 -10.372  1.00  0.00     0.123 A 
ATOM      9  C   UNL     1     -58.050  21.541 -11.513  1.00  0.00     0.094 A 
ATOM     10  C   UNL     1     -58.313  22.893 -11.742  1.00  0.00     0.146 A 
ATOM     11  O   UNL     1     -57.839  23.454 -12.849  1.00  0.00    -0.456 OA
ENDROOT
BRANCH   1  12
ATOM     12  C   UNL     1     -57.461  25.249 -14.433  1.00  0.00     0.021 A 
ATOM     13  C   UNL     1     -56.188  24.809 -14.835  1.00  0.00     0.016 A 
ATOM     14  C   UNL     1     -55.608  25.293 -16.011  1.00  0.00     0.051 A 
ATOM     15  C   UNL     1     -56.282  26.228 -16.800  1.00  0.00     0.157 A 
ATOM     16  C   UNL     1     -58.131  26.202 -15.224  1.00  0.00     0.062 A 
ATOM     17  C   UNL     1     -57.549  26.688 -16.404  1.00  0.00     0.158 A 
BRANCH  15  18
ATOM     18  O   UNL     1     -55.679  26.690 -17.969  1.00  0.00    -0.504 OA
ATOM     19  H   UNL     1     -56.177  26.735 -18.850  1.00  0.00     0.293 HD
ENDBRANCH  15  18
BRANCH  17  20
ATOM     20  O   UNL     1     -58.222  27.630 -17.180  1.00  0.00    -0.504 OA
ATOM     21  H   UNL     1     -59.116  27.423 -17.611  1.00  0.00     0.293 HD
ENDBRANCH  17  20
ENDBRANCH   1  12
BRANCH   6  22
ATOM     22  O   UNL     1     -60.200  23.661  -8.585  1.00  0.00    -0.507 OA
ATOM     23  H   UNL     1     -61.107  24.095  -8.670  1.00  0.00     0.293 HD
ENDBRANCH   6  22
BRANCH   8  24
ATOM     24  O   UNL     1     -58.283  19.554 -10.173  1.00  0.00    -0.508 OA
ATOM     25  H   UNL     1     -58.036  18.943 -10.943  1.00  0.00     0.293 HD
ENDBRANCH   8  24
TORSDOF 5
ENDMDL
MODEL 2
REMARK VINA RESULT:    -5.396      1.765      2.455
REMARK INTER + INTRA:          -6.626
REMARK INTER:                  -6.330
REMARK INTRA:                  -0.296
REMARK UNBOUND:                -0.284
REMARK SMILES O=c1cc(-c2ccc(O)c(O)c2)oc2cc(O)cc(O)c12
REMARK SMILES IDX 4 1 3 2 2 3 1 4 21 5 19 6 18 7 16 8 15 9 14 10 13 11 5 12
REMARK SMILES IDX 6 13 7 14 8 15 12 16 10 17 9 18 11 20 20 22 17 24
REMARK H PARENT 9 19 11 21 20 23 17 25
REMARK Flexibility Score: inf
ROOT
ATOM      1  C   UNL     1     -59.406  26.166 -13.327  1.00  0.00     0.138 A 
ATOM      2  C   UNL     1     -60.585  26.905 -13.155  1.00  0.00     0.100 A 
ATOM      3  C   UNL     1     -61.389  26.670 -12.038  1.00  0.00     0.197 A 
ATOM      4  O   UNL     1     -62.472  27.305 -11.943  1.00  0.00    -0.289 OA
ATOM      5  C   UNL     1     -60.993  25.712 -11.075  1.00  0.00     0.107 A 
ATOM      6  C   UNL     1     -61.713  25.419  -9.878  1.00  0.00     0.134 A 
ATOM      7  C   UNL     1     -61.286  24.368  -9.057  1.00  0.00     0.093 A 
ATOM      8  C   UNL     1     -60.131  23.642  -9.358  1.00  0.00     0.123 A 
ATOM      9  C   UNL     1     -59.392  23.956 -10.496  1.00  0.00     0.094 A 
ATOM     10  C   UNL     1     -59.812  24.976 -11.353  1.00  0.00     0.146 A 
ATOM     11  O   UNL     1     -59.086  25.234 -12.436  1.00  0.00    -0.456 OA
ENDROOT
BRANCH   1  12
ATOM     12  C   UNL     1     -58.514  26.377 -14.495  1.00  0.00     0.021 A 
ATOM     13  C   UNL     1     -57.270  25.724 -14.540  1.00  0.00     0.016 A 
ATOM     14  C   UNL     1     -56.408  25.912 -15.624  1.00  0.00     0.051 A 
ATOM     15  C   UNL     1     -56.767  26.760 -16.675  1.00  0.00     0.157 A 
ATOM     16  C   UNL     1     -58.866  27.241 -15.550  1.00  0.00     0.062 A 
ATOM     17  C   UNL     1     -58.000  27.431 -16.637  1.00  0.00     0.158 A 
BRANCH  15  18
ATOM     18  O   UNL     1     -55.888  26.925 -17.744  1.00  0.00    -0.504 OA
ATOM     19  H   UNL     1     -56.047  26.489 -18.645  1.00  0.00     0.293 HD
ENDBRANCH  15  18
BRANCH  17  20
ATOM     20  O   UNL     1     -58.359  28.287 -17.677  1.00  0.00    -0.504 OA
ATOM     21  H   UNL     1     -57.708  28.962 -18.060  1.00  0.00     0.293 HD
ENDBRANCH  17  20
ENDBRANCH   1  12
BRANCH   6  22
ATOM     22  O   UNL     1     -62.830  26.138  -9.441  1.00  0.00    -0.507 OA
ATOM     23  H   UNL     1     -62.794  26.960  -8.859  1.00  0.00     0.293 HD
ENDBRANCH   6  22
BRANCH   8  24
ATOM     24  O   UNL     1     -59.706  22.607  -8.526  1.00  0.00    -0.508 OA
ATOM     25  H   UNL     1     -58.813  22.645  -8.047  1.00  0.00     0.293 HD
ENDBRANCH   8  24
TORSDOF 5
ENDMDL
MODEL 3
REMARK VINA RESULT:    -5.356      7.747      9.677
REMARK INTER + INTRA:          -6.579
REMARK INTER:                  -6.289
REMARK INTRA:                  -0.290
REMARK UNBOUND:                -0.284
REMARK SMILES O=c1cc(-c2ccc(O)c(O)c2)oc2cc(O)cc(O)c12
REMARK SMILES IDX 4 1 3 2 2 3 1 4 21 5 19 6 18 7 16 8 15 9 14 10 13 11 5 12
REMARK SMILES IDX 6 13 7 14 8 15 12 16 10 17 9 18 11 20 20 22 17 24
REMARK H PARENT 9 19 11 21 20 23 17 25
REMARK Flexibility Score: inf
ROOT
ATOM      1  C   UNL     1     -57.642  17.360 -17.604  1.00  0.00     0.138 A 
ATOM      2  C   UNL     1     -56.435  16.654 -17.708  1.00  0.00     0.100 A 
ATOM      3  C   UNL     1     -55.279  17.175 -17.124  1.00  0.00     0.197 A 
ATOM      4  O   UNL     1     -54.199  16.550 -17.287  1.00  0.00    -0.289 OA
ATOM      5  C   UNL     1     -55.340  18.394 -16.408  1.00  0.00     0.107 A 
ATOM      6  C   UNL     1     -54.235  18.999 -15.738  1.00  0.00     0.134 A 
ATOM      7  C   UNL     1     -54.387  20.265 -15.160  1.00  0.00     0.093 A 
ATOM      8  C   UNL     1     -55.622  20.920 -15.174  1.00  0.00     0.123 A 
ATOM      9  C   UNL     1     -56.720  20.313 -15.779  1.00  0.00     0.094 A 
ATOM     10  C   UNL     1     -56.591  19.066 -16.394  1.00  0.00     0.146 A 
ATOM     11  O   UNL     1     -57.660  18.529 -16.973  1.00  0.00    -0.456 OA
ENDROOT
BRANCH   1  12
ATOM     12  C   UNL     1     -58.901  16.850 -18.204  1.00  0.00     0.021 A 
ATOM     13  C   UNL     1     -58.896  16.394 -19.533  1.00  0.00     0.016 A 
ATOM     14  C   UNL     1     -60.069  15.917 -20.125  1.00  0.00     0.051 A 
ATOM     15  C   UNL     1     -61.267  15.897 -19.406  1.00  0.00     0.157 A 
ATOM     16  C   UNL     1     -60.113  16.840 -17.487  1.00  0.00     0.062 A 
ATOM     17  C   UNL     1     -61.291  16.363 -18.081  1.00  0.00     0.158 A 
BRANCH  15  18
ATOM     18  O   UNL     1     -62.420  15.413 -20.022  1.00  0.00    -0.504 OA
ATOM     19  H   UNL     1     -62.423  15.093 -20.983  1.00  0.00     0.293 HD
ENDBRANCH  15  18
BRANCH  17  20
ATOM     20  O   UNL     1     -62.484  16.356 -17.361  1.00  0.00    -0.504 OA
ATOM     21  H   UNL     1     -63.084  17.171 -17.317  1.00  0.00     0.293 HD
ENDBRANCH  17  20
ENDBRANCH   1  12
BRANCH   6  22
ATOM     22  O   UNL     1     -52.983  18.394 -15.592  1.00  0.00    -0.507 OA
ATOM     23  H   UNL     1     -52.568  17.760 -16.258  1.00  0.00     0.293 HD
ENDBRANCH   6  22
BRANCH   8  24
ATOM     24  O   UNL     1     -55.769  22.174 -14.583  1.00  0.00    -0.508 OA
ATOM     25  H   UNL     1     -54.972  22.683 -14.217  1.00  0.00     0.293 HD
ENDBRANCH   8  24
TORSDOF 5
ENDMDL
MODEL 4
REMARK VINA RESULT:    -5.342      7.404      9.035
REMARK INTER + INTRA:          -6.562
REMARK INTER:                  -6.256
REMARK INTRA:                  -0.306
REMARK UNBOUND:                -0.284
REMARK SMILES O=c1cc(-c2ccc(O)c(O)c2)oc2cc(O)cc(O)c12
REMARK SMILES IDX 4 1 3 2 2 3 1 4 21 5 19 6 18 7 16 8 15 9 14 10 13 11 5 12
REMARK SMILES IDX 6 13 7 14 8 15 12 16 10 17 9 18 11 20 20 22 17 24
REMARK H PARENT 9 19 11 21 20 23 17 25
REMARK Flexibility Score: inf
ROOT
ATOM      1  C   UNL     1     -56.766  18.165 -16.909  1.00  0.00     0.138 A 
ATOM      2  C   UNL     1     -56.133  17.265 -17.777  1.00  0.00     0.100 A 
ATOM      3  C   UNL     1     -56.896  16.331 -18.479  1.00  0.00     0.197 A 
ATOM      4  O   UNL     1     -56.294  15.496 -19.203  1.00  0.00    -0.289 OA
ATOM      5  C   UNL     1     -58.304  16.321 -18.334  1.00  0.00     0.107 A 
ATOM      6  C   UNL     1     -59.186  15.442 -19.030  1.00  0.00     0.134 A 
ATOM      7  C   UNL     1     -60.551  15.445 -18.718  1.00  0.00     0.093 A 
ATOM      8  C   UNL     1     -61.074  16.338 -17.779  1.00  0.00     0.123 A 
ATOM      9  C   UNL     1     -60.228  17.237 -17.133  1.00  0.00     0.094 A 
ATOM     10  C   UNL     1     -58.857  17.235 -17.398  1.00  0.00     0.146 A 
ATOM     11  O   UNL     1     -58.083  18.098 -16.749  1.00  0.00    -0.456 OA
ENDROOT
BRANCH   1  12
ATOM     12  C   UNL     1     -56.002  19.179 -16.139  1.00  0.00     0.021 A 
ATOM     13  C   UNL     1     -54.682  18.898 -15.748  1.00  0.00     0.016 A 
ATOM     14  C   UNL     1     -53.943  19.831 -15.016  1.00  0.00     0.051 A 
ATOM     15  C   UNL     1     -54.510  21.055 -14.653  1.00  0.00     0.157 A 
ATOM     16  C   UNL     1     -56.575  20.409 -15.761  1.00  0.00     0.062 A 
ATOM     17  C   UNL     1     -55.834  21.346 -15.024  1.00  0.00     0.158 A 
BRANCH  15  18
ATOM     18  O   UNL     1     -53.749  21.968 -13.925  1.00  0.00    -0.504 OA
ATOM     19  H   UNL     1     -53.969  22.210 -12.967  1.00  0.00     0.293 HD
ENDBRANCH  15  18
BRANCH  17  20
ATOM     20  O   UNL     1     -56.410  22.560 -14.657  1.00  0.00    -0.504 OA
ATOM     21  H   UNL     1     -56.750  22.725 -13.717  1.00  0.00     0.293 HD
ENDBRANCH  17  20
ENDBRANCH   1  12
BRANCH   6  22
ATOM     22  O   UNL     1     -58.781  14.570 -20.046  1.00  0.00    -0.507 OA
ATOM     23  H   UNL     1     -59.306  13.770 -20.362  1.00  0.00     0.293 HD
ENDBRANCH   6  22
BRANCH   8  24
ATOM     24  O   UNL     1     -62.437  16.344 -17.486  1.00  0.00    -0.508 OA
ATOM     25  H   UNL     1     -62.780  16.123 -16.558  1.00  0.00     0.293 HD
ENDBRANCH   8  24
TORSDOF 5
ENDMDL
MODEL 5
REMARK VINA RESULT:    -5.324      1.274      2.970
REMARK INTER + INTRA:          -6.541
REMARK INTER:                  -6.246
REMARK INTRA:                  -0.295
REMARK UNBOUND:                -0.284
REMARK SMILES O=c1cc(-c2ccc(O)c(O)c2)oc2cc(O)cc(O)c12
REMARK SMILES IDX 4 1 3 2 2 3 1 4 21 5 19 6 18 7 16 8 15 9 14 10 13 11 5 12
REMARK SMILES IDX 6 13 7 14 8 15 12 16 10 17 9 18 11 20 20 22 17 24
REMARK H PARENT 9 19 11 21 20 23 17 25
REMARK Flexibility Score: inf
ROOT
ATOM      1  C   UNL     1     -57.969  24.863 -13.403  1.00  0.00     0.138 A 
ATOM      2  C   UNL     1     -56.959  23.896 -13.319  1.00  0.00     0.100 A 
ATOM      3  C   UNL     1     -56.918  23.034 -12.222  1.00  0.00     0.197 A 
ATOM      4  O   UNL     1     -55.964  22.217 -12.144  1.00  0.00    -0.289 OA
ATOM      5  C   UNL     1     -57.913  23.124 -11.220  1.00  0.00     0.107 A 
ATOM      6  C   UNL     1     -57.995  22.272 -10.078  1.00  0.00     0.134 A 
ATOM      7  C   UNL     1     -58.955  22.530  -9.092  1.00  0.00     0.093 A 
ATOM      8  C   UNL     1     -59.876  23.571  -9.238  1.00  0.00     0.123 A 
ATOM      9  C   UNL     1     -59.837  24.375 -10.375  1.00  0.00     0.094 A 
ATOM     10  C   UNL     1     -58.870  24.164 -11.359  1.00  0.00     0.146 A 
ATOM     11  O   UNL     1     -58.859  24.963 -12.421  1.00  0.00    -0.456 OA
ENDROOT
BRANCH   1  12
ATOM     12  C   UNL     1     -58.060  25.803 -14.549  1.00  0.00     0.021 A 
ATOM     13  C   UNL     1     -59.227  26.567 -14.725  1.00  0.00     0.016 A 
ATOM     14  C   UNL     1     -59.341  27.453 -15.799  1.00  0.00     0.051 A 
ATOM     15  C   UNL     1     -58.300  27.585 -16.721  1.00  0.00     0.157 A 
ATOM     16  C   UNL     1     -57.018  25.930 -15.488  1.00  0.00     0.062 A 
ATOM     17  C   UNL     1     -57.133  26.818 -16.568  1.00  0.00     0.158 A 
BRANCH  15  18
ATOM     18  O   UNL     1     -58.442  28.479 -17.782  1.00  0.00    -0.504 OA
ATOM     19  H   UNL     1     -59.335  28.646 -18.230  1.00  0.00     0.293 HD
ENDBRANCH  15  18
BRANCH  17  20
ATOM     20  O   UNL     1     -56.095  26.936 -17.490  1.00  0.00    -0.504 OA
ATOM     21  H   UNL     1     -55.164  27.220 -17.209  1.00  0.00     0.293 HD
ENDBRANCH  17  20
ENDBRANCH   1  12
BRANCH   6  22
ATOM     22  O   UNL     1     -57.179  21.154  -9.877  1.00  0.00    -0.507 OA
ATOM     23  H   UNL     1     -57.111  20.369 -10.506  1.00  0.00     0.293 HD
ENDBRANCH   6  22
BRANCH   8  24
ATOM     24  O   UNL     1     -60.838  23.811  -8.258  1.00  0.00    -0.508 OA
ATOM     25  H   UNL     1     -60.909  24.709  -7.795  1.00  0.00     0.293 HD
ENDBRANCH   8  24
TORSDOF 5
ENDMDL
MODEL 6
REMARK VINA RESULT:    -5.296      1.672      2.389
REMARK INTER + INTRA:          -6.508
REMARK INTER:                  -6.197
REMARK INTRA:                  -0.312
REMARK UNBOUND:                -0.284
REMARK SMILES O=c1cc(-c2ccc(O)c(O)c2)oc2cc(O)cc(O)c12
REMARK SMILES IDX 4 1 3 2 2 3 1 4 21 5 19 6 18 7 16 8 15 9 14 10 13 11 5 12
REMARK SMILES IDX 6 13 7 14 8 15 12 16 10 17 9 18 11 20 20 22 17 24
REMARK H PARENT 9 19 11 21 20 23 17 25
REMARK Flexibility Score: inf
ROOT
ATOM      1  C   UNL     1     -57.936  24.811 -13.416  1.00  0.00     0.138 A 
ATOM      2  C   UNL     1     -58.746  24.935 -12.279  1.00  0.00     0.100 A 
ATOM      3  C   UNL     1     -58.610  24.021 -11.233  1.00  0.00     0.197 A 
ATOM      4  O   UNL     1     -59.393  24.120 -10.252  1.00  0.00    -0.289 OA
ATOM      5  C   UNL     1     -57.637  22.997 -11.315  1.00  0.00     0.107 A 
ATOM      6  C   UNL     1     -57.382  22.034 -10.293  1.00  0.00     0.134 A 
ATOM      7  C   UNL     1     -56.474  20.996 -10.534  1.00  0.00     0.093 A 
ATOM      8  C   UNL     1     -55.767  20.921 -11.737  1.00  0.00     0.123 A 
ATOM      9  C   UNL     1     -55.970  21.887 -12.720  1.00  0.00     0.094 A 
ATOM     10  C   UNL     1     -56.894  22.915 -12.523  1.00  0.00     0.146 A 
ATOM     11  O   UNL     1     -57.068  23.808 -13.492  1.00  0.00    -0.456 OA
ENDROOT
BRANCH   1  12
ATOM     12  C   UNL     1     -58.038  25.757 -14.556  1.00  0.00     0.021 A 
ATOM     13  C   UNL     1     -59.216  26.504 -14.730  1.00  0.00     0.016 A 
ATOM     14  C   UNL     1     -59.341  27.395 -15.799  1.00  0.00     0.051 A 
ATOM     15  C   UNL     1     -58.300  27.549 -16.718  1.00  0.00     0.157 A 
ATOM     16  C   UNL     1     -56.996  25.905 -15.492  1.00  0.00     0.062 A 
ATOM     17  C   UNL     1     -57.122  26.798 -16.567  1.00  0.00     0.158 A 
BRANCH  15  18
ATOM     18  O   UNL     1     -58.453  28.447 -17.773  1.00  0.00    -0.504 OA
ATOM     19  H   UNL     1     -58.761  28.152 -18.692  1.00  0.00     0.293 HD
ENDBRANCH  15  18
BRANCH  17  20
ATOM     20  O   UNL     1     -56.084  26.939 -17.485  1.00  0.00    -0.504 OA
ATOM     21  H   UNL     1     -56.259  27.179 -18.454  1.00  0.00     0.293 HD
ENDBRANCH  17  20
ENDBRANCH   1  12
BRANCH   6  22
ATOM     22  O   UNL     1     -57.970  22.066  -9.025  1.00  0.00    -0.507 OA
ATOM     23  H   UNL     1     -58.963  22.028  -8.849  1.00  0.00     0.293 HD
ENDBRANCH   6  22
BRANCH   8  24
ATOM     24  O   UNL     1     -54.854  19.892 -11.963  1.00  0.00    -0.508 OA
ATOM     25  H   UNL     1     -53.943  19.886 -11.520  1.00  0.00     0.293 HD
ENDBRANCH   8  24
TORSDOF 5
ENDMDL
MODEL 7
REMARK VINA RESULT:    -5.292      1.956      3.362
REMARK INTER + INTRA:          -6.503
REMARK INTER:                  -6.215
REMARK INTRA:                  -0.289
REMARK UNBOUND:                -0.284
REMARK SMILES O=c1cc(-c2ccc(O)c(O)c2)oc2cc(O)cc(O)c12
REMARK SMILES IDX 4 1 3 2 2 3 1 4 21 5 19 6 18 7 16 8 15 9 14 10 13 11 5 12
REMARK SMILES IDX 6 13 7 14 8 15 12 16 10 17 9 18 11 20 20 22 17 24
REMARK H PARENT 9 19 11 21 20 23 17 25
REMARK Flexibility Score: inf
ROOT
ATOM      1  C   UNL     1     -56.545  24.112 -13.737  1.00  0.00     0.138 A 
ATOM      2  C   UNL     1     -55.194  23.939 -13.405  1.00  0.00     0.100 A 
ATOM      3  C   UNL     1     -54.833  22.965 -12.473  1.00  0.00     0.197 A 
ATOM      4  O   UNL     1     -53.619  22.874 -12.149  1.00  0.00    -0.289 OA
ATOM      5  C   UNL     1     -55.827  22.142 -11.894  1.00  0.00     0.107 A 
ATOM      6  C   UNL     1     -55.571  21.091 -10.963  1.00  0.00     0.134 A 
ATOM      7  C   UNL     1     -56.646  20.419 -10.368  1.00  0.00     0.093 A 
ATOM      8  C   UNL     1     -57.965  20.720 -10.717  1.00  0.00     0.123 A 
ATOM      9  C   UNL     1     -58.223  21.708 -11.664  1.00  0.00     0.094 A 
ATOM     10  C   UNL     1     -57.174  22.419 -12.249  1.00  0.00     0.146 A 
ATOM     11  O   UNL     1     -57.464  23.363 -13.138  1.00  0.00    -0.456 OA
ENDROOT
BRANCH   1  12
ATOM     12  C   UNL     1     -56.983  25.132 -14.724  1.00  0.00     0.021 A 
ATOM     13  C   UNL     1     -58.269  25.690 -14.614  1.00  0.00     0.016 A 
ATOM     14  C   UNL     1     -58.709  26.645 -15.534  1.00  0.00     0.051 A 
ATOM     15  C   UNL     1     -57.881  27.052 -16.583  1.00  0.00     0.157 A 
ATOM     16  C   UNL     1     -56.156  25.535 -15.790  1.00  0.00     0.062 A 
ATOM     17  C   UNL     1     -56.599  26.493 -16.715  1.00  0.00     0.158 A 
BRANCH  15  18
ATOM     18  O   UNL     1     -58.347  28.008 -17.484  1.00  0.00    -0.504 OA
ATOM     19  H   UNL     1     -59.262  27.943 -17.914  1.00  0.00     0.293 HD
ENDBRANCH  15  18
BRANCH  17  20
ATOM     20  O   UNL     1     -55.772  26.886 -17.765  1.00  0.00    -0.504 OA
ATOM     21  H   UNL     1     -55.533  26.254 -18.520  1.00  0.00     0.293 HD
ENDBRANCH  17  20
ENDBRANCH   1  12
BRANCH   6  22
ATOM     22  O   UNL     1     -54.290  20.654 -10.610  1.00  0.00    -0.507 OA
ATOM     23  H   UNL     1     -53.907  19.749 -10.836  1.00  0.00     0.293 HD
ENDBRANCH   6  22
BRANCH   8  24
ATOM     24  O   UNL     1     -59.029  20.036 -10.130  1.00  0.00    -0.508 OA
ATOM     25  H   UNL     1     -59.026  19.798  -9.145  1.00  0.00     0.293 HD
ENDBRANCH   8  24
TORSDOF 5
ENDMDL
MODEL 8
REMARK VINA RESULT:    -5.172      1.659      3.242
REMARK INTER + INTRA:          -6.362
REMARK INTER:                  -6.047
REMARK INTRA:                  -0.316
REMARK UNBOUND:                -0.284
REMARK SMILES O=c1cc(-c2ccc(O)c(O)c2)oc2cc(O)cc(O)c12
REMARK SMILES IDX 4 1 3 2 2 3 1 4 21 5 19 6 18 7 16 8 15 9 14 10 13 11 5 12
REMARK SMILES IDX 6 13 7 14 8 15 12 16 10 17 9 18 11 20 20 22 17 24
REMARK H PARENT 9 19 11 21 20 23 17 25
REMARK Flexibility Score: inf
ROOT
ATOM      1  C   UNL     1     -58.430  25.343 -13.292  1.00  0.00     0.138 A 
ATOM      2  C   UNL     1     -57.992  24.255 -12.524  1.00  0.00     0.100 A 
ATOM      3  C   UNL     1     -58.669  23.925 -11.349  1.00  0.00     0.197 A 
ATOM      4  O   UNL     1     -58.216  22.982 -10.648  1.00  0.00    -0.289 OA
ATOM      5  C   UNL     1     -59.808  24.669 -10.959  1.00  0.00     0.107 A 
ATOM      6  C   UNL     1     -60.599  24.398  -9.803  1.00  0.00     0.134 A 
ATOM      7  C   UNL     1     -61.634  25.274  -9.454  1.00  0.00     0.093 A 
ATOM      8  C   UNL     1     -61.944  26.377 -10.254  1.00  0.00     0.123 A 
ATOM      9  C   UNL     1     -61.211  26.620 -11.413  1.00  0.00     0.094 A 
ATOM     10  C   UNL     1     -60.151  25.784 -11.769  1.00  0.00     0.146 A 
ATOM     11  O   UNL     1     -59.468  26.060 -12.875  1.00  0.00    -0.456 OA
ENDROOT
BRANCH   1  12
ATOM     12  C   UNL     1     -57.747  25.737 -14.551  1.00  0.00     0.021 A 
ATOM     13  C   UNL     1     -56.493  25.183 -14.859  1.00  0.00     0.016 A 
ATOM     14  C   UNL     1     -55.826  25.542 -16.033  1.00  0.00     0.051 A 
ATOM     15  C   UNL     1     -56.392  26.466 -16.914  1.00  0.00     0.157 A 
ATOM     16  C   UNL     1     -58.309  26.678 -15.436  1.00  0.00     0.062 A 
ATOM     17  C   UNL     1     -57.639  27.041 -16.613  1.00  0.00     0.158 A 
BRANCH  15  18
ATOM     18  O   UNL     1     -55.704  26.804 -18.078  1.00  0.00    -0.504 OA
ATOM     19  H   UNL     1     -55.770  26.248 -18.923  1.00  0.00     0.293 HD
ENDBRANCH  15  18
BRANCH  17  20
ATOM     20  O   UNL     1     -58.205  27.971 -17.482  1.00  0.00    -0.504 OA
ATOM     21  H   UNL     1     -58.516  27.712 -18.411  1.00  0.00     0.293 HD
ENDBRANCH  17  20
ENDBRANCH   1  12
BRANCH   6  22
ATOM     22  O   UNL     1     -60.428  23.278  -8.984  1.00  0.00    -0.507 OA
ATOM     23  H   UNL     1     -61.005  22.451  -9.010  1.00  0.00     0.293 HD
ENDBRANCH   6  22
BRANCH   8  24
ATOM     24  O   UNL     1     -62.986  27.236  -9.907  1.00  0.00    -0.508 OA
ATOM     25  H   UNL     1     -63.348  27.275  -8.961  1.00  0.00     0.293 HD
ENDBRANCH   8  24
TORSDOF 5
ENDMDL
MODEL 9
REMARK VINA RESULT:    -5.090      1.325      7.389
REMARK INTER + INTRA:          -6.266
REMARK INTER:                  -5.987
REMARK INTRA:                  -0.279
REMARK UNBOUND:                -0.284
REMARK SMILES O=c1cc(-c2ccc(O)c(O)c2)oc2cc(O)cc(O)c12
REMARK SMILES IDX 4 1 3 2 2 3 1 4 21 5 19 6 18 7 16 8 15 9 14 10 13 11 5 12
REMARK SMILES IDX 6 13 7 14 8 15 12 16 10 17 9 18 11 20 20 22 17 24
REMARK H PARENT 9 19 11 21 20 23 17 25
REMARK Flexibility Score: inf
ROOT
ATOM      1  C   UNL     1     -57.516  23.647 -12.793  1.00  0.00     0.138 A 
ATOM      2  C   UNL     1     -56.210  23.257 -13.119  1.00  0.00     0.100 A 
ATOM      3  C   UNL     1     -55.571  23.834 -14.218  1.00  0.00     0.197 A 
ATOM      4  O   UNL     1     -54.422  23.419 -14.522  1.00  0.00    -0.289 OA
ATOM      5  C   UNL     1     -56.235  24.828 -14.975  1.00  0.00     0.107 A 
ATOM      6  C   UNL     1     -55.667  25.513 -16.090  1.00  0.00     0.134 A 
ATOM      7  C   UNL     1     -56.460  26.395 -16.835  1.00  0.00     0.093 A 
ATOM      8  C   UNL     1     -57.781  26.661 -16.467  1.00  0.00     0.123 A 
ATOM      9  C   UNL     1     -58.328  26.037 -15.349  1.00  0.00     0.094 A 
ATOM     10  C   UNL     1     -57.573  25.127 -14.606  1.00  0.00     0.146 A 
ATOM     11  O   UNL     1     -58.137  24.543 -13.554  1.00  0.00    -0.456 OA
ENDROOT
BRANCH   1  12
ATOM     12  C   UNL     1     -58.241  23.067 -11.634  1.00  0.00     0.021 A 
ATOM     13  C   UNL     1     -58.999  23.909 -10.802  1.00  0.00     0.016 A 
ATOM     14  C   UNL     1     -59.684  23.390  -9.700  1.00  0.00     0.051 A 
ATOM     15  C   UNL     1     -59.616  22.027  -9.403  1.00  0.00     0.157 A 
ATOM     16  C   UNL     1     -58.165  21.695 -11.324  1.00  0.00     0.062 A 
ATOM     17  C   UNL     1     -58.850  21.174 -10.216  1.00  0.00     0.158 A 
BRANCH  15  18
ATOM     18  O   UNL     1     -60.312  21.537  -8.299  1.00  0.00    -0.504 OA
ATOM     19  H   UNL     1     -60.538  20.555  -8.197  1.00  0.00     0.293 HD
ENDBRANCH  15  18
BRANCH  17  20
ATOM     20  O   UNL     1     -58.770  19.815  -9.920  1.00  0.00    -0.504 OA
ATOM     21  H   UNL     1     -58.068  19.219 -10.342  1.00  0.00     0.293 HD
ENDBRANCH  17  20
ENDBRANCH   1  12
BRANCH   6  22
ATOM     22  O   UNL     1     -54.333  25.384 -16.491  1.00  0.00    -0.507 OA
ATOM     23  H   UNL     1     -54.022  24.863 -17.296  1.00  0.00     0.293 HD
ENDBRANCH   6  22
BRANCH   8  24
ATOM     24  O   UNL     1     -58.559  27.551 -17.206  1.00  0.00    -0.508 OA
ATOM     25  H   UNL     1     -59.151  28.239 -16.754  1.00  0.00     0.293 HD
ENDBRANCH   8  24
TORSDOF 5
ENDMDL
