MODEL 1
REMARK VINA RESULT:    -5.939      0.000      0.000
REMARK INTER + INTRA:          -6.445
REMARK INTER:                  -6.286
REMARK INTRA:                  -0.159
REMARK UNBOUND:                -0.159
REMARK SMILES C=C(C)[C@H]1CC=C(C)CC1
REMARK SMILES IDX 8 1 7 2 6 3 5 4 4 5 10 6 9 7 2 8 1 9 3 10
REMARK H PARENT
REMARK Flexibility Score: inf
ROOT
ATOM      1  C   UNL     1      11.012  19.632  -5.118  1.00  0.00     0.039 C 
ATOM      2  C   UNL     1      11.924  20.038  -3.994  1.00  0.00    -0.077 C 
ATOM      3  C   UNL     1      13.116  20.596  -4.259  1.00  0.00    -0.027 C 
ATOM      4  C   UNL     1      13.992  21.042  -3.121  1.00  0.00     0.035 C 
ATOM      5  C   UNL     1      13.158  21.829  -2.082  1.00  0.00     0.018 C 
ATOM      6  C   UNL     1      11.777  21.167  -1.758  1.00  0.00     0.013 C 
ATOM      7  C   UNL     1      11.510  19.873  -2.550  1.00  0.00     0.031 C 
ENDROOT
BRANCH   5   8
ATOM      8  C   UNL     1      13.970  22.096  -0.825  1.00  0.00    -0.077 C 
ATOM      9  C   UNL     1      13.366  22.284   0.362  1.00  0.00     0.008 C 
ATOM     10  C   UNL     1      15.471  22.151  -0.927  1.00  0.00     0.039 C 
ENDBRANCH   5   8
TORSDOF 1
ENDMDL
MODEL 2
REMARK VINA RESULT:    -5.863      1.445      1.569
REMARK INTER + INTRA:          -6.365
REMARK INTER:                  -6.196
REMARK INTRA:                  -0.168
REMARK UNBOUND:                -0.159
REMARK SMILES C=C(C)[C@H]1CC=C(C)CC1
REMARK SMILES IDX 8 1 7 2 6 3 5 4 4 5 10 6 9 7 2 8 1 9 3 10
REMARK H PARENT
REMARK Flexibility Score: inf
ROOT
ATOM      1  C   UNL     1      10.700  18.997  -3.637  1.00  0.00     0.039 C 
ATOM      2  C   UNL     1      11.756  19.998  -3.258  1.00  0.00    -0.077 C 
ATOM      3  C   UNL     1      12.318  20.776  -4.196  1.00  0.00    -0.027 C 
ATOM      4  C   UNL     1      13.335  21.807  -3.789  1.00  0.00     0.035 C 
ATOM      5  C   UNL     1      12.834  22.592  -2.553  1.00  0.00     0.018 C 
ATOM      6  C   UNL     1      12.198  21.681  -1.450  1.00  0.00     0.013 C 
ATOM      7  C   UNL     1      12.177  20.186  -1.818  1.00  0.00     0.031 C 
ENDROOT
BRANCH   5   8
ATOM      8  C   UNL     1      13.934  23.479  -1.993  1.00  0.00    -0.077 C 
ATOM      9  C   UNL     1      13.856  24.819  -2.084  1.00  0.00     0.008 C 
ATOM     10  C   UNL     1      15.124  22.834  -1.334  1.00  0.00     0.039 C 
ENDBRANCH   5   8
TORSDOF 1
ENDMDL
MODEL 3
REMARK VINA RESULT:    -5.859      1.464      4.304
REMARK INTER + INTRA:          -6.360
REMARK INTER:                  -6.193
REMARK INTRA:                  -0.167
REMARK UNBOUND:                -0.159
REMARK SMILES C=C(C)[C@H]1CC=C(C)CC1
REMARK SMILES IDX 8 1 7 2 6 3 5 4 4 5 10 6 9 7 2 8 1 9 3 10
REMARK H PARENT
REMARK Flexibility Score: inf
ROOT
ATOM      1  C   UNL     1      14.464  24.800  -1.523  1.00  0.00     0.039 C 
ATOM      2  C   UNL     1      13.800  23.452  -1.494  1.00  0.00    -0.077 C 
ATOM      3  C   UNL     1      12.483  23.353  -1.247  1.00  0.00    -0.027 C 
ATOM      4  C   UNL     1      11.827  22.000  -1.274  1.00  0.00     0.035 C 
ATOM      5  C   UNL     1      12.285  21.209  -2.525  1.00  0.00     0.018 C 
ATOM      6  C   UNL     1      13.822  21.309  -2.799  1.00  0.00     0.013 C 
ATOM      7  C   UNL     1      14.577  22.189  -1.785  1.00  0.00     0.031 C 
ENDROOT
BRANCH   5   8
ATOM      8  C   UNL     1      11.811  19.766  -2.456  1.00  0.00    -0.077 C 
ATOM      9  C   UNL     1      12.135  18.980  -1.414  1.00  0.00     0.008 C 
ATOM     10  C   UNL     1      10.972  19.222  -3.582  1.00  0.00     0.039 C 
ENDBRANCH   5   8
TORSDOF 1
ENDMDL
MODEL 4
REMARK VINA RESULT:    -5.752      1.900      2.866
REMARK INTER + INTRA:          -6.248
REMARK INTER:                  -6.081
REMARK INTRA:                  -0.167
REMARK UNBOUND:                -0.159
REMARK SMILES C=C(C)[C@H]1CC=C(C)CC1
REMARK SMILES IDX 8 1 7 2 6 3 5 4 4 5 10 6 9 7 2 8 1 9 3 10
REMARK H PARENT
REMARK Flexibility Score: inf
ROOT
ATOM      1  C   UNL     1      11.698  18.988  -2.613  1.00  0.00     0.039 C 
ATOM      2  C   UNL     1      11.975  20.465  -2.611  1.00  0.00    -0.077 C 
ATOM      3  C   UNL     1      11.798  21.185  -1.490  1.00  0.00    -0.027 C 
ATOM      4  C   UNL     1      12.130  22.651  -1.494  1.00  0.00     0.035 C 
ATOM      5  C   UNL     1      13.502  22.886  -2.171  1.00  0.00     0.018 C 
ATOM      6  C   UNL     1      13.699  22.064  -3.488  1.00  0.00     0.013 C 
ATOM      7  C   UNL     1      12.499  21.167  -3.843  1.00  0.00     0.031 C 
ENDROOT
BRANCH   5   8
ATOM      8  C   UNL     1      13.754  24.370  -2.384  1.00  0.00    -0.077 C 
ATOM      9  C   UNL     1      14.543  25.066  -1.546  1.00  0.00     0.008 C 
ATOM     10  C   UNL     1      13.100  25.058  -3.554  1.00  0.00     0.039 C 
ENDBRANCH   5   8
TORSDOF 1
ENDMDL
MODEL 5
REMARK VINA RESULT:    -5.697      0.991      2.052
REMARK INTER + INTRA:          -6.189
REMARK INTER:                  -6.020
REMARK INTRA:                  -0.169
REMARK UNBOUND:                -0.159
REMARK SMILES C=C(C)[C@H]1CC=C(C)CC1
REMARK SMILES IDX 8 1 7 2 6 3 5 4 4 5 10 6 9 7 2 8 1 9 3 10
REMARK H PARENT
REMARK Flexibility Score: inf
ROOT
ATOM      1  C   UNL     1      11.010  18.954  -4.049  1.00  0.00     0.039 C 
ATOM      2  C   UNL     1      11.683  20.130  -3.398  1.00  0.00    -0.077 C 
ATOM      3  C   UNL     1      11.388  20.460  -2.130  1.00  0.00    -0.027 C 
ATOM      4  C   UNL     1      12.109  21.608  -1.479  1.00  0.00     0.035 C 
ATOM      5  C   UNL     1      13.629  21.509  -1.755  1.00  0.00     0.018 C 
ATOM      6  C   UNL     1      13.972  21.144  -3.238  1.00  0.00     0.013 C 
ATOM      7  C   UNL     1      12.732  20.936  -4.128  1.00  0.00     0.031 C 
ENDROOT
BRANCH   5   8
ATOM      8  C   UNL     1      14.346  22.769  -1.299  1.00  0.00    -0.077 C 
ATOM      9  C   UNL     1      15.454  22.699  -0.539  1.00  0.00     0.008 C 
ATOM     10  C   UNL     1      13.792  24.109  -1.707  1.00  0.00     0.039 C 
ENDBRANCH   5   8
TORSDOF 1
ENDMDL
MODEL 6
REMARK VINA RESULT:    -5.452      0.947      4.279
REMARK INTER + INTRA:          -5.930
REMARK INTER:                  -5.769
REMARK INTRA:                  -0.161
REMARK UNBOUND:                -0.159
REMARK SMILES C=C(C)[C@H]1CC=C(C)CC1
REMARK SMILES IDX 8 1 7 2 6 3 5 4 4 5 10 6 9 7 2 8 1 9 3 10
REMARK H PARENT
REMARK Flexibility Score: inf
ROOT
ATOM      1  C   UNL     1      13.323  22.620   1.122  1.00  0.00     0.039 C 
ATOM      2  C   UNL     1      13.150  22.352  -0.347  1.00  0.00    -0.077 C 
ATOM      3  C   UNL     1      14.171  21.863  -1.069  1.00  0.00    -0.027 C 
ATOM      4  C   UNL     1      13.963  21.552  -2.526  1.00  0.00     0.035 C 
ATOM      5  C   UNL     1      12.638  20.776  -2.722  1.00  0.00     0.018 C 
ATOM      6  C   UNL     1      11.444  21.359  -1.896  1.00  0.00     0.013 C 
ATOM      7  C   UNL     1      11.823  22.578  -1.034  1.00  0.00     0.031 C 
ENDROOT
BRANCH   5   8
ATOM      8  C   UNL     1      12.300  20.647  -4.199  1.00  0.00    -0.077 C 
ATOM      9  C   UNL     1      12.840  21.478  -5.108  1.00  0.00     0.008 C 
ATOM     10  C   UNL     1      11.339  19.572  -4.634  1.00  0.00     0.039 C 
ENDBRANCH   5   8
TORSDOF 1
ENDMDL
MODEL 7
REMARK VINA RESULT:    -5.410      1.602      4.168
REMARK INTER + INTRA:          -5.886
REMARK INTER:                  -5.727
REMARK INTRA:                  -0.159
REMARK UNBOUND:                -0.159
REMARK SMILES C=C(C)[C@H]1CC=C(C)CC1
REMARK SMILES IDX 8 1 7 2 6 3 5 4 4 5 10 6 9 7 2 8 1 9 3 10
REMARK H PARENT
REMARK Flexibility Score: inf
ROOT
ATOM      1  C   UNL     1      14.028  24.894  -1.338  1.00  0.00     0.039 C 
ATOM      2  C   UNL     1      13.245  23.796  -2.002  1.00  0.00    -0.077 C 
ATOM      3  C   UNL     1      13.545  23.415  -3.255  1.00  0.00    -0.027 C 
ATOM      4  C   UNL     1      12.784  22.280  -3.883  1.00  0.00     0.035 C 
ATOM      5  C   UNL     1      12.668  21.100  -2.887  1.00  0.00     0.018 C 
ATOM      6  C   UNL     1      12.298  21.543  -1.433  1.00  0.00     0.013 C 
ATOM      7  C   UNL     1      12.142  23.067  -1.270  1.00  0.00     0.031 C 
ENDROOT
BRANCH   5   8
ATOM      8  C   UNL     1      11.719  20.037  -3.417  1.00  0.00    -0.077 C 
ATOM      9  C   UNL     1      11.083  19.197  -2.579  1.00  0.00     0.008 C 
ATOM     10  C   UNL     1      11.501  19.931  -4.903  1.00  0.00     0.039 C 
ENDBRANCH   5   8
TORSDOF 1
ENDMDL
MODEL 8
REMARK VINA RESULT:    -5.182      1.613      4.338
REMARK INTER + INTRA:          -5.644
REMARK INTER:                  -5.476
REMARK INTRA:                  -0.169
REMARK UNBOUND:                -0.159
REMARK SMILES C=C(C)[C@H]1CC=C(C)CC1
REMARK SMILES IDX 8 1 7 2 6 3 5 4 4 5 10 6 9 7 2 8 1 9 3 10
REMARK H PARENT
REMARK Flexibility Score: inf
ROOT
ATOM      1  C   UNL     1      15.166  25.141  -0.846  1.00  0.00     0.039 C 
ATOM      2  C   UNL     1      14.523  24.008  -1.596  1.00  0.00    -0.077 C 
ATOM      3  C   UNL     1      15.082  22.786  -1.582  1.00  0.00    -0.027 C 
ATOM      4  C   UNL     1      14.396  21.653  -2.295  1.00  0.00     0.035 C 
ATOM      5  C   UNL     1      12.885  21.647  -1.959  1.00  0.00     0.018 C 
ATOM      6  C   UNL     1      12.231  23.068  -1.996  1.00  0.00     0.013 C 
ATOM      7  C   UNL     1      13.221  24.197  -2.339  1.00  0.00     0.031 C 
ENDROOT
BRANCH   5   8
ATOM      8  C   UNL     1      12.139  20.655  -2.836  1.00  0.00    -0.077 C 
ATOM      9  C   UNL     1      11.440  19.641  -2.295  1.00  0.00     0.008 C 
ATOM     10  C   UNL     1      12.197  20.819  -4.332  1.00  0.00     0.039 C 
ENDBRANCH   5   8
TORSDOF 1
ENDMDL
MODEL 9
REMARK VINA RESULT:    -5.009      2.357      3.500
REMARK INTER + INTRA:          -5.461
REMARK INTER:                  -5.302
REMARK INTRA:                  -0.159
REMARK UNBOUND:                -0.159
REMARK SMILES C=C(C)[C@H]1CC=C(C)CC1
REMARK SMILES IDX 8 1 7 2 6 3 5 4 4 5 10 6 9 7 2 8 1 9 3 10
REMARK H PARENT
REMARK Flexibility Score: inf
ROOT
ATOM      1  C   UNL     1      12.503  25.633  -4.389  1.00  0.00     0.039 C 
ATOM      2  C   UNL     1      13.207  24.663  -3.482  1.00  0.00    -0.077 C 
ATOM      3  C   UNL     1      13.828  25.102  -2.374  1.00  0.00    -0.027 C 
ATOM      4  C   UNL     1      14.482  24.110  -1.453  1.00  0.00     0.035 C 
ATOM      5  C   UNL     1      13.535  22.912  -1.198  1.00  0.00     0.018 C 
ATOM      6  C   UNL     1      12.828  22.388  -2.492  1.00  0.00     0.013 C 
ATOM      7  C   UNL     1      13.197  23.178  -3.762  1.00  0.00     0.031 C 
ENDROOT
BRANCH   5   8
ATOM      8  C   UNL     1      14.256  21.800  -0.454  1.00  0.00    -0.077 C 
ATOM      9  C   UNL     1      13.573  20.785   0.106  1.00  0.00     0.008 C 
ATOM     10  C   UNL     1      15.758  21.851  -0.347  1.00  0.00     0.039 C 
ENDBRANCH   5   8
TORSDOF 1
ENDMDL
