MODEL 1
REMARK VINA RESULT:    -3.435      0.000      0.000
REMARK INTER + INTRA:          -4.104
REMARK INTER:                  -4.038
REMARK INTRA:                  -0.066
REMARK UNBOUND:                -0.066
REMARK SMILES CCCCC(=O)[O-]
REMARK SMILES IDX 4 1 5 2 6 3 7 4 3 5 2 6 1 7
REMARK H PARENT
REMARK Flexibility Score: inf
ROOT
ATOM      1  C   UNL     1      16.795  12.155  -1.136  1.00  0.00     0.053 C 
ENDROOT
BRANCH   1   2
ATOM      2  C   UNL     1      16.514  11.940  -2.590  1.00  0.00     0.041 C 
ATOM      3  O   UNL     1      15.403  11.479  -2.960  1.00  0.00    -0.550 OA
ATOM      4  O   UNL     1      17.463  12.296  -3.541  1.00  0.00    -0.550 OA
ENDBRANCH   1   2
BRANCH   1   5
ATOM      5  C   UNL     1      15.491  12.164  -0.334  1.00  0.00     0.006 C 
BRANCH   5   6
ATOM      6  C   UNL     1      15.587  11.231   0.879  1.00  0.00    -0.003 C 
ATOM      7  C   UNL     1      17.041  11.004   1.285  1.00  0.00     0.004 C 
ENDBRANCH   5   6
ENDBRANCH   1   5
TORSDOF 3
ENDMDL
MODEL 2
REMARK VINA RESULT:    -3.313      2.661      3.577
REMARK INTER + INTRA:          -3.961
REMARK INTER:                  -3.859
REMARK INTRA:                  -0.102
REMARK UNBOUND:                -0.066
REMARK SMILES CCCCC(=O)[O-]
REMARK SMILES IDX 4 1 5 2 6 3 7 4 3 5 2 6 1 7
REMARK H PARENT
REMARK Flexibility Score: inf
ROOT
ATOM      1  C   UNL     1      15.864  11.219   0.865  1.00  0.00     0.053 C 
ENDROOT
BRANCH   1   2
ATOM      2  C   UNL     1      17.344  11.214   1.090  1.00  0.00     0.041 C 
ATOM      3  O   UNL     1      17.935  10.144   1.392  1.00  0.00    -0.550 OA
ATOM      4  O   UNL     1      18.077  12.382   0.918  1.00  0.00    -0.550 OA
ENDBRANCH   1   2
BRANCH   1   5
ATOM      5  C   UNL     1      15.485  12.270  -0.183  1.00  0.00     0.006 C 
BRANCH   5   6
ATOM      6  C   UNL     1      15.209  11.615  -1.541  1.00  0.00    -0.003 C 
ATOM      7  C   UNL     1      16.374  11.831  -2.504  1.00  0.00     0.004 C 
ENDBRANCH   5   6
ENDBRANCH   1   5
TORSDOF 3
ENDMDL
MODEL 3
REMARK VINA RESULT:    -2.896      2.258      3.152
REMARK INTER + INTRA:          -3.471
REMARK INTER:                  -3.415
REMARK INTRA:                  -0.056
REMARK UNBOUND:                -0.066
REMARK SMILES CCCCC(=O)[O-]
REMARK SMILES IDX 4 1 5 2 6 3 7 4 3 5 2 6 1 7
REMARK H PARENT
REMARK Flexibility Score: inf
ROOT
ATOM      1  C   UNL     1      16.290  11.170   1.251  1.00  0.00     0.053 C 
ENDROOT
BRANCH   1   2
ATOM      2  C   UNL     1      15.484  11.911   0.230  1.00  0.00     0.041 C 
ATOM      3  O   UNL     1      14.870  12.962   0.549  1.00  0.00    -0.550 OA
ATOM      4  O   UNL     1      15.452  11.467  -1.086  1.00  0.00    -0.550 OA
ENDBRANCH   1   2
BRANCH   1   5
ATOM      5  C   UNL     1      17.782  11.244   0.913  1.00  0.00     0.006 C 
BRANCH   5   6
ATOM      6  C   UNL     1      18.259  12.700   0.851  1.00  0.00    -0.003 C 
ATOM      7  C   UNL     1      19.708  12.786   0.378  1.00  0.00     0.004 C 
ENDBRANCH   5   6
ENDBRANCH   1   5
TORSDOF 3
ENDMDL
MODEL 4
REMARK VINA RESULT:    -2.881     11.643     12.209
REMARK INTER + INTRA:          -3.452
REMARK INTER:                  -3.436
REMARK INTRA:                  -0.016
REMARK UNBOUND:                -0.066
REMARK SMILES CCCCC(=O)[O-]
REMARK SMILES IDX 4 1 5 2 6 3 7 4 3 5 2 6 1 7
REMARK H PARENT
REMARK Flexibility Score: inf
ROOT
ATOM      1  C   UNL     1       6.442   7.852   2.117  1.00  0.00     0.053 C 
ENDROOT
BRANCH   1   2
ATOM      2  C   UNL     1       5.850   7.358   3.399  1.00  0.00     0.041 C 
ATOM      3  O   UNL     1       6.319   6.333   3.960  1.00  0.00    -0.550 OA
ATOM      4  O   UNL     1       4.811   8.058   4.000  1.00  0.00    -0.550 OA
ENDBRANCH   1   2
BRANCH   1   5
ATOM      5  C   UNL     1       6.243   6.821   1.002  1.00  0.00     0.006 C 
BRANCH   5   6
ATOM      6  C   UNL     1       6.455   7.457  -0.378  1.00  0.00    -0.003 C 
ATOM      7  C   UNL     1       6.960   6.429  -1.386  1.00  0.00     0.004 C 
ENDBRANCH   5   6
ENDBRANCH   1   5
TORSDOF 3
ENDMDL
MODEL 5
REMARK VINA RESULT:    -2.879     11.653     12.196
REMARK INTER + INTRA:          -3.451
REMARK INTER:                  -3.435
REMARK INTRA:                  -0.016
REMARK UNBOUND:                -0.066
REMARK SMILES CCCCC(=O)[O-]
REMARK SMILES IDX 4 1 5 2 6 3 7 4 3 5 2 6 1 7
REMARK H PARENT
REMARK Flexibility Score: inf
ROOT
ATOM      1  C   UNL     1       6.344   7.989   2.148  1.00  0.00     0.053 C 
ENDROOT
BRANCH   1   2
ATOM      2  C   UNL     1       5.800   7.488   3.449  1.00  0.00     0.041 C 
ATOM      3  O   UNL     1       4.845   8.085   4.009  1.00  0.00    -0.550 OA
ATOM      4  O   UNL     1       6.318   6.330   4.018  1.00  0.00    -0.550 OA
ENDBRANCH   1   2
BRANCH   1   5
ATOM      5  C   UNL     1       6.213   6.917   1.063  1.00  0.00     0.006 C 
BRANCH   5   6
ATOM      6  C   UNL     1       6.534   7.494  -0.321  1.00  0.00    -0.003 C 
ATOM      7  C   UNL     1       6.881   6.387  -1.312  1.00  0.00     0.004 C 
ENDBRANCH   5   6
ENDBRANCH   1   5
TORSDOF 3
ENDMDL
MODEL 6
REMARK VINA RESULT:    -2.819     10.688     11.310
REMARK INTER + INTRA:          -3.380
REMARK INTER:                  -3.314
REMARK INTRA:                  -0.066
REMARK UNBOUND:                -0.066
REMARK SMILES CCCCC(=O)[O-]
REMARK SMILES IDX 4 1 5 2 6 3 7 4 3 5 2 6 1 7
REMARK H PARENT
REMARK Flexibility Score: inf
ROOT
ATOM      1  C   UNL     1       5.741   7.173   1.259  1.00  0.00     0.053 C 
ENDROOT
BRANCH   1   2
ATOM      2  C   UNL     1       6.651   6.881   0.108  1.00  0.00     0.041 C 
ATOM      3  O   UNL     1       7.767   7.457   0.020  1.00  0.00    -0.550 OA
ATOM      4  O   UNL     1       6.287   5.934  -0.843  1.00  0.00    -0.550 OA
ENDBRANCH   1   2
BRANCH   1   5
ATOM      5  C   UNL     1       6.346   8.255   2.159  1.00  0.00     0.006 C 
BRANCH   5   6
ATOM      6  C   UNL     1       6.089   7.943   3.639  1.00  0.00    -0.003 C 
ATOM      7  C   UNL     1       6.313   6.463   3.937  1.00  0.00     0.004 C 
ENDBRANCH   5   6
ENDBRANCH   1   5
TORSDOF 3
ENDMDL
MODEL 7
REMARK VINA RESULT:    -2.804     17.457     18.130
REMARK INTER + INTRA:          -3.362
REMARK INTER:                  -3.307
REMARK INTRA:                  -0.055
REMARK UNBOUND:                -0.066
REMARK SMILES CCCCC(=O)[O-]
REMARK SMILES IDX 4 1 5 2 6 3 7 4 3 5 2 6 1 7
REMARK H PARENT
REMARK Flexibility Score: inf
ROOT
ATOM      1  C   UNL     1      12.287  -6.146   1.426  1.00  0.00     0.053 C 
ENDROOT
BRANCH   1   2
ATOM      2  C   UNL     1      12.740  -5.915   0.019  1.00  0.00     0.041 C 
ATOM      3  O   UNL     1      12.274  -4.954  -0.647  1.00  0.00    -0.550 OA
ATOM      4  O   UNL     1      13.713  -6.733  -0.541  1.00  0.00    -0.550 OA
ENDBRANCH   1   2
BRANCH   1   5
ATOM      5  C   UNL     1      13.446  -6.663   2.284  1.00  0.00     0.006 C 
BRANCH   5   6
ATOM      6  C   UNL     1      13.858  -5.624   3.334  1.00  0.00    -0.003 C 
ATOM      7  C   UNL     1      15.326  -5.237   3.180  1.00  0.00     0.004 C 
ENDBRANCH   5   6
ENDBRANCH   1   5
TORSDOF 3
ENDMDL
MODEL 8
REMARK VINA RESULT:    -2.785     17.620     18.267
REMARK INTER + INTRA:          -3.340
REMARK INTER:                  -3.266
REMARK INTRA:                  -0.074
REMARK UNBOUND:                -0.066
REMARK SMILES CCCCC(=O)[O-]
REMARK SMILES IDX 4 1 5 2 6 3 7 4 3 5 2 6 1 7
REMARK H PARENT
REMARK Flexibility Score: inf
ROOT
ATOM      1  C   UNL     1      13.847  -6.022   2.795  1.00  0.00     0.053 C 
ENDROOT
BRANCH   1   2
ATOM      2  C   UNL     1      15.248  -5.644   3.162  1.00  0.00     0.041 C 
ATOM      3  O   UNL     1      15.608  -4.439   3.131  1.00  0.00    -0.550 OA
ATOM      4  O   UNL     1      16.142  -6.620   3.585  1.00  0.00    -0.550 OA
ENDBRANCH   1   2
BRANCH   1   5
ATOM      5  C   UNL     1      13.012  -6.272   4.054  1.00  0.00     0.006 C 
BRANCH   5   6
ATOM      6  C   UNL     1      11.966  -5.167   4.247  1.00  0.00    -0.003 C 
ATOM      7  C   UNL     1      12.226  -4.379   5.528  1.00  0.00     0.004 C 
ENDBRANCH   5   6
ENDBRANCH   1   5
TORSDOF 3
ENDMDL
MODEL 9
REMARK VINA RESULT:    -2.708      9.966     10.984
REMARK INTER + INTRA:          -3.249
REMARK INTER:                  -3.198
REMARK INTRA:                  -0.051
REMARK UNBOUND:                -0.066
REMARK SMILES CCCCC(=O)[O-]
REMARK SMILES IDX 4 1 5 2 6 3 7 4 3 5 2 6 1 7
REMARK H PARENT
REMARK Flexibility Score: inf
ROOT
ATOM      1  C   UNL     1       6.088   8.196   1.021  1.00  0.00     0.053 C 
ENDROOT
BRANCH   1   2
ATOM      2  C   UNL     1       7.493   8.095   0.513  1.00  0.00     0.041 C 
ATOM      3  O   UNL     1       7.819   7.161  -0.265  1.00  0.00    -0.550 OA
ATOM      4  O   UNL     1       8.428   9.062   0.861  1.00  0.00    -0.550 OA
ENDBRANCH   1   2
BRANCH   1   5
ATOM      5  C   UNL     1       5.750   6.990   1.904  1.00  0.00     0.006 C 
BRANCH   5   6
ATOM      6  C   UNL     1       5.880   7.345   3.390  1.00  0.00    -0.003 C 
ATOM      7  C   UNL     1       4.710   8.208   3.854  1.00  0.00     0.004 C 
ENDBRANCH   5   6
ENDBRANCH   1   5
TORSDOF 3
ENDMDL
