MODEL 1
REMARK VINA RESULT:    -4.358      0.000      0.000
REMARK INTER + INTRA:          -8.361
REMARK INTER:                  -6.905
REMARK INTRA:                  -1.456
REMARK UNBOUND:                -1.456
REMARK SMILES CCCCCCCCCCCC(=O)[O-]
REMARK SMILES IDX 7 1 8 2 9 3 10 4 11 5 12 6 13 7 14 8 6 9 5 10 4 11 3 12 2 13
REMARK SMILES IDX 1 14
REMARK H PARENT
REMARK Flexibility Score: inf
ROOT
ATOM      1  C   UNL     1       4.008   3.063  14.126  1.00  0.00     0.000 C 
ENDROOT
BRANCH   1   2
ATOM      2  C   UNL     1       4.420   3.083  15.611  1.00  0.00     0.000 C 
BRANCH   2   3
ATOM      3  C   UNL     1       3.601   2.153  16.529  1.00  0.00     0.000 C 
BRANCH   3   4
ATOM      4  C   UNL     1       4.393   1.511  17.684  1.00  0.00     0.006 C 
BRANCH   4   5
ATOM      5  C   UNL     1       5.463   0.503  17.238  1.00  0.00     0.053 C 
BRANCH   5   6
ATOM      6  C   UNL     1       5.477  -0.718  18.106  1.00  0.00     0.041 C 
ATOM      7  O   UNL     1       4.756  -1.709  17.818  1.00  0.00    -0.550 OA
ATOM      8  O   UNL     1       6.310  -0.772  19.215  1.00  0.00    -0.550 OA
ENDBRANCH   5   6
ENDBRANCH   4   5
ENDBRANCH   3   4
ENDBRANCH   2   3
ENDBRANCH   1   2
BRANCH   1   9
ATOM      9  C   UNL     1       4.996   2.342  13.187  1.00  0.00     0.000 C 
BRANCH   9  10
ATOM     10  C   UNL     1       5.021   0.807  13.328  1.00  0.00    -0.000 C 
BRANCH  10  11
ATOM     11  C   UNL     1       3.636   0.130  13.356  1.00  0.00    -0.000 C 
BRANCH  11  12
ATOM     12  C   UNL     1       3.545  -1.126  14.240  1.00  0.00    -0.000 C 
BRANCH  12  13
ATOM     13  C   UNL     1       2.404  -1.052  15.266  1.00  0.00    -0.003 C 
ATOM     14  C   UNL     1       1.207  -0.292  14.702  1.00  0.00     0.004 C 
ENDBRANCH  12  13
ENDBRANCH  11  12
ENDBRANCH  10  11
ENDBRANCH   9  10
ENDBRANCH   1   9
TORSDOF 10
ENDMDL
MODEL 2
REMARK VINA RESULT:    -4.268      1.281      2.391
REMARK INTER + INTRA:          -8.218
REMARK INTER:                  -6.896
REMARK INTRA:                  -1.322
REMARK UNBOUND:                -1.456
REMARK SMILES CCCCCCCCCCCC(=O)[O-]
REMARK SMILES IDX 7 1 8 2 9 3 10 4 11 5 12 6 13 7 14 8 6 9 5 10 4 11 3 12 2 13
REMARK SMILES IDX 1 14
REMARK H PARENT
REMARK Flexibility Score: inf
ROOT
ATOM      1  C   UNL     1       5.500   1.316  13.110  1.00  0.00     0.000 C 
ENDROOT
BRANCH   1   2
ATOM      2  C   UNL     1       6.179   0.699  14.349  1.00  0.00     0.000 C 
BRANCH   2   3
ATOM      3  C   UNL     1       5.785  -0.761  14.650  1.00  0.00     0.000 C 
BRANCH   3   4
ATOM      4  C   UNL     1       5.562  -1.084  16.140  1.00  0.00     0.006 C 
BRANCH   4   5
ATOM      5  C   UNL     1       5.665   0.130  17.076  1.00  0.00     0.053 C 
BRANCH   5   6
ATOM      6  C   UNL     1       5.585  -0.268  18.518  1.00  0.00     0.041 C 
ATOM      7  O   UNL     1       4.777   0.310  19.291  1.00  0.00    -0.550 OA
ATOM      8  O   UNL     1       6.381  -1.299  19.000  1.00  0.00    -0.550 OA
ENDBRANCH   5   6
ENDBRANCH   4   5
ENDBRANCH   3   4
ENDBRANCH   2   3
ENDBRANCH   1   2
BRANCH   1   9
ATOM      9  C   UNL     1       4.835   2.686  13.348  1.00  0.00     0.000 C 
BRANCH   9  10
ATOM     10  C   UNL     1       4.411   2.958  14.805  1.00  0.00    -0.000 C 
BRANCH  10  11
ATOM     11  C   UNL     1       2.924   2.691  15.113  1.00  0.00    -0.000 C 
BRANCH  11  12
ATOM     12  C   UNL     1       2.631   1.332  15.773  1.00  0.00    -0.000 C 
BRANCH  12  13
ATOM     13  C   UNL     1       2.270   0.240  14.755  1.00  0.00    -0.003 C 
ATOM     14  C   UNL     1       0.801  -0.157  14.874  1.00  0.00     0.004 C 
ENDBRANCH  12  13
ENDBRANCH  11  12
ENDBRANCH  10  11
ENDBRANCH   9  10
ENDBRANCH   1   9
TORSDOF 10
ENDMDL
MODEL 3
REMARK VINA RESULT:    -4.188      2.509      4.168
REMARK INTER + INTRA:          -8.092
REMARK INTER:                  -6.848
REMARK INTRA:                  -1.244
REMARK UNBOUND:                -1.456
REMARK SMILES CCCCCCCCCCCC(=O)[O-]
REMARK SMILES IDX 7 1 8 2 9 3 10 4 11 5 12 6 13 7 14 8 6 9 5 10 4 11 3 12 2 13
REMARK SMILES IDX 1 14
REMARK H PARENT
REMARK Flexibility Score: inf
ROOT
ATOM      1  C   UNL     1       5.813   1.252  13.238  1.00  0.00     0.000 C 
ENDROOT
BRANCH   1   2
ATOM      2  C   UNL     1       4.902   2.495  13.255  1.00  0.00     0.000 C 
BRANCH   2   3
ATOM      3  C   UNL     1       4.367   2.893  14.646  1.00  0.00     0.000 C 
BRANCH   3   4
ATOM      4  C   UNL     1       2.876   2.588  14.885  1.00  0.00     0.006 C 
BRANCH   4   5
ATOM      5  C   UNL     1       2.610   1.299  15.678  1.00  0.00     0.053 C 
BRANCH   5   6
ATOM      6  C   UNL     1       1.900   0.271  14.850  1.00  0.00     0.041 C 
ATOM      7  O   UNL     1       0.692  -0.000  15.075  1.00  0.00    -0.550 OA
ATOM      8  O   UNL     1       2.566  -0.364  13.810  1.00  0.00    -0.550 OA
ENDBRANCH   5   6
ENDBRANCH   4   5
ENDBRANCH   3   4
ENDBRANCH   2   3
ENDBRANCH   1   2
BRANCH   1   9
ATOM      9  C   UNL     1       6.219   0.725  14.629  1.00  0.00     0.000 C 
BRANCH   9  10
ATOM     10  C   UNL     1       5.883  -0.757  14.885  1.00  0.00    -0.000 C 
BRANCH  10  11
ATOM     11  C   UNL     1       5.433  -1.086  16.323  1.00  0.00    -0.000 C 
BRANCH  11  12
ATOM     12  C   UNL     1       5.462   0.102  17.301  1.00  0.00    -0.000 C 
BRANCH  12  13
ATOM     13  C   UNL     1       5.663  -0.331  18.760  1.00  0.00    -0.003 C 
ATOM     14  C   UNL     1       6.248  -1.738  18.840  1.00  0.00     0.004 C 
ENDBRANCH  12  13
ENDBRANCH  11  12
ENDBRANCH  10  11
ENDBRANCH   9  10
ENDBRANCH   1   9
TORSDOF 10
ENDMDL
MODEL 4
REMARK VINA RESULT:    -4.141      2.834      3.984
REMARK INTER + INTRA:          -8.018
REMARK INTER:                  -6.660
REMARK INTRA:                  -1.358
REMARK UNBOUND:                -1.456
REMARK SMILES CCCCCCCCCCCC(=O)[O-]
REMARK SMILES IDX 7 1 8 2 9 3 10 4 11 5 12 6 13 7 14 8 6 9 5 10 4 11 3 12 2 13
REMARK SMILES IDX 1 14
REMARK H PARENT
REMARK Flexibility Score: inf
ROOT
ATOM      1  C   UNL     1       5.222  -0.986  17.451  1.00  0.00     0.000 C 
ENDROOT
BRANCH   1   2
ATOM      2  C   UNL     1       5.574   0.510  17.560  1.00  0.00     0.000 C 
BRANCH   2   3
ATOM      3  C   UNL     1       4.383   1.440  17.869  1.00  0.00     0.000 C 
BRANCH   3   4
ATOM      4  C   UNL     1       3.668   2.019  16.632  1.00  0.00     0.006 C 
BRANCH   4   5
ATOM      5  C   UNL     1       4.562   2.882  15.728  1.00  0.00     0.053 C 
BRANCH   5   6
ATOM      6  C   UNL     1       3.816   3.400  14.536  1.00  0.00     0.041 C 
ATOM      7  O   UNL     1       2.681   3.926  14.678  1.00  0.00    -0.550 OA
ATOM      8  O   UNL     1       4.389   3.328  13.273  1.00  0.00    -0.550 OA
ENDBRANCH   5   6
ENDBRANCH   4   5
ENDBRANCH   3   4
ENDBRANCH   2   3
ENDBRANCH   1   2
BRANCH   1   9
ATOM      9  C   UNL     1       5.581  -1.641  16.102  1.00  0.00     0.000 C 
BRANCH   9  10
ATOM     10  C   UNL     1       5.685  -0.665  14.914  1.00  0.00    -0.000 C 
BRANCH  10  11
ATOM     11  C   UNL     1       4.711  -0.944  13.751  1.00  0.00    -0.000 C 
BRANCH  11  12
ATOM     12  C   UNL     1       3.372  -0.188  13.830  1.00  0.00    -0.000 C 
BRANCH  12  13
ATOM     13  C   UNL     1       2.338  -0.900  14.715  1.00  0.00    -0.003 C 
ATOM     14  C   UNL     1       1.030  -0.115  14.771  1.00  0.00     0.004 C 
ENDBRANCH  12  13
ENDBRANCH  11  12
ENDBRANCH  10  11
ENDBRANCH   9  10
ENDBRANCH   1   9
TORSDOF 10
ENDMDL
MODEL 5
REMARK VINA RESULT:    -4.087      1.166      1.769
REMARK INTER + INTRA:          -7.933
REMARK INTER:                  -6.545
REMARK INTRA:                  -1.387
REMARK UNBOUND:                -1.456
REMARK SMILES CCCCCCCCCCCC(=O)[O-]
REMARK SMILES IDX 7 1 8 2 9 3 10 4 11 5 12 6 13 7 14 8 6 9 5 10 4 11 3 12 2 13
REMARK SMILES IDX 1 14
REMARK H PARENT
REMARK Flexibility Score: inf
ROOT
ATOM      1  C   UNL     1       5.025   2.113  13.268  1.00  0.00     0.000 C 
ENDROOT
BRANCH   1   2
ATOM      2  C   UNL     1       4.009   3.215  13.630  1.00  0.00     0.000 C 
BRANCH   2   3
ATOM      3  C   UNL     1       3.539   3.211  15.099  1.00  0.00     0.000 C 
BRANCH   3   4
ATOM      4  C   UNL     1       4.558   2.651  16.110  1.00  0.00     0.006 C 
BRANCH   4   5
ATOM      5  C   UNL     1       3.934   1.856  17.267  1.00  0.00     0.053 C 
BRANCH   5   6
ATOM      6  C   UNL     1       4.893   0.858  17.840  1.00  0.00     0.041 C 
ATOM      7  O   UNL     1       4.762   0.463  19.028  1.00  0.00    -0.550 OA
ATOM      8  O   UNL     1       5.911   0.340  17.051  1.00  0.00    -0.550 OA
ENDBRANCH   5   6
ENDBRANCH   4   5
ENDBRANCH   3   4
ENDBRANCH   2   3
ENDBRANCH   1   2
BRANCH   1   9
ATOM      9  C   UNL     1       4.408   0.732  12.971  1.00  0.00     0.000 C 
BRANCH   9  10
ATOM     10  C   UNL     1       5.060  -0.445  13.722  1.00  0.00    -0.000 C 
BRANCH  10  11
ATOM     11  C   UNL     1       4.106  -1.604  14.074  1.00  0.00    -0.000 C 
BRANCH  11  12
ATOM     12  C   UNL     1       3.191  -1.348  15.285  1.00  0.00    -0.000 C 
BRANCH  12  13
ATOM     13  C   UNL     1       1.711  -1.220  14.898  1.00  0.00    -0.003 C 
ATOM     14  C   UNL     1       1.232   0.223  15.028  1.00  0.00     0.004 C 
ENDBRANCH  12  13
ENDBRANCH  11  12
ENDBRANCH  10  11
ENDBRANCH   9  10
ENDBRANCH   1   9
TORSDOF 10
ENDMDL
MODEL 6
REMARK VINA RESULT:    -4.025      1.948      4.333
REMARK INTER + INTRA:          -7.833
REMARK INTER:                  -6.607
REMARK INTRA:                  -1.226
REMARK UNBOUND:                -1.456
REMARK SMILES CCCCCCCCCCCC(=O)[O-]
REMARK SMILES IDX 7 1 8 2 9 3 10 4 11 5 12 6 13 7 14 8 6 9 5 10 4 11 3 12 2 13
REMARK SMILES IDX 1 14
REMARK H PARENT
REMARK Flexibility Score: inf
ROOT
ATOM      1  C   UNL     1       4.748   2.616  14.337  1.00  0.00     0.000 C 
ENDROOT
BRANCH   1   2
ATOM      2  C   UNL     1       4.619   1.611  13.176  1.00  0.00     0.000 C 
BRANCH   2   3
ATOM      3  C   UNL     1       5.180   0.204  13.466  1.00  0.00     0.000 C 
BRANCH   3   4
ATOM      4  C   UNL     1       4.123  -0.860  13.821  1.00  0.00     0.006 C 
BRANCH   4   5
ATOM      5  C   UNL     1       2.669  -0.404  13.623  1.00  0.00     0.053 C 
BRANCH   5   6
ATOM      6  C   UNL     1       1.776  -0.889  14.723  1.00  0.00     0.041 C 
ATOM      7  O   UNL     1       0.675  -0.322  14.943  1.00  0.00    -0.550 OA
ATOM      8  O   UNL     1       2.148  -1.990  15.484  1.00  0.00    -0.550 OA
ENDBRANCH   5   6
ENDBRANCH   4   5
ENDBRANCH   3   4
ENDBRANCH   2   3
ENDBRANCH   1   2
BRANCH   1   9
ATOM      9  C   UNL     1       3.446   2.874  15.121  1.00  0.00     0.000 C 
BRANCH   9  10
ATOM     10  C   UNL     1       3.244   1.976  16.358  1.00  0.00    -0.000 C 
BRANCH  10  11
ATOM     11  C   UNL     1       4.537   1.585  17.100  1.00  0.00    -0.000 C 
BRANCH  11  12
ATOM     12  C   UNL     1       4.735   0.073  17.308  1.00  0.00    -0.000 C 
BRANCH  12  13
ATOM     13  C   UNL     1       5.571  -0.254  18.554  1.00  0.00    -0.003 C 
ATOM     14  C   UNL     1       6.117  -1.677  18.493  1.00  0.00     0.004 C 
ENDBRANCH  12  13
ENDBRANCH  11  12
ENDBRANCH  10  11
ENDBRANCH   9  10
ENDBRANCH   1   9
TORSDOF 10
ENDMDL
MODEL 7
REMARK VINA RESULT:    -3.975      1.498      3.507
REMARK INTER + INTRA:          -7.754
REMARK INTER:                  -6.368
REMARK INTRA:                  -1.386
REMARK UNBOUND:                -1.456
REMARK SMILES CCCCCCCCCCCC(=O)[O-]
REMARK SMILES IDX 7 1 8 2 9 3 10 4 11 5 12 6 13 7 14 8 6 9 5 10 4 11 3 12 2 13
REMARK SMILES IDX 1 14
REMARK H PARENT
REMARK Flexibility Score: inf
ROOT
ATOM      1  C   UNL     1       4.026  -2.047  13.903  1.00  0.00     0.000 C 
ENDROOT
BRANCH   1   2
ATOM      2  C   UNL     1       4.959  -0.824  13.806  1.00  0.00     0.000 C 
BRANCH   2   3
ATOM      3  C   UNL     1       5.833  -0.570  15.051  1.00  0.00     0.000 C 
BRANCH   3   4
ATOM      4  C   UNL     1       5.762  -1.665  16.133  1.00  0.00     0.006 C 
BRANCH   4   5
ATOM      5  C   UNL     1       4.773  -1.371  17.272  1.00  0.00     0.053 C 
BRANCH   5   6
ATOM      6  C   UNL     1       5.398  -0.546  18.355  1.00  0.00     0.041 C 
ATOM      7  O   UNL     1       4.961   0.607  18.606  1.00  0.00    -0.550 OA
ATOM      8  O   UNL     1       6.442  -1.066  19.108  1.00  0.00    -0.550 OA
ENDBRANCH   5   6
ENDBRANCH   4   5
ENDBRANCH   3   4
ENDBRANCH   2   3
ENDBRANCH   1   2
BRANCH   1   9
ATOM      9  C   UNL     1       2.540  -1.713  14.143  1.00  0.00     0.000 C 
BRANCH   9  10
ATOM     10  C   UNL     1       2.187  -0.216  14.046  1.00  0.00    -0.000 C 
BRANCH  10  11
ATOM     11  C   UNL     1       1.806   0.454  15.382  1.00  0.00    -0.000 C 
BRANCH  11  12
ATOM     12  C   UNL     1       2.838   1.461  15.921  1.00  0.00    -0.000 C 
BRANCH  12  13
ATOM     13  C   UNL     1       3.329   2.444  14.848  1.00  0.00    -0.003 C 
ATOM     14  C   UNL     1       4.300   3.462  15.439  1.00  0.00     0.004 C 
ENDBRANCH  12  13
ENDBRANCH  11  12
ENDBRANCH  10  11
ENDBRANCH   9  10
ENDBRANCH   1   9
TORSDOF 10
ENDMDL
MODEL 8
REMARK VINA RESULT:    -3.906      2.265      4.314
REMARK INTER + INTRA:          -7.645
REMARK INTER:                  -6.200
REMARK INTRA:                  -1.445
REMARK UNBOUND:                -1.456
REMARK SMILES CCCCCCCCCCCC(=O)[O-]
REMARK SMILES IDX 7 1 8 2 9 3 10 4 11 5 12 6 13 7 14 8 6 9 5 10 4 11 3 12 2 13
REMARK SMILES IDX 1 14
REMARK H PARENT
REMARK Flexibility Score: inf
ROOT
ATOM      1  C   UNL     1       4.760   0.886  18.042  1.00  0.00     0.000 C 
ENDROOT
BRANCH   1   2
ATOM      2  C   UNL     1       4.381   1.797  16.858  1.00  0.00     0.000 C 
BRANCH   2   3
ATOM      3  C   UNL     1       2.943   1.617  16.331  1.00  0.00     0.000 C 
BRANCH   3   4
ATOM      4  C   UNL     1       2.812   1.563  14.796  1.00  0.00     0.006 C 
BRANCH   4   5
ATOM      5  C   UNL     1       2.727   0.143  14.215  1.00  0.00     0.053 C 
BRANCH   5   6
ATOM      6  C   UNL     1       1.613  -0.646  14.830  1.00  0.00     0.041 C 
ATOM      7  O   UNL     1       1.823  -1.809  15.262  1.00  0.00    -0.550 OA
ATOM      8  O   UNL     1       0.349  -0.084  14.953  1.00  0.00    -0.550 OA
ENDBRANCH   5   6
ENDBRANCH   4   5
ENDBRANCH   3   4
ENDBRANCH   2   3
ENDBRANCH   1   2
BRANCH   1   9
ATOM      9  C   UNL     1       5.676  -0.301  17.681  1.00  0.00     0.000 C 
BRANCH   9  10
ATOM     10  C   UNL     1       5.027  -1.371  16.780  1.00  0.00    -0.000 C 
BRANCH  10  11
ATOM     11  C   UNL     1       5.703  -1.567  15.408  1.00  0.00    -0.000 C 
BRANCH  11  12
ATOM     12  C   UNL     1       6.390  -0.313  14.837  1.00  0.00    -0.000 C 
BRANCH  12  13
ATOM     13  C   UNL     1       6.256  -0.202  13.311  1.00  0.00    -0.003 C 
ATOM     14  C   UNL     1       6.054   1.248  12.882  1.00  0.00     0.004 C 
ENDBRANCH  12  13
ENDBRANCH  11  12
ENDBRANCH  10  11
ENDBRANCH   9  10
ENDBRANCH   1   9
TORSDOF 10
ENDMDL
MODEL 9
REMARK VINA RESULT:    -3.376      1.347      2.170
REMARK INTER + INTRA:          -6.805
REMARK INTER:                  -5.503
REMARK INTRA:                  -1.303
REMARK UNBOUND:                -1.456
REMARK SMILES CCCCCCCCCCCC(=O)[O-]
REMARK SMILES IDX 7 1 8 2 9 3 10 4 11 5 12 6 13 7 14 8 6 9 5 10 4 11 3 12 2 13
REMARK SMILES IDX 1 14
REMARK H PARENT
REMARK Flexibility Score: inf
ROOT
ATOM      1  C   UNL     1       3.387   3.111  14.856  1.00  0.00     0.000 C 
ENDROOT
BRANCH   1   2
ATOM      2  C   UNL     1       2.686   1.744  14.982  1.00  0.00     0.000 C 
BRANCH   2   3
ATOM      3  C   UNL     1       3.188   0.859  16.141  1.00  0.00     0.000 C 
BRANCH   3   4
ATOM      4  C   UNL     1       4.249   1.511  17.049  1.00  0.00     0.006 C 
BRANCH   4   5
ATOM      5  C   UNL     1       5.533   0.684  17.222  1.00  0.00     0.053 C 
BRANCH   5   6
ATOM      6  C   UNL     1       5.441  -0.253  18.387  1.00  0.00     0.041 C 
ATOM      7  O   UNL     1       4.915   0.127  19.466  1.00  0.00    -0.550 OA
ATOM      8  O   UNL     1       5.909  -1.555  18.270  1.00  0.00    -0.550 OA
ENDBRANCH   5   6
ENDBRANCH   4   5
ENDBRANCH   3   4
ENDBRANCH   2   3
ENDBRANCH   1   2
BRANCH   1   9
ATOM      9  C   UNL     1       4.684   3.101  14.022  1.00  0.00     0.000 C 
BRANCH   9  10
ATOM     10  C   UNL     1       4.748   2.011  12.934  1.00  0.00    -0.000 C 
BRANCH  10  11
ATOM     11  C   UNL     1       5.680   0.824  13.252  1.00  0.00    -0.000 C 
BRANCH  11  12
ATOM     12  C   UNL     1       5.121  -0.560  12.875  1.00  0.00    -0.000 C 
BRANCH  12  13
ATOM     13  C   UNL     1       4.984  -1.497  14.084  1.00  0.00    -0.003 C 
ATOM     14  C   UNL     1       6.345  -1.788  14.710  1.00  0.00     0.004 C 
ENDBRANCH  12  13
ENDBRANCH  11  12
ENDBRANCH  10  11
ENDBRANCH   9  10
ENDBRANCH   1   9
TORSDOF 10
ENDMDL
