MODEL 1
REMARK VINA RESULT:    -5.993      0.000      0.000
REMARK INTER + INTRA:         -20.183
REMARK INTER:                 -15.103
REMARK INTRA:                  -5.080
REMARK UNBOUND:                -5.080
REMARK SMILES CCCCCCCCCCCCCCCCCCCCCCCCCCCC(=O)[O-]
REMARK SMILES IDX 15 1 16 2 17 3 18 4 19 5 20 6 21 7 22 8 23 9 24 10 25 11
REMARK SMILES IDX 26 12 27 13 28 14 29 15 30 16 14 17 13 18 12 19 11 20 10 21
REMARK SMILES IDX 9 22 8 23 7 24 6 25 5 26 4 27 3 28 2 29 1 30
REMARK H PARENT
REMARK Flexibility Score: inf
ROOT
ATOM      1  C   UNL     1     -11.893  -6.300  11.693  1.00  0.00     0.000 C 
ENDROOT
BRANCH   1   2
ATOM      2  C   UNL     1     -12.297  -6.550  13.155  1.00  0.00     0.000 C 
BRANCH   2   3
ATOM      3  C   UNL     1     -11.282  -7.461  13.861  1.00  0.00     0.000 C 
BRANCH   3   4
ATOM      4  C   UNL     1     -11.317  -7.310  15.390  1.00  0.00     0.000 C 
BRANCH   4   5
ATOM      5  C   UNL     1     -10.244  -6.346  15.915  1.00  0.00     0.000 C 
BRANCH   5   6
ATOM      6  C   UNL     1     -10.569  -4.898  15.517  1.00  0.00     0.000 C 
BRANCH   6   7
ATOM      7  C   UNL     1     -11.986  -4.469  15.929  1.00  0.00     0.000 C 
BRANCH   7   8
ATOM      8  C   UNL     1     -11.981  -3.382  17.018  1.00  0.00     0.000 C 
BRANCH   8   9
ATOM      9  C   UNL     1     -10.681  -2.557  17.034  1.00  0.00     0.000 C 
BRANCH   9  10
ATOM     10  C   UNL     1      -9.834  -2.700  18.314  1.00  0.00     0.000 C 
BRANCH  10  11
ATOM     11  C   UNL     1      -8.369  -3.110  18.050  1.00  0.00     0.000 C 
BRANCH  11  12
ATOM     12  C   UNL     1      -7.982  -2.951  16.571  1.00  0.00     0.006 C 
BRANCH  12  13
ATOM     13  C   UNL     1      -6.561  -3.465  16.316  1.00  0.00     0.053 C 
BRANCH  13  14
ATOM     14  C   UNL     1      -5.551  -2.432  16.697  1.00  0.00     0.041 C 
ATOM     15  O   UNL     1      -4.899  -2.547  17.769  1.00  0.00    -0.550 OA
ATOM     16  O   UNL     1      -5.306  -1.353  15.855  1.00  0.00    -0.550 OA
ENDBRANCH  13  14
ENDBRANCH  12  13
ENDBRANCH  11  12
ENDBRANCH  10  11
ENDBRANCH   9  10
ENDBRANCH   8   9
ENDBRANCH   7   8
ENDBRANCH   6   7
ENDBRANCH   5   6
ENDBRANCH   4   5
ENDBRANCH   3   4
ENDBRANCH   2   3
ENDBRANCH   1   2
BRANCH   1  17
ATOM     17  C   UNL     1     -10.834  -5.194  11.551  1.00  0.00     0.000 C 
BRANCH  17  18
ATOM     18  C   UNL     1      -9.588  -5.659  10.781  1.00  0.00     0.000 C 
BRANCH  18  19
ATOM     19  C   UNL     1      -8.461  -6.056  11.746  1.00  0.00     0.000 C 
BRANCH  19  20
ATOM     20  C   UNL     1      -8.276  -5.044  12.888  1.00  0.00     0.000 C 
BRANCH  20  21
ATOM     21  C   UNL     1      -7.061  -4.128  12.674  1.00  0.00     0.000 C 
BRANCH  21  22
ATOM     22  C   UNL     1      -7.445  -2.655  12.871  1.00  0.00    -0.000 C 
BRANCH  22  23
ATOM     23  C   UNL     1      -8.898  -2.520  13.347  1.00  0.00    -0.000 C 
BRANCH  23  24
ATOM     24  C   UNL     1      -9.541  -1.194  12.914  1.00  0.00    -0.000 C 
BRANCH  24  25
ATOM     25  C   UNL     1     -10.963  -1.380  12.356  1.00  0.00    -0.000 C 
BRANCH  25  26
ATOM     26  C   UNL     1     -11.876  -2.163  13.312  1.00  0.00    -0.000 C 
BRANCH  26  27
ATOM     27  C   UNL     1     -13.353  -1.753  13.184  1.00  0.00    -0.000 C 
BRANCH  27  28
ATOM     28  C   UNL     1     -14.317  -2.876  13.598  1.00  0.00    -0.000 C 
BRANCH  28  29
ATOM     29  C   UNL     1     -14.469  -3.953  12.514  1.00  0.00    -0.003 C 
ATOM     30  C   UNL     1     -14.562  -3.326  11.125  1.00  0.00     0.004 C 
ENDBRANCH  28  29
ENDBRANCH  27  28
ENDBRANCH  26  27
ENDBRANCH  25  26
ENDBRANCH  24  25
ENDBRANCH  23  24
ENDBRANCH  22  23
ENDBRANCH  21  22
ENDBRANCH  20  21
ENDBRANCH  19  20
ENDBRANCH  18  19
ENDBRANCH  17  18
ENDBRANCH   1  17
TORSDOF 26
ENDMDL
MODEL 2
REMARK VINA RESULT:    -5.990      2.486      5.983
REMARK INTER + INTRA:         -20.175
REMARK INTER:                 -14.956
REMARK INTRA:                  -5.219
REMARK UNBOUND:                -5.080
REMARK SMILES CCCCCCCCCCCCCCCCCCCCCCCCCCCC(=O)[O-]
REMARK SMILES IDX 15 1 16 2 17 3 18 4 19 5 20 6 21 7 22 8 23 9 24 10 25 11
REMARK SMILES IDX 26 12 27 13 28 14 29 15 30 16 14 17 13 18 12 19 11 20 10 21
REMARK SMILES IDX 9 22 8 23 7 24 6 25 5 26 4 27 3 28 2 29 1 30
REMARK H PARENT
REMARK Flexibility Score: inf
ROOT
ATOM      1  C   UNL     1     -13.985  -2.032  13.941  1.00  0.00     0.000 C 
ENDROOT
BRANCH   1   2
ATOM      2  C   UNL     1     -14.702  -3.380  14.116  1.00  0.00     0.000 C 
BRANCH   2   3
ATOM      3  C   UNL     1     -14.595  -4.231  12.841  1.00  0.00     0.000 C 
BRANCH   3   4
ATOM      4  C   UNL     1     -15.315  -3.590  11.643  1.00  0.00     0.000 C 
BRANCH   4   5
ATOM      5  C   UNL     1     -14.659  -3.943  10.300  1.00  0.00     0.000 C 
BRANCH   5   6
ATOM      6  C   UNL     1     -13.343  -4.704  10.518  1.00  0.00     0.000 C 
BRANCH   6   7
ATOM      7  C   UNL     1     -12.964  -5.596   9.326  1.00  0.00     0.000 C 
BRANCH   7   8
ATOM      8  C   UNL     1     -11.469  -5.958   9.311  1.00  0.00     0.000 C 
BRANCH   8   9
ATOM      9  C   UNL     1     -10.643  -5.131  10.312  1.00  0.00     0.000 C 
BRANCH   9  10
ATOM     10  C   UNL     1      -9.462  -5.881  10.961  1.00  0.00     0.000 C 
BRANCH  10  11
ATOM     11  C   UNL     1      -9.704  -6.266  12.436  1.00  0.00     0.000 C 
BRANCH  11  12
ATOM     12  C   UNL     1     -10.936  -5.560  13.025  1.00  0.00     0.006 C 
BRANCH  12  13
ATOM     13  C   UNL     1     -11.930  -6.576  13.599  1.00  0.00     0.053 C 
BRANCH  13  14
ATOM     14  C   UNL     1     -11.335  -7.290  14.770  1.00  0.00     0.041 C 
ATOM     15  O   UNL     1     -10.661  -8.340  14.596  1.00  0.00    -0.550 OA
ATOM     16  O   UNL     1     -11.499  -6.781  16.054  1.00  0.00    -0.550 OA
ENDBRANCH  13  14
ENDBRANCH  12  13
ENDBRANCH  11  12
ENDBRANCH  10  11
ENDBRANCH   9  10
ENDBRANCH   8   9
ENDBRANCH   7   8
ENDBRANCH   6   7
ENDBRANCH   5   6
ENDBRANCH   4   5
ENDBRANCH   3   4
ENDBRANCH   2   3
ENDBRANCH   1   2
BRANCH   1  17
ATOM     17  C   UNL     1     -12.519  -2.192  13.506  1.00  0.00     0.000 C 
BRANCH  17  18
ATOM     18  C   UNL     1     -12.155  -1.303  12.306  1.00  0.00     0.000 C 
BRANCH  18  19
ATOM     19  C   UNL     1     -10.655  -1.396  11.987  1.00  0.00     0.000 C 
BRANCH  19  20
ATOM     20  C   UNL     1      -9.833  -1.947  13.163  1.00  0.00     0.000 C 
BRANCH  20  21
ATOM     21  C   UNL     1      -8.586  -1.100  13.461  1.00  0.00     0.000 C 
BRANCH  21  22
ATOM     22  C   UNL     1      -7.336  -1.984  13.566  1.00  0.00    -0.000 C 
BRANCH  22  23
ATOM     23  C   UNL     1      -7.547  -3.328  12.855  1.00  0.00    -0.000 C 
BRANCH  23  24
ATOM     24  C   UNL     1      -6.860  -4.495  13.582  1.00  0.00    -0.000 C 
BRANCH  24  25
ATOM     25  C   UNL     1      -7.065  -4.447  15.105  1.00  0.00    -0.000 C 
BRANCH  25  26
ATOM     26  C   UNL     1      -8.546  -4.536  15.506  1.00  0.00    -0.000 C 
BRANCH  26  27
ATOM     27  C   UNL     1      -8.810  -3.977  16.914  1.00  0.00    -0.000 C 
BRANCH  27  28
ATOM     28  C   UNL     1      -9.530  -2.619  16.887  1.00  0.00    -0.000 C 
BRANCH  28  29
ATOM     29  C   UNL     1     -10.896  -2.660  17.587  1.00  0.00    -0.003 C 
ATOM     30  C   UNL     1     -11.908  -3.461  16.771  1.00  0.00     0.004 C 
ENDBRANCH  28  29
ENDBRANCH  27  28
ENDBRANCH  26  27
ENDBRANCH  25  26
ENDBRANCH  24  25
ENDBRANCH  23  24
ENDBRANCH  22  23
ENDBRANCH  21  22
ENDBRANCH  20  21
ENDBRANCH  19  20
ENDBRANCH  18  19
ENDBRANCH  17  18
ENDBRANCH   1  17
TORSDOF 26
ENDMDL
MODEL 3
REMARK VINA RESULT:    -5.962      2.814      6.493
REMARK INTER + INTRA:         -20.103
REMARK INTER:                 -14.809
REMARK INTRA:                  -5.294
REMARK UNBOUND:                -5.080
REMARK SMILES CCCCCCCCCCCCCCCCCCCCCCCCCCCC(=O)[O-]
REMARK SMILES IDX 15 1 16 2 17 3 18 4 19 5 20 6 21 7 22 8 23 9 24 10 25 11
REMARK SMILES IDX 26 12 27 13 28 14 29 15 30 16 14 17 13 18 12 19 11 20 10 21
REMARK SMILES IDX 9 22 8 23 7 24 6 25 5 26 4 27 3 28 2 29 1 30
REMARK H PARENT
REMARK Flexibility Score: inf
ROOT
ATOM      1  C   UNL     1      -7.142  -3.762  13.195  1.00  0.00     0.000 C 
ENDROOT
BRANCH   1   2
ATOM      2  C   UNL     1      -8.457  -3.004  12.947  1.00  0.00     0.000 C 
BRANCH   2   3
ATOM      3  C   UNL     1      -8.319  -1.522  13.327  1.00  0.00     0.000 C 
BRANCH   3   4
ATOM      4  C   UNL     1      -9.599  -0.719  13.041  1.00  0.00     0.000 C 
BRANCH   4   5
ATOM      5  C   UNL     1     -10.833  -1.615  12.866  1.00  0.00     0.000 C 
BRANCH   5   6
ATOM      6  C   UNL     1     -11.956  -0.863  12.136  1.00  0.00     0.000 C 
BRANCH   6   7
ATOM      7  C   UNL     1     -13.358  -1.339  12.545  1.00  0.00     0.000 C 
BRANCH   7   8
ATOM      8  C   UNL     1     -13.356  -2.109  13.877  1.00  0.00     0.000 C 
BRANCH   8   9
ATOM      9  C   UNL     1     -14.636  -2.938  14.090  1.00  0.00     0.000 C 
BRANCH   9  10
ATOM     10  C   UNL     1     -14.827  -4.108  13.104  1.00  0.00     0.000 C 
BRANCH  10  11
ATOM     11  C   UNL     1     -13.508  -4.794  12.688  1.00  0.00     0.000 C 
BRANCH  11  12
ATOM     12  C   UNL     1     -13.355  -4.877  11.161  1.00  0.00     0.006 C 
BRANCH  12  13
ATOM     13  C   UNL     1     -11.898  -4.653  10.741  1.00  0.00     0.053 C 
BRANCH  13  14
ATOM     14  C   UNL     1     -11.572  -5.457   9.523  1.00  0.00     0.041 C 
ATOM     15  O   UNL     1     -12.496  -5.963   8.831  1.00  0.00    -0.550 OA
ATOM     16  O   UNL     1     -10.248  -5.625   9.133  1.00  0.00    -0.550 OA
ENDBRANCH  13  14
ENDBRANCH  12  13
ENDBRANCH  11  12
ENDBRANCH  10  11
ENDBRANCH   9  10
ENDBRANCH   8   9
ENDBRANCH   7   8
ENDBRANCH   6   7
ENDBRANCH   5   6
ENDBRANCH   4   5
ENDBRANCH   3   4
ENDBRANCH   2   3
ENDBRANCH   1   2
BRANCH   1  17
ATOM     17  C   UNL     1      -7.264  -5.268  12.915  1.00  0.00     0.000 C 
BRANCH  17  18
ATOM     18  C   UNL     1      -8.308  -5.590  11.835  1.00  0.00     0.000 C 
BRANCH  18  19
ATOM     19  C   UNL     1      -9.206  -6.760  12.268  1.00  0.00     0.000 C 
BRANCH  19  20
ATOM     20  C   UNL     1     -10.234  -6.353  13.335  1.00  0.00     0.000 C 
BRANCH  20  21
ATOM     21  C   UNL     1      -9.992  -7.046  14.685  1.00  0.00     0.000 C 
BRANCH  21  22
ATOM     22  C   UNL     1      -9.940  -6.021  15.825  1.00  0.00    -0.000 C 
BRANCH  22  23
ATOM     23  C   UNL     1     -10.471  -4.655  15.367  1.00  0.00    -0.000 C 
BRANCH  23  24
ATOM     24  C   UNL     1     -11.812  -4.291  16.025  1.00  0.00    -0.000 C 
BRANCH  24  25
ATOM     25  C   UNL     1     -11.679  -3.151  17.049  1.00  0.00    -0.000 C 
BRANCH  25  26
ATOM     26  C   UNL     1     -10.279  -2.516  17.049  1.00  0.00    -0.000 C 
BRANCH  26  27
ATOM     27  C   UNL     1      -9.536  -2.727  18.379  1.00  0.00    -0.000 C 
BRANCH  27  28
ATOM     28  C   UNL     1      -8.045  -3.042  18.181  1.00  0.00    -0.000 C 
BRANCH  28  29
ATOM     29  C   UNL     1      -7.625  -3.007  16.703  1.00  0.00    -0.003 C 
ATOM     30  C   UNL     1      -6.159  -2.607  16.558  1.00  0.00     0.004 C 
ENDBRANCH  28  29
ENDBRANCH  27  28
ENDBRANCH  26  27
ENDBRANCH  25  26
ENDBRANCH  24  25
ENDBRANCH  23  24
ENDBRANCH  22  23
ENDBRANCH  21  22
ENDBRANCH  20  21
ENDBRANCH  19  20
ENDBRANCH  18  19
ENDBRANCH  17  18
ENDBRANCH   1  17
TORSDOF 26
ENDMDL
MODEL 4
REMARK VINA RESULT:    -5.890      1.670      3.633
REMARK INTER + INTRA:         -19.922
REMARK INTER:                 -15.396
REMARK INTRA:                  -4.525
REMARK UNBOUND:                -5.080
REMARK SMILES CCCCCCCCCCCCCCCCCCCCCCCCCCCC(=O)[O-]
REMARK SMILES IDX 15 1 16 2 17 3 18 4 19 5 20 6 21 7 22 8 23 9 24 10 25 11
REMARK SMILES IDX 26 12 27 13 28 14 29 15 30 16 14 17 13 18 12 19 11 20 10 21
REMARK SMILES IDX 9 22 8 23 7 24 6 25 5 26 4 27 3 28 2 29 1 30
REMARK H PARENT
REMARK Flexibility Score: inf
ROOT
ATOM      1  C   UNL     1      -9.817  -6.627  12.714  1.00  0.00     0.000 C 
ENDROOT
BRANCH   1   2
ATOM      2  C   UNL     1     -11.148  -7.036  13.363  1.00  0.00     0.000 C 
BRANCH   2   3
ATOM      3  C   UNL     1     -10.910  -7.827  14.658  1.00  0.00     0.000 C 
BRANCH   3   4
ATOM      4  C   UNL     1     -11.387  -7.069  15.909  1.00  0.00     0.000 C 
BRANCH   4   5
ATOM      5  C   UNL     1     -11.011  -5.581  15.877  1.00  0.00     0.000 C 
BRANCH   5   6
ATOM      6  C   UNL     1     -12.254  -4.699  16.066  1.00  0.00     0.000 C 
BRANCH   6   7
ATOM      7  C   UNL     1     -11.912  -3.209  16.223  1.00  0.00     0.000 C 
BRANCH   7   8
ATOM      8  C   UNL     1     -10.875  -2.954  17.331  1.00  0.00     0.000 C 
BRANCH   8   9
ATOM      9  C   UNL     1      -9.495  -2.558  16.777  1.00  0.00     0.000 C 
BRANCH   9  10
ATOM     10  C   UNL     1      -8.292  -3.187  17.509  1.00  0.00     0.000 C 
BRANCH  10  11
ATOM     11  C   UNL     1      -6.943  -2.973  16.790  1.00  0.00     0.000 C 
BRANCH  11  12
ATOM     12  C   UNL     1      -7.095  -2.976  15.261  1.00  0.00     0.006 C 
BRANCH  12  13
ATOM     13  C   UNL     1      -7.080  -4.405  14.709  1.00  0.00     0.053 C 
BRANCH  13  14
ATOM     14  C   UNL     1      -6.784  -4.400  13.243  1.00  0.00     0.041 C 
ATOM     15  O   UNL     1      -7.018  -3.373  12.552  1.00  0.00    -0.550 OA
ATOM     16  O   UNL     1      -6.219  -5.520  12.643  1.00  0.00    -0.550 OA
ENDBRANCH  13  14
ENDBRANCH  12  13
ENDBRANCH  11  12
ENDBRANCH  10  11
ENDBRANCH   9  10
ENDBRANCH   8   9
ENDBRANCH   7   8
ENDBRANCH   6   7
ENDBRANCH   5   6
ENDBRANCH   4   5
ENDBRANCH   3   4
ENDBRANCH   2   3
ENDBRANCH   1   2
BRANCH   1  17
ATOM     17  C   UNL     1      -9.961  -5.419  11.774  1.00  0.00     0.000 C 
BRANCH  17  18
ATOM     18  C   UNL     1      -9.825  -5.798  10.292  1.00  0.00     0.000 C 
BRANCH  18  19
ATOM     19  C   UNL     1     -10.972  -5.202   9.463  1.00  0.00     0.000 C 
BRANCH  19  20
ATOM     20  C   UNL     1     -12.308  -5.927   9.694  1.00  0.00     0.000 C 
BRANCH  20  21
ATOM     21  C   UNL     1     -13.433  -4.972  10.120  1.00  0.00     0.000 C 
BRANCH  21  22
ATOM     22  C   UNL     1     -13.380  -4.701  11.629  1.00  0.00    -0.000 C 
BRANCH  22  23
ATOM     23  C   UNL     1     -14.471  -3.707  12.052  1.00  0.00    -0.000 C 
BRANCH  23  24
ATOM     24  C   UNL     1     -14.309  -3.235  13.505  1.00  0.00    -0.000 C 
BRANCH  24  25
ATOM     25  C   UNL     1     -13.850  -1.770  13.604  1.00  0.00    -0.000 C 
BRANCH  25  26
ATOM     26  C   UNL     1     -13.467  -1.177  12.238  1.00  0.00    -0.000 C 
BRANCH  26  27
ATOM     27  C   UNL     1     -11.980  -0.789  12.161  1.00  0.00    -0.000 C 
BRANCH  27  28
ATOM     28  C   UNL     1     -11.051  -2.013  12.131  1.00  0.00    -0.000 C 
BRANCH  28  29
ATOM     29  C   UNL     1     -10.004  -1.988  13.255  1.00  0.00    -0.003 C 
ATOM     30  C   UNL     1      -9.258  -0.657  13.282  1.00  0.00     0.004 C 
ENDBRANCH  28  29
ENDBRANCH  27  28
ENDBRANCH  26  27
ENDBRANCH  25  26
ENDBRANCH  24  25
ENDBRANCH  23  24
ENDBRANCH  22  23
ENDBRANCH  21  22
ENDBRANCH  20  21
ENDBRANCH  19  20
ENDBRANCH  18  19
ENDBRANCH  17  18
ENDBRANCH   1  17
TORSDOF 26
ENDMDL
MODEL 5
REMARK VINA RESULT:    -5.854      2.481      5.011
REMARK INTER + INTRA:         -19.832
REMARK INTER:                 -14.805
REMARK INTRA:                  -5.027
REMARK UNBOUND:                -5.080
REMARK SMILES CCCCCCCCCCCCCCCCCCCCCCCCCCCC(=O)[O-]
REMARK SMILES IDX 15 1 16 2 17 3 18 4 19 5 20 6 21 7 22 8 23 9 24 10 25 11
REMARK SMILES IDX 26 12 27 13 28 14 29 15 30 16 14 17 13 18 12 19 11 20 10 21
REMARK SMILES IDX 9 22 8 23 7 24 6 25 5 26 4 27 3 28 2 29 1 30
REMARK H PARENT
REMARK Flexibility Score: inf
ROOT
ATOM      1  C   UNL     1      -8.691  -5.894  11.744  1.00  0.00     0.000 C 
ENDROOT
BRANCH   1   2
ATOM      2  C   UNL     1      -8.142  -4.609  12.382  1.00  0.00     0.000 C 
BRANCH   2   3
ATOM      3  C   UNL     1      -6.853  -4.891  13.169  1.00  0.00     0.000 C 
BRANCH   3   4
ATOM      4  C   UNL     1      -6.618  -3.873  14.298  1.00  0.00     0.000 C 
BRANCH   4   5
ATOM      5  C   UNL     1      -7.449  -4.178  15.552  1.00  0.00     0.000 C 
BRANCH   5   6
ATOM      6  C   UNL     1      -7.789  -2.886  16.310  1.00  0.00     0.000 C 
BRANCH   6   7
ATOM      7  C   UNL     1      -8.282  -3.145  17.742  1.00  0.00     0.000 C 
BRANCH   7   8
ATOM      8  C   UNL     1      -9.730  -2.674  17.963  1.00  0.00     0.000 C 
BRANCH   8   9
ATOM      9  C   UNL     1     -10.577  -2.722  16.679  1.00  0.00     0.000 C 
BRANCH   9  10
ATOM     10  C   UNL     1     -11.946  -3.416  16.825  1.00  0.00     0.000 C 
BRANCH  10  11
ATOM     11  C   UNL     1     -12.087  -4.700  15.979  1.00  0.00     0.000 C 
BRANCH  11  12
ATOM     12  C   UNL     1     -10.891  -4.906  15.036  1.00  0.00     0.006 C 
BRANCH  12  13
ATOM     13  C   UNL     1     -10.098  -6.161  15.418  1.00  0.00     0.053 C 
BRANCH  13  14
ATOM     14  C   UNL     1     -10.838  -7.395  15.011  1.00  0.00     0.041 C 
ATOM     15  O   UNL     1     -10.607  -7.934  13.896  1.00  0.00    -0.550 OA
ATOM     16  O   UNL     1     -11.764  -7.969  15.876  1.00  0.00    -0.550 OA
ENDBRANCH  13  14
ENDBRANCH  12  13
ENDBRANCH  11  12
ENDBRANCH  10  11
ENDBRANCH   9  10
ENDBRANCH   8   9
ENDBRANCH   7   8
ENDBRANCH   6   7
ENDBRANCH   5   6
ENDBRANCH   4   5
ENDBRANCH   3   4
ENDBRANCH   2   3
ENDBRANCH   1   2
BRANCH   1  17
ATOM     17  C   UNL     1     -10.191  -5.803  11.419  1.00  0.00     0.000 C 
BRANCH  17  18
ATOM     18  C   UNL     1     -10.464  -5.590   9.922  1.00  0.00     0.000 C 
BRANCH  18  19
ATOM     19  C   UNL     1     -11.969  -5.445   9.651  1.00  0.00     0.000 C 
BRANCH  19  20
ATOM     20  C   UNL     1     -12.754  -5.005  10.898  1.00  0.00     0.000 C 
BRANCH  20  21
ATOM     21  C   UNL     1     -13.933  -4.080  10.559  1.00  0.00     0.000 C 
BRANCH  21  22
ATOM     22  C   UNL     1     -14.966  -4.071  11.693  1.00  0.00    -0.000 C 
BRANCH  22  23
ATOM     23  C   UNL     1     -14.293  -4.280  13.057  1.00  0.00    -0.000 C 
BRANCH  23  24
ATOM     24  C   UNL     1     -14.711  -3.222  14.091  1.00  0.00    -0.000 C 
BRANCH  24  25
ATOM     25  C   UNL     1     -13.969  -1.888  13.906  1.00  0.00    -0.000 C 
BRANCH  25  26
ATOM     26  C   UNL     1     -12.527  -2.076  13.409  1.00  0.00    -0.000 C 
BRANCH  26  27
ATOM     27  C   UNL     1     -12.212  -1.213  12.175  1.00  0.00    -0.000 C 
BRANCH  27  28
ATOM     28  C   UNL     1     -10.737  -0.782  12.117  1.00  0.00    -0.000 C 
BRANCH  28  29
ATOM     29  C   UNL     1      -9.857  -1.551  13.114  1.00  0.00    -0.003 C 
ATOM     30  C   UNL     1      -8.491  -0.885  13.268  1.00  0.00     0.004 C 
ENDBRANCH  28  29
ENDBRANCH  27  28
ENDBRANCH  26  27
ENDBRANCH  25  26
ENDBRANCH  24  25
ENDBRANCH  23  24
ENDBRANCH  22  23
ENDBRANCH  21  22
ENDBRANCH  20  21
ENDBRANCH  19  20
ENDBRANCH  18  19
ENDBRANCH  17  18
ENDBRANCH   1  17
TORSDOF 26
ENDMDL
MODEL 6
REMARK VINA RESULT:    -5.843      2.736      6.110
REMARK INTER + INTRA:         -19.804
REMARK INTER:                 -14.454
REMARK INTRA:                  -5.350
REMARK UNBOUND:                -5.080
REMARK SMILES CCCCCCCCCCCCCCCCCCCCCCCCCCCC(=O)[O-]
REMARK SMILES IDX 15 1 16 2 17 3 18 4 19 5 20 6 21 7 22 8 23 9 24 10 25 11
REMARK SMILES IDX 26 12 27 13 28 14 29 15 30 16 14 17 13 18 12 19 11 20 10 21
REMARK SMILES IDX 9 22 8 23 7 24 6 25 5 26 4 27 3 28 2 29 1 30
REMARK H PARENT
REMARK Flexibility Score: inf
ROOT
ATOM      1  C   UNL     1     -11.109  -3.130  16.150  1.00  0.00     0.000 C 
ENDROOT
BRANCH   1   2
ATOM      2  C   UNL     1     -10.523  -2.397  17.367  1.00  0.00     0.000 C 
BRANCH   2   3
ATOM      3  C   UNL     1      -9.328  -3.167  17.951  1.00  0.00     0.000 C 
BRANCH   3   4
ATOM      4  C   UNL     1      -8.386  -3.706  16.862  1.00  0.00     0.000 C 
BRANCH   4   5
ATOM      5  C   UNL     1      -7.200  -2.770  16.588  1.00  0.00     0.000 C 
BRANCH   5   6
ATOM      6  C   UNL     1      -6.242  -3.388  15.559  1.00  0.00     0.000 C 
BRANCH   6   7
ATOM      7  C   UNL     1      -6.835  -4.618  14.853  1.00  0.00     0.000 C 
BRANCH   7   8
ATOM      8  C   UNL     1      -6.796  -4.496  13.320  1.00  0.00     0.000 C 
BRANCH   8   9
ATOM      9  C   UNL     1      -7.204  -3.098  12.821  1.00  0.00     0.000 C 
BRANCH   9  10
ATOM     10  C   UNL     1      -8.633  -2.661  13.203  1.00  0.00     0.000 C 
BRANCH  10  11
ATOM     11  C   UNL     1      -8.831  -1.130  13.225  1.00  0.00     0.000 C 
BRANCH  11  12
ATOM     12  C   UNL     1     -10.318  -0.739  13.232  1.00  0.00     0.006 C 
BRANCH  12  13
ATOM     13  C   UNL     1     -11.060  -1.372  12.050  1.00  0.00     0.053 C 
BRANCH  13  14
ATOM     14  C   UNL     1     -12.264  -0.563  11.691  1.00  0.00     0.041 C 
ATOM     15  O   UNL     1     -13.413  -0.948  12.036  1.00  0.00    -0.550 OA
ATOM     16  O   UNL     1     -12.118   0.635  10.999  1.00  0.00    -0.550 OA
ENDBRANCH  13  14
ENDBRANCH  12  13
ENDBRANCH  11  12
ENDBRANCH  10  11
ENDBRANCH   9  10
ENDBRANCH   8   9
ENDBRANCH   7   8
ENDBRANCH   6   7
ENDBRANCH   5   6
ENDBRANCH   4   5
ENDBRANCH   3   4
ENDBRANCH   2   3
ENDBRANCH   1   2
BRANCH   1  17
ATOM     17  C   UNL     1     -12.605  -3.449  16.313  1.00  0.00     0.000 C 
BRANCH  17  18
ATOM     18  C   UNL     1     -13.431  -3.072  15.074  1.00  0.00     0.000 C 
BRANCH  18  19
ATOM     19  C   UNL     1     -12.950  -3.841  13.835  1.00  0.00     0.000 C 
BRANCH  19  20
ATOM     20  C   UNL     1     -14.109  -4.301  12.936  1.00  0.00     0.000 C 
BRANCH  20  21
ATOM     21  C   UNL     1     -13.718  -4.364  11.452  1.00  0.00     0.000 C 
BRANCH  21  22
ATOM     22  C   UNL     1     -12.920  -5.639  11.150  1.00  0.00    -0.000 C 
BRANCH  22  23
ATOM     23  C   UNL     1     -12.393  -5.634   9.708  1.00  0.00    -0.000 C 
BRANCH  23  24
ATOM     24  C   UNL     1     -10.874  -5.413   9.634  1.00  0.00    -0.000 C 
BRANCH  24  25
ATOM     25  C   UNL     1     -10.264  -5.033  10.994  1.00  0.00    -0.000 C 
BRANCH  25  26
ATOM     26  C   UNL     1      -9.245  -6.068  11.495  1.00  0.00    -0.000 C 
BRANCH  26  27
ATOM     27  C   UNL     1      -9.751  -6.848  12.720  1.00  0.00    -0.000 C 
BRANCH  27  28
ATOM     28  C   UNL     1     -10.037  -5.937  13.924  1.00  0.00    -0.000 C 
BRANCH  28  29
ATOM     29  C   UNL     1     -10.119  -6.714  15.247  1.00  0.00    -0.003 C 
ATOM     30  C   UNL     1     -11.562  -6.815  15.736  1.00  0.00     0.004 C 
ENDBRANCH  28  29
ENDBRANCH  27  28
ENDBRANCH  26  27
ENDBRANCH  25  26
ENDBRANCH  24  25
ENDBRANCH  23  24
ENDBRANCH  22  23
ENDBRANCH  21  22
ENDBRANCH  20  21
ENDBRANCH  19  20
ENDBRANCH  18  19
ENDBRANCH  17  18
ENDBRANCH   1  17
TORSDOF 26
ENDMDL
MODEL 7
REMARK VINA RESULT:    -5.802      2.900      6.367
REMARK INTER + INTRA:         -19.699
REMARK INTER:                 -14.567
REMARK INTRA:                  -5.132
REMARK UNBOUND:                -5.080
REMARK SMILES CCCCCCCCCCCCCCCCCCCCCCCCCCCC(=O)[O-]
REMARK SMILES IDX 15 1 16 2 17 3 18 4 19 5 20 6 21 7 22 8 23 9 24 10 25 11
REMARK SMILES IDX 26 12 27 13 28 14 29 15 30 16 14 17 13 18 12 19 11 20 10 21
REMARK SMILES IDX 9 22 8 23 7 24 6 25 5 26 4 27 3 28 2 29 1 30
REMARK H PARENT
REMARK Flexibility Score: inf
ROOT
ATOM      1  C   UNL     1      -9.309  -2.816  18.569  1.00  0.00     0.000 C 
ENDROOT
BRANCH   1   2
ATOM      2  C   UNL     1      -7.909  -3.151  18.029  1.00  0.00     0.000 C 
BRANCH   2   3
ATOM      3  C   UNL     1      -7.896  -3.154  16.493  1.00  0.00     0.000 C 
BRANCH   3   4
ATOM      4  C   UNL     1      -7.992  -4.572  15.906  1.00  0.00     0.000 C 
BRANCH   4   5
ATOM      5  C   UNL     1      -7.536  -4.639  14.442  1.00  0.00     0.000 C 
BRANCH   5   6
ATOM      6  C   UNL     1      -6.914  -3.305  14.002  1.00  0.00     0.000 C 
BRANCH   6   7
ATOM      7  C   UNL     1      -7.685  -2.637  12.852  1.00  0.00     0.000 C 
BRANCH   7   8
ATOM      8  C   UNL     1      -8.240  -1.254  13.237  1.00  0.00     0.000 C 
BRANCH   8   9
ATOM      9  C   UNL     1      -9.698  -1.311  13.728  1.00  0.00     0.000 C 
BRANCH   9  10
ATOM     10  C   UNL     1     -10.690  -1.968  12.748  1.00  0.00     0.000 C 
BRANCH  10  11
ATOM     11  C   UNL     1     -11.919  -1.092  12.425  1.00  0.00     0.000 C 
BRANCH  11  12
ATOM     12  C   UNL     1     -13.141  -1.933  12.024  1.00  0.00     0.006 C 
BRANCH  12  13
ATOM     13  C   UNL     1     -13.167  -3.264  12.784  1.00  0.00     0.053 C 
BRANCH  13  14
ATOM     14  C   UNL     1     -14.464  -3.431  13.510  1.00  0.00     0.041 C 
ATOM     15  O   UNL     1     -14.694  -2.770  14.557  1.00  0.00    -0.550 OA
ATOM     16  O   UNL     1     -15.433  -4.295  13.013  1.00  0.00    -0.550 OA
ENDBRANCH  13  14
ENDBRANCH  12  13
ENDBRANCH  11  12
ENDBRANCH  10  11
ENDBRANCH   9  10
ENDBRANCH   8   9
ENDBRANCH   7   8
ENDBRANCH   6   7
ENDBRANCH   5   6
ENDBRANCH   4   5
ENDBRANCH   3   4
ENDBRANCH   2   3
ENDBRANCH   1   2
BRANCH   1  17
ATOM     17  C   UNL     1     -10.225  -2.197  17.501  1.00  0.00     0.000 C 
BRANCH  17  18
ATOM     18  C   UNL     1     -11.531  -2.982  17.310  1.00  0.00     0.000 C 
BRANCH  18  19
ATOM     19  C   UNL     1     -11.601  -3.605  15.908  1.00  0.00     0.000 C 
BRANCH  19  20
ATOM     20  C   UNL     1     -12.150  -5.041  15.925  1.00  0.00     0.000 C 
BRANCH  20  21
ATOM     21  C   UNL     1     -11.071  -6.083  16.255  1.00  0.00     0.000 C 
BRANCH  21  22
ATOM     22  C   UNL     1     -11.323  -7.392  15.494  1.00  0.00    -0.000 C 
BRANCH  22  23
ATOM     23  C   UNL     1     -11.753  -7.117  14.046  1.00  0.00    -0.000 C 
BRANCH  23  24
ATOM     24  C   UNL     1     -10.569  -7.119  13.066  1.00  0.00    -0.000 C 
BRANCH  24  25
ATOM     25  C   UNL     1     -10.155  -5.702  12.634  1.00  0.00    -0.000 C 
BRANCH  25  26
ATOM     26  C   UNL     1      -9.314  -5.698  11.348  1.00  0.00    -0.000 C 
BRANCH  26  27
ATOM     27  C   UNL     1     -10.180  -5.714  10.077  1.00  0.00    -0.000 C 
BRANCH  27  28
ATOM     28  C   UNL     1     -11.305  -4.667  10.115  1.00  0.00    -0.000 C 
BRANCH  28  29
ATOM     29  C   UNL     1     -12.697  -5.288   9.923  1.00  0.00    -0.003 C 
ATOM     30  C   UNL     1     -12.693  -6.302   8.781  1.00  0.00     0.004 C 
ENDBRANCH  28  29
ENDBRANCH  27  28
ENDBRANCH  26  27
ENDBRANCH  25  26
ENDBRANCH  24  25
ENDBRANCH  23  24
ENDBRANCH  22  23
ENDBRANCH  21  22
ENDBRANCH  20  21
ENDBRANCH  19  20
ENDBRANCH  18  19
ENDBRANCH  17  18
ENDBRANCH   1  17
TORSDOF 26
ENDMDL
MODEL 8
REMARK VINA RESULT:    -5.752      1.838      5.415
REMARK INTER + INTRA:         -19.575
REMARK INTER:                 -14.354
REMARK INTRA:                  -5.221
REMARK UNBOUND:                -5.080
REMARK SMILES CCCCCCCCCCCCCCCCCCCCCCCCCCCC(=O)[O-]
REMARK SMILES IDX 15 1 16 2 17 3 18 4 19 5 20 6 21 7 22 8 23 9 24 10 25 11
REMARK SMILES IDX 26 12 27 13 28 14 29 15 30 16 14 17 13 18 12 19 11 20 10 21
REMARK SMILES IDX 9 22 8 23 7 24 6 25 5 26 4 27 3 28 2 29 1 30
REMARK H PARENT
REMARK Flexibility Score: inf
ROOT
ATOM      1  C   UNL     1      -9.155  -4.887  15.156  1.00  0.00     0.000 C 
ENDROOT
BRANCH   1   2
ATOM      2  C   UNL     1      -9.722  -6.150  15.823  1.00  0.00     0.000 C 
BRANCH   2   3
ATOM      3  C   UNL     1     -10.437  -7.042  14.796  1.00  0.00     0.000 C 
BRANCH   3   4
ATOM      4  C   UNL     1     -11.852  -6.541  14.465  1.00  0.00     0.000 C 
BRANCH   4   5
ATOM      5  C   UNL     1     -12.176  -6.630  12.967  1.00  0.00     0.000 C 
BRANCH   5   6
ATOM      6  C   UNL     1     -13.265  -5.619  12.582  1.00  0.00     0.000 C 
BRANCH   6   7
ATOM      7  C   UNL     1     -12.907  -4.801  11.331  1.00  0.00     0.000 C 
BRANCH   7   8
ATOM      8  C   UNL     1     -13.324  -5.503  10.027  1.00  0.00     0.000 C 
BRANCH   8   9
ATOM      9  C   UNL     1     -12.137  -5.763   9.082  1.00  0.00     0.000 C 
BRANCH   9  10
ATOM     10  C   UNL     1     -10.814  -5.088   9.497  1.00  0.00     0.000 C 
BRANCH  10  11
ATOM     11  C   UNL     1      -9.859  -6.016  10.277  1.00  0.00     0.000 C 
BRANCH  11  12
ATOM     12  C   UNL     1      -9.179  -5.293  11.451  1.00  0.00     0.006 C 
BRANCH  12  13
ATOM     13  C   UNL     1      -7.999  -6.108  11.990  1.00  0.00     0.053 C 
BRANCH  13  14
ATOM     14  C   UNL     1      -6.901  -5.204  12.450  1.00  0.00     0.041 C 
ATOM     15  O   UNL     1      -5.783  -5.680  12.783  1.00  0.00    -0.550 OA
ATOM     16  O   UNL     1      -7.101  -3.827  12.485  1.00  0.00    -0.550 OA
ENDBRANCH  13  14
ENDBRANCH  12  13
ENDBRANCH  11  12
ENDBRANCH  10  11
ENDBRANCH   9  10
ENDBRANCH   8   9
ENDBRANCH   7   8
ENDBRANCH   6   7
ENDBRANCH   5   6
ENDBRANCH   4   5
ENDBRANCH   3   4
ENDBRANCH   2   3
ENDBRANCH   1   2
BRANCH   1  17
ATOM     17  C   UNL     1      -7.898  -4.355  15.864  1.00  0.00     0.000 C 
BRANCH  17  18
ATOM     18  C   UNL     1      -8.099  -2.954  16.461  1.00  0.00     0.000 C 
BRANCH  18  19
ATOM     19  C   UNL     1      -8.284  -3.024  17.984  1.00  0.00     0.000 C 
BRANCH  19  20
ATOM     20  C   UNL     1      -9.760  -2.932  18.406  1.00  0.00     0.000 C 
BRANCH  20  21
ATOM     21  C   UNL     1     -10.659  -2.375  17.292  1.00  0.00     0.000 C 
BRANCH  21  22
ATOM     22  C   UNL     1     -11.857  -3.301  17.040  1.00  0.00    -0.000 C 
BRANCH  22  23
ATOM     23  C   UNL     1     -12.324  -3.219  15.580  1.00  0.00    -0.000 C 
BRANCH  23  24
ATOM     24  C   UNL     1     -13.845  -3.377  15.436  1.00  0.00    -0.000 C 
BRANCH  24  25
ATOM     25  C   UNL     1     -14.380  -2.787  14.120  1.00  0.00    -0.000 C 
BRANCH  25  26
ATOM     26  C   UNL     1     -13.623  -1.521  13.688  1.00  0.00    -0.000 C 
BRANCH  26  27
ATOM     27  C   UNL     1     -13.288  -1.518  12.187  1.00  0.00    -0.000 C 
BRANCH  27  28
ATOM     28  C   UNL     1     -11.823  -1.147  11.908  1.00  0.00    -0.000 C 
BRANCH  28  29
ATOM     29  C   UNL     1     -10.832  -2.098  12.596  1.00  0.00    -0.003 C 
ATOM     30  C   UNL     1      -9.699  -1.322  13.264  1.00  0.00     0.004 C 
ENDBRANCH  28  29
ENDBRANCH  27  28
ENDBRANCH  26  27
ENDBRANCH  25  26
ENDBRANCH  24  25
ENDBRANCH  23  24
ENDBRANCH  22  23
ENDBRANCH  21  22
ENDBRANCH  20  21
ENDBRANCH  19  20
ENDBRANCH  18  19
ENDBRANCH  17  18
ENDBRANCH   1  17
TORSDOF 26
ENDMDL
MODEL 9
REMARK VINA RESULT:    -5.717      1.195      3.428
REMARK INTER + INTRA:         -19.487
REMARK INTER:                 -14.984
REMARK INTRA:                  -4.503
REMARK UNBOUND:                -5.080
REMARK SMILES CCCCCCCCCCCCCCCCCCCCCCCCCCCC(=O)[O-]
REMARK SMILES IDX 15 1 16 2 17 3 18 4 19 5 20 6 21 7 22 8 23 9 24 10 25 11
REMARK SMILES IDX 26 12 27 13 28 14 29 15 30 16 14 17 13 18 12 19 11 20 10 21
REMARK SMILES IDX 9 22 8 23 7 24 6 25 5 26 4 27 3 28 2 29 1 30
REMARK H PARENT
REMARK Flexibility Score: inf
ROOT
ATOM      1  C   UNL     1      -7.282  -4.444  12.500  1.00  0.00     0.000 C 
ENDROOT
BRANCH   1   2
ATOM      2  C   UNL     1      -8.171  -5.653  12.166  1.00  0.00     0.000 C 
BRANCH   2   3
ATOM      3  C   UNL     1      -9.559  -5.510  12.811  1.00  0.00     0.000 C 
BRANCH   3   4
ATOM      4  C   UNL     1     -10.317  -6.847  12.878  1.00  0.00     0.000 C 
BRANCH   4   5
ATOM      5  C   UNL     1     -10.805  -7.179  14.295  1.00  0.00     0.000 C 
BRANCH   5   6
ATOM      6  C   UNL     1     -10.424  -6.064  15.280  1.00  0.00     0.000 C 
BRANCH   6   7
ATOM      7  C   UNL     1     -11.602  -5.617  16.161  1.00  0.00     0.000 C 
BRANCH   7   8
ATOM      8  C   UNL     1     -12.074  -4.189  15.837  1.00  0.00     0.000 C 
BRANCH   8   9
ATOM      9  C   UNL     1     -11.700  -3.173  16.931  1.00  0.00     0.000 C 
BRANCH   9  10
ATOM     10  C   UNL     1     -10.194  -2.862  17.044  1.00  0.00     0.000 C 
BRANCH  10  11
ATOM     11  C   UNL     1      -9.681  -2.789  18.498  1.00  0.00     0.000 C 
BRANCH  11  12
ATOM     12  C   UNL     1      -8.172  -3.063  18.595  1.00  0.00     0.006 C 
BRANCH  12  13
ATOM     13  C   UNL     1      -7.508  -2.980  17.216  1.00  0.00     0.053 C 
BRANCH  13  14
ATOM     14  C   UNL     1      -6.030  -2.800  17.353  1.00  0.00     0.041 C 
ATOM     15  O   UNL     1      -5.288  -2.852  16.337  1.00  0.00    -0.550 OA
ATOM     16  O   UNL     1      -5.472  -2.546  18.602  1.00  0.00    -0.550 OA
ENDBRANCH  13  14
ENDBRANCH  12  13
ENDBRANCH  11  12
ENDBRANCH  10  11
ENDBRANCH   9  10
ENDBRANCH   8   9
ENDBRANCH   7   8
ENDBRANCH   6   7
ENDBRANCH   5   6
ENDBRANCH   4   5
ENDBRANCH   3   4
ENDBRANCH   2   3
ENDBRANCH   1   2
BRANCH   1  17
ATOM     17  C   UNL     1      -7.838  -3.598  13.656  1.00  0.00     0.000 C 
BRANCH  17  18
ATOM     18  C   UNL     1      -7.298  -2.160  13.655  1.00  0.00     0.000 C 
BRANCH  18  19
ATOM     19  C   UNL     1      -8.419  -1.150  13.370  1.00  0.00     0.000 C 
BRANCH  19  20
ATOM     20  C   UNL     1      -9.819  -1.734  13.619  1.00  0.00     0.000 C 
BRANCH  20  21
ATOM     21  C   UNL     1     -10.598  -1.980  12.318  1.00  0.00     0.000 C 
BRANCH  21  22
ATOM     22  C   UNL     1     -11.538  -0.807  12.012  1.00  0.00    -0.000 C 
BRANCH  22  23
ATOM     23  C   UNL     1     -13.006  -1.205  12.217  1.00  0.00    -0.000 C 
BRANCH  23  24
ATOM     24  C   UNL     1     -13.175  -2.332  13.247  1.00  0.00    -0.000 C 
BRANCH  24  25
ATOM     25  C   UNL     1     -14.113  -3.448  12.756  1.00  0.00    -0.000 C 
BRANCH  25  26
ATOM     26  C   UNL     1     -13.352  -4.707  12.312  1.00  0.00    -0.000 C 
BRANCH  26  27
ATOM     27  C   UNL     1     -12.692  -4.541  10.932  1.00  0.00    -0.000 C 
BRANCH  27  28
ATOM     28  C   UNL     1     -13.082  -5.659   9.952  1.00  0.00    -0.000 C 
BRANCH  28  29
ATOM     29  C   UNL     1     -11.966  -5.978   8.945  1.00  0.00    -0.003 C 
ATOM     30  C   UNL     1     -10.617  -5.459   9.437  1.00  0.00     0.004 C 
ENDBRANCH  28  29
ENDBRANCH  27  28
ENDBRANCH  26  27
ENDBRANCH  25  26
ENDBRANCH  24  25
ENDBRANCH  23  24
ENDBRANCH  22  23
ENDBRANCH  21  22
ENDBRANCH  20  21
ENDBRANCH  19  20
ENDBRANCH  18  19
ENDBRANCH  17  18
ENDBRANCH   1  17
TORSDOF 26
ENDMDL
