MODEL 1
REMARK VINA RESULT:    13.310      0.000      0.000
REMARK INTER + INTRA:          17.053
REMARK INTER:                  17.979
REMARK INTRA:                  -0.926
REMARK UNBOUND:                -0.926
REMARK SMILES O=c1c(-c2ccc(O)cc2)coc2c([C@@H]3O[C@H](CO)[C@H](O)[C@@H](O)[C@H]3O)c(O)ccc12
REMARK SMILES IDX 3 1 11 2 12 3 13 4 30 5 2 6 1 7 29 8 28 9 26 10 14 11 4 12
REMARK SMILES IDX 5 13 6 14 7 15 10 16 9 17 8 18 15 20 24 21 16 22 22 23 17 24
REMARK SMILES IDX 20 25 25 26 23 28 18 30 19 31 21 33 27 35
REMARK H PARENT 8 19 25 27 23 29 19 32 21 34 27 36
REMARK Flexibility Score: inf
ROOT
ATOM      1  C   UNL     1     161.285 145.927 172.914  1.00  0.00     0.065 A 
ATOM      2  C   UNL     1     160.642 147.171 172.878  1.00  0.00     0.208 A 
ATOM      3  O   UNL     1     160.190 147.671 171.719  1.00  0.00    -0.463 OA
ATOM      4  C   UNL     1     160.286 147.048 170.554  1.00  0.00     0.147 A 
ATOM      5  C   UNL     1     160.937 145.785 170.519  1.00  0.00     0.066 A 
ATOM      6  C   UNL     1     161.488 145.249 171.704  1.00  0.00     0.200 A 
ATOM      7  O   UNL     1     162.112 144.148 171.692  1.00  0.00    -0.288 OA
ATOM      8  C   UNL     1     160.983 145.062 169.322  1.00  0.00     0.020 A 
ATOM      9  C   UNL     1     160.292 145.518 168.208  1.00  0.00     0.047 A 
ATOM     10  C   UNL     1     159.642 146.763 168.227  1.00  0.00     0.125 A 
ATOM     11  C   UNL     1     159.717 147.607 169.364  1.00  0.00     0.069 A 
ENDROOT
BRANCH   1  12
ATOM     12  C   UNL     1     161.584 145.273 174.202  1.00  0.00    -0.011 A 
ATOM     13  C   UNL     1     160.646 144.439 174.826  1.00  0.00     0.013 A 
ATOM     14  C   UNL     1     160.872 143.974 176.122  1.00  0.00     0.047 A 
ATOM     15  C   UNL     1     162.042 144.333 176.809  1.00  0.00     0.115 A 
ATOM     16  C   UNL     1     162.784 145.589 174.870  1.00  0.00     0.013 A 
ATOM     17  C   UNL     1     163.006 145.122 176.165  1.00  0.00     0.047 A 
BRANCH  15  18
ATOM     18  O   UNL     1     162.227 143.902 178.123  1.00  0.00    -0.508 OA
ATOM     19  H   UNL     1     162.207 144.558 178.904  1.00  0.00     0.293 HD
ENDBRANCH  15  18
ENDBRANCH   1  12
BRANCH  11  20
ATOM     20  C   UNL     1     159.212 149.076 169.181  1.00  0.00     0.188 C 
ATOM     21  C   UNL     1     159.215 149.977 170.482  1.00  0.00     0.179 C 
ATOM     22  O   UNL     1     159.996 149.619 168.113  1.00  0.00    -0.362 OA
ATOM     23  C   UNL     1     159.449 151.495 170.253  1.00  0.00     0.177 C 
ATOM     24  C   UNL     1     159.779 150.979 167.852  1.00  0.00     0.176 C 
ATOM     25  C   UNL     1     160.340 151.769 169.035  1.00  0.00     0.177 C 
BRANCH  21  26
ATOM     26  O   UNL     1     157.984 149.867 171.161  1.00  0.00    -0.387 OA
ATOM     27  H   UNL     1     157.618 148.963 171.051  1.00  0.00     0.211 HD
ENDBRANCH  21  26
BRANCH  23  28
ATOM     28  O   UNL     1     158.227 152.174 170.078  1.00  0.00    -0.387 OA
ATOM     29  H   UNL     1     158.096 152.268 169.095  1.00  0.00     0.211 HD
ENDBRANCH  23  28
BRANCH  24  30
ATOM     30  C   UNL     1     160.491 151.329 166.543  1.00  0.00     0.191 C 
BRANCH  30  31
ATOM     31  O   UNL     1     161.552 150.435 166.323  1.00  0.00    -0.394 OA
ATOM     32  H   UNL     1     161.346 149.635 166.865  1.00  0.00     0.210 HD
ENDBRANCH  30  31
ENDBRANCH  24  30
BRANCH  25  33
ATOM     33  O   UNL     1     161.659 151.361 169.288  1.00  0.00    -0.388 OA
ATOM     34  H   UNL     1     161.598 150.666 170.010  1.00  0.00     0.211 HD
ENDBRANCH  25  33
ENDBRANCH  11  20
BRANCH  10  35
ATOM     35  O   UNL     1     158.925 147.154 167.104  1.00  0.00    -0.507 OA
ATOM     36  H   UNL     1     159.295 147.021 166.170  1.00  0.00     0.293 HD
ENDBRANCH  10  35
TORSDOF 9
ENDMDL
MODEL 2
REMARK VINA RESULT:    14.836      1.899      8.042
REMARK INTER + INTRA:          19.114
REMARK INTER:                  19.481
REMARK INTRA:                  -0.367
REMARK UNBOUND:                -0.926
REMARK SMILES O=c1c(-c2ccc(O)cc2)coc2c([C@@H]3O[C@H](CO)[C@H](O)[C@@H](O)[C@H]3O)c(O)ccc12
REMARK SMILES IDX 3 1 11 2 12 3 13 4 30 5 2 6 1 7 29 8 28 9 26 10 14 11 4 12
REMARK SMILES IDX 5 13 6 14 7 15 10 16 9 17 8 18 15 20 24 21 16 22 22 23 17 24
REMARK SMILES IDX 20 25 25 26 23 28 18 30 19 31 21 33 27 35
REMARK H PARENT 8 19 25 27 23 29 19 32 21 34 27 36
REMARK Flexibility Score: inf
ROOT
ATOM      1  C   UNL     1     159.748 149.443 170.277  1.00  0.00     0.065 A 
ATOM      2  C   UNL     1     159.876 149.411 171.671  1.00  0.00     0.208 A 
ATOM      3  O   UNL     1     160.247 148.284 172.296  1.00  0.00    -0.463 OA
ATOM      4  C   UNL     1     160.539 147.152 171.673  1.00  0.00     0.147 A 
ATOM      5  C   UNL     1     160.419 147.113 170.257  1.00  0.00     0.066 A 
ATOM      6  C   UNL     1     159.967 148.257 169.563  1.00  0.00     0.200 A 
ATOM      7  O   UNL     1     159.810 148.235 168.306  1.00  0.00    -0.288 OA
ATOM      8  C   UNL     1     160.798 145.961 169.561  1.00  0.00     0.020 A 
ATOM      9  C   UNL     1     161.400 144.907 170.236  1.00  0.00     0.047 A 
ATOM     10  C   UNL     1     161.527 144.930 171.634  1.00  0.00     0.125 A 
ATOM     11  C   UNL     1     160.999 146.003 172.397  1.00  0.00     0.069 A 
ENDROOT
BRANCH   1  12
ATOM     12  C   UNL     1     159.559 150.723 169.569  1.00  0.00    -0.011 A 
ATOM     13  C   UNL     1     158.758 150.804 168.421  1.00  0.00     0.013 A 
ATOM     14  C   UNL     1     158.733 151.976 167.663  1.00  0.00     0.047 A 
ATOM     15  C   UNL     1     159.505 153.084 168.047  1.00  0.00     0.115 A 
ATOM     16  C   UNL     1     160.292 151.853 169.985  1.00  0.00     0.013 A 
ATOM     17  C   UNL     1     160.263 153.022 169.225  1.00  0.00     0.047 A 
BRANCH  15  18
ATOM     18  O   UNL     1     159.509 154.228 167.250  1.00  0.00    -0.508 OA
ATOM     19  H   UNL     1     158.650 154.746 167.061  1.00  0.00     0.293 HD
ENDBRANCH  15  18
ENDBRANCH   1  12
BRANCH  11  20
ATOM     20  C   UNL     1     160.933 145.799 173.946  1.00  0.00     0.188 C 
ATOM     21  C   UNL     1     160.470 144.367 174.437  1.00  0.00     0.179 C 
ATOM     22  O   UNL     1     162.225 146.176 174.435  1.00  0.00    -0.362 OA
ATOM     23  C   UNL     1     161.066 143.892 175.790  1.00  0.00     0.177 C 
ATOM     24  C   UNL     1     162.422 145.966 175.807  1.00  0.00     0.176 C 
ATOM     25  C   UNL     1     162.471 144.454 176.036  1.00  0.00     0.177 C 
BRANCH  21  26
ATOM     26  O   UNL     1     159.069 144.329 174.589  1.00  0.00    -0.387 OA
ATOM     27  H   UNL     1     158.767 143.403 174.705  1.00  0.00     0.211 HD
ENDBRANCH  21  26
BRANCH  23  28
ATOM     28  O   UNL     1     160.237 144.264 176.867  1.00  0.00    -0.387 OA
ATOM     29  H   UNL     1     159.369 143.796 176.727  1.00  0.00     0.211 HD
ENDBRANCH  23  28
BRANCH  24  30
ATOM     30  C   UNL     1     163.734 146.646 176.206  1.00  0.00     0.191 C 
BRANCH  30  31
ATOM     31  O   UNL     1     164.605 146.686 175.105  1.00  0.00    -0.394 OA
ATOM     32  H   UNL     1     165.412 147.164 175.417  1.00  0.00     0.210 HD
ENDBRANCH  30  31
ENDBRANCH  24  30
BRANCH  25  33
ATOM     33  O   UNL     1     163.395 143.875 175.153  1.00  0.00    -0.388 OA
ATOM     34  H   UNL     1     163.782 143.085 175.638  1.00  0.00     0.211 HD
ENDBRANCH  25  33
ENDBRANCH  11  20
BRANCH  10  35
ATOM     35  O   UNL     1     162.178 143.875 172.259  1.00  0.00    -0.507 OA
ATOM     36  H   UNL     1     162.982 143.428 171.836  1.00  0.00     0.293 HD
ENDBRANCH  10  35
TORSDOF 9
ENDMDL
MODEL 3
REMARK VINA RESULT:    15.319      1.814      4.384
REMARK INTER + INTRA:          19.766
REMARK INTER:                  20.576
REMARK INTRA:                  -0.810
REMARK UNBOUND:                -0.926
REMARK SMILES O=c1c(-c2ccc(O)cc2)coc2c([C@@H]3O[C@H](CO)[C@H](O)[C@@H](O)[C@H]3O)c(O)ccc12
REMARK SMILES IDX 3 1 11 2 12 3 13 4 30 5 2 6 1 7 29 8 28 9 26 10 14 11 4 12
REMARK SMILES IDX 5 13 6 14 7 15 10 16 9 17 8 18 15 20 24 21 16 22 22 23 17 24
REMARK SMILES IDX 20 25 25 26 23 28 18 30 19 31 21 33 27 35
REMARK H PARENT 8 19 25 27 23 29 19 32 21 34 27 36
REMARK Flexibility Score: inf
ROOT
ATOM      1  C   UNL     1     160.504 146.373 172.214  1.00  0.00     0.065 A 
ATOM      2  C   UNL     1     160.646 145.776 170.955  1.00  0.00     0.208 A 
ATOM      3  O   UNL     1     160.380 146.469 169.838  1.00  0.00    -0.463 OA
ATOM      4  C   UNL     1     159.998 147.737 169.825  1.00  0.00     0.147 A 
ATOM      5  C   UNL     1     159.824 148.400 171.071  1.00  0.00     0.066 A 
ATOM      6  C   UNL     1     160.029 147.690 172.274  1.00  0.00     0.200 A 
ATOM      7  O   UNL     1     159.838 148.244 173.397  1.00  0.00    -0.288 OA
ATOM      8  C   UNL     1     159.502 149.760 171.092  1.00  0.00     0.020 A 
ATOM      9  C   UNL     1     159.472 150.487 169.909  1.00  0.00     0.047 A 
ATOM     10  C   UNL     1     159.643 149.847 168.671  1.00  0.00     0.125 A 
ATOM     11  C   UNL     1     159.799 148.440 168.592  1.00  0.00     0.069 A 
ENDROOT
BRANCH   1  12
ATOM     12  C   UNL     1     161.002 145.697 173.426  1.00  0.00    -0.011 A 
ATOM     13  C   UNL     1     160.172 144.852 174.178  1.00  0.00     0.013 A 
ATOM     14  C   UNL     1     160.600 144.365 175.414  1.00  0.00     0.047 A 
ATOM     15  C   UNL     1     161.866 144.712 175.912  1.00  0.00     0.115 A 
ATOM     16  C   UNL     1     162.294 146.001 173.900  1.00  0.00     0.013 A 
ATOM     17  C   UNL     1     162.717 145.512 175.136  1.00  0.00     0.047 A 
BRANCH  15  18
ATOM     18  O   UNL     1     162.256 144.259 177.172  1.00  0.00    -0.508 OA
ATOM     19  H   UNL     1     161.725 143.541 177.666  1.00  0.00     0.293 HD
ENDBRANCH  15  18
ENDBRANCH   1  12
BRANCH  11  20
ATOM     20  C   UNL     1     159.691 147.800 167.169  1.00  0.00     0.188 C 
ATOM     21  C   UNL     1     160.968 147.943 166.245  1.00  0.00     0.179 C 
ATOM     22  O   UNL     1     159.301 146.441 167.392  1.00  0.00    -0.362 OA
ATOM     23  C   UNL     1     161.202 146.790 165.233  1.00  0.00     0.177 C 
ATOM     24  C   UNL     1     159.249 145.644 166.239  1.00  0.00     0.176 C 
ATOM     25  C   UNL     1     160.687 145.444 165.755  1.00  0.00     0.177 C 
BRANCH  21  26
ATOM     26  O   UNL     1     160.893 149.127 165.482  1.00  0.00    -0.387 OA
ATOM     27  H   UNL     1     161.779 149.358 165.130  1.00  0.00     0.211 HD
ENDBRANCH  21  26
BRANCH  23  28
ATOM     28  O   UNL     1     160.578 147.063 164.000  1.00  0.00    -0.387 OA
ATOM     29  H   UNL     1     159.959 146.302 163.824  1.00  0.00     0.211 HD
ENDBRANCH  23  28
BRANCH  24  30
ATOM     30  C   UNL     1     158.582 144.317 166.610  1.00  0.00     0.191 C 
BRANCH  30  31
ATOM     31  O   UNL     1     158.618 144.138 168.003  1.00  0.00    -0.394 OA
ATOM     32  H   UNL     1     159.142 143.314 168.155  1.00  0.00     0.210 HD
ENDBRANCH  30  31
ENDBRANCH  24  30
BRANCH  25  33
ATOM     33  O   UNL     1     161.481 144.991 166.820  1.00  0.00    -0.388 OA
ATOM     34  H   UNL     1     161.198 144.043 166.991  1.00  0.00     0.211 HD
ENDBRANCH  25  33
ENDBRANCH  11  20
BRANCH  10  35
ATOM     35  O   UNL     1     159.652 150.623 167.519  1.00  0.00    -0.507 OA
ATOM     36  H   UNL     1     160.520 150.890 167.071  1.00  0.00     0.293 HD
ENDBRANCH  10  35
TORSDOF 9
ENDMDL
MODEL 4
REMARK VINA RESULT:    15.466      1.899      3.416
REMARK INTER + INTRA:          19.964
REMARK INTER:                  19.772
REMARK INTRA:                   0.193
REMARK UNBOUND:                -0.926
REMARK SMILES O=c1c(-c2ccc(O)cc2)coc2c([C@@H]3O[C@H](CO)[C@H](O)[C@@H](O)[C@H]3O)c(O)ccc12
REMARK SMILES IDX 3 1 11 2 12 3 13 4 30 5 2 6 1 7 29 8 28 9 26 10 14 11 4 12
REMARK SMILES IDX 5 13 6 14 7 15 10 16 9 17 8 18 15 20 24 21 16 22 22 23 17 24
REMARK SMILES IDX 20 25 25 26 23 28 18 30 19 31 21 33 27 35
REMARK H PARENT 8 19 25 27 23 29 19 32 21 34 27 36
REMARK Flexibility Score: inf
ROOT
ATOM      1  C   UNL     1     161.045 145.299 172.813  1.00  0.00     0.065 A 
ATOM      2  C   UNL     1     161.732 146.130 171.918  1.00  0.00     0.208 A 
ATOM      3  O   UNL     1     161.248 146.355 170.688  1.00  0.00    -0.463 OA
ATOM      4  C   UNL     1     160.109 145.853 170.236  1.00  0.00     0.147 A 
ATOM      5  C   UNL     1     159.366 144.992 171.090  1.00  0.00     0.066 A 
ATOM      6  C   UNL     1     159.872 144.674 172.370  1.00  0.00     0.200 A 
ATOM      7  O   UNL     1     159.253 143.875 173.134  1.00  0.00    -0.288 OA
ATOM      8  C   UNL     1     158.121 144.511 170.676  1.00  0.00     0.020 A 
ATOM      9  C   UNL     1     157.558 144.967 169.492  1.00  0.00     0.047 A 
ATOM     10  C   UNL     1     158.277 145.818 168.637  1.00  0.00     0.125 A 
ATOM     11  C   UNL     1     159.612 146.192 168.935  1.00  0.00     0.069 A 
ENDROOT
BRANCH   1  12
ATOM     12  C   UNL     1     161.450 145.223 174.229  1.00  0.00    -0.011 A 
ATOM     13  C   UNL     1     162.665 145.771 174.665  1.00  0.00     0.013 A 
ATOM     14  C   UNL     1     163.115 145.535 175.965  1.00  0.00     0.047 A 
ATOM     15  C   UNL     1     162.353 144.752 176.847  1.00  0.00     0.115 A 
ATOM     16  C   UNL     1     160.659 144.484 175.131  1.00  0.00     0.013 A 
ATOM     17  C   UNL     1     161.113 144.251 176.428  1.00  0.00     0.047 A 
BRANCH  15  18
ATOM     18  O   UNL     1     162.843 144.483 178.125  1.00  0.00    -0.508 OA
ATOM     19  H   UNL     1     163.208 143.562 178.371  1.00  0.00     0.293 HD
ENDBRANCH  15  18
ENDBRANCH   1  12
BRANCH  11  20
ATOM     20  C   UNL     1     160.415 146.895 167.792  1.00  0.00     0.188 C 
ATOM     21  C   UNL     1     160.223 146.298 166.340  1.00  0.00     0.179 C 
ATOM     22  O   UNL     1     160.074 148.282 167.885  1.00  0.00    -0.362 OA
ATOM     23  C   UNL     1     160.354 147.310 165.170  1.00  0.00     0.177 C 
ATOM     24  C   UNL     1     160.608 149.092 166.872  1.00  0.00     0.176 C 
ATOM     25  C   UNL     1     159.902 148.720 165.567  1.00  0.00     0.177 C 
BRANCH  21  26
ATOM     26  O   UNL     1     161.176 145.287 166.094  1.00  0.00    -0.387 OA
ATOM     27  H   UNL     1     160.908 144.455 166.540  1.00  0.00     0.211 HD
ENDBRANCH  21  26
BRANCH  23  28
ATOM     28  O   UNL     1     161.682 147.377 164.704  1.00  0.00    -0.387 OA
ATOM     29  H   UNL     1     162.260 147.430 165.513  1.00  0.00     0.211 HD
ENDBRANCH  23  28
BRANCH  24  30
ATOM     30  C   UNL     1     160.365 150.554 167.256  1.00  0.00     0.191 C 
BRANCH  30  31
ATOM     31  O   UNL     1     159.597 150.616 168.431  1.00  0.00    -0.394 OA
ATOM     32  H   UNL     1     159.885 149.849 168.983  1.00  0.00     0.210 HD
ENDBRANCH  30  31
ENDBRANCH  24  30
BRANCH  25  33
ATOM     33  O   UNL     1     158.512 148.756 165.759  1.00  0.00    -0.388 OA
ATOM     34  H   UNL     1     158.106 148.663 164.846  1.00  0.00     0.211 HD
ENDBRANCH  25  33
ENDBRANCH  11  20
BRANCH  10  35
ATOM     35  O   UNL     1     157.654 146.284 167.487  1.00  0.00    -0.507 OA
ATOM     36  H   UNL     1     156.727 146.690 167.518  1.00  0.00     0.293 HD
ENDBRANCH  10  35
TORSDOF 9
ENDMDL
MODEL 5
REMARK VINA RESULT:    15.514      1.322      2.548
REMARK INTER + INTRA:          20.030
REMARK INTER:                  19.343
REMARK INTRA:                   0.688
REMARK UNBOUND:                -0.926
REMARK SMILES O=c1c(-c2ccc(O)cc2)coc2c([C@@H]3O[C@H](CO)[C@H](O)[C@@H](O)[C@H]3O)c(O)ccc12
REMARK SMILES IDX 3 1 11 2 12 3 13 4 30 5 2 6 1 7 29 8 28 9 26 10 14 11 4 12
REMARK SMILES IDX 5 13 6 14 7 15 10 16 9 17 8 18 15 20 24 21 16 22 22 23 17 24
REMARK SMILES IDX 20 25 25 26 23 28 18 30 19 31 21 33 27 35
REMARK H PARENT 8 19 25 27 23 29 19 32 21 34 27 36
REMARK Flexibility Score: inf
ROOT
ATOM      1  C   UNL     1     161.073 145.872 172.838  1.00  0.00     0.065 A 
ATOM      2  C   UNL     1     161.458 147.122 172.335  1.00  0.00     0.208 A 
ATOM      3  O   UNL     1     161.060 147.518 171.117  1.00  0.00    -0.463 OA
ATOM      4  C   UNL     1     160.278 146.803 170.323  1.00  0.00     0.147 A 
ATOM      5  C   UNL     1     159.859 145.519 170.769  1.00  0.00     0.066 A 
ATOM      6  C   UNL     1     160.308 145.033 172.016  1.00  0.00     0.200 A 
ATOM      7  O   UNL     1     159.987 143.876 172.417  1.00  0.00    -0.288 OA
ATOM      8  C   UNL     1     158.968 144.773 169.992  1.00  0.00     0.020 A 
ATOM      9  C   UNL     1     158.401 145.332 168.854  1.00  0.00     0.047 A 
ATOM     10  C   UNL     1     158.802 146.599 168.401  1.00  0.00     0.125 A 
ATOM     11  C   UNL     1     159.831 147.317 169.062  1.00  0.00     0.069 A 
ENDROOT
BRANCH   1  12
ATOM     12  C   UNL     1     161.318 145.523 174.250  1.00  0.00    -0.011 A 
ATOM     13  C   UNL     1     162.542 145.816 174.866  1.00  0.00     0.013 A 
ATOM     14  C   UNL     1     162.823 145.321 176.141  1.00  0.00     0.047 A 
ATOM     15  C   UNL     1     161.880 144.532 176.818  1.00  0.00     0.115 A 
ATOM     16  C   UNL     1     160.349 144.777 174.950  1.00  0.00     0.013 A 
ATOM     17  C   UNL     1     160.633 144.285 176.224  1.00  0.00     0.047 A 
BRANCH  15  18
ATOM     18  O   UNL     1     162.197 144.003 178.068  1.00  0.00    -0.508 OA
ATOM     19  H   UNL     1     161.470 143.692 178.713  1.00  0.00     0.293 HD
ENDBRANCH  15  18
ENDBRANCH   1  12
BRANCH  11  20
ATOM     20  C   UNL     1     160.400 148.571 168.320  1.00  0.00     0.188 C 
ATOM     21  C   UNL     1     159.895 148.786 166.835  1.00  0.00     0.179 C 
ATOM     22  O   UNL     1     160.124 149.681 169.180  1.00  0.00    -0.362 OA
ATOM     23  C   UNL     1     159.809 150.261 166.359  1.00  0.00     0.177 C 
ATOM     24  C   UNL     1     160.459 150.936 168.653  1.00  0.00     0.176 C 
ATOM     25  C   UNL     1     159.488 151.226 167.507  1.00  0.00     0.177 C 
BRANCH  21  26
ATOM     26  O   UNL     1     160.748 148.128 165.925  1.00  0.00    -0.387 OA
ATOM     27  H   UNL     1     160.991 147.243 166.270  1.00  0.00     0.211 HD
ENDBRANCH  21  26
BRANCH  23  28
ATOM     28  O   UNL     1     161.013 150.669 165.752  1.00  0.00    -0.387 OA
ATOM     29  H   UNL     1     161.223 151.570 166.122  1.00  0.00     0.211 HD
ENDBRANCH  23  28
BRANCH  24  30
ATOM     30  C   UNL     1     160.341 151.969 169.776  1.00  0.00     0.191 C 
BRANCH  30  31
ATOM     31  O   UNL     1     160.126 153.245 169.230  1.00  0.00    -0.394 OA
ATOM     32  H   UNL     1     160.802 153.833 169.646  1.00  0.00     0.210 HD
ENDBRANCH  30  31
ENDBRANCH  24  30
BRANCH  25  33
ATOM     33  O   UNL     1     158.170 151.042 167.951  1.00  0.00    -0.388 OA
ATOM     34  H   UNL     1     158.186 150.219 168.526  1.00  0.00     0.211 HD
ENDBRANCH  25  33
ENDBRANCH  11  20
BRANCH  10  35
ATOM     35  O   UNL     1     158.172 147.134 167.285  1.00  0.00    -0.507 OA
ATOM     36  H   UNL     1     158.693 147.370 166.449  1.00  0.00     0.293 HD
ENDBRANCH  10  35
TORSDOF 9
ENDMDL
