MODEL 1
REMARK VINA RESULT:    -4.416      0.000      0.000
REMARK INTER + INTRA:          -5.082
REMARK INTER:                  -4.803
REMARK INTRA:                  -0.280
REMARK UNBOUND:                -0.280
REMARK SMILES CC1=CC[C@@](O)(C(C)C)CC1
REMARK SMILES IDX 1 1 2 2 3 3 4 4 5 5 10 6 11 7 7 8 8 9 9 10 6 11
REMARK H PARENT 6 12
REMARK Flexibility Score: inf
ROOT
ATOM      1  C   UNL     1      43.791 -41.762  -5.952  1.00  0.00     0.039 C 
ATOM      2  C   UNL     1      42.651 -41.244  -5.119  1.00  0.00    -0.077 C 
ATOM      3  C   UNL     1      42.921 -40.618  -3.954  1.00  0.00    -0.025 C 
ATOM      4  C   UNL     1      41.836 -40.118  -3.037  1.00  0.00     0.062 C 
ATOM      5  C   UNL     1      40.546 -39.709  -3.804  1.00  0.00     0.071 C 
ATOM      6  C   UNL     1      40.154 -40.942  -4.658  1.00  0.00     0.040 C 
ATOM      7  C   UNL     1      41.242 -41.332  -5.674  1.00  0.00     0.033 C 
ENDROOT
BRANCH   5   8
ATOM      8  C   UNL     1      40.753 -38.416  -4.689  1.00  0.00     0.015 C 
ATOM      9  C   UNL     1      41.379 -37.238  -3.916  1.00  0.00     0.010 C 
ATOM     10  C   UNL     1      39.443 -37.938  -5.343  1.00  0.00     0.010 C 
ENDBRANCH   5   8
BRANCH   5  11
ATOM     11  O   UNL     1      39.495 -39.492  -2.888  1.00  0.00    -0.389 OA
ATOM     12  H   UNL     1      39.147 -38.572  -3.018  1.00  0.00     0.211 HD
ENDBRANCH   5  11
TORSDOF 2
ENDMDL
MODEL 2
REMARK VINA RESULT:    -4.314      1.221      2.699
REMARK INTER + INTRA:          -4.972
REMARK INTER:                  -4.690
REMARK INTRA:                  -0.283
REMARK UNBOUND:                -0.280
REMARK SMILES CC1=CC[C@@](O)(C(C)C)CC1
REMARK SMILES IDX 1 1 2 2 3 3 4 4 5 5 10 6 11 7 7 8 8 9 9 10 6 11
REMARK H PARENT 6 12
REMARK Flexibility Score: inf
ROOT
ATOM      1  C   UNL     1      43.809 -42.064  -5.704  1.00  0.00     0.039 C 
ATOM      2  C   UNL     1      42.706 -41.114  -5.324  1.00  0.00    -0.077 C 
ATOM      3  C   UNL     1      41.433 -41.428  -5.640  1.00  0.00    -0.025 C 
ATOM      4  C   UNL     1      40.278 -40.507  -5.343  1.00  0.00     0.062 C 
ATOM      5  C   UNL     1      40.523 -39.629  -4.082  1.00  0.00     0.071 C 
ATOM      6  C   UNL     1      41.876 -38.912  -4.324  1.00  0.00     0.040 C 
ATOM      7  C   UNL     1      43.049 -39.895  -4.488  1.00  0.00     0.033 C 
ENDROOT
BRANCH   5   8
ATOM      8  C   UNL     1      40.530 -40.475  -2.748  1.00  0.00     0.015 C 
ATOM      9  C   UNL     1      39.243 -41.299  -2.538  1.00  0.00     0.010 C 
ATOM     10  C   UNL     1      40.766 -39.602  -1.501  1.00  0.00     0.010 C 
ENDBRANCH   5   8
BRANCH   5  11
ATOM     11  O   UNL     1      39.535 -38.625  -4.001  1.00  0.00    -0.389 OA
ATOM     12  H   UNL     1      39.870 -37.814  -4.464  1.00  0.00     0.211 HD
ENDBRANCH   5  11
TORSDOF 2
ENDMDL
MODEL 3
REMARK VINA RESULT:    -3.822      1.823      3.465
REMARK INTER + INTRA:          -4.437
REMARK INTER:                  -4.199
REMARK INTRA:                  -0.238
REMARK UNBOUND:                -0.280
REMARK SMILES CC1=CC[C@@](O)(C(C)C)CC1
REMARK SMILES IDX 1 1 2 2 3 3 4 4 5 5 10 6 11 7 7 8 8 9 9 10 6 11
REMARK H PARENT 6 12
REMARK Flexibility Score: inf
ROOT
ATOM      1  C   UNL     1      42.443 -41.319   0.152  1.00  0.00     0.039 C 
ATOM      2  C   UNL     1      42.065 -40.506  -1.055  1.00  0.00    -0.077 C 
ATOM      3  C   UNL     1      43.025 -39.818  -1.708  1.00  0.00    -0.025 C 
ATOM      4  C   UNL     1      42.721 -38.938  -2.893  1.00  0.00     0.062 C 
ATOM      5  C   UNL     1      41.495 -39.438  -3.710  1.00  0.00     0.071 C 
ATOM      6  C   UNL     1      40.335 -39.573  -2.690  1.00  0.00     0.040 C 
ATOM      7  C   UNL     1      40.641 -40.585  -1.573  1.00  0.00     0.033 C 
ENDROOT
BRANCH   5   8
ATOM      8  C   UNL     1      41.784 -40.797  -4.463  1.00  0.00     0.015 C 
ATOM      9  C   UNL     1      43.179 -40.850  -5.118  1.00  0.00     0.010 C 
ATOM     10  C   UNL     1      40.723 -41.108  -5.536  1.00  0.00     0.010 C 
ENDBRANCH   5   8
BRANCH   5  11
ATOM     11  O   UNL     1      41.110 -38.452  -4.642  1.00  0.00    -0.389 OA
ATOM     12  H   UNL     1      41.810 -37.749  -4.666  1.00  0.00     0.211 HD
ENDBRANCH   5  11
TORSDOF 2
ENDMDL
MODEL 4
REMARK VINA RESULT:    -3.701      1.759      3.456
REMARK INTER + INTRA:          -4.305
REMARK INTER:                  -4.023
REMARK INTRA:                  -0.281
REMARK UNBOUND:                -0.280
REMARK SMILES CC1=CC[C@@](O)(C(C)C)CC1
REMARK SMILES IDX 1 1 2 2 3 3 4 4 5 5 10 6 11 7 7 8 8 9 9 10 6 11
REMARK H PARENT 6 12
REMARK Flexibility Score: inf
ROOT
ATOM      1  C   UNL     1      41.455 -41.725  -6.018  1.00  0.00     0.039 C 
ATOM      2  C   UNL     1      41.576 -40.734  -4.894  1.00  0.00    -0.077 C 
ATOM      3  C   UNL     1      40.454 -40.263  -4.311  1.00  0.00    -0.025 C 
ATOM      4  C   UNL     1      40.488 -39.229  -3.215  1.00  0.00     0.062 C 
ATOM      5  C   UNL     1      41.780 -39.315  -2.352  1.00  0.00     0.071 C 
ATOM      6  C   UNL     1      42.961 -39.236  -3.352  1.00  0.00     0.040 C 
ATOM      7  C   UNL     1      42.958 -40.391  -4.369  1.00  0.00     0.033 C 
ENDROOT
BRANCH   5   8
ATOM      8  C   UNL     1      41.833 -40.627  -1.473  1.00  0.00     0.015 C 
ATOM      9  C   UNL     1      40.621 -40.784  -0.532  1.00  0.00     0.010 C 
ATOM     10  C   UNL     1      43.123 -40.718  -0.636  1.00  0.00     0.010 C 
ENDBRANCH   5   8
BRANCH   5  11
ATOM     11  O   UNL     1      41.871 -38.181  -1.518  1.00  0.00    -0.389 OA
ATOM     12  H   UNL     1      42.647 -38.297  -0.910  1.00  0.00     0.211 HD
ENDBRANCH   5  11
TORSDOF 2
ENDMDL
MODEL 5
REMARK VINA RESULT:    -3.641      1.366      3.546
REMARK INTER + INTRA:          -4.240
REMARK INTER:                  -3.956
REMARK INTRA:                  -0.284
REMARK UNBOUND:                -0.280
REMARK SMILES CC1=CC[C@@](O)(C(C)C)CC1
REMARK SMILES IDX 1 1 2 2 3 3 4 4 5 5 10 6 11 7 7 8 8 9 9 10 6 11
REMARK H PARENT 6 12
REMARK Flexibility Score: inf
ROOT
ATOM      1  C   UNL     1      38.492 -38.717  -7.167  1.00  0.00     0.039 C 
ATOM      2  C   UNL     1      39.083 -39.186  -5.866  1.00  0.00    -0.077 C 
ATOM      3  C   UNL     1      39.405 -40.488  -5.723  1.00  0.00    -0.025 C 
ATOM      4  C   UNL     1      39.952 -41.048  -4.435  1.00  0.00     0.062 C 
ATOM      5  C   UNL     1      40.771 -39.999  -3.629  1.00  0.00     0.071 C 
ATOM      6  C   UNL     1      39.836 -38.775  -3.457  1.00  0.00     0.040 C 
ATOM      7  C   UNL     1      39.413 -38.157  -4.801  1.00  0.00     0.033 C 
ENDROOT
BRANCH   5   8
ATOM      8  C   UNL     1      42.128 -39.615  -4.341  1.00  0.00     0.015 C 
ATOM      9  C   UNL     1      43.008 -40.834  -4.683  1.00  0.00     0.010 C 
ATOM     10  C   UNL     1      42.963 -38.620  -3.512  1.00  0.00     0.010 C 
ENDBRANCH   5   8
BRANCH   5  11
ATOM     11  O   UNL     1      41.038 -40.497  -2.336  1.00  0.00    -0.389 OA
ATOM     12  H   UNL     1      41.421 -39.763  -1.788  1.00  0.00     0.211 HD
ENDBRANCH   5  11
TORSDOF 2
ENDMDL
MODEL 6
REMARK VINA RESULT:    -3.639      1.527      4.044
REMARK INTER + INTRA:          -4.238
REMARK INTER:                  -4.317
REMARK INTRA:                   0.079
REMARK UNBOUND:                -0.280
REMARK SMILES CC1=CC[C@@](O)(C(C)C)CC1
REMARK SMILES IDX 1 1 2 2 3 3 4 4 5 5 10 6 11 7 7 8 8 9 9 10 6 11
REMARK H PARENT 6 12
REMARK Flexibility Score: inf
ROOT
ATOM      1  C   UNL     1      39.774 -36.842  -4.779  1.00  0.00     0.039 C 
ATOM      2  C   UNL     1      40.674 -37.862  -4.137  1.00  0.00    -0.077 C 
ATOM      3  C   UNL     1      40.138 -39.009  -3.672  1.00  0.00    -0.025 C 
ATOM      4  C   UNL     1      40.961 -40.058  -2.969  1.00  0.00     0.062 C 
ATOM      5  C   UNL     1      42.437 -40.087  -3.461  1.00  0.00     0.071 C 
ATOM      6  C   UNL     1      42.963 -38.637  -3.303  1.00  0.00     0.040 C 
ATOM      7  C   UNL     1      42.172 -37.622  -4.146  1.00  0.00     0.033 C 
ENDROOT
BRANCH   5   8
ATOM      8  C   UNL     1      42.568 -40.607  -4.947  1.00  0.00     0.015 C 
ATOM      9  C   UNL     1      41.296 -41.309  -5.466  1.00  0.00     0.010 C 
ATOM     10  C   UNL     1      43.766 -41.558  -5.131  1.00  0.00     0.010 C 
ENDBRANCH   5   8
BRANCH   5  11
ATOM     11  O   UNL     1      43.208 -40.900  -2.605  1.00  0.00    -0.389 OA
ATOM     12  H   UNL     1      43.637 -40.322  -1.922  1.00  0.00     0.211 HD
ENDBRANCH   5  11
TORSDOF 2
ENDMDL
MODEL 7
REMARK VINA RESULT:    -3.571      1.774      3.571
REMARK INTER + INTRA:          -4.164
REMARK INTER:                  -3.959
REMARK INTRA:                  -0.205
REMARK UNBOUND:                -0.280
REMARK SMILES CC1=CC[C@@](O)(C(C)C)CC1
REMARK SMILES IDX 1 1 2 2 3 3 4 4 5 5 10 6 11 7 7 8 8 9 9 10 6 11
REMARK H PARENT 6 12
REMARK Flexibility Score: inf
ROOT
ATOM      1  C   UNL     1      37.725 -40.839  -4.873  1.00  0.00     0.039 C 
ATOM      2  C   UNL     1      39.140 -40.337  -4.786  1.00  0.00    -0.077 C 
ATOM      3  C   UNL     1      39.357 -39.031  -4.528  1.00  0.00    -0.025 C 
ATOM      4  C   UNL     1      40.742 -38.438  -4.477  1.00  0.00     0.062 C 
ATOM      5  C   UNL     1      41.814 -39.464  -4.010  1.00  0.00     0.071 C 
ATOM      6  C   UNL     1      41.667 -40.686  -4.952  1.00  0.00     0.040 C 
ATOM      7  C   UNL     1      40.277 -41.339  -4.868  1.00  0.00     0.033 C 
ENDROOT
BRANCH   5   8
ATOM      8  C   UNL     1      41.647 -39.863  -2.490  1.00  0.00     0.015 C 
ATOM      9  C   UNL     1      41.220 -38.685  -1.591  1.00  0.00     0.010 C 
ATOM     10  C   UNL     1      42.926 -40.491  -1.906  1.00  0.00     0.010 C 
ENDBRANCH   5   8
BRANCH   5  11
ATOM     11  O   UNL     1      43.104 -38.934  -4.222  1.00  0.00    -0.389 OA
ATOM     12  H   UNL     1      43.082 -38.366  -5.036  1.00  0.00     0.211 HD
ENDBRANCH   5  11
TORSDOF 2
ENDMDL
MODEL 8
REMARK VINA RESULT:    -3.529      1.340      4.042
REMARK INTER + INTRA:          -4.118
REMARK INTER:                  -3.948
REMARK INTRA:                  -0.170
REMARK UNBOUND:                -0.280
REMARK SMILES CC1=CC[C@@](O)(C(C)C)CC1
REMARK SMILES IDX 1 1 2 2 3 3 4 4 5 5 10 6 11 7 7 8 8 9 9 10 6 11
REMARK H PARENT 6 12
REMARK Flexibility Score: inf
ROOT
ATOM      1  C   UNL     1      38.427 -37.635  -7.350  1.00  0.00     0.039 C 
ATOM      2  C   UNL     1      38.824 -38.455  -6.154  1.00  0.00    -0.077 C 
ATOM      3  C   UNL     1      38.498 -39.764  -6.119  1.00  0.00    -0.025 C 
ATOM      4  C   UNL     1      38.812 -40.642  -4.936  1.00  0.00     0.062 C 
ATOM      5  C   UNL     1      40.091 -40.187  -4.177  1.00  0.00     0.071 C 
ATOM      6  C   UNL     1      39.868 -38.692  -3.833  1.00  0.00     0.040 C 
ATOM      7  C   UNL     1      39.686 -37.814  -5.083  1.00  0.00     0.033 C 
ENDROOT
BRANCH   5   8
ATOM      8  C   UNL     1      41.407 -40.411  -5.022  1.00  0.00     0.015 C 
ATOM      9  C   UNL     1      41.351 -41.660  -5.924  1.00  0.00     0.010 C 
ATOM     10  C   UNL     1      42.664 -40.498  -4.136  1.00  0.00     0.010 C 
ENDBRANCH   5   8
BRANCH   5  11
ATOM     11  O   UNL     1      40.191 -40.880  -2.952  1.00  0.00    -0.389 OA
ATOM     12  H   UNL     1      40.444 -40.234  -2.243  1.00  0.00     0.211 HD
ENDBRANCH   5  11
TORSDOF 2
ENDMDL
