MODEL 1
REMARK VINA RESULT:    -7.272      0.000      0.000
REMARK INTER + INTRA:         -11.884
REMARK INTER:                 -11.311
REMARK INTRA:                  -0.573
REMARK UNBOUND:                -0.573
REMARK SMILES COc1cc(CNC(=O)CCCCC=CC(C)C)ccc1O
REMARK SMILES IDX 11 1 12 2 13 3 14 4 15 5 16 6 17 7 18 8 10 9 8 10 9 11 7 12
REMARK SMILES IDX 6 14 5 15 4 16 19 17 3 18 20 19 21 20 2 21 1 22 22 23
REMARK H PARENT 7 13 22 24
REMARK Flexibility Score: inf
ROOT
ATOM      1  C   UNL     1     168.184 147.385 150.006  1.00  0.00     0.010 C 
ENDROOT
BRANCH   1   2
ATOM      2  C   UNL     1     166.714 147.149 149.628  1.00  0.00     0.005 C 
BRANCH   2   3
ATOM      3  C   UNL     1     166.264 145.733 150.014  1.00  0.00     0.027 C 
BRANCH   3   4
ATOM      4  C   UNL     1     165.032 145.773 150.879  1.00  0.00    -0.031 C 
ATOM      5  C   UNL     1     164.348 144.688 151.295  1.00  0.00    -0.028 C 
BRANCH   5   6
ATOM      6  C   UNL     1     164.713 143.252 150.981  1.00  0.00     0.005 C 
ATOM      7  C   UNL     1     164.431 142.960 149.505  1.00  0.00     0.012 C 
ATOM      8  C   UNL     1     163.916 142.307 151.883  1.00  0.00     0.012 C 
ENDBRANCH   5   6
ENDBRANCH   3   4
ENDBRANCH   2   3
ENDBRANCH   1   2
BRANCH   1   9
ATOM      9  C   UNL     1     169.152 146.787 148.976  1.00  0.00     0.100 C 
BRANCH   9  10
ATOM     10  C   UNL     1     169.821 147.859 148.164  1.00  0.00     0.220 C 
ATOM     11  O   UNL     1     169.665 147.877 146.913  1.00  0.00    -0.275 OA
ATOM     12  N   UNL     1     170.587 148.883 148.814  1.00  0.00    -0.352 N 
ATOM     13  H   UNL     1     170.730 148.831 149.849  1.00  0.00     0.163 HD
BRANCH  12  14
ATOM     14  C   UNL     1     171.090 150.055 148.103  1.00  0.00     0.151 C 
BRANCH  14  15
ATOM     15  C   UNL     1     170.314 151.282 148.499  1.00  0.00    -0.025 A 
ATOM     16  C   UNL     1     169.214 151.710 147.737  1.00  0.00     0.056 A 
ATOM     17  C   UNL     1     170.693 152.012 149.634  1.00  0.00     0.009 A 
ATOM     18  C   UNL     1     168.487 152.856 148.114  1.00  0.00     0.160 A 
ATOM     19  C   UNL     1     169.980 153.151 150.007  1.00  0.00     0.050 A 
ATOM     20  C   UNL     1     168.877 153.573 149.253  1.00  0.00     0.157 A 
BRANCH  18  21
ATOM     21  O   UNL     1     167.374 153.308 147.387  1.00  0.00    -0.493 OA
ATOM     22  C   UNL     1     166.280 152.485 146.994  1.00  0.00     0.278 C 
ENDBRANCH  18  21
BRANCH  20  23
ATOM     23  O   UNL     1     168.161 154.708 149.633  1.00  0.00    -0.504 OA
ATOM     24  H   UNL     1     168.018 155.484 148.996  1.00  0.00     0.293 HD
ENDBRANCH  20  23
ENDBRANCH  14  15
ENDBRANCH  12  14
ENDBRANCH   9  10
ENDBRANCH   1   9
TORSDOF 10
ENDMDL
MODEL 2
REMARK VINA RESULT:    -7.185      0.905      1.053
REMARK INTER + INTRA:         -11.749
REMARK INTER:                 -10.827
REMARK INTRA:                  -0.922
REMARK UNBOUND:                -0.573
REMARK SMILES COc1cc(CNC(=O)CCCCC=CC(C)C)ccc1O
REMARK SMILES IDX 11 1 12 2 13 3 14 4 15 5 16 6 17 7 18 8 10 9 8 10 9 11 7 12
REMARK SMILES IDX 6 14 5 15 4 16 19 17 3 18 20 19 21 20 2 21 1 22 22 23
REMARK H PARENT 7 13 22 24
REMARK Flexibility Score: inf
ROOT
ATOM      1  C   UNL     1     167.792 146.934 150.110  1.00  0.00     0.010 C 
ENDROOT
BRANCH   1   2
ATOM      2  C   UNL     1     166.539 147.257 149.283  1.00  0.00     0.005 C 
BRANCH   2   3
ATOM      3  C   UNL     1     165.442 146.207 149.508  1.00  0.00     0.027 C 
BRANCH   3   4
ATOM      4  C   UNL     1     165.072 146.115 150.964  1.00  0.00    -0.031 C 
ATOM      5  C   UNL     1     164.519 145.035 151.551  1.00  0.00    -0.028 C 
BRANCH   5   6
ATOM      6  C   UNL     1     164.196 143.730 150.852  1.00  0.00     0.005 C 
ATOM      7  C   UNL     1     163.076 143.006 151.604  1.00  0.00     0.012 C 
ATOM      8  C   UNL     1     165.451 142.858 150.778  1.00  0.00     0.012 C 
ENDBRANCH   5   6
ENDBRANCH   3   4
ENDBRANCH   2   3
ENDBRANCH   1   2
BRANCH   1   9
ATOM      9  C   UNL     1     168.885 146.258 149.271  1.00  0.00     0.100 C 
BRANCH   9  10
ATOM     10  C   UNL     1     169.649 147.259 148.454  1.00  0.00     0.220 C 
ATOM     11  O   UNL     1     169.820 147.053 147.221  1.00  0.00    -0.275 OA
ATOM     12  N   UNL     1     170.136 148.464 149.061  1.00  0.00    -0.352 N 
ATOM     13  H   UNL     1     170.012 148.599 150.091  1.00  0.00     0.163 HD
BRANCH  12  14
ATOM     14  C   UNL     1     170.707 149.559 148.282  1.00  0.00     0.151 C 
BRANCH  14  15
ATOM     15  C   UNL     1     170.056 150.863 148.656  1.00  0.00    -0.025 A 
ATOM     16  C   UNL     1     168.717 151.119 148.314  1.00  0.00     0.056 A 
ATOM     17  C   UNL     1     170.790 151.838 149.343  1.00  0.00     0.009 A 
ATOM     18  C   UNL     1     168.110 152.339 148.670  1.00  0.00     0.160 A 
ATOM     19  C   UNL     1     170.195 153.050 149.692  1.00  0.00     0.050 A 
ATOM     20  C   UNL     1     168.857 153.303 149.361  1.00  0.00     0.157 A 
BRANCH  18  21
ATOM     21  O   UNL     1     166.771 152.626 148.360  1.00  0.00    -0.493 OA
ATOM     22  C   UNL     1     165.655 152.195 149.131  1.00  0.00     0.278 C 
ENDBRANCH  18  21
BRANCH  20  23
ATOM     23  O   UNL     1     168.262 154.512 149.717  1.00  0.00    -0.504 OA
ATOM     24  H   UNL     1     168.105 154.761 150.688  1.00  0.00     0.293 HD
ENDBRANCH  20  23
ENDBRANCH  14  15
ENDBRANCH  12  14
ENDBRANCH   9  10
ENDBRANCH   1   9
TORSDOF 10
ENDMDL
MODEL 3
REMARK VINA RESULT:    -6.955      0.891      1.162
REMARK INTER + INTRA:         -11.391
REMARK INTER:                 -10.558
REMARK INTRA:                  -0.834
REMARK UNBOUND:                -0.573
REMARK SMILES COc1cc(CNC(=O)CCCCC=CC(C)C)ccc1O
REMARK SMILES IDX 11 1 12 2 13 3 14 4 15 5 16 6 17 7 18 8 10 9 8 10 9 11 7 12
REMARK SMILES IDX 6 14 5 15 4 16 19 17 3 18 20 19 21 20 2 21 1 22 22 23
REMARK H PARENT 7 13 22 24
REMARK Flexibility Score: inf
ROOT
ATOM      1  C   UNL     1     167.324 147.072 149.661  1.00  0.00     0.010 C 
ENDROOT
BRANCH   1   2
ATOM      2  C   UNL     1     166.090 146.232 150.024  1.00  0.00     0.005 C 
BRANCH   2   3
ATOM      3  C   UNL     1     166.338 144.741 149.755  1.00  0.00     0.027 C 
BRANCH   3   4
ATOM      4  C   UNL     1     165.147 144.108 149.084  1.00  0.00    -0.031 C 
ATOM      5  C   UNL     1     164.339 143.193 149.656  1.00  0.00    -0.028 C 
BRANCH   5   6
ATOM      6  C   UNL     1     164.478 142.665 151.069  1.00  0.00     0.005 C 
ATOM      7  C   UNL     1     164.603 141.140 151.039  1.00  0.00     0.012 C 
ATOM      8  C   UNL     1     163.269 143.093 151.903  1.00  0.00     0.012 C 
ENDBRANCH   5   6
ENDBRANCH   3   4
ENDBRANCH   2   3
ENDBRANCH   1   2
BRANCH   1   9
ATOM      9  C   UNL     1     168.036 146.547 148.407  1.00  0.00     0.100 C 
BRANCH   9  10
ATOM     10  C   UNL     1     169.107 147.493 147.945  1.00  0.00     0.220 C 
ATOM     11  O   UNL     1     169.475 147.472 146.739  1.00  0.00    -0.275 OA
ATOM     12  N   UNL     1     169.668 148.447 148.858  1.00  0.00    -0.352 N 
ATOM     13  H   UNL     1     169.371 148.425 149.861  1.00  0.00     0.163 HD
BRANCH  12  14
ATOM     14  C   UNL     1     170.560 149.517 148.422  1.00  0.00     0.151 C 
BRANCH  14  15
ATOM     15  C   UNL     1     169.973 150.861 148.761  1.00  0.00    -0.025 A 
ATOM     16  C   UNL     1     168.656 151.180 148.389  1.00  0.00     0.056 A 
ATOM     17  C   UNL     1     170.745 151.808 149.446  1.00  0.00     0.009 A 
ATOM     18  C   UNL     1     168.108 152.437 148.712  1.00  0.00     0.160 A 
ATOM     19  C   UNL     1     170.208 153.056 149.763  1.00  0.00     0.050 A 
ATOM     20  C   UNL     1     168.892 153.372 149.401  1.00  0.00     0.157 A 
BRANCH  18  21
ATOM     21  O   UNL     1     166.792 152.789 148.371  1.00  0.00    -0.493 OA
ATOM     22  C   UNL     1     166.211 152.586 147.087  1.00  0.00     0.278 C 
ENDBRANCH  18  21
BRANCH  20  23
ATOM     23  O   UNL     1     168.356 154.617 149.725  1.00  0.00    -0.504 OA
ATOM     24  H   UNL     1     168.945 155.431 149.863  1.00  0.00     0.293 HD
ENDBRANCH  20  23
ENDBRANCH  14  15
ENDBRANCH  12  14
ENDBRANCH   9  10
ENDBRANCH   1   9
TORSDOF 10
ENDMDL
MODEL 4
REMARK VINA RESULT:    -6.838      2.481      7.278
REMARK INTER + INTRA:         -11.209
REMARK INTER:                  -9.762
REMARK INTRA:                  -1.448
REMARK UNBOUND:                -0.573
REMARK SMILES COc1cc(CNC(=O)CCCCC=CC(C)C)ccc1O
REMARK SMILES IDX 11 1 12 2 13 3 14 4 15 5 16 6 17 7 18 8 10 9 8 10 9 11 7 12
REMARK SMILES IDX 6 14 5 15 4 16 19 17 3 18 20 19 21 20 2 21 1 22 22 23
REMARK H PARENT 7 13 22 24
REMARK Flexibility Score: inf
ROOT
ATOM      1  C   UNL     1     170.584 151.395 149.267  1.00  0.00     0.010 C 
ENDROOT
BRANCH   1   2
ATOM      2  C   UNL     1     170.397 152.913 149.421  1.00  0.00     0.005 C 
BRANCH   2   3
ATOM      3  C   UNL     1     169.025 153.243 150.025  1.00  0.00     0.027 C 
BRANCH   3   4
ATOM      4  C   UNL     1     168.098 153.811 148.984  1.00  0.00    -0.031 C 
ATOM      5  C   UNL     1     167.012 153.180 148.494  1.00  0.00    -0.028 C 
BRANCH   5   6
ATOM      6  C   UNL     1     166.532 151.808 148.921  1.00  0.00     0.005 C 
ATOM      7  C   UNL     1     166.794 150.799 147.800  1.00  0.00     0.012 C 
ATOM      8  C   UNL     1     165.040 151.865 149.262  1.00  0.00     0.012 C 
ENDBRANCH   5   6
ENDBRANCH   3   4
ENDBRANCH   2   3
ENDBRANCH   1   2
BRANCH   1   9
ATOM      9  C   UNL     1     170.503 150.946 147.802  1.00  0.00     0.100 C 
BRANCH   9  10
ATOM     10  C   UNL     1     170.275 149.466 147.694  1.00  0.00     0.220 C 
ATOM     11  O   UNL     1     170.011 148.960 146.569  1.00  0.00    -0.275 OA
ATOM     12  N   UNL     1     170.407 148.629 148.851  1.00  0.00    -0.352 N 
ATOM     13  H   UNL     1     170.594 149.073 149.779  1.00  0.00     0.163 HD
BRANCH  12  14
ATOM     14  C   UNL     1     170.394 147.171 148.770  1.00  0.00     0.151 C 
BRANCH  14  15
ATOM     15  C   UNL     1     169.047 146.635 149.173  1.00  0.00    -0.025 A 
ATOM     16  C   UNL     1     168.797 145.252 149.166  1.00  0.00     0.056 A 
ATOM     17  C   UNL     1     168.028 147.519 149.550  1.00  0.00     0.009 A 
ATOM     18  C   UNL     1     167.537 144.754 149.549  1.00  0.00     0.160 A 
ATOM     19  C   UNL     1     166.777 147.030 149.924  1.00  0.00     0.050 A 
ATOM     20  C   UNL     1     166.528 145.651 149.928  1.00  0.00     0.157 A 
BRANCH  18  21
ATOM     21  O   UNL     1     167.251 143.379 149.571  1.00  0.00    -0.493 OA
ATOM     22  C   UNL     1     166.874 142.617 148.429  1.00  0.00     0.278 C 
ENDBRANCH  18  21
BRANCH  20  23
ATOM     23  O   UNL     1     165.279 145.164 150.309  1.00  0.00    -0.504 OA
ATOM     24  H   UNL     1     164.539 145.011 149.632  1.00  0.00     0.293 HD
ENDBRANCH  20  23
ENDBRANCH  14  15
ENDBRANCH  12  14
ENDBRANCH   9  10
ENDBRANCH   1   9
TORSDOF 10
ENDMDL
MODEL 5
REMARK VINA RESULT:    -6.820      1.957      2.884
REMARK INTER + INTRA:         -11.180
REMARK INTER:                  -9.775
REMARK INTRA:                  -1.405
REMARK UNBOUND:                -0.573
REMARK SMILES COc1cc(CNC(=O)CCCCC=CC(C)C)ccc1O
REMARK SMILES IDX 11 1 12 2 13 3 14 4 15 5 16 6 17 7 18 8 10 9 8 10 9 11 7 12
REMARK SMILES IDX 6 14 5 15 4 16 19 17 3 18 20 19 21 20 2 21 1 22 22 23
REMARK H PARENT 7 13 22 24
REMARK Flexibility Score: inf
ROOT
ATOM      1  C   UNL     1     168.103 145.648 147.323  1.00  0.00     0.010 C 
ENDROOT
BRANCH   1   2
ATOM      2  C   UNL     1     166.878 145.155 146.539  1.00  0.00     0.005 C 
BRANCH   2   3
ATOM      3  C   UNL     1     165.574 145.624 147.199  1.00  0.00     0.027 C 
BRANCH   3   4
ATOM      4  C   UNL     1     165.753 145.803 148.683  1.00  0.00    -0.031 C 
ATOM      5  C   UNL     1     165.544 146.957 149.349  1.00  0.00    -0.028 C 
BRANCH   5   6
ATOM      6  C   UNL     1     165.077 148.255 148.723  1.00  0.00     0.005 C 
ATOM      7  C   UNL     1     166.258 149.221 148.598  1.00  0.00     0.012 C 
ATOM      8  C   UNL     1     163.963 148.869 149.574  1.00  0.00     0.012 C 
ENDBRANCH   5   6
ENDBRANCH   3   4
ENDBRANCH   2   3
ENDBRANCH   1   2
BRANCH   1   9
ATOM      9  C   UNL     1     168.773 146.858 146.657  1.00  0.00     0.100 C 
BRANCH   9  10
ATOM     10  C   UNL     1     169.477 147.720 147.664  1.00  0.00     0.220 C 
ATOM     11  O   UNL     1     169.645 147.291 148.838  1.00  0.00    -0.275 OA
ATOM     12  N   UNL     1     169.998 149.000 147.279  1.00  0.00    -0.352 N 
ATOM     13  H   UNL     1     169.819 149.350 146.310  1.00  0.00     0.163 HD
BRANCH  12  14
ATOM     14  C   UNL     1     170.860 149.790 148.153  1.00  0.00     0.151 C 
BRANCH  14  15
ATOM     15  C   UNL     1     170.177 151.074 148.542  1.00  0.00    -0.025 A 
ATOM     16  C   UNL     1     169.091 151.561 147.794  1.00  0.00     0.056 A 
ATOM     17  C   UNL     1     170.629 151.796 149.654  1.00  0.00     0.009 A 
ATOM     18  C   UNL     1     168.451 152.760 148.165  1.00  0.00     0.160 A 
ATOM     19  C   UNL     1     170.002 152.987 150.020  1.00  0.00     0.050 A 
ATOM     20  C   UNL     1     168.913 153.469 149.282  1.00  0.00     0.157 A 
BRANCH  18  21
ATOM     21  O   UNL     1     167.354 153.273 147.453  1.00  0.00    -0.493 OA
ATOM     22  C   UNL     1     166.276 152.485 146.957  1.00  0.00     0.278 C 
ENDBRANCH  18  21
BRANCH  20  23
ATOM     23  O   UNL     1     168.283 154.656 149.654  1.00  0.00    -0.504 OA
ATOM     24  H   UNL     1     167.662 155.149 149.022  1.00  0.00     0.293 HD
ENDBRANCH  20  23
ENDBRANCH  14  15
ENDBRANCH  12  14
ENDBRANCH   9  10
ENDBRANCH   1   9
TORSDOF 10
ENDMDL
MODEL 6
REMARK VINA RESULT:    -6.789      1.824      2.984
REMARK INTER + INTRA:         -11.132
REMARK INTER:                 -10.203
REMARK INTRA:                  -0.929
REMARK UNBOUND:                -0.573
REMARK SMILES COc1cc(CNC(=O)CCCCC=CC(C)C)ccc1O
REMARK SMILES IDX 11 1 12 2 13 3 14 4 15 5 16 6 17 7 18 8 10 9 8 10 9 11 7 12
REMARK SMILES IDX 6 14 5 15 4 16 19 17 3 18 20 19 21 20 2 21 1 22 22 23
REMARK H PARENT 7 13 22 24
REMARK Flexibility Score: inf
ROOT
ATOM      1  C   UNL     1     166.913 146.141 150.019  1.00  0.00     0.010 C 
ENDROOT
BRANCH   1   2
ATOM      2  C   UNL     1     167.495 144.909 149.310  1.00  0.00     0.005 C 
BRANCH   2   3
ATOM      3  C   UNL     1     166.884 143.614 149.861  1.00  0.00     0.027 C 
BRANCH   3   4
ATOM      4  C   UNL     1     165.513 143.375 149.287  1.00  0.00    -0.031 C 
ATOM      5  C   UNL     1     164.372 143.345 150.005  1.00  0.00    -0.028 C 
BRANCH   5   6
ATOM      6  C   UNL     1     164.276 143.566 151.501  1.00  0.00     0.005 C 
ATOM      7  C   UNL     1     163.111 142.750 152.067  1.00  0.00     0.012 C 
ATOM      8  C   UNL     1     164.087 145.056 151.794  1.00  0.00     0.012 C 
ENDBRANCH   5   6
ENDBRANCH   3   4
ENDBRANCH   2   3
ENDBRANCH   1   2
BRANCH   1   9
ATOM      9  C   UNL     1     166.051 146.999 149.082  1.00  0.00     0.100 C 
BRANCH   9  10
ATOM     10  C   UNL     1     166.869 148.055 148.397  1.00  0.00     0.220 C 
ATOM     11  O   UNL     1     168.119 148.075 148.562  1.00  0.00    -0.275 OA
ATOM     12  N   UNL     1     166.238 149.001 147.523  1.00  0.00    -0.352 N 
ATOM     13  H   UNL     1     165.197 148.987 147.426  1.00  0.00     0.163 HD
BRANCH  12  14
ATOM     14  C   UNL     1     167.000 149.918 146.680  1.00  0.00     0.151 C 
BRANCH  14  15
ATOM     15  C   UNL     1     167.330 151.176 147.437  1.00  0.00    -0.025 A 
ATOM     16  C   UNL     1     168.645 151.431 147.861  1.00  0.00     0.056 A 
ATOM     17  C   UNL     1     166.319 152.099 147.732  1.00  0.00     0.009 A 
ATOM     18  C   UNL     1     168.952 152.612 148.564  1.00  0.00     0.160 A 
ATOM     19  C   UNL     1     166.617 153.267 148.434  1.00  0.00     0.050 A 
ATOM     20  C   UNL     1     167.929 153.528 148.848  1.00  0.00     0.157 A 
BRANCH  18  21
ATOM     21  O   UNL     1     170.256 152.911 148.992  1.00  0.00    -0.493 OA
ATOM     22  C   UNL     1     170.947 152.210 150.020  1.00  0.00     0.278 C 
ENDBRANCH  18  21
BRANCH  20  23
ATOM     23  O   UNL     1     168.226 154.699 149.544  1.00  0.00    -0.504 OA
ATOM     24  H   UNL     1     168.315 155.591 149.069  1.00  0.00     0.293 HD
ENDBRANCH  20  23
ENDBRANCH  14  15
ENDBRANCH  12  14
ENDBRANCH   9  10
ENDBRANCH   1   9
TORSDOF 10
ENDMDL
MODEL 7
REMARK VINA RESULT:    -6.655      1.506      2.138
REMARK INTER + INTRA:         -10.924
REMARK INTER:                  -9.815
REMARK INTRA:                  -1.109
REMARK UNBOUND:                -0.573
REMARK SMILES COc1cc(CNC(=O)CCCCC=CC(C)C)ccc1O
REMARK SMILES IDX 11 1 12 2 13 3 14 4 15 5 16 6 17 7 18 8 10 9 8 10 9 11 7 12
REMARK SMILES IDX 6 14 5 15 4 16 19 17 3 18 20 19 21 20 2 21 1 22 22 23
REMARK H PARENT 7 13 22 24
REMARK Flexibility Score: inf
ROOT
ATOM      1  C   UNL     1     170.205 146.977 148.517  1.00  0.00     0.010 C 
ENDROOT
BRANCH   1   2
ATOM      2  C   UNL     1     169.385 146.215 149.570  1.00  0.00     0.005 C 
BRANCH   2   3
ATOM      3  C   UNL     1     168.460 147.165 150.344  1.00  0.00     0.027 C 
BRANCH   3   4
ATOM      4  C   UNL     1     167.221 147.481 149.549  1.00  0.00    -0.031 C 
ATOM      5  C   UNL     1     166.089 146.749 149.566  1.00  0.00    -0.028 C 
BRANCH   5   6
ATOM      6  C   UNL     1     165.867 145.502 150.397  1.00  0.00     0.005 C 
ATOM      7  C   UNL     1     165.658 144.299 149.475  1.00  0.00     0.012 C 
ATOM      8  C   UNL     1     164.656 145.700 151.313  1.00  0.00     0.012 C 
ENDBRANCH   5   6
ENDBRANCH   3   4
ENDBRANCH   2   3
ENDBRANCH   1   2
BRANCH   1   9
ATOM      9  C   UNL     1     169.585 146.880 147.116  1.00  0.00     0.100 C 
BRANCH   9  10
ATOM     10  C   UNL     1     169.370 148.239 146.516  1.00  0.00     0.220 C 
ATOM     11  O   UNL     1     168.260 148.511 145.981  1.00  0.00    -0.275 OA
ATOM     12  N   UNL     1     170.399 149.235 146.597  1.00  0.00    -0.352 N 
ATOM     13  H   UNL     1     171.322 148.978 147.016  1.00  0.00     0.163 HD
BRANCH  12  14
ATOM     14  C   UNL     1     170.176 150.626 146.212  1.00  0.00     0.151 C 
BRANCH  14  15
ATOM     15  C   UNL     1     169.831 151.455 147.420  1.00  0.00    -0.025 A 
ATOM     16  C   UNL     1     168.527 151.945 147.603  1.00  0.00     0.056 A 
ATOM     17  C   UNL     1     170.818 151.752 148.368  1.00  0.00     0.009 A 
ATOM     18  C   UNL     1     168.206 152.716 148.737  1.00  0.00     0.160 A 
ATOM     19  C   UNL     1     170.507 152.521 149.489  1.00  0.00     0.050 A 
ATOM     20  C   UNL     1     169.205 153.001 149.678  1.00  0.00     0.157 A 
BRANCH  18  21
ATOM     21  O   UNL     1     166.912 153.211 148.963  1.00  0.00    -0.493 OA
ATOM     22  C   UNL     1     165.810 152.418 149.393  1.00  0.00     0.278 C 
ENDBRANCH  18  21
BRANCH  20  23
ATOM     23  O   UNL     1     168.894 153.763 150.804  1.00  0.00    -0.504 OA
ATOM     24  H   UNL     1     169.357 154.646 150.992  1.00  0.00     0.293 HD
ENDBRANCH  20  23
ENDBRANCH  14  15
ENDBRANCH  12  14
ENDBRANCH   9  10
ENDBRANCH   1   9
TORSDOF 10
ENDMDL
MODEL 8
REMARK VINA RESULT:    -6.609      3.032      7.466
REMARK INTER + INTRA:         -10.853
REMARK INTER:                  -9.020
REMARK INTRA:                  -1.832
REMARK UNBOUND:                -0.573
REMARK SMILES COc1cc(CNC(=O)CCCCC=CC(C)C)ccc1O
REMARK SMILES IDX 11 1 12 2 13 3 14 4 15 5 16 6 17 7 18 8 10 9 8 10 9 11 7 12
REMARK SMILES IDX 6 14 5 15 4 16 19 17 3 18 20 19 21 20 2 21 1 22 22 23
REMARK H PARENT 7 13 22 24
REMARK Flexibility Score: inf
ROOT
ATOM      1  C   UNL     1     167.897 153.428 149.077  1.00  0.00     0.010 C 
ENDROOT
BRANCH   1   2
ATOM      2  C   UNL     1     168.832 153.213 150.277  1.00  0.00     0.005 C 
BRANCH   2   3
ATOM      3  C   UNL     1     169.995 152.280 149.912  1.00  0.00     0.027 C 
BRANCH   3   4
ATOM      4  C   UNL     1     170.530 152.594 148.540  1.00  0.00    -0.031 C 
ATOM      5  C   UNL     1     170.541 151.734 147.502  1.00  0.00    -0.028 C 
BRANCH   5   6
ATOM      6  C   UNL     1     170.002 150.318 147.536  1.00  0.00     0.005 C 
ATOM      7  C   UNL     1     170.966 149.418 148.312  1.00  0.00     0.012 C 
ATOM      8  C   UNL     1     169.811 149.804 146.107  1.00  0.00     0.012 C 
ENDBRANCH   5   6
ENDBRANCH   3   4
ENDBRANCH   2   3
ENDBRANCH   1   2
BRANCH   1   9
ATOM      9  C   UNL     1     166.630 152.566 149.166  1.00  0.00     0.100 C 
BRANCH   9  10
ATOM     10  C   UNL     1     166.608 151.510 148.099  1.00  0.00     0.220 C 
ATOM     11  O   UNL     1     166.926 151.816 146.917  1.00  0.00    -0.275 OA
ATOM     12  N   UNL     1     166.278 150.154 148.432  1.00  0.00    -0.352 N 
ATOM     13  H   UNL     1     165.985 149.929 149.411  1.00  0.00     0.163 HD
BRANCH  12  14
ATOM     14  C   UNL     1     166.433 149.055 147.484  1.00  0.00     0.151 C 
BRANCH  14  15
ATOM     15  C   UNL     1     167.216 147.931 148.108  1.00  0.00    -0.025 A 
ATOM     16  C   UNL     1     167.567 146.799 147.353  1.00  0.00     0.056 A 
ATOM     17  C   UNL     1     167.594 148.007 149.455  1.00  0.00     0.009 A 
ATOM     18  C   UNL     1     168.305 145.752 147.939  1.00  0.00     0.160 A 
ATOM     19  C   UNL     1     168.319 146.969 150.040  1.00  0.00     0.050 A 
ATOM     20  C   UNL     1     168.678 145.844 149.287  1.00  0.00     0.157 A 
BRANCH  18  21
ATOM     21  O   UNL     1     168.687 144.611 147.215  1.00  0.00    -0.493 OA
ATOM     22  C   UNL     1     167.992 144.107 146.079  1.00  0.00     0.278 C 
ENDBRANCH  18  21
BRANCH  20  23
ATOM     23  O   UNL     1     169.410 144.812 149.872  1.00  0.00    -0.504 OA
ATOM     24  H   UNL     1     169.464 144.703 150.879  1.00  0.00     0.293 HD
ENDBRANCH  20  23
ENDBRANCH  14  15
ENDBRANCH  12  14
ENDBRANCH   9  10
ENDBRANCH   1   9
TORSDOF 10
ENDMDL
MODEL 9
REMARK VINA RESULT:    -6.469      2.279      3.720
REMARK INTER + INTRA:         -10.635
REMARK INTER:                  -9.622
REMARK INTRA:                  -1.013
REMARK UNBOUND:                -0.573
REMARK SMILES COc1cc(CNC(=O)CCCCC=CC(C)C)ccc1O
REMARK SMILES IDX 11 1 12 2 13 3 14 4 15 5 16 6 17 7 18 8 10 9 8 10 9 11 7 12
REMARK SMILES IDX 6 14 5 15 4 16 19 17 3 18 20 19 21 20 2 21 1 22 22 23
REMARK H PARENT 7 13 22 24
REMARK Flexibility Score: inf
ROOT
ATOM      1  C   UNL     1     165.156 145.372 151.109  1.00  0.00     0.010 C 
ENDROOT
BRANCH   1   2
ATOM      2  C   UNL     1     164.000 144.444 151.514  1.00  0.00     0.005 C 
BRANCH   2   3
ATOM      3  C   UNL     1     164.000 143.161 150.672  1.00  0.00     0.027 C 
BRANCH   3   4
ATOM      4  C   UNL     1     165.404 142.735 150.334  1.00  0.00    -0.031 C 
ATOM      5  C   UNL     1     165.902 142.651 149.084  1.00  0.00    -0.028 C 
BRANCH   5   6
ATOM      6  C   UNL     1     165.144 142.986 147.817  1.00  0.00     0.005 C 
ATOM      7  C   UNL     1     165.502 141.980 146.720  1.00  0.00     0.012 C 
ATOM      8  C   UNL     1     165.480 144.412 147.374  1.00  0.00     0.012 C 
ENDBRANCH   5   6
ENDBRANCH   3   4
ENDBRANCH   2   3
ENDBRANCH   1   2
BRANCH   1   9
ATOM      9  C   UNL     1     164.668 146.604 150.336  1.00  0.00     0.100 C 
BRANCH   9  10
ATOM     10  C   UNL     1     165.792 147.267 149.594  1.00  0.00     0.220 C 
ATOM     11  O   UNL     1     166.960 146.802 149.694  1.00  0.00    -0.275 OA
ATOM     12  N   UNL     1     165.529 148.389 148.738  1.00  0.00    -0.352 N 
ATOM     13  H   UNL     1     164.559 148.778 148.696  1.00  0.00     0.163 HD
BRANCH  12  14
ATOM     14  C   UNL     1     166.540 148.945 147.844  1.00  0.00     0.151 C 
BRANCH  14  15
ATOM     15  C   UNL     1     166.964 150.310 148.315  1.00  0.00    -0.025 A 
ATOM     16  C   UNL     1     168.323 150.664 148.350  1.00  0.00     0.056 A 
ATOM     17  C   UNL     1     165.999 151.236 148.732  1.00  0.00     0.009 A 
ATOM     18  C   UNL     1     168.716 151.944 148.787  1.00  0.00     0.160 A 
ATOM     19  C   UNL     1     166.384 152.503 149.171  1.00  0.00     0.050 A 
ATOM     20  C   UNL     1     167.738 152.861 149.197  1.00  0.00     0.157 A 
BRANCH  18  21
ATOM     21  O   UNL     1     170.063 152.342 148.822  1.00  0.00    -0.493 OA
ATOM     22  C   UNL     1     170.751 152.955 147.737  1.00  0.00     0.278 C 
ENDBRANCH  18  21
BRANCH  20  23
ATOM     23  O   UNL     1     168.120 154.130 149.629  1.00  0.00    -0.504 OA
ATOM     24  H   UNL     1     167.518 154.694 150.219  1.00  0.00     0.293 HD
ENDBRANCH  20  23
ENDBRANCH  14  15
ENDBRANCH  12  14
ENDBRANCH   9  10
ENDBRANCH   1   9
TORSDOF 10
ENDMDL
