MODEL 1
REMARK VINA RESULT:    -6.887      0.000      0.000
REMARK INTER + INTRA:          -7.088
REMARK INTER:                  -7.088
REMARK INTRA:                   0.000
REMARK UNBOUND:                 0.000
REMARK SMILES O=c1ccc2cc(O)ccc2o1
REMARK SMILES IDX 9 1 10 2 11 3 5 4 4 5 3 6 2 7 1 8 12 9 6 10 7 11 8 12
REMARK H PARENT 8 13
REMARK Flexibility Score: inf
ROOT
ATOM      1  C   UNL     1      -1.911   7.245  -7.714  1.00  0.00     0.050 A 
ATOM      2  C   UNL     1      -2.727   7.130  -8.843  1.00  0.00     0.052 A 
ATOM      3  C   UNL     1      -2.461   6.149  -9.804  1.00  0.00     0.138 A 
ATOM      4  C   UNL     1      -1.364   5.276  -9.630  1.00  0.00     0.021 A 
ATOM      5  C   UNL     1      -1.122   4.306 -10.608  1.00  0.00     0.019 A 
ATOM      6  C   UNL     1      -1.963   4.228 -11.717  1.00  0.00     0.094 A 
ATOM      7  C   UNL     1      -3.031   5.127 -11.823  1.00  0.00     0.336 A 
ATOM      8  O   UNL     1      -3.801   5.071 -12.817  1.00  0.00    -0.246 OA
ATOM      9  O   UNL     1      -3.239   6.041 -10.879  1.00  0.00    -0.423 OA
ATOM     10  C   UNL     1      -0.548   5.396  -8.495  1.00  0.00     0.058 A 
ATOM     11  C   UNL     1      -0.822   6.382  -7.536  1.00  0.00     0.116 A 
ENDROOT
BRANCH  11  12
ATOM     12  O   UNL     1      -0.020   6.514  -6.405  1.00  0.00    -0.508 OA
ATOM     13  H   UNL     1       0.592   7.312  -6.280  1.00  0.00     0.293 HD
ENDBRANCH  11  12
TORSDOF 1
ENDMDL
MODEL 2
REMARK VINA RESULT:    -6.773     17.481     18.688
REMARK INTER + INTRA:          -6.971
REMARK INTER:                  -6.971
REMARK INTRA:                   0.000
REMARK UNBOUND:                 0.000
REMARK SMILES O=c1ccc2cc(O)ccc2o1
REMARK SMILES IDX 9 1 10 2 11 3 5 4 4 5 3 6 2 7 1 8 12 9 6 10 7 11 8 12
REMARK H PARENT 8 13
REMARK Flexibility Score: inf
ROOT
ATOM      1  C   UNL     1      11.079  -5.386 -11.609  1.00  0.00     0.050 A 
ATOM      2  C   UNL     1      11.723  -5.958 -12.710  1.00  0.00     0.052 A 
ATOM      3  C   UNL     1      12.791  -5.291 -13.322  1.00  0.00     0.138 A 
ATOM      4  C   UNL     1      13.214  -4.039 -12.824  1.00  0.00     0.021 A 
ATOM      5  C   UNL     1      14.283  -3.397 -13.457  1.00  0.00     0.019 A 
ATOM      6  C   UNL     1      14.895  -4.005 -14.552  1.00  0.00     0.094 A 
ATOM      7  C   UNL     1      14.421  -5.246 -14.991  1.00  0.00     0.336 A 
ATOM      8  O   UNL     1      14.962  -5.811 -15.978  1.00  0.00    -0.246 OA
ATOM      9  O   UNL     1      13.402  -5.837 -14.371  1.00  0.00    -0.423 OA
ATOM     10  C   UNL     1      12.565  -3.471 -11.719  1.00  0.00     0.058 A 
ATOM     11  C   UNL     1      11.495  -4.145 -11.110  1.00  0.00     0.116 A 
ENDROOT
BRANCH  11  12
ATOM     12  O   UNL     1      10.840  -3.592 -10.013  1.00  0.00    -0.508 OA
ATOM     13  H   UNL     1      11.278  -2.881  -9.438  1.00  0.00     0.293 HD
ENDBRANCH  11  12
TORSDOF 1
ENDMDL
MODEL 3
REMARK VINA RESULT:    -6.576      1.188      1.604
REMARK INTER + INTRA:          -6.768
REMARK INTER:                  -6.768
REMARK INTRA:                   0.000
REMARK UNBOUND:                 0.000
REMARK SMILES O=c1ccc2cc(O)ccc2o1
REMARK SMILES IDX 9 1 10 2 11 3 5 4 4 5 3 6 2 7 1 8 12 9 6 10 7 11 8 12
REMARK H PARENT 8 13
REMARK Flexibility Score: inf
ROOT
ATOM      1  C   UNL     1      -0.042   6.882  -8.767  1.00  0.00     0.050 A 
ATOM      2  C   UNL     1      -0.604   6.724 -10.038  1.00  0.00     0.052 A 
ATOM      3  C   UNL     1      -1.790   5.999 -10.195  1.00  0.00     0.138 A 
ATOM      4  C   UNL     1      -2.416   5.426  -9.066  1.00  0.00     0.021 A 
ATOM      5  C   UNL     1      -3.601   4.706  -9.254  1.00  0.00     0.019 A 
ATOM      6  C   UNL     1      -4.125   4.575 -10.540  1.00  0.00     0.094 A 
ATOM      7  C   UNL     1      -3.449   5.170 -11.611  1.00  0.00     0.336 A 
ATOM      8  O   UNL     1      -3.907   5.062 -12.779  1.00  0.00    -0.246 OA
ATOM      9  O   UNL     1      -2.324   5.850 -11.405  1.00  0.00    -0.423 OA
ATOM     10  C   UNL     1      -1.849   5.587  -7.794  1.00  0.00     0.058 A 
ATOM     11  C   UNL     1      -0.659   6.316  -7.645  1.00  0.00     0.116 A 
ENDROOT
BRANCH  11  12
ATOM     12  O   UNL     1      -0.083   6.484  -6.388  1.00  0.00    -0.508 OA
ATOM     13  H   UNL     1       0.339   7.364  -6.112  1.00  0.00     0.293 HD
ENDBRANCH  11  12
TORSDOF 1
ENDMDL
MODEL 4
REMARK VINA RESULT:    -6.479     17.308     18.661
REMARK INTER + INTRA:          -6.669
REMARK INTER:                  -6.669
REMARK INTRA:                   0.000
REMARK UNBOUND:                 0.000
REMARK SMILES O=c1ccc2cc(O)ccc2o1
REMARK SMILES IDX 9 1 10 2 11 3 5 4 4 5 3 6 2 7 1 8 12 9 6 10 7 11 8 12
REMARK H PARENT 8 13
REMARK Flexibility Score: inf
ROOT
ATOM      1  C   UNL     1      11.301  -8.688 -12.792  1.00  0.00     0.050 A 
ATOM      2  C   UNL     1      11.986  -7.585 -13.311  1.00  0.00     0.052 A 
ATOM      3  C   UNL     1      11.933  -6.353 -12.650  1.00  0.00     0.138 A 
ATOM      4  C   UNL     1      11.185  -6.227 -11.459  1.00  0.00     0.021 A 
ATOM      5  C   UNL     1      11.151  -4.983 -10.822  1.00  0.00     0.019 A 
ATOM      6  C   UNL     1      11.850  -3.911 -11.375  1.00  0.00     0.094 A 
ATOM      7  C   UNL     1      12.570  -4.109 -12.558  1.00  0.00     0.336 A 
ATOM      8  O   UNL     1      13.207  -3.153 -13.073  1.00  0.00    -0.246 OA
ATOM      9  O   UNL     1      12.586  -5.304 -13.145  1.00  0.00    -0.423 OA
ATOM     10  C   UNL     1      10.500  -7.336 -10.943  1.00  0.00     0.058 A 
ATOM     11  C   UNL     1      10.558  -8.569 -11.611  1.00  0.00     0.116 A 
ENDROOT
BRANCH  11  12
ATOM     12  O   UNL     1       9.882  -9.679 -11.111  1.00  0.00    -0.508 OA
ATOM     13  H   UNL     1      10.379 -10.504 -10.796  1.00  0.00     0.293 HD
ENDBRANCH  11  12
TORSDOF 1
ENDMDL
MODEL 5
REMARK VINA RESULT:    -6.427     17.362     18.609
REMARK INTER + INTRA:          -6.615
REMARK INTER:                  -6.615
REMARK INTRA:                   0.000
REMARK UNBOUND:                 0.000
REMARK SMILES O=c1ccc2cc(O)ccc2o1
REMARK SMILES IDX 9 1 10 2 11 3 5 4 4 5 3 6 2 7 1 8 12 9 6 10 7 11 8 12
REMARK H PARENT 8 13
REMARK Flexibility Score: inf
ROOT
ATOM      1  C   UNL     1      11.344  -4.506 -11.118  1.00  0.00     0.050 A 
ATOM      2  C   UNL     1      10.750  -5.710 -10.727  1.00  0.00     0.052 A 
ATOM      3  C   UNL     1      10.960  -6.872 -11.478  1.00  0.00     0.138 A 
ATOM      4  C   UNL     1      11.772  -6.823 -12.632  1.00  0.00     0.021 A 
ATOM      5  C   UNL     1      11.963  -8.001 -13.362  1.00  0.00     0.019 A 
ATOM      6  C   UNL     1      11.351  -9.178 -12.935  1.00  0.00     0.094 A 
ATOM      7  C   UNL     1      10.559  -9.150 -11.782  1.00  0.00     0.336 A 
ATOM      8  O   UNL     1       9.998 -10.204 -11.380  1.00  0.00    -0.246 OA
ATOM      9  O   UNL     1      10.393  -8.017 -11.104  1.00  0.00    -0.423 OA
ATOM     10  C   UNL     1      12.366  -5.613 -13.020  1.00  0.00     0.058 A 
ATOM     11  C   UNL     1      12.151  -4.453 -12.261  1.00  0.00     0.116 A 
ENDROOT
BRANCH  11  12
ATOM     12  O   UNL     1      12.733  -3.244 -12.634  1.00  0.00    -0.508 OA
ATOM     13  H   UNL     1      12.179  -2.402 -12.748  1.00  0.00     0.293 HD
ENDBRANCH  11  12
TORSDOF 1
ENDMDL
MODEL 6
REMARK VINA RESULT:    -6.425      2.341      3.511
REMARK INTER + INTRA:          -6.613
REMARK INTER:                  -6.613
REMARK INTRA:                   0.000
REMARK UNBOUND:                 0.000
REMARK SMILES O=c1ccc2cc(O)ccc2o1
REMARK SMILES IDX 9 1 10 2 11 3 5 4 4 5 3 6 2 7 1 8 12 9 6 10 7 11 8 12
REMARK H PARENT 8 13
REMARK Flexibility Score: inf
ROOT
ATOM      1  C   UNL     1      -1.520   8.622  -9.383  1.00  0.00     0.050 A 
ATOM      2  C   UNL     1      -0.450   7.734  -9.237  1.00  0.00     0.052 A 
ATOM      3  C   UNL     1      -0.546   6.431  -9.737  1.00  0.00     0.138 A 
ATOM      4  C   UNL     1      -1.728   6.017 -10.390  1.00  0.00     0.021 A 
ATOM      5  C   UNL     1      -1.794   4.708 -10.880  1.00  0.00     0.019 A 
ATOM      6  C   UNL     1      -0.703   3.858 -10.711  1.00  0.00     0.094 A 
ATOM      7  C   UNL     1       0.435   4.338 -10.053  1.00  0.00     0.336 A 
ATOM      8  O   UNL     1       1.431   3.585  -9.891  1.00  0.00    -0.246 OA
ATOM      9  O   UNL     1       0.473   5.587  -9.596  1.00  0.00    -0.423 OA
ATOM     10  C   UNL     1      -2.798   6.911 -10.535  1.00  0.00     0.058 A 
ATOM     11  C   UNL     1      -2.694   8.216 -10.030  1.00  0.00     0.116 A 
ENDROOT
BRANCH  11  12
ATOM     12  O   UNL     1      -3.749   9.116 -10.166  1.00  0.00    -0.508 OA
ATOM     13  H   UNL     1      -3.869   9.891  -9.524  1.00  0.00     0.293 HD
ENDBRANCH  11  12
TORSDOF 1
ENDMDL
MODEL 7
REMARK VINA RESULT:    -6.395     17.699     19.164
REMARK INTER + INTRA:          -6.582
REMARK INTER:                  -6.582
REMARK INTRA:                   0.000
REMARK UNBOUND:                 0.000
REMARK SMILES O=c1ccc2cc(O)ccc2o1
REMARK SMILES IDX 9 1 10 2 11 3 5 4 4 5 3 6 2 7 1 8 12 9 6 10 7 11 8 12
REMARK H PARENT 8 13
REMARK Flexibility Score: inf
ROOT
ATOM      1  C   UNL     1      14.951  -4.392 -14.511  1.00  0.00     0.050 A 
ATOM      2  C   UNL     1      14.273  -3.956 -13.368  1.00  0.00     0.052 A 
ATOM      3  C   UNL     1      13.128  -4.631 -12.932  1.00  0.00     0.138 A 
ATOM      4  C   UNL     1      12.659  -5.753 -13.650  1.00  0.00     0.021 A 
ATOM      5  C   UNL     1      11.511  -6.406 -13.190  1.00  0.00     0.019 A 
ATOM      6  C   UNL     1      10.868  -5.936 -12.045  1.00  0.00     0.094 A 
ATOM      7  C   UNL     1      11.390  -4.818 -11.386  1.00  0.00     0.336 A 
ATOM      8  O   UNL     1      10.824  -4.379 -10.350  1.00  0.00    -0.246 OA
ATOM      9  O   UNL     1      12.484  -4.214 -11.844  1.00  0.00    -0.423 OA
ATOM     10  C   UNL     1      13.342  -6.186 -14.795  1.00  0.00     0.058 A 
ATOM     11  C   UNL     1      14.490  -5.504 -15.227  1.00  0.00     0.116 A 
ENDROOT
BRANCH  11  12
ATOM     12  O   UNL     1      15.178  -5.922 -16.363  1.00  0.00    -0.508 OA
ATOM     13  H   UNL     1      15.089  -6.867 -16.718  1.00  0.00     0.293 HD
ENDBRANCH  11  12
TORSDOF 1
ENDMDL
MODEL 8
REMARK VINA RESULT:    -6.286      0.910      4.775
REMARK INTER + INTRA:          -6.469
REMARK INTER:                  -6.469
REMARK INTRA:                   0.000
REMARK UNBOUND:                 0.000
REMARK SMILES O=c1ccc2cc(O)ccc2o1
REMARK SMILES IDX 9 1 10 2 11 3 5 4 4 5 3 6 2 7 1 8 12 9 6 10 7 11 8 12
REMARK H PARENT 8 13
REMARK Flexibility Score: inf
ROOT
ATOM      1  C   UNL     1      -2.074   4.190 -11.830  1.00  0.00     0.050 A 
ATOM      2  C   UNL     1      -1.210   4.393 -10.749  1.00  0.00     0.052 A 
ATOM      3  C   UNL     1      -1.544   5.310  -9.747  1.00  0.00     0.138 A 
ATOM      4  C   UNL     1      -2.756   6.030  -9.830  1.00  0.00     0.021 A 
ATOM      5  C   UNL     1      -3.062   6.939  -8.813  1.00  0.00     0.019 A 
ATOM      6  C   UNL     1      -2.170   7.110  -7.755  1.00  0.00     0.094 A 
ATOM      7  C   UNL     1      -0.987   6.362  -7.740  1.00  0.00     0.336 A 
ATOM      8  O   UNL     1      -0.169   6.502  -6.793  1.00  0.00    -0.246 OA
ATOM      9  O   UNL     1      -0.719   5.503  -8.720  1.00  0.00    -0.423 OA
ATOM     10  C   UNL     1      -3.620   5.822 -10.915  1.00  0.00     0.058 A 
ATOM     11  C   UNL     1      -3.278   4.900 -11.917  1.00  0.00     0.116 A 
ENDROOT
BRANCH  11  12
ATOM     12  O   UNL     1      -4.125   4.684 -13.001  1.00  0.00    -0.508 OA
ATOM     13  H   UNL     1      -3.822   4.158 -13.813  1.00  0.00     0.293 HD
ENDBRANCH  11  12
TORSDOF 1
ENDMDL
MODEL 9
REMARK VINA RESULT:    -6.244     17.318     18.663
REMARK INTER + INTRA:          -6.426
REMARK INTER:                  -6.426
REMARK INTRA:                   0.000
REMARK UNBOUND:                 0.000
REMARK SMILES O=c1ccc2cc(O)ccc2o1
REMARK SMILES IDX 9 1 10 2 11 3 5 4 4 5 3 6 2 7 1 8 12 9 6 10 7 11 8 12
REMARK H PARENT 8 13
REMARK Flexibility Score: inf
ROOT
ATOM      1  C   UNL     1      11.078  -4.744 -11.220  1.00  0.00     0.050 A 
ATOM      2  C   UNL     1      12.012  -3.766 -11.576  1.00  0.00     0.052 A 
ATOM      3  C   UNL     1      12.941  -4.019 -12.591  1.00  0.00     0.138 A 
ATOM      4  C   UNL     1      12.931  -5.265 -13.255  1.00  0.00     0.021 A 
ATOM      5  C   UNL     1      13.872  -5.489 -14.265  1.00  0.00     0.019 A 
ATOM      6  C   UNL     1      14.784  -4.485 -14.586  1.00  0.00     0.094 A 
ATOM      7  C   UNL     1      14.734  -3.275 -13.885  1.00  0.00     0.336 A 
ATOM      8  O   UNL     1      15.550  -2.356 -14.161  1.00  0.00    -0.246 OA
ATOM      9  O   UNL     1      13.829  -3.087 -12.928  1.00  0.00    -0.423 OA
ATOM     10  C   UNL     1      11.992  -6.243 -12.895  1.00  0.00     0.058 A 
ATOM     11  C   UNL     1      11.064  -5.981 -11.876  1.00  0.00     0.116 A 
ENDROOT
BRANCH  11  12
ATOM     12  O   UNL     1      10.127  -6.943 -11.507  1.00  0.00    -0.508 OA
ATOM     13  H   UNL     1      10.407  -7.823 -11.089  1.00  0.00     0.293 HD
ENDBRANCH  11  12
TORSDOF 1
ENDMDL
