MODEL 1
REMARK VINA RESULT:    -4.206      0.000      0.000
REMARK INTER + INTRA:          -6.822
REMARK INTER:                  -6.050
REMARK INTRA:                  -0.772
REMARK UNBOUND:                -0.772
REMARK SMILES O=C(CO)[C@H](O)[C@@H](O)[C@H](O)CO
REMARK SMILES IDX 7 1 9 2 11 3 12 4 10 6 5 8 2 9 1 10 3 11 4 12 6 14 8 16
REMARK H PARENT 12 5 10 7 4 13 6 15 8 17
REMARK Flexibility Score: inf
ROOT
ATOM      1  C   UNL     1      81.949  -6.266 -13.810  1.00  0.00     0.181 C 
ENDROOT
BRANCH   1   2
ATOM      2  C   UNL     1      82.505  -6.189 -15.256  1.00  0.00     0.171 C 
BRANCH   2   3
ATOM      3  C   UNL     1      83.903  -6.811 -15.413  1.00  0.00     0.190 C 
BRANCH   3   4
ATOM      4  O   UNL     1      84.361  -7.339 -14.196  1.00  0.00    -0.394 OA
ATOM      5  H   UNL     1      84.871  -6.618 -13.742  1.00  0.00     0.210 HD
ENDBRANCH   3   4
ENDBRANCH   2   3
BRANCH   2   6
ATOM      6  O   UNL     1      81.627  -6.854 -16.132  1.00  0.00    -0.388 OA
ATOM      7  H   UNL     1      81.980  -6.728 -17.052  1.00  0.00     0.211 HD
ENDBRANCH   2   6
ENDBRANCH   1   2
BRANCH   1   8
ATOM      8  C   UNL     1      82.106  -4.932 -13.029  1.00  0.00     0.214 C 
BRANCH   8   9
ATOM      9  C   UNL     1      81.383  -3.794 -13.722  1.00  0.00     0.189 C 
ATOM     10  O   UNL     1      80.200  -3.930 -14.001  1.00  0.00    -0.294 OA
BRANCH   9  11
ATOM     11  C   UNL     1      82.088  -2.507 -14.080  1.00  0.00     0.234 C 
BRANCH  11  12
ATOM     12  O   UNL     1      82.342  -1.731 -12.940  1.00  0.00    -0.388 OA
ATOM     13  H   UNL     1      81.459  -1.432 -12.598  1.00  0.00     0.211 HD
ENDBRANCH  11  12
ENDBRANCH   9  11
ENDBRANCH   8   9
BRANCH   8  14
ATOM     14  O   UNL     1      83.460  -4.623 -12.798  1.00  0.00    -0.382 OA
ATOM     15  H   UNL     1      83.900  -5.432 -12.429  1.00  0.00     0.211 HD
ENDBRANCH   8  14
ENDBRANCH   1   8
BRANCH   1  16
ATOM     16  O   UNL     1      80.590  -6.626 -13.870  1.00  0.00    -0.387 OA
ATOM     17  H   UNL     1      80.089  -5.836 -14.203  1.00  0.00     0.211 HD
ENDBRANCH   1  16
TORSDOF 10
ENDMDL
MODEL 2
REMARK VINA RESULT:    -3.995      1.810      2.512
REMARK INTER + INTRA:          -6.519
REMARK INTER:                  -5.679
REMARK INTRA:                  -0.840
REMARK UNBOUND:                -0.772
REMARK SMILES O=C(CO)[C@H](O)[C@@H](O)[C@H](O)CO
REMARK SMILES IDX 7 1 9 2 11 3 12 4 10 6 5 8 2 9 1 10 3 11 4 12 6 14 8 16
REMARK H PARENT 12 5 10 7 4 13 6 15 8 17
REMARK Flexibility Score: inf
ROOT
ATOM      1  C   UNL     1      83.606  -5.950 -15.416  1.00  0.00     0.181 C 
ENDROOT
BRANCH   1   2
ATOM      2  C   UNL     1      82.900  -4.887 -16.297  1.00  0.00     0.171 C 
BRANCH   2   3
ATOM      3  C   UNL     1      83.785  -4.339 -17.430  1.00  0.00     0.190 C 
BRANCH   3   4
ATOM      4  O   UNL     1      84.386  -5.382 -18.151  1.00  0.00    -0.394 OA
ATOM      5  H   UNL     1      84.958  -4.961 -18.845  1.00  0.00     0.210 HD
ENDBRANCH   3   4
ENDBRANCH   2   3
BRANCH   2   6
ATOM      6  O   UNL     1      81.745  -5.447 -16.873  1.00  0.00    -0.388 OA
ATOM      7  H   UNL     1      81.812  -5.312 -17.854  1.00  0.00     0.211 HD
ENDBRANCH   2   6
ENDBRANCH   1   2
BRANCH   1   8
ATOM      8  C   UNL     1      83.300  -5.784 -13.902  1.00  0.00     0.214 C 
BRANCH   8   9
ATOM      9  C   UNL     1      81.812  -5.642 -13.648  1.00  0.00     0.189 C 
ATOM     10  O   UNL     1      81.050  -6.469 -14.130  1.00  0.00    -0.294 OA
BRANCH   9  11
ATOM     11  C   UNL     1      81.252  -4.506 -12.824  1.00  0.00     0.234 C 
BRANCH  11  12
ATOM     12  O   UNL     1      81.446  -3.272 -13.461  1.00  0.00    -0.388 OA
ATOM     13  H   UNL     1      81.192  -3.400 -14.413  1.00  0.00     0.211 HD
ENDBRANCH  11  12
ENDBRANCH   9  11
ENDBRANCH   8   9
BRANCH   8  14
ATOM     14  O   UNL     1      84.026  -4.715 -13.341  1.00  0.00    -0.382 OA
ATOM     15  H   UNL     1      84.937  -5.045 -13.124  1.00  0.00     0.211 HD
ENDBRANCH   8  14
ENDBRANCH   1   8
BRANCH   1  16
ATOM     16  O   UNL     1      83.203  -7.228 -15.846  1.00  0.00    -0.387 OA
ATOM     17  H   UNL     1      82.803  -7.125 -16.748  1.00  0.00     0.211 HD
ENDBRANCH   1  16
TORSDOF 10
ENDMDL
MODEL 3
REMARK VINA RESULT:    -3.984      1.784      2.504
REMARK INTER + INTRA:          -6.503
REMARK INTER:                  -5.041
REMARK INTRA:                  -1.463
REMARK UNBOUND:                -0.772
REMARK SMILES O=C(CO)[C@H](O)[C@@H](O)[C@H](O)CO
REMARK SMILES IDX 7 1 9 2 11 3 12 4 10 6 5 8 2 9 1 10 3 11 4 12 6 14 8 16
REMARK H PARENT 12 5 10 7 4 13 6 15 8 17
REMARK Flexibility Score: inf
ROOT
ATOM      1  C   UNL     1      82.509  -4.694 -14.649  1.00  0.00     0.181 C 
ENDROOT
BRANCH   1   2
ATOM      2  C   UNL     1      83.499  -5.320 -13.633  1.00  0.00     0.171 C 
BRANCH   2   3
ATOM      3  C   UNL     1      84.076  -6.671 -14.089  1.00  0.00     0.190 C 
BRANCH   3   4
ATOM      4  O   UNL     1      83.535  -7.062 -15.323  1.00  0.00    -0.394 OA
ATOM      5  H   UNL     1      84.182  -6.784 -16.023  1.00  0.00     0.210 HD
ENDBRANCH   3   4
ENDBRANCH   2   3
BRANCH   2   6
ATOM      6  O   UNL     1      84.570  -4.435 -13.415  1.00  0.00    -0.388 OA
ATOM      7  H   UNL     1      85.389  -4.987 -13.308  1.00  0.00     0.211 HD
ENDBRANCH   2   6
ENDBRANCH   1   2
BRANCH   1   8
ATOM      8  C   UNL     1      81.670  -3.534 -14.044  1.00  0.00     0.214 C 
BRANCH   8   9
ATOM      9  C   UNL     1      81.808  -2.263 -14.859  1.00  0.00     0.189 C 
ATOM     10  O   UNL     1      81.151  -2.146 -15.883  1.00  0.00    -0.294 OA
BRANCH   9  11
ATOM     11  C   UNL     1      82.739  -1.150 -14.441  1.00  0.00     0.234 C 
BRANCH  11  12
ATOM     12  O   UNL     1      84.030  -1.635 -14.182  1.00  0.00    -0.388 OA
ATOM     13  H   UNL     1      83.984  -2.115 -13.314  1.00  0.00     0.211 HD
ENDBRANCH  11  12
ENDBRANCH   9  11
ENDBRANCH   8   9
BRANCH   8  14
ATOM     14  O   UNL     1      81.987  -3.319 -12.688  1.00  0.00    -0.382 OA
ATOM     15  H   UNL     1      81.220  -3.631 -12.141  1.00  0.00     0.211 HD
ENDBRANCH   8  14
ENDBRANCH   1   8
BRANCH   1  16
ATOM     16  O   UNL     1      83.239  -4.225 -15.757  1.00  0.00    -0.387 OA
ATOM     17  H   UNL     1      84.203  -4.315 -15.535  1.00  0.00     0.211 HD
ENDBRANCH   1  16
TORSDOF 10
ENDMDL
MODEL 4
REMARK VINA RESULT:    -3.974      1.767      2.189
REMARK INTER + INTRA:          -6.488
REMARK INTER:                  -5.460
REMARK INTRA:                  -1.029
REMARK UNBOUND:                -0.772
REMARK SMILES O=C(CO)[C@H](O)[C@@H](O)[C@H](O)CO
REMARK SMILES IDX 7 1 9 2 11 3 12 4 10 6 5 8 2 9 1 10 3 11 4 12 6 14 8 16
REMARK H PARENT 12 5 10 7 4 13 6 15 8 17
REMARK Flexibility Score: inf
ROOT
ATOM      1  C   UNL     1      81.918  -6.089 -15.265  1.00  0.00     0.181 C 
ENDROOT
BRANCH   1   2
ATOM      2  C   UNL     1      83.452  -6.306 -15.337  1.00  0.00     0.171 C 
BRANCH   2   3
ATOM      3  C   UNL     1      84.099  -6.577 -13.968  1.00  0.00     0.190 C 
BRANCH   3   4
ATOM      4  O   UNL     1      84.514  -5.383 -13.359  1.00  0.00    -0.394 OA
ATOM      5  H   UNL     1      84.916  -5.629 -12.485  1.00  0.00     0.210 HD
ENDBRANCH   3   4
ENDBRANCH   2   3
BRANCH   2   6
ATOM      6  O   UNL     1      83.733  -7.395 -16.180  1.00  0.00    -0.388 OA
ATOM      7  H   UNL     1      83.955  -8.167 -15.597  1.00  0.00     0.211 HD
ENDBRANCH   2   6
ENDBRANCH   1   2
BRANCH   1   8
ATOM      8  C   UNL     1      81.527  -4.620 -14.943  1.00  0.00     0.214 C 
BRANCH   8   9
ATOM      9  C   UNL     1      82.279  -3.638 -15.821  1.00  0.00     0.189 C 
ATOM     10  O   UNL     1      82.267  -3.803 -17.032  1.00  0.00    -0.294 OA
BRANCH   9  11
ATOM     11  C   UNL     1      83.043  -2.475 -15.235  1.00  0.00     0.234 C 
BRANCH  11  12
ATOM     12  O   UNL     1      84.087  -2.915 -14.409  1.00  0.00    -0.388 OA
ATOM     13  H   UNL     1      84.410  -3.773 -14.791  1.00  0.00     0.211 HD
ENDBRANCH  11  12
ENDBRANCH   9  11
ENDBRANCH   8   9
BRANCH   8  14
ATOM     14  O   UNL     1      81.695  -4.328 -13.575  1.00  0.00    -0.382 OA
ATOM     15  H   UNL     1      81.351  -5.098 -13.053  1.00  0.00     0.211 HD
ENDBRANCH   8  14
ENDBRANCH   1   8
BRANCH   1  16
ATOM     16  O   UNL     1      81.353  -6.472 -16.496  1.00  0.00    -0.387 OA
ATOM     17  H   UNL     1      80.381  -6.608 -16.346  1.00  0.00     0.211 HD
ENDBRANCH   1  16
TORSDOF 10
ENDMDL
MODEL 5
REMARK VINA RESULT:    -3.962      3.079      4.185
REMARK INTER + INTRA:          -6.471
REMARK INTER:                  -5.481
REMARK INTRA:                  -0.990
REMARK UNBOUND:                -0.772
REMARK SMILES O=C(CO)[C@H](O)[C@@H](O)[C@H](O)CO
REMARK SMILES IDX 7 1 9 2 11 3 12 4 10 6 5 8 2 9 1 10 3 11 4 12 6 14 8 16
REMARK H PARENT 12 5 10 7 4 13 6 15 8 17
REMARK Flexibility Score: inf
ROOT
ATOM      1  C   UNL     1      82.723  -5.272 -16.074  1.00  0.00     0.181 C 
ENDROOT
BRANCH   1   2
ATOM      2  C   UNL     1      83.659  -6.244 -15.309  1.00  0.00     0.171 C 
BRANCH   2   3
ATOM      3  C   UNL     1      83.231  -6.491 -13.852  1.00  0.00     0.190 C 
BRANCH   3   4
ATOM      4  O   UNL     1      81.972  -7.107 -13.792  1.00  0.00    -0.394 OA
ATOM      5  H   UNL     1      81.352  -6.455 -13.371  1.00  0.00     0.210 HD
ENDBRANCH   3   4
ENDBRANCH   2   3
BRANCH   2   6
ATOM      6  O   UNL     1      83.693  -7.484 -15.974  1.00  0.00    -0.388 OA
ATOM      7  H   UNL     1      83.021  -8.069 -15.536  1.00  0.00     0.211 HD
ENDBRANCH   2   6
ENDBRANCH   1   2
BRANCH   1   8
ATOM      8  C   UNL     1      83.428  -4.562 -17.264  1.00  0.00     0.214 C 
BRANCH   8   9
ATOM      9  C   UNL     1      82.424  -4.034 -18.270  1.00  0.00     0.189 C 
ATOM     10  O   UNL     1      81.435  -3.443 -17.861  1.00  0.00    -0.294 OA
BRANCH   9  11
ATOM     11  C   UNL     1      82.613  -4.228 -19.756  1.00  0.00     0.234 C 
BRANCH  11  12
ATOM     12  O   UNL     1      83.888  -3.811 -20.166  1.00  0.00    -0.388 OA
ATOM     13  H   UNL     1      83.862  -3.752 -21.157  1.00  0.00     0.211 HD
ENDBRANCH  11  12
ENDBRANCH   9  11
ENDBRANCH   8   9
BRANCH   8  14
ATOM     14  O   UNL     1      84.383  -5.399 -17.873  1.00  0.00    -0.382 OA
ATOM     15  H   UNL     1      84.934  -5.808 -17.156  1.00  0.00     0.211 HD
ENDBRANCH   8  14
ENDBRANCH   1   8
BRANCH   1  16
ATOM     16  O   UNL     1      81.611  -5.997 -16.544  1.00  0.00    -0.387 OA
ATOM     17  H   UNL     1      81.813  -6.277 -17.474  1.00  0.00     0.211 HD
ENDBRANCH   1  16
TORSDOF 10
ENDMDL
MODEL 6
REMARK VINA RESULT:    -3.922      1.512      3.712
REMARK INTER + INTRA:          -6.413
REMARK INTER:                  -5.347
REMARK INTRA:                  -1.067
REMARK UNBOUND:                -0.772
REMARK SMILES O=C(CO)[C@H](O)[C@@H](O)[C@H](O)CO
REMARK SMILES IDX 7 1 9 2 11 3 12 4 10 6 5 8 2 9 1 10 3 11 4 12 6 14 8 16
REMARK H PARENT 12 5 10 7 4 13 6 15 8 17
REMARK Flexibility Score: inf
ROOT
ATOM      1  C   UNL     1      81.099  -4.603 -14.015  1.00  0.00     0.181 C 
ENDROOT
BRANCH   1   2
ATOM      2  C   UNL     1      81.487  -4.263 -15.478  1.00  0.00     0.171 C 
BRANCH   2   3
ATOM      3  C   UNL     1      80.618  -4.978 -16.527  1.00  0.00     0.190 C 
BRANCH   3   4
ATOM      4  O   UNL     1      81.065  -6.289 -16.746  1.00  0.00    -0.394 OA
ATOM      5  H   UNL     1      80.326  -6.895 -16.475  1.00  0.00     0.210 HD
ENDBRANCH   3   4
ENDBRANCH   2   3
BRANCH   2   6
ATOM      6  O   UNL     1      81.374  -2.876 -15.684  1.00  0.00    -0.388 OA
ATOM      7  H   UNL     1      81.890  -2.431 -14.961  1.00  0.00     0.211 HD
ENDBRANCH   2   6
ENDBRANCH   1   2
BRANCH   1   8
ATOM      8  C   UNL     1      81.918  -5.786 -13.430  1.00  0.00     0.214 C 
BRANCH   8   9
ATOM      9  C   UNL     1      83.386  -5.683 -13.797  1.00  0.00     0.189 C 
ATOM     10  O   UNL     1      83.978  -4.637 -13.570  1.00  0.00    -0.294 OA
BRANCH   9  11
ATOM     11  C   UNL     1      84.126  -6.832 -14.441  1.00  0.00     0.234 C 
BRANCH  11  12
ATOM     12  O   UNL     1      83.585  -7.147 -15.696  1.00  0.00    -0.388 OA
ATOM     13  H   UNL     1      84.047  -7.970 -16.005  1.00  0.00     0.211 HD
ENDBRANCH  11  12
ENDBRANCH   9  11
ENDBRANCH   8   9
BRANCH   8  14
ATOM     14  O   UNL     1      81.375  -7.030 -13.808  1.00  0.00    -0.382 OA
ATOM     15  H   UNL     1      80.608  -6.857 -14.414  1.00  0.00     0.211 HD
ENDBRANCH   8  14
ENDBRANCH   1   8
BRANCH   1  16
ATOM     16  O   UNL     1      81.288  -3.455 -13.223  1.00  0.00    -0.387 OA
ATOM     17  H   UNL     1      81.435  -2.691 -13.839  1.00  0.00     0.211 HD
ENDBRANCH   1  16
TORSDOF 10
ENDMDL
MODEL 7
REMARK VINA RESULT:    -3.827      1.405      4.680
REMARK INTER + INTRA:          -6.277
REMARK INTER:                  -5.551
REMARK INTRA:                  -0.725
REMARK UNBOUND:                -0.772
REMARK SMILES O=C(CO)[C@H](O)[C@@H](O)[C@H](O)CO
REMARK SMILES IDX 7 1 9 2 11 3 12 4 10 6 5 8 2 9 1 10 3 11 4 12 6 14 8 16
REMARK H PARENT 12 5 10 7 4 13 6 15 8 17
REMARK Flexibility Score: inf
ROOT
ATOM      1  C   UNL     1      82.090  -3.264 -14.435  1.00  0.00     0.181 C 
ENDROOT
BRANCH   1   2
ATOM      2  C   UNL     1      82.536  -1.807 -14.142  1.00  0.00     0.171 C 
BRANCH   2   3
ATOM      3  C   UNL     1      81.782  -0.755 -14.974  1.00  0.00     0.190 C 
BRANCH   3   4
ATOM      4  O   UNL     1      80.394  -0.924 -14.866  1.00  0.00    -0.394 OA
ATOM      5  H   UNL     1      80.141  -1.645 -15.500  1.00  0.00     0.210 HD
ENDBRANCH   3   4
ENDBRANCH   2   3
BRANCH   2   6
ATOM      6  O   UNL     1      82.334  -1.519 -12.781  1.00  0.00    -0.388 OA
ATOM      7  H   UNL     1      82.079  -0.561 -12.719  1.00  0.00     0.211 HD
ENDBRANCH   2   6
ENDBRANCH   1   2
BRANCH   1   8
ATOM      8  C   UNL     1      83.199  -4.310 -14.134  1.00  0.00     0.214 C 
BRANCH   8   9
ATOM      9  C   UNL     1      82.896  -5.645 -14.785  1.00  0.00     0.189 C 
ATOM     10  O   UNL     1      81.790  -5.823 -15.277  1.00  0.00    -0.294 OA
BRANCH   9  11
ATOM     11  C   UNL     1      83.919  -6.755 -14.832  1.00  0.00     0.234 C 
BRANCH  11  12
ATOM     12  O   UNL     1      83.795  -7.513 -16.006  1.00  0.00    -0.388 OA
ATOM     13  H   UNL     1      83.225  -6.986 -16.626  1.00  0.00     0.211 HD
ENDBRANCH  11  12
ENDBRANCH   9  11
ENDBRANCH   8   9
BRANCH   8  14
ATOM     14  O   UNL     1      83.421  -4.445 -12.750  1.00  0.00    -0.382 OA
ATOM     15  H   UNL     1      82.995  -3.674 -12.294  1.00  0.00     0.211 HD
ENDBRANCH   8  14
ENDBRANCH   1   8
BRANCH   1  16
ATOM     16  O   UNL     1      80.948  -3.547 -13.663  1.00  0.00    -0.387 OA
ATOM     17  H   UNL     1      80.228  -2.933 -13.963  1.00  0.00     0.211 HD
ENDBRANCH   1  16
TORSDOF 10
ENDMDL
MODEL 8
REMARK VINA RESULT:    -3.824      1.850      4.540
REMARK INTER + INTRA:          -6.273
REMARK INTER:                  -4.848
REMARK INTRA:                  -1.425
REMARK UNBOUND:                -0.772
REMARK SMILES O=C(CO)[C@H](O)[C@@H](O)[C@H](O)CO
REMARK SMILES IDX 7 1 9 2 11 3 12 4 10 6 5 8 2 9 1 10 3 11 4 12 6 14 8 16
REMARK H PARENT 12 5 10 7 4 13 6 15 8 17
REMARK Flexibility Score: inf
ROOT
ATOM      1  C   UNL     1      81.987  -2.575 -14.241  1.00  0.00     0.181 C 
ENDROOT
BRANCH   1   2
ATOM      2  C   UNL     1      83.062  -1.563 -14.717  1.00  0.00     0.171 C 
BRANCH   2   3
ATOM      3  C   UNL     1      82.866  -0.146 -14.152  1.00  0.00     0.190 C 
BRANCH   3   4
ATOM      4  O   UNL     1      81.523   0.084 -13.816  1.00  0.00    -0.394 OA
ATOM      5  H   UNL     1      81.196   0.809 -14.409  1.00  0.00     0.210 HD
ENDBRANCH   3   4
ENDBRANCH   2   3
BRANCH   2   6
ATOM      6  O   UNL     1      84.337  -2.017 -14.335  1.00  0.00    -0.388 OA
ATOM      7  H   UNL     1      84.378  -1.973 -13.343  1.00  0.00     0.211 HD
ENDBRANCH   2   6
ENDBRANCH   1   2
BRANCH   1   8
ATOM      8  C   UNL     1      82.117  -3.964 -14.925  1.00  0.00     0.214 C 
BRANCH   8   9
ATOM      9  C   UNL     1      82.353  -5.065 -13.910  1.00  0.00     0.189 C 
ATOM     10  O   UNL     1      81.403  -5.483 -13.262  1.00  0.00    -0.294 OA
BRANCH   9  11
ATOM     11  C   UNL     1      83.727  -5.648 -13.676  1.00  0.00     0.234 C 
BRANCH  11  12
ATOM     12  O   UNL     1      84.649  -4.652 -13.320  1.00  0.00    -0.388 OA
ATOM     13  H   UNL     1      84.974  -4.250 -14.169  1.00  0.00     0.211 HD
ENDBRANCH  11  12
ENDBRANCH   9  11
ENDBRANCH   8   9
BRANCH   8  14
ATOM     14  O   UNL     1      83.109  -3.958 -15.925  1.00  0.00    -0.382 OA
ATOM     15  H   UNL     1      83.312  -3.013 -16.150  1.00  0.00     0.211 HD
ENDBRANCH   8  14
ENDBRANCH   1   8
BRANCH   1  16
ATOM     16  O   UNL     1      82.096  -2.720 -12.845  1.00  0.00    -0.387 OA
ATOM     17  H   UNL     1      81.205  -2.995 -12.506  1.00  0.00     0.211 HD
ENDBRANCH   1  16
TORSDOF 10
ENDMDL
