MODEL 1
REMARK VINA RESULT:    -6.120      0.000      0.000
REMARK INTER + INTRA:          -8.133
REMARK INTER:                  -8.445
REMARK INTRA:                   0.312
REMARK UNBOUND:                 0.312
REMARK SMILES CC[C@H](CC[C@H](C)[C@H]1CC[C@H]2[C@@H]3CC=C4C[C@H](O)CC[C@]4(C)[C@@H]3CC[C@]12C)C(C)C
REMARK SMILES IDX 5 1 4 2 3 3 2 4 1 5 28 6 29 7 30 8 6 9 7 10 8 11 9 12 26 13
REMARK SMILES IDX 10 14 11 15 25 16 27 17 12 18 24 19 23 20 13 21 21 22 14 23
REMARK SMILES IDX 15 24 20 25 22 26 16 27 19 28 17 29 18 30
REMARK H PARENT 18 31
REMARK Flexibility Score: inf
ROOT
ATOM      1  C   UNL     1      -2.538   9.352   8.174  1.00  0.00     0.004 C 
ENDROOT
BRANCH   1   2
ATOM      2  C   UNL     1      -3.018   9.069   9.619  1.00  0.00     0.004 C 
BRANCH   2   3
ATOM      3  C   UNL     1      -3.125  10.346  10.512  1.00  0.00    -0.009 C 
BRANCH   3   4
ATOM      4  C   UNL     1      -2.292  10.196  11.818  1.00  0.00     0.000 C 
ATOM      5  C   UNL     1      -3.106   9.599  12.967  1.00  0.00     0.004 C 
ENDBRANCH   3   4
BRANCH   3   6
ATOM      6  C   UNL     1      -2.753  11.660   9.744  1.00  0.00    -0.014 C 
ATOM      7  C   UNL     1      -3.123  12.955  10.496  1.00  0.00     0.007 C 
ATOM      8  C   UNL     1      -1.265  11.683   9.355  1.00  0.00     0.007 C 
ENDBRANCH   3   6
ENDBRANCH   2   3
ENDBRANCH   1   2
BRANCH   1   9
ATOM      9  C   UNL     1      -2.076   8.116   7.356  1.00  0.00    -0.011 C 
ATOM     10  C   UNL     1      -1.341   7.124   8.289  1.00  0.00     0.008 C 
BRANCH   9  11
ATOM     11  C   UNL     1      -1.134   8.519   6.166  1.00  0.00    -0.002 C 
ATOM     12  C   UNL     1      -1.275   7.552   4.960  1.00  0.00     0.005 C 
ATOM     13  C   UNL     1      -1.299   9.935   5.520  1.00  0.00    -0.026 C 
ATOM     14  C   UNL     1      -1.006   8.358   3.689  1.00  0.00     0.005 C 
ATOM     15  C   UNL     1      -0.555   9.725   4.189  1.00  0.00    -0.001 C 
ATOM     16  C   UNL     1      -0.600  11.103   6.279  1.00  0.00     0.007 C 
ATOM     17  C   UNL     1      -2.812  10.259   5.313  1.00  0.00     0.012 C 
ATOM     18  C   UNL     1      -0.679  10.921   3.207  1.00  0.00     0.000 C 
ATOM     19  C   UNL     1       0.150  12.111   5.367  1.00  0.00     0.005 C 
ATOM     20  C   UNL     1      -0.500  12.309   3.960  1.00  0.00     0.003 C 
ATOM     21  C   UNL     1       0.281  10.714   1.997  1.00  0.00     0.031 C 
ATOM     22  C   UNL     1       0.218  13.401   3.068  1.00  0.00    -0.008 C 
ATOM     23  C   UNL     1       1.531  11.536   2.075  1.00  0.00    -0.027 C 
ATOM     24  C   UNL     1       1.501  12.813   2.488  1.00  0.00    -0.065 C 
ATOM     25  C   UNL     1       0.584  14.689   3.876  1.00  0.00     0.014 C 
ATOM     26  C   UNL     1      -0.742  13.825   1.921  1.00  0.00     0.016 C 
ATOM     27  C   UNL     1       2.778  13.625   2.507  1.00  0.00     0.063 C 
ATOM     28  C   UNL     1       1.389  15.722   3.058  1.00  0.00     0.033 C 
ATOM     29  C   UNL     1       2.479  15.093   2.152  1.00  0.00     0.118 C 
BRANCH  29  30
ATOM     30  O   UNL     1       3.656  15.854   2.241  1.00  0.00    -0.393 OA
ATOM     31  H   UNL     1       4.001  15.962   1.317  1.00  0.00     0.210 HD
ENDBRANCH  29  30
ENDBRANCH   9  11
ENDBRANCH   1   9
TORSDOF 7
ENDMDL
MODEL 2
REMARK VINA RESULT:    -5.918      2.718      3.955
REMARK INTER + INTRA:          -7.855
REMARK INTER:                  -6.860
REMARK INTRA:                  -0.995
REMARK UNBOUND:                 0.312
REMARK SMILES CC[C@H](CC[C@H](C)[C@H]1CC[C@H]2[C@@H]3CC=C4C[C@H](O)CC[C@]4(C)[C@@H]3CC[C@]12C)C(C)C
REMARK SMILES IDX 5 1 4 2 3 3 2 4 1 5 28 6 29 7 30 8 6 9 7 10 8 11 9 12 26 13
REMARK SMILES IDX 10 14 11 15 25 16 27 17 12 18 24 19 23 20 13 21 21 22 14 23
REMARK SMILES IDX 15 24 20 25 22 26 16 27 19 28 17 29 18 30
REMARK H PARENT 18 31
REMARK Flexibility Score: inf
ROOT
ATOM      1  C   UNL     1      -1.540   9.267   6.899  1.00  0.00     0.004 C 
ENDROOT
BRANCH   1   2
ATOM      2  C   UNL     1      -2.893   9.828   7.402  1.00  0.00     0.004 C 
BRANCH   2   3
ATOM      3  C   UNL     1      -2.950  10.054   8.946  1.00  0.00    -0.009 C 
BRANCH   3   4
ATOM      4  C   UNL     1      -2.440   8.805   9.722  1.00  0.00     0.000 C 
ATOM      5  C   UNL     1      -3.119   8.643  11.083  1.00  0.00     0.004 C 
ENDBRANCH   3   4
BRANCH   3   6
ATOM      6  C   UNL     1      -2.203  11.353   9.400  1.00  0.00    -0.014 C 
ATOM      7  C   UNL     1      -2.227  12.490   8.359  1.00  0.00     0.007 C 
ATOM      8  C   UNL     1      -2.729  11.864  10.752  1.00  0.00     0.007 C 
ENDBRANCH   3   6
ENDBRANCH   2   3
ENDBRANCH   1   2
BRANCH   1   9
ATOM      9  C   UNL     1      -1.123   9.680   5.462  1.00  0.00    -0.011 C 
ATOM     10  C   UNL     1      -0.161   8.619   4.878  1.00  0.00     0.008 C 
BRANCH   9  11
ATOM     11  C   UNL     1      -0.435  11.092   5.433  1.00  0.00    -0.002 C 
ATOM     12  C   UNL     1       1.035  11.011   4.944  1.00  0.00     0.005 C 
ATOM     13  C   UNL     1      -1.056  12.215   4.538  1.00  0.00    -0.026 C 
ATOM     14  C   UNL     1       1.355  12.323   4.226  1.00  0.00     0.005 C 
ATOM     15  C   UNL     1       0.127  13.195   4.456  1.00  0.00    -0.001 C 
ATOM     16  C   UNL     1      -2.264  12.977   5.162  1.00  0.00     0.007 C 
ATOM     17  C   UNL     1      -1.450  11.636   3.143  1.00  0.00     0.012 C 
ATOM     18  C   UNL     1      -0.103  14.375   3.474  1.00  0.00     0.000 C 
ATOM     19  C   UNL     1      -2.235  14.516   4.960  1.00  0.00     0.005 C 
ATOM     20  C   UNL     1      -1.569  14.973   3.622  1.00  0.00     0.003 C 
ATOM     21  C   UNL     1       1.040  15.422   3.626  1.00  0.00     0.031 C 
ATOM     22  C   UNL     1      -1.619  16.536   3.380  1.00  0.00    -0.008 C 
ATOM     23  C   UNL     1       0.642  16.636   4.411  1.00  0.00    -0.027 C 
ATOM     24  C   UNL     1      -0.557  17.214   4.242  1.00  0.00    -0.065 C 
ATOM     25  C   UNL     1      -3.011  17.153   3.735  1.00  0.00     0.014 C 
ATOM     26  C   UNL     1      -1.349  16.822   1.876  1.00  0.00     0.016 C 
ATOM     27  C   UNL     1      -0.903  18.465   5.019  1.00  0.00     0.063 C 
ATOM     28  C   UNL     1      -3.051  18.692   3.619  1.00  0.00     0.033 C 
ATOM     29  C   UNL     1      -1.781  19.395   4.163  1.00  0.00     0.118 C 
BRANCH  29  30
ATOM     30  O   UNL     1      -2.157  20.521   4.914  1.00  0.00    -0.393 OA
ATOM     31  H   UNL     1      -2.886  20.972   4.414  1.00  0.00     0.210 HD
ENDBRANCH  29  30
ENDBRANCH   9  11
ENDBRANCH   1   9
TORSDOF 7
ENDMDL
MODEL 3
REMARK VINA RESULT:    -5.446      3.982      7.315
REMARK INTER + INTRA:          -7.203
REMARK INTER:                  -5.631
REMARK INTRA:                  -1.572
REMARK UNBOUND:                 0.312
REMARK SMILES CC[C@H](CC[C@H](C)[C@H]1CC[C@H]2[C@@H]3CC=C4C[C@H](O)CC[C@]4(C)[C@@H]3CC[C@]12C)C(C)C
REMARK SMILES IDX 5 1 4 2 3 3 2 4 1 5 28 6 29 7 30 8 6 9 7 10 8 11 9 12 26 13
REMARK SMILES IDX 10 14 11 15 25 16 27 17 12 18 24 19 23 20 13 21 21 22 14 23
REMARK SMILES IDX 15 24 20 25 22 26 16 27 19 28 17 29 18 30
REMARK H PARENT 18 31
REMARK Flexibility Score: inf
ROOT
ATOM      1  C   UNL     1      -0.940  18.502   5.801  1.00  0.00     0.004 C 
ENDROOT
BRANCH   1   2
ATOM      2  C   UNL     1      -2.460  18.735   5.977  1.00  0.00     0.004 C 
BRANCH   2   3
ATOM      3  C   UNL     1      -3.013  18.290   7.368  1.00  0.00    -0.009 C 
BRANCH   3   4
ATOM      4  C   UNL     1      -2.347  16.967   7.845  1.00  0.00     0.000 C 
ATOM      5  C   UNL     1      -3.095  15.725   7.357  1.00  0.00     0.004 C 
ENDBRANCH   3   4
BRANCH   3   6
ATOM      6  C   UNL     1      -2.900  19.411   8.456  1.00  0.00    -0.014 C 
ATOM      7  C   UNL     1      -1.907  19.089   9.591  1.00  0.00     0.007 C 
ATOM      8  C   UNL     1      -2.562  20.774   7.829  1.00  0.00     0.007 C 
ENDBRANCH   3   6
ENDBRANCH   2   3
ENDBRANCH   1   2
BRANCH   1   9
ATOM      9  C   UNL     1      -0.488  17.977   4.411  1.00  0.00    -0.011 C 
ATOM     10  C   UNL     1      -0.636  19.102   3.360  1.00  0.00     0.008 C 
BRANCH   9  11
ATOM     11  C   UNL     1      -1.315  16.720   3.961  1.00  0.00    -0.002 C 
ATOM     12  C   UNL     1      -1.932  16.906   2.550  1.00  0.00     0.005 C 
ATOM     13  C   UNL     1      -0.589  15.336   3.863  1.00  0.00    -0.026 C 
ATOM     14  C   UNL     1      -2.007  15.526   1.895  1.00  0.00     0.005 C 
ATOM     15  C   UNL     1      -1.590  14.556   2.993  1.00  0.00    -0.001 C 
ATOM     16  C   UNL     1      -0.428  14.568   5.210  1.00  0.00     0.007 C 
ATOM     17  C   UNL     1       0.800  15.504   3.171  1.00  0.00     0.012 C 
ATOM     18  C   UNL     1      -1.080  13.157   2.553  1.00  0.00     0.000 C 
ATOM     19  C   UNL     1      -0.731  13.048   5.129  1.00  0.00     0.005 C 
ATOM     20  C   UNL     1      -0.372  12.395   3.756  1.00  0.00     0.003 C 
ATOM     21  C   UNL     1      -2.235  12.361   1.875  1.00  0.00     0.031 C 
ATOM     22  C   UNL     1      -0.602  10.830   3.708  1.00  0.00    -0.008 C 
ATOM     23  C   UNL     1      -2.849  11.321   2.762  1.00  0.00    -0.027 C 
ATOM     24  C   UNL     1      -2.093  10.544   3.553  1.00  0.00    -0.065 C 
ATOM     25  C   UNL     1      -0.091  10.110   4.998  1.00  0.00     0.014 C 
ATOM     26  C   UNL     1       0.183  10.243   2.501  1.00  0.00     0.016 C 
ATOM     27  C   UNL     1      -2.747   9.473   4.399  1.00  0.00     0.063 C 
ATOM     28  C   UNL     1      -0.408   8.599   5.027  1.00  0.00     0.033 C 
ATOM     29  C   UNL     1      -1.824   8.245   4.505  1.00  0.00     0.118 C 
BRANCH  29  30
ATOM     30  O   UNL     1      -2.405   7.284   5.349  1.00  0.00    -0.393 OA
ATOM     31  H   UNL     1      -2.673   6.520   4.775  1.00  0.00     0.210 HD
ENDBRANCH  29  30
ENDBRANCH   9  11
ENDBRANCH   1   9
TORSDOF 7
ENDMDL
MODEL 4
REMARK VINA RESULT:    -5.086      3.271      5.847
REMARK INTER + INTRA:          -6.707
REMARK INTER:                  -5.530
REMARK INTRA:                  -1.177
REMARK UNBOUND:                 0.312
REMARK SMILES CC[C@H](CC[C@H](C)[C@H]1CC[C@H]2[C@@H]3CC=C4C[C@H](O)CC[C@]4(C)[C@@H]3CC[C@]12C)C(C)C
REMARK SMILES IDX 5 1 4 2 3 3 2 4 1 5 28 6 29 7 30 8 6 9 7 10 8 11 9 12 26 13
REMARK SMILES IDX 10 14 11 15 25 16 27 17 12 18 24 19 23 20 13 21 21 22 14 23
REMARK SMILES IDX 15 24 20 25 22 26 16 27 19 28 17 29 18 30
REMARK H PARENT 18 31
REMARK Flexibility Score: inf
ROOT
ATOM      1  C   UNL     1      -0.560  10.052   4.469  1.00  0.00     0.004 C 
ENDROOT
BRANCH   1   2
ATOM      2  C   UNL     1      -1.963   9.909   5.109  1.00  0.00     0.004 C 
BRANCH   2   3
ATOM      3  C   UNL     1      -2.214   8.522   5.781  1.00  0.00    -0.009 C 
BRANCH   3   4
ATOM      4  C   UNL     1      -1.670   7.359   4.901  1.00  0.00     0.000 C 
ATOM      5  C   UNL     1      -2.788   6.552   4.239  1.00  0.00     0.004 C 
ENDBRANCH   3   4
BRANCH   3   6
ATOM      6  C   UNL     1      -1.657   8.442   7.242  1.00  0.00    -0.014 C 
ATOM      7  C   UNL     1      -2.544   9.140   8.294  1.00  0.00     0.007 C 
ATOM      8  C   UNL     1      -1.383   6.989   7.664  1.00  0.00     0.007 C 
ENDBRANCH   3   6
ENDBRANCH   2   3
ENDBRANCH   1   2
BRANCH   1   9
ATOM      9  C   UNL     1      -0.505  10.796   3.107  1.00  0.00    -0.011 C 
ATOM     10  C   UNL     1       0.406  10.018   2.129  1.00  0.00     0.008 C 
BRANCH   9  11
ATOM     11  C   UNL     1       0.021  12.268   3.264  1.00  0.00    -0.002 C 
ATOM     12  C   UNL     1       0.868  12.714   2.043  1.00  0.00     0.005 C 
ATOM     13  C   UNL     1      -1.018  13.426   3.432  1.00  0.00    -0.026 C 
ATOM     14  C   UNL     1       0.676  14.222   1.876  1.00  0.00     0.005 C 
ATOM     15  C   UNL     1      -0.138  14.642   3.093  1.00  0.00    -0.001 C 
ATOM     16  C   UNL     1      -1.572  13.624   4.875  1.00  0.00     0.007 C 
ATOM     17  C   UNL     1      -2.196  13.243   2.425  1.00  0.00     0.012 C 
ATOM     18  C   UNL     1      -0.925  15.978   2.999  1.00  0.00     0.000 C 
ATOM     19  C   UNL     1      -1.668  15.104   5.334  1.00  0.00     0.005 C 
ATOM     20  C   UNL     1      -1.978  16.114   4.183  1.00  0.00     0.003 C 
ATOM     21  C   UNL     1       0.070  17.171   2.878  1.00  0.00     0.031 C 
ATOM     22  C   UNL     1      -2.160  17.608   4.669  1.00  0.00    -0.008 C 
ATOM     23  C   UNL     1       0.252  17.932   4.157  1.00  0.00    -0.027 C 
ATOM     24  C   UNL     1      -0.791  18.217   4.954  1.00  0.00    -0.065 C 
ATOM     25  C   UNL     1      -3.028  17.714   5.966  1.00  0.00     0.014 C 
ATOM     26  C   UNL     1      -2.884  18.415   3.555  1.00  0.00     0.016 C 
ATOM     27  C   UNL     1      -0.573  19.029   6.212  1.00  0.00     0.063 C 
ATOM     28  C   UNL     1      -3.125  19.149   6.527  1.00  0.00     0.033 C 
ATOM     29  C   UNL     1      -1.789  19.935   6.476  1.00  0.00     0.118 C 
BRANCH  29  30
ATOM     30  O   UNL     1      -1.611  20.632   7.681  1.00  0.00    -0.393 OA
ATOM     31  H   UNL     1      -2.305  20.305   8.310  1.00  0.00     0.210 HD
ENDBRANCH  29  30
ENDBRANCH   9  11
ENDBRANCH   1   9
TORSDOF 7
ENDMDL
MODEL 5
REMARK VINA RESULT:    -4.343     12.897     16.418
REMARK INTER + INTRA:          -5.682
REMARK INTER:                  -6.069
REMARK INTRA:                   0.388
REMARK UNBOUND:                 0.312
REMARK SMILES CC[C@H](CC[C@H](C)[C@H]1CC[C@H]2[C@@H]3CC=C4C[C@H](O)CC[C@]4(C)[C@@H]3CC[C@]12C)C(C)C
REMARK SMILES IDX 5 1 4 2 3 3 2 4 1 5 28 6 29 7 30 8 6 9 7 10 8 11 9 12 26 13
REMARK SMILES IDX 10 14 11 15 25 16 27 17 12 18 24 19 23 20 13 21 21 22 14 23
REMARK SMILES IDX 15 24 20 25 22 26 16 27 19 28 17 29 18 30
REMARK H PARENT 18 31
REMARK Flexibility Score: inf
ROOT
ATOM      1  C   UNL     1       8.819  18.921  17.839  1.00  0.00     0.004 C 
ENDROOT
BRANCH   1   2
ATOM      2  C   UNL     1       9.008  20.210  18.675  1.00  0.00     0.004 C 
BRANCH   2   3
ATOM      3  C   UNL     1       7.669  20.876  19.125  1.00  0.00    -0.009 C 
BRANCH   3   4
ATOM      4  C   UNL     1       6.485  20.440  18.213  1.00  0.00     0.000 C 
ATOM      5  C   UNL     1       5.171  21.125  18.592  1.00  0.00     0.004 C 
ENDBRANCH   3   4
BRANCH   3   6
ATOM      6  C   UNL     1       7.344  20.632  20.637  1.00  0.00    -0.014 C 
ATOM      7  C   UNL     1       6.989  19.170  20.978  1.00  0.00     0.007 C 
ATOM      8  C   UNL     1       8.484  21.123  21.545  1.00  0.00     0.007 C 
ENDBRANCH   3   6
ENDBRANCH   2   3
ENDBRANCH   1   2
BRANCH   1   9
ATOM      9  C   UNL     1       8.893  17.583  18.622  1.00  0.00    -0.011 C 
ATOM     10  C   UNL     1      10.081  16.742  18.100  1.00  0.00     0.008 C 
BRANCH   9  11
ATOM     11  C   UNL     1       7.563  16.756  18.497  1.00  0.00    -0.002 C 
ATOM     12  C   UNL     1       6.447  17.556  17.777  1.00  0.00     0.005 C 
ATOM     13  C   UNL     1       7.593  15.394  17.725  1.00  0.00    -0.026 C 
ATOM     14  C   UNL     1       5.568  16.551  17.029  1.00  0.00     0.005 C 
ATOM     15  C   UNL     1       6.091  15.188  17.464  1.00  0.00    -0.001 C 
ATOM     16  C   UNL     1       8.107  14.172  18.544  1.00  0.00     0.007 C 
ATOM     17  C   UNL     1       8.414  15.541  16.406  1.00  0.00     0.012 C 
ATOM     18  C   UNL     1       5.776  13.978  16.543  1.00  0.00     0.000 C 
ATOM     19  C   UNL     1       7.281  12.871  18.355  1.00  0.00     0.005 C 
ATOM     20  C   UNL     1       6.655  12.711  16.932  1.00  0.00     0.003 C 
ATOM     21  C   UNL     1       4.240  13.716  16.520  1.00  0.00     0.031 C 
ATOM     22  C   UNL     1       5.886  11.344  16.718  1.00  0.00    -0.008 C 
ATOM     23  C   UNL     1       3.816  12.557  17.371  1.00  0.00    -0.027 C 
ATOM     24  C   UNL     1       4.525  11.418  17.404  1.00  0.00    -0.065 C 
ATOM     25  C   UNL     1       6.667  10.121  17.299  1.00  0.00     0.014 C 
ATOM     26  C   UNL     1       5.705  11.103  15.193  1.00  0.00     0.016 C 
ATOM     27  C   UNL     1       4.038  10.254  18.239  1.00  0.00     0.063 C 
ATOM     28  C   UNL     1       5.888   8.791  17.206  1.00  0.00     0.033 C 
ATOM     29  C   UNL     1       4.380   8.924  17.545  1.00  0.00     0.118 C 
BRANCH  29  30
ATOM     30  O   UNL     1       3.989   7.848  18.358  1.00  0.00    -0.393 OA
ATOM     31  H   UNL     1       3.186   7.444  17.937  1.00  0.00     0.210 HD
ENDBRANCH  29  30
ENDBRANCH   9  11
ENDBRANCH   1   9
TORSDOF 7
ENDMDL
MODEL 6
REMARK VINA RESULT:    -4.299     12.099     15.164
REMARK INTER + INTRA:          -5.620
REMARK INTER:                  -4.368
REMARK INTRA:                  -1.252
REMARK UNBOUND:                 0.312
REMARK SMILES CC[C@H](CC[C@H](C)[C@H]1CC[C@H]2[C@@H]3CC=C4C[C@H](O)CC[C@]4(C)[C@@H]3CC[C@]12C)C(C)C
REMARK SMILES IDX 5 1 4 2 3 3 2 4 1 5 28 6 29 7 30 8 6 9 7 10 8 11 9 12 26 13
REMARK SMILES IDX 10 14 11 15 25 16 27 17 12 18 24 19 23 20 13 21 21 22 14 23
REMARK SMILES IDX 15 24 20 25 22 26 16 27 19 28 17 29 18 30
REMARK H PARENT 18 31
REMARK Flexibility Score: inf
ROOT
ATOM      1  C   UNL     1       2.278  14.261  14.914  1.00  0.00     0.004 C 
ENDROOT
BRANCH   1   2
ATOM      2  C   UNL     1       1.821  15.489  15.738  1.00  0.00     0.004 C 
BRANCH   2   3
ATOM      3  C   UNL     1       0.349  15.928  15.457  1.00  0.00    -0.009 C 
BRANCH   3   4
ATOM      4  C   UNL     1      -0.657  15.145  16.351  1.00  0.00     0.000 C 
ATOM      5  C   UNL     1      -1.844  14.598  15.556  1.00  0.00     0.004 C 
ENDBRANCH   3   4
BRANCH   3   6
ATOM      6  C   UNL     1       0.139  17.475  15.583  1.00  0.00    -0.014 C 
ATOM      7  C   UNL     1      -0.492  17.919  16.918  1.00  0.00     0.007 C 
ATOM      8  C   UNL     1       1.448  18.244  15.337  1.00  0.00     0.007 C 
ENDBRANCH   3   6
ENDBRANCH   2   3
ENDBRANCH   1   2
BRANCH   1   9
ATOM      9  C   UNL     1       3.801  13.960  14.927  1.00  0.00    -0.011 C 
ATOM     10  C   UNL     1       4.040  12.484  14.531  1.00  0.00     0.008 C 
BRANCH   9  11
ATOM     11  C   UNL     1       4.443  14.241  16.334  1.00  0.00    -0.002 C 
ATOM     12  C   UNL     1       5.068  12.963  16.952  1.00  0.00     0.005 C 
ATOM     13  C   UNL     1       5.592  15.298  16.440  1.00  0.00    -0.026 C 
ATOM     14  C   UNL     1       6.256  13.400  17.811  1.00  0.00     0.005 C 
ATOM     15  C   UNL     1       6.193  14.921  17.806  1.00  0.00    -0.001 C 
ATOM     16  C   UNL     1       5.129  16.784  16.516  1.00  0.00     0.007 C 
ATOM     17  C   UNL     1       6.607  15.110  15.269  1.00  0.00     0.012 C 
ATOM     18  C   UNL     1       7.497  15.690  18.149  1.00  0.00     0.000 C 
ATOM     19  C   UNL     1       5.885  17.646  17.562  1.00  0.00     0.005 C 
ATOM     20  C   UNL     1       7.376  17.231  17.777  1.00  0.00     0.003 C 
ATOM     21  C   UNL     1       7.902  15.413  19.628  1.00  0.00     0.031 C 
ATOM     22  C   UNL     1       8.166  18.166  18.780  1.00  0.00    -0.008 C 
ATOM     23  C   UNL     1       7.571  16.537  20.562  1.00  0.00    -0.027 C 
ATOM     24  C   UNL     1       7.771  17.817  20.212  1.00  0.00    -0.065 C 
ATOM     25  C   UNL     1       7.872  19.684  18.542  1.00  0.00     0.014 C 
ATOM     26  C   UNL     1       9.691  17.948  18.577  1.00  0.00     0.016 C 
ATOM     27  C   UNL     1       7.468  18.921  21.202  1.00  0.00     0.063 C 
ATOM     28  C   UNL     1       8.538  20.611  19.581  1.00  0.00     0.033 C 
ATOM     29  C   UNL     1       8.474  20.074  21.034  1.00  0.00     0.118 C 
BRANCH  29  30
ATOM     30  O   UNL     1       8.145  21.125  21.906  1.00  0.00    -0.393 OA
ATOM     31  H   UNL     1       7.425  21.649  21.468  1.00  0.00     0.210 HD
ENDBRANCH  29  30
ENDBRANCH   9  11
ENDBRANCH   1   9
TORSDOF 7
ENDMDL
MODEL 7
REMARK VINA RESULT:    -3.654     12.786     16.259
REMARK INTER + INTRA:          -4.730
REMARK INTER:                  -3.895
REMARK INTRA:                  -0.835
REMARK UNBOUND:                 0.312
REMARK SMILES CC[C@H](CC[C@H](C)[C@H]1CC[C@H]2[C@@H]3CC=C4C[C@H](O)CC[C@]4(C)[C@@H]3CC[C@]12C)C(C)C
REMARK SMILES IDX 5 1 4 2 3 3 2 4 1 5 28 6 29 7 30 8 6 9 7 10 8 11 9 12 26 13
REMARK SMILES IDX 10 14 11 15 25 16 27 17 12 18 24 19 23 20 13 21 21 22 14 23
REMARK SMILES IDX 15 24 20 25 22 26 16 27 19 28 17 29 18 30
REMARK H PARENT 18 31
REMARK Flexibility Score: inf
ROOT
ATOM      1  C   UNL     1       9.056  18.598  19.367  1.00  0.00     0.004 C 
ENDROOT
BRANCH   1   2
ATOM      2  C   UNL     1       8.404  17.993  20.635  1.00  0.00     0.004 C 
BRANCH   2   3
ATOM      3  C   UNL     1       6.921  18.429  20.854  1.00  0.00    -0.009 C 
BRANCH   3   4
ATOM      4  C   UNL     1       6.310  17.749  22.113  1.00  0.00     0.000 C 
ATOM      5  C   UNL     1       6.229  16.227  21.976  1.00  0.00     0.004 C 
ENDBRANCH   3   4
BRANCH   3   6
ATOM      6  C   UNL     1       6.743  19.984  20.902  1.00  0.00    -0.014 C 
ATOM      7  C   UNL     1       7.998  20.747  21.373  1.00  0.00     0.007 C 
ATOM      8  C   UNL     1       6.264  20.540  19.551  1.00  0.00     0.007 C 
ENDBRANCH   3   6
ENDBRANCH   2   3
ENDBRANCH   1   2
BRANCH   1   9
ATOM      9  C   UNL     1       8.873  17.790  18.055  1.00  0.00    -0.011 C 
ATOM     10  C   UNL     1       8.872  18.757  16.847  1.00  0.00     0.008 C 
BRANCH   9  11
ATOM     11  C   UNL     1       7.544  16.952  18.062  1.00  0.00    -0.002 C 
ATOM     12  C   UNL     1       6.378  17.707  17.373  1.00  0.00     0.005 C 
ATOM     13  C   UNL     1       7.533  15.550  17.367  1.00  0.00    -0.026 C 
ATOM     14  C   UNL     1       5.460  16.660  16.741  1.00  0.00     0.005 C 
ATOM     15  C   UNL     1       6.019  15.325  17.215  1.00  0.00    -0.001 C 
ATOM     16  C   UNL     1       8.108  14.377  18.217  1.00  0.00     0.007 C 
ATOM     17  C   UNL     1       8.267  15.626  15.991  1.00  0.00     0.012 C 
ATOM     18  C   UNL     1       5.653  14.064  16.385  1.00  0.00     0.000 C 
ATOM     19  C   UNL     1       7.280  13.065  18.154  1.00  0.00     0.005 C 
ATOM     20  C   UNL     1       6.565  12.824  16.785  1.00  0.00     0.003 C 
ATOM     21  C   UNL     1       4.121  13.796  16.476  1.00  0.00     0.031 C 
ATOM     22  C   UNL     1       5.793  11.445  16.697  1.00  0.00    -0.008 C 
ATOM     23  C   UNL     1       3.761  12.685  17.416  1.00  0.00    -0.027 C 
ATOM     24  C   UNL     1       4.479  11.552  17.465  1.00  0.00    -0.065 C 
ATOM     25  C   UNL     1       6.619  10.258  17.293  1.00  0.00     0.014 C 
ATOM     26  C   UNL     1       5.515  11.118  15.203  1.00  0.00     0.016 C 
ATOM     27  C   UNL     1       4.055  10.435  18.393  1.00  0.00     0.063 C 
ATOM     28  C   UNL     1       5.844   8.923  17.325  1.00  0.00     0.033 C 
ATOM     29  C   UNL     1       4.361   9.069  17.753  1.00  0.00     0.118 C 
BRANCH  29  30
ATOM     30  O   UNL     1       4.030   8.038  18.648  1.00  0.00    -0.393 OA
ATOM     31  H   UNL     1       4.731   8.030  19.351  1.00  0.00     0.210 HD
ENDBRANCH  29  30
ENDBRANCH   9  11
ENDBRANCH   1   9
TORSDOF 7
ENDMDL
MODEL 8
REMARK VINA RESULT:    -3.345      3.110      5.696
REMARK INTER + INTRA:          -4.305
REMARK INTER:                  -6.417
REMARK INTRA:                   2.112
REMARK UNBOUND:                 0.312
REMARK SMILES CC[C@H](CC[C@H](C)[C@H]1CC[C@H]2[C@@H]3CC=C4C[C@H](O)CC[C@]4(C)[C@@H]3CC[C@]12C)C(C)C
REMARK SMILES IDX 5 1 4 2 3 3 2 4 1 5 28 6 29 7 30 8 6 9 7 10 8 11 9 12 26 13
REMARK SMILES IDX 10 14 11 15 25 16 27 17 12 18 24 19 23 20 13 21 21 22 14 23
REMARK SMILES IDX 15 24 20 25 22 26 16 27 19 28 17 29 18 30
REMARK H PARENT 18 31
REMARK Flexibility Score: inf
ROOT
ATOM      1  C   UNL     1      -0.183   9.789   4.974  1.00  0.00     0.004 C 
ENDROOT
BRANCH   1   2
ATOM      2  C   UNL     1      -1.140   9.867   6.189  1.00  0.00     0.004 C 
BRANCH   2   3
ATOM      3  C   UNL     1      -2.221   8.740   6.217  1.00  0.00    -0.009 C 
BRANCH   3   4
ATOM      4  C   UNL     1      -1.842   7.566   5.267  1.00  0.00     0.000 C 
ATOM      5  C   UNL     1      -2.824   7.412   4.105  1.00  0.00     0.004 C 
ENDBRANCH   3   4
BRANCH   3   6
ATOM      6  C   UNL     1      -2.530   8.227   7.664  1.00  0.00    -0.014 C 
ATOM      7  C   UNL     1      -1.596   7.097   8.144  1.00  0.00     0.007 C 
ATOM      8  C   UNL     1      -2.531   9.379   8.683  1.00  0.00     0.007 C 
ENDBRANCH   3   6
ENDBRANCH   2   3
ENDBRANCH   1   2
BRANCH   1   9
ATOM      9  C   UNL     1      -0.573  10.652   3.744  1.00  0.00    -0.011 C 
ATOM     10  C   UNL     1       0.705  11.063   2.975  1.00  0.00     0.008 C 
BRANCH   9  11
ATOM     11  C   UNL     1      -1.376  11.936   4.159  1.00  0.00    -0.002 C 
ATOM     12  C   UNL     1      -1.791  11.904   5.653  1.00  0.00     0.005 C 
ATOM     13  C   UNL     1      -0.694  13.336   4.000  1.00  0.00    -0.026 C 
ATOM     14  C   UNL     1      -1.827  13.349   6.154  1.00  0.00     0.005 C 
ATOM     15  C   UNL     1      -1.596  14.192   4.906  1.00  0.00    -0.001 C 
ATOM     16  C   UNL     1      -0.743  13.945   2.566  1.00  0.00     0.007 C 
ATOM     17  C   UNL     1       0.780  13.278   4.508  1.00  0.00     0.012 C 
ATOM     18  C   UNL     1      -1.082  15.643   5.111  1.00  0.00     0.000 C 
ATOM     19  C   UNL     1      -1.087  15.458   2.516  1.00  0.00     0.005 C 
ATOM     20  C   UNL     1      -0.570  16.273   3.745  1.00  0.00     0.003 C 
ATOM     21  C   UNL     1      -2.163  16.489   5.848  1.00  0.00     0.031 C 
ATOM     22  C   UNL     1      -0.847  17.829   3.647  1.00  0.00    -0.008 C 
ATOM     23  C   UNL     1      -2.928  17.406   4.942  1.00  0.00    -0.027 C 
ATOM     24  C   UNL     1      -2.313  18.101   3.972  1.00  0.00    -0.065 C 
ATOM     25  C   UNL     1      -0.540  18.404   2.226  1.00  0.00     0.014 C 
ATOM     26  C   UNL     1       0.072  18.568   4.660  1.00  0.00     0.016 C 
ATOM     27  C   UNL     1      -3.112  19.053   3.110  1.00  0.00     0.063 C 
ATOM     28  C   UNL     1      -0.912  19.894   2.071  1.00  0.00     0.033 C 
ATOM     29  C   UNL     1      -2.257  20.278   2.740  1.00  0.00     0.118 C 
BRANCH  29  30
ATOM     30  O   UNL     1      -2.980  21.123   1.882  1.00  0.00    -0.393 OA
ATOM     31  H   UNL     1      -2.359  21.841   1.592  1.00  0.00     0.210 HD
ENDBRANCH  29  30
ENDBRANCH   9  11
ENDBRANCH   1   9
TORSDOF 7
ENDMDL
