MODEL 1
REMARK VINA RESULT:    -7.386      0.000      0.000
REMARK INTER + INTRA:          -9.012
REMARK INTER:                  -8.897
REMARK INTRA:                  -0.115
REMARK UNBOUND:                -0.115
REMARK SMILES O=c1c(O)c(-c2ccc(O)c(O)c2)oc2cc(O)cc(O)c12
REMARK SMILES IDX 5 1 3 2 2 3 1 4 22 5 20 6 19 7 17 8 16 9 15 10 14 11 6 12
REMARK SMILES IDX 7 13 8 14 9 15 13 16 11 17 10 18 12 20 4 22 21 24 18 26
REMARK H PARENT 10 19 12 21 4 23 21 25 18 27
REMARK Flexibility Score: inf
ROOT
ATOM      1  C   UNL     1      15.520 -20.890  12.443  1.00  0.00     0.180 A 
ATOM      2  C   UNL     1      16.684 -21.152  11.701  1.00  0.00     0.208 A 
ATOM      3  C   UNL     1      17.855 -21.523  12.382  1.00  0.00     0.238 A 
ATOM      4  O   UNL     1      18.881 -21.808  11.708  1.00  0.00    -0.285 OA
ATOM      5  C   UNL     1      17.852 -21.610  13.794  1.00  0.00     0.111 A 
ATOM      6  C   UNL     1      18.991 -21.938  14.589  1.00  0.00     0.134 A 
ATOM      7  C   UNL     1      18.840 -22.125  15.968  1.00  0.00     0.093 A 
ATOM      8  C   UNL     1      17.608 -21.933  16.591  1.00  0.00     0.123 A 
ATOM      9  C   UNL     1      16.500 -21.554  15.832  1.00  0.00     0.094 A 
ATOM     10  C   UNL     1      16.611 -21.395  14.449  1.00  0.00     0.146 A 
ATOM     11  O   UNL     1      15.531 -21.045  13.761  1.00  0.00    -0.452 OA
ENDROOT
BRANCH   1  12
ATOM     12  C   UNL     1      14.254 -20.470  11.799  1.00  0.00     0.025 A 
ATOM     13  C   UNL     1      13.602 -21.290  10.861  1.00  0.00     0.016 A 
ATOM     14  C   UNL     1      12.421 -20.862  10.249  1.00  0.00     0.051 A 
ATOM     15  C   UNL     1      11.882 -19.606  10.554  1.00  0.00     0.157 A 
ATOM     16  C   UNL     1      13.719 -19.203  12.086  1.00  0.00     0.062 A 
ATOM     17  C   UNL     1      12.533 -18.773  11.472  1.00  0.00     0.158 A 
BRANCH  15  18
ATOM     18  O   UNL     1      10.703 -19.177   9.947  1.00  0.00    -0.504 OA
ATOM     19  H   UNL     1      10.094 -18.498  10.391  1.00  0.00     0.293 HD
ENDBRANCH  15  18
BRANCH  17  20
ATOM     20  O   UNL     1      11.998 -17.521  11.770  1.00  0.00    -0.504 OA
ATOM     21  H   UNL     1      11.653 -16.905  11.043  1.00  0.00     0.293 HD
ENDBRANCH  17  20
ENDBRANCH   1  12
BRANCH   2  22
ATOM     22  O   UNL     1      16.661 -21.080  10.305  1.00  0.00    -0.502 OA
ATOM     23  H   UNL     1      16.487 -20.214   9.809  1.00  0.00     0.293 HD
ENDBRANCH   2  22
BRANCH   6  24
ATOM     24  O   UNL     1      20.288 -22.063  14.080  1.00  0.00    -0.507 OA
ATOM     25  H   UNL     1      21.016 -22.624  14.497  1.00  0.00     0.293 HD
ENDBRANCH   6  24
BRANCH   8  26
ATOM     26  O   UNL     1      17.499 -22.112  17.968  1.00  0.00    -0.508 OA
ATOM     27  H   UNL     1      18.282 -21.939  18.588  1.00  0.00     0.293 HD
ENDBRANCH   8  26
TORSDOF 6
ENDMDL
MODEL 2
REMARK VINA RESULT:    -6.839      1.463      2.445
REMARK INTER + INTRA:          -8.354
REMARK INTER:                  -8.052
REMARK INTRA:                  -0.302
REMARK UNBOUND:                -0.115
REMARK SMILES O=c1c(O)c(-c2ccc(O)c(O)c2)oc2cc(O)cc(O)c12
REMARK SMILES IDX 5 1 3 2 2 3 1 4 22 5 20 6 19 7 17 8 16 9 15 10 14 11 6 12
REMARK SMILES IDX 7 13 8 14 9 15 13 16 11 17 10 18 12 20 4 22 21 24 18 26
REMARK H PARENT 10 19 12 21 4 23 21 25 18 27
REMARK Flexibility Score: inf
ROOT
ATOM      1  C   UNL     1      14.298 -20.077  11.191  1.00  0.00     0.180 A 
ATOM      2  C   UNL     1      15.256 -20.426  10.224  1.00  0.00     0.208 A 
ATOM      3  C   UNL     1      16.455 -21.026  10.639  1.00  0.00     0.238 A 
ATOM      4  O   UNL     1      17.287 -21.385   9.764  1.00  0.00    -0.285 OA
ATOM      5  C   UNL     1      16.688 -21.256  12.017  1.00  0.00     0.111 A 
ATOM      6  C   UNL     1      17.883 -21.822  12.553  1.00  0.00     0.134 A 
ATOM      7  C   UNL     1      17.951 -22.125  13.919  1.00  0.00     0.093 A 
ATOM      8  C   UNL     1      16.894 -21.824  14.777  1.00  0.00     0.123 A 
ATOM      9  C   UNL     1      15.744 -21.216  14.273  1.00  0.00     0.094 A 
ATOM     10  C   UNL     1      15.632 -20.935  12.909  1.00  0.00     0.146 A 
ATOM     11  O   UNL     1      14.517 -20.366  12.468  1.00  0.00    -0.452 OA
ENDROOT
BRANCH   1  12
ATOM     12  C   UNL     1      13.021 -19.418  10.833  1.00  0.00     0.025 A 
ATOM     13  C   UNL     1      12.850 -18.028  10.970  1.00  0.00     0.016 A 
ATOM     14  C   UNL     1      11.629 -17.432  10.649  1.00  0.00     0.051 A 
ATOM     15  C   UNL     1      10.557 -18.214  10.199  1.00  0.00     0.157 A 
ATOM     16  C   UNL     1      11.936 -20.199  10.401  1.00  0.00     0.062 A 
ATOM     17  C   UNL     1      10.709 -19.600  10.077  1.00  0.00     0.158 A 
BRANCH  15  18
ATOM     18  O   UNL     1       9.338 -17.621   9.876  1.00  0.00    -0.504 OA
ATOM     19  H   UNL     1       8.564 -18.166   9.511  1.00  0.00     0.293 HD
ENDBRANCH  15  18
BRANCH  17  20
ATOM     20  O   UNL     1       9.640 -20.377   9.636  1.00  0.00    -0.504 OA
ATOM     21  H   UNL     1       9.042 -20.074   8.876  1.00  0.00     0.293 HD
ENDBRANCH  17  20
ENDBRANCH   1  12
BRANCH   2  22
ATOM     22  O   UNL     1      14.998 -20.209   8.867  1.00  0.00    -0.502 OA
ATOM     23  H   UNL     1      14.072 -20.307   8.467  1.00  0.00     0.293 HD
ENDBRANCH   2  22
BRANCH   6  24
ATOM     24  O   UNL     1      19.033 -22.078  11.799  1.00  0.00    -0.507 OA
ATOM     25  H   UNL     1      19.123 -21.899  10.810  1.00  0.00     0.293 HD
ENDBRANCH   6  24
BRANCH   8  26
ATOM     26  O   UNL     1      17.004 -22.125  16.132  1.00  0.00    -0.508 OA
ATOM     27  H   UNL     1      17.672 -22.807  16.472  1.00  0.00     0.293 HD
ENDBRANCH   8  26
TORSDOF 6
ENDMDL
MODEL 3
REMARK VINA RESULT:    -6.515      2.096      3.855
REMARK INTER + INTRA:          -7.963
REMARK INTER:                  -7.633
REMARK INTRA:                  -0.329
REMARK UNBOUND:                -0.115
REMARK SMILES O=c1c(O)c(-c2ccc(O)c(O)c2)oc2cc(O)cc(O)c12
REMARK SMILES IDX 5 1 3 2 2 3 1 4 22 5 20 6 19 7 17 8 16 9 15 10 14 11 6 12
REMARK SMILES IDX 7 13 8 14 9 15 13 16 11 17 10 18 12 20 4 22 21 24 18 26
REMARK H PARENT 10 19 12 21 4 23 21 25 18 27
REMARK Flexibility Score: inf
ROOT
ATOM      1  C   UNL     1      15.470 -20.390  11.230  1.00  0.00     0.180 A 
ATOM      2  C   UNL     1      15.947 -21.203  12.273  1.00  0.00     0.208 A 
ATOM      3  C   UNL     1      17.327 -21.440  12.375  1.00  0.00     0.238 A 
ATOM      4  O   UNL     1      17.752 -22.125  13.342  1.00  0.00    -0.285 OA
ATOM      5  C   UNL     1      18.211 -20.874  11.425  1.00  0.00     0.111 A 
ATOM      6  C   UNL     1      19.623 -21.081  11.410  1.00  0.00     0.134 A 
ATOM      7  C   UNL     1      20.415 -20.366  10.502  1.00  0.00     0.093 A 
ATOM      8  C   UNL     1      19.842 -19.504   9.569  1.00  0.00     0.123 A 
ATOM      9  C   UNL     1      18.456 -19.341   9.536  1.00  0.00     0.094 A 
ATOM     10  C   UNL     1      17.643 -20.012  10.452  1.00  0.00     0.146 A 
ATOM     11  O   UNL     1      16.331 -19.821  10.394  1.00  0.00    -0.452 OA
ENDROOT
BRANCH   1  12
ATOM     12  C   UNL     1      14.027 -20.115  11.041  1.00  0.00     0.025 A 
ATOM     13  C   UNL     1      13.230 -20.924  10.213  1.00  0.00     0.016 A 
ATOM     14  C   UNL     1      11.876 -20.631  10.031  1.00  0.00     0.051 A 
ATOM     15  C   UNL     1      11.303 -19.520  10.663  1.00  0.00     0.157 A 
ATOM     16  C   UNL     1      13.452 -18.990  11.655  1.00  0.00     0.062 A 
ATOM     17  C   UNL     1      12.092 -18.695  11.474  1.00  0.00     0.158 A 
BRANCH  15  18
ATOM     18  O   UNL     1       9.952 -19.225  10.485  1.00  0.00    -0.504 OA
ATOM     19  H   UNL     1       9.474 -18.552  11.074  1.00  0.00     0.293 HD
ENDBRANCH  15  18
BRANCH  17  20
ATOM     20  O   UNL     1      11.522 -17.587  12.095  1.00  0.00    -0.504 OA
ATOM     21  H   UNL     1      12.079 -16.785  12.366  1.00  0.00     0.293 HD
ENDBRANCH  17  20
ENDBRANCH   1  12
BRANCH   2  22
ATOM     22  O   UNL     1      15.058 -21.734  13.212  1.00  0.00    -0.502 OA
ATOM     23  H   UNL     1      14.596 -22.626  13.080  1.00  0.00     0.293 HD
ENDBRANCH   2  22
BRANCH   6  24
ATOM     24  O   UNL     1      20.289 -21.989  12.239  1.00  0.00    -0.507 OA
ATOM     25  H   UNL     1      21.283 -22.162  12.219  1.00  0.00     0.293 HD
ENDBRANCH   6  24
BRANCH   8  26
ATOM     26  O   UNL     1      20.660 -18.822   8.671  1.00  0.00    -0.508 OA
ATOM     27  H   UNL     1      21.577 -19.173   8.418  1.00  0.00     0.293 HD
ENDBRANCH   8  26
TORSDOF 6
ENDMDL
MODEL 4
REMARK VINA RESULT:    -6.364      2.569      4.622
REMARK INTER + INTRA:          -7.781
REMARK INTER:                  -7.474
REMARK INTRA:                  -0.306
REMARK UNBOUND:                -0.115
REMARK SMILES O=c1c(O)c(-c2ccc(O)c(O)c2)oc2cc(O)cc(O)c12
REMARK SMILES IDX 5 1 3 2 2 3 1 4 22 5 20 6 19 7 17 8 16 9 15 10 14 11 6 12
REMARK SMILES IDX 7 13 8 14 9 15 13 16 11 17 10 18 12 20 4 22 21 24 18 26
REMARK H PARENT 10 19 12 21 4 23 21 25 18 27
REMARK Flexibility Score: inf
ROOT
ATOM      1  C   UNL     1      12.406 -19.759   9.875  1.00  0.00     0.180 A 
ATOM      2  C   UNL     1      13.058 -20.217   8.717  1.00  0.00     0.208 A 
ATOM      3  C   UNL     1      14.288 -20.881   8.846  1.00  0.00     0.238 A 
ATOM      4  O   UNL     1      14.841 -21.335   7.810  1.00  0.00    -0.285 OA
ATOM      5  C   UNL     1      14.859 -21.065  10.129  1.00  0.00     0.111 A 
ATOM      6  C   UNL     1      16.119 -21.688  10.373  1.00  0.00     0.134 A 
ATOM      7  C   UNL     1      16.524 -21.933  11.691  1.00  0.00     0.093 A 
ATOM      8  C   UNL     1      15.746 -21.521  12.772  1.00  0.00     0.123 A 
ATOM      9  C   UNL     1      14.540 -20.857  12.544  1.00  0.00     0.094 A 
ATOM     10  C   UNL     1      14.092 -20.630  11.241  1.00  0.00     0.146 A 
ATOM     11  O   UNL     1      12.935 -20.005  11.068  1.00  0.00    -0.452 OA
ENDROOT
BRANCH   1  12
ATOM     12  C   UNL     1      11.119 -19.028   9.818  1.00  0.00     0.025 A 
ATOM     13  C   UNL     1      11.070 -17.624   9.890  1.00  0.00     0.016 A 
ATOM     14  C   UNL     1       9.842 -16.958   9.859  1.00  0.00     0.051 A 
ATOM     15  C   UNL     1       8.647 -17.683   9.768  1.00  0.00     0.157 A 
ATOM     16  C   UNL     1       9.916 -19.750   9.748  1.00  0.00     0.062 A 
ATOM     17  C   UNL     1       8.683 -19.081   9.715  1.00  0.00     0.158 A 
BRANCH  15  18
ATOM     18  O   UNL     1       7.421 -17.021   9.734  1.00  0.00    -0.504 OA
ATOM     19  H   UNL     1       7.338 -16.045   9.996  1.00  0.00     0.293 HD
ENDBRANCH  15  18
BRANCH  17  20
ATOM     20  O   UNL     1       7.493 -19.801   9.632  1.00  0.00    -0.504 OA
ATOM     21  H   UNL     1       6.666 -19.521  10.147  1.00  0.00     0.293 HD
ENDBRANCH  17  20
ENDBRANCH   1  12
BRANCH   2  22
ATOM     22  O   UNL     1      12.467 -20.043   7.462  1.00  0.00    -0.502 OA
ATOM     23  H   UNL     1      11.793 -19.310   7.275  1.00  0.00     0.293 HD
ENDBRANCH   2  22
BRANCH   6  24
ATOM     24  O   UNL     1      17.016 -22.058   9.366  1.00  0.00    -0.507 OA
ATOM     25  H   UNL     1      17.953 -21.695   9.269  1.00  0.00     0.293 HD
ENDBRANCH   6  24
BRANCH   8  26
ATOM     26  O   UNL     1      16.188 -21.768  14.069  1.00  0.00    -0.508 OA
ATOM     27  H   UNL     1      16.043 -22.666  14.517  1.00  0.00     0.293 HD
ENDBRANCH   8  26
TORSDOF 6
ENDMDL
MODEL 5
REMARK VINA RESULT:    -6.325      2.259      7.808
REMARK INTER + INTRA:          -7.734
REMARK INTER:                  -7.425
REMARK INTRA:                  -0.309
REMARK UNBOUND:                -0.115
REMARK SMILES O=c1c(O)c(-c2ccc(O)c(O)c2)oc2cc(O)cc(O)c12
REMARK SMILES IDX 5 1 3 2 2 3 1 4 22 5 20 6 19 7 17 8 16 9 15 10 14 11 6 12
REMARK SMILES IDX 7 13 8 14 9 15 13 16 11 17 10 18 12 20 4 22 21 24 18 26
REMARK H PARENT 10 19 12 21 4 23 21 25 18 27
REMARK Flexibility Score: inf
ROOT
ATOM      1  C   UNL     1      13.117 -19.765  10.787  1.00  0.00     0.180 A 
ATOM      2  C   UNL     1      12.318 -20.507   9.899  1.00  0.00     0.208 A 
ATOM      3  C   UNL     1      11.085 -19.977   9.486  1.00  0.00     0.238 A 
ATOM      4  O   UNL     1      10.399 -20.622   8.651  1.00  0.00    -0.285 OA
ATOM      5  C   UNL     1      10.660 -18.719   9.977  1.00  0.00     0.111 A 
ATOM      6  C   UNL     1       9.413 -18.104   9.657  1.00  0.00     0.134 A 
ATOM      7  C   UNL     1       9.153 -16.800  10.095  1.00  0.00     0.093 A 
ATOM      8  C   UNL     1      10.066 -16.113  10.895  1.00  0.00     0.123 A 
ATOM      9  C   UNL     1      11.263 -16.728  11.264  1.00  0.00     0.094 A 
ATOM     10  C   UNL     1      11.566 -18.014  10.812  1.00  0.00     0.146 A 
ATOM     11  O   UNL     1      12.719 -18.560  11.177  1.00  0.00    -0.452 OA
ENDROOT
BRANCH   1  12
ATOM     12  C   UNL     1      14.416 -20.269  11.287  1.00  0.00     0.025 A 
ATOM     13  C   UNL     1      15.595 -20.128  10.533  1.00  0.00     0.016 A 
ATOM     14  C   UNL     1      16.806 -20.633  11.015  1.00  0.00     0.051 A 
ATOM     15  C   UNL     1      16.854 -21.296  12.248  1.00  0.00     0.157 A 
ATOM     16  C   UNL     1      14.467 -20.953  12.513  1.00  0.00     0.062 A 
ATOM     17  C   UNL     1      15.683 -21.459  12.997  1.00  0.00     0.158 A 
BRANCH  15  18
ATOM     18  O   UNL     1      18.060 -21.799  12.733  1.00  0.00    -0.504 OA
ATOM     19  H   UNL     1      18.554 -22.544  12.255  1.00  0.00     0.293 HD
ENDBRANCH  15  18
BRANCH  17  20
ATOM     20  O   UNL     1      15.732 -22.125  14.220  1.00  0.00    -0.504 OA
ATOM     21  H   UNL     1      16.092 -23.069  14.297  1.00  0.00     0.293 HD
ENDBRANCH  17  20
ENDBRANCH   1  12
BRANCH   2  22
ATOM     22  O   UNL     1      12.767 -21.738   9.411  1.00  0.00    -0.502 OA
ATOM     23  H   UNL     1      13.744 -22.002   9.419  1.00  0.00     0.293 HD
ENDBRANCH   2  22
BRANCH   6  24
ATOM     24  O   UNL     1       8.391 -18.736   8.939  1.00  0.00    -0.507 OA
ATOM     25  H   UNL     1       7.422 -18.456   8.953  1.00  0.00     0.293 HD
ENDBRANCH   6  24
BRANCH   8  26
ATOM     26  O   UNL     1       9.767 -14.823  11.325  1.00  0.00    -0.508 OA
ATOM     27  H   UNL     1       9.454 -14.639  12.272  1.00  0.00     0.293 HD
ENDBRANCH   8  26
TORSDOF 6
ENDMDL
MODEL 6
REMARK VINA RESULT:    -6.291      3.410      5.737
REMARK INTER + INTRA:          -7.694
REMARK INTER:                  -7.465
REMARK INTRA:                  -0.229
REMARK UNBOUND:                -0.115
REMARK SMILES O=c1c(O)c(-c2ccc(O)c(O)c2)oc2cc(O)cc(O)c12
REMARK SMILES IDX 5 1 3 2 2 3 1 4 22 5 20 6 19 7 17 8 16 9 15 10 14 11 6 12
REMARK SMILES IDX 7 13 8 14 9 15 13 16 11 17 10 18 12 20 4 22 21 24 18 26
REMARK H PARENT 10 19 12 21 4 23 21 25 18 27
REMARK Flexibility Score: inf
ROOT
ATOM      1  C   UNL     1      12.006 -19.093  10.141  1.00  0.00     0.180 A 
ATOM      2  C   UNL     1      12.539 -19.077  11.441  1.00  0.00     0.208 A 
ATOM      3  C   UNL     1      13.750 -19.743  11.688  1.00  0.00     0.238 A 
ATOM      4  O   UNL     1      14.249 -19.680  12.843  1.00  0.00    -0.285 OA
ATOM      5  C   UNL     1      14.404 -20.430  10.637  1.00  0.00     0.111 A 
ATOM      6  C   UNL     1      15.614 -21.171  10.784  1.00  0.00     0.134 A 
ATOM      7  C   UNL     1      16.242 -21.700   9.649  1.00  0.00     0.093 A 
ATOM      8  C   UNL     1      15.670 -21.572   8.384  1.00  0.00     0.123 A 
ATOM      9  C   UNL     1      14.455 -20.900   8.238  1.00  0.00     0.094 A 
ATOM     10  C   UNL     1      13.824 -20.330   9.345  1.00  0.00     0.146 A 
ATOM     11  O   UNL     1      12.676 -19.690   9.163  1.00  0.00    -0.452 OA
ENDROOT
BRANCH   1  12
ATOM     12  C   UNL     1      10.721 -18.436   9.808  1.00  0.00     0.025 A 
ATOM     13  C   UNL     1       9.572 -19.187   9.499  1.00  0.00     0.016 A 
ATOM     14  C   UNL     1       8.378 -18.545   9.164  1.00  0.00     0.051 A 
ATOM     15  C   UNL     1       8.316 -17.146   9.120  1.00  0.00     0.157 A 
ATOM     16  C   UNL     1      10.658 -17.035   9.741  1.00  0.00     0.062 A 
ATOM     17  C   UNL     1       9.458 -16.389   9.406  1.00  0.00     0.158 A 
BRANCH  15  18
ATOM     18  O   UNL     1       7.125 -16.502   8.788  1.00  0.00    -0.504 OA
ATOM     19  H   UNL     1       6.608 -15.959   9.471  1.00  0.00     0.293 HD
ENDBRANCH  15  18
BRANCH  17  20
ATOM     20  O   UNL     1       9.396 -14.998   9.354  1.00  0.00    -0.504 OA
ATOM     21  H   UNL     1      10.234 -14.428   9.368  1.00  0.00     0.293 HD
ENDBRANCH  17  20
ENDBRANCH   1  12
BRANCH   2  22
ATOM     22  O   UNL     1      11.887 -18.376  12.460  1.00  0.00    -0.502 OA
ATOM     23  H   UNL     1      12.389 -17.906  13.204  1.00  0.00     0.293 HD
ENDBRANCH   2  22
BRANCH   6  24
ATOM     24  O   UNL     1      16.223 -21.438  12.014  1.00  0.00    -0.507 OA
ATOM     25  H   UNL     1      17.100 -21.041  12.319  1.00  0.00     0.293 HD
ENDBRANCH   6  24
BRANCH   8  26
ATOM     26  O   UNL     1      16.314 -22.125   7.280  1.00  0.00    -0.508 OA
ATOM     27  H   UNL     1      16.936 -22.920   7.373  1.00  0.00     0.293 HD
ENDBRANCH   8  26
TORSDOF 6
ENDMDL
