MODEL 1
REMARK VINA RESULT:    -3.305      0.000      0.000
REMARK INTER + INTRA:          -3.729
REMARK INTER:                  -3.692
REMARK INTRA:                  -0.038
REMARK UNBOUND:                -0.038
REMARK SMILES CCCC(=O)[O-]
REMARK SMILES IDX 3 1 4 2 5 3 6 4 2 5 1 6
REMARK H PARENT
REMARK Flexibility Score: inf
ROOT
ATOM      1  C   UNL     1      26.451   6.777   5.054  1.00  0.00     0.052 C 
ENDROOT
BRANCH   1   2
ATOM      2  C   UNL     1      27.150   5.998   6.126  1.00  0.00     0.041 C 
ATOM      3  O   UNL     1      28.120   5.250   5.835  1.00  0.00    -0.550 OA
ATOM      4  O   UNL     1      26.709   6.071   7.441  1.00  0.00    -0.550 OA
ENDBRANCH   1   2
BRANCH   1   5
ATOM      5  C   UNL     1      25.874   8.093   5.592  1.00  0.00     0.003 C 
ATOM      6  C   UNL     1      24.348   8.135   5.510  1.00  0.00     0.004 C 
ENDBRANCH   1   5
TORSDOF 2
ENDMDL
MODEL 2
REMARK VINA RESULT:    -3.238     11.670     12.788
REMARK INTER + INTRA:          -3.655
REMARK INTER:                  -3.638
REMARK INTRA:                  -0.017
REMARK UNBOUND:                -0.038
REMARK SMILES CCCC(=O)[O-]
REMARK SMILES IDX 3 1 4 2 5 3 6 4 2 5 1 6
REMARK H PARENT
REMARK Flexibility Score: inf
ROOT
ATOM      1  C   UNL     1      19.539  17.398   7.719  1.00  0.00     0.052 C 
ENDROOT
BRANCH   1   2
ATOM      2  C   UNL     1      19.475  16.131   6.924  1.00  0.00     0.041 C 
ATOM      3  O   UNL     1      19.116  15.056   7.474  1.00  0.00    -0.550 OA
ATOM      4  O   UNL     1      19.844  16.128   5.585  1.00  0.00    -0.550 OA
ENDBRANCH   1   2
BRANCH   1   5
ATOM      5  C   UNL     1      18.173  17.767   8.312  1.00  0.00     0.003 C 
ATOM      6  C   UNL     1      18.291  18.386   9.705  1.00  0.00     0.004 C 
ENDBRANCH   1   5
TORSDOF 2
ENDMDL
MODEL 3
REMARK VINA RESULT:    -3.209     12.414     13.429
REMARK INTER + INTRA:          -3.622
REMARK INTER:                  -3.583
REMARK INTRA:                  -0.038
REMARK UNBOUND:                -0.038
REMARK SMILES CCCC(=O)[O-]
REMARK SMILES IDX 3 1 4 2 5 3 6 4 2 5 1 6
REMARK H PARENT
REMARK Flexibility Score: inf
ROOT
ATOM      1  C   UNL     1      18.262  17.229   7.805  1.00  0.00     0.052 C 
ENDROOT
BRANCH   1   2
ATOM      2  C   UNL     1      18.869  17.970   8.956  1.00  0.00     0.041 C 
ATOM      3  O   UNL     1      18.215  18.132  10.021  1.00  0.00    -0.550 OA
ATOM      4  O   UNL     1      20.143  18.511   8.843  1.00  0.00    -0.550 OA
ENDBRANCH   1   2
BRANCH   1   5
ATOM      5  C   UNL     1      19.077  15.981   7.438  1.00  0.00     0.003 C 
ATOM      6  C   UNL     1      19.801  16.133   6.101  1.00  0.00     0.004 C 
ENDBRANCH   1   5
TORSDOF 2
ENDMDL
MODEL 4
REMARK VINA RESULT:    -3.205      2.484      3.431
REMARK INTER + INTRA:          -3.618
REMARK INTER:                  -3.613
REMARK INTRA:                  -0.005
REMARK UNBOUND:                -0.038
REMARK SMILES CCCC(=O)[O-]
REMARK SMILES IDX 3 1 4 2 5 3 6 4 2 5 1 6
REMARK H PARENT
REMARK Flexibility Score: inf
ROOT
ATOM      1  C   UNL     1      26.204   7.071   5.183  1.00  0.00     0.052 C 
ENDROOT
BRANCH   1   2
ATOM      2  C   UNL     1      25.183   8.056   5.661  1.00  0.00     0.041 C 
ATOM      3  O   UNL     1      23.955   7.821   5.505  1.00  0.00    -0.550 OA
ATOM      4  O   UNL     1      25.585   9.248   6.248  1.00  0.00    -0.550 OA
ENDBRANCH   1   2
BRANCH   1   5
ATOM      5  C   UNL     1      26.971   6.434   6.350  1.00  0.00     0.003 C 
ATOM      6  C   UNL     1      27.905   5.314   5.891  1.00  0.00     0.004 C 
ENDBRANCH   1   5
TORSDOF 2
ENDMDL
MODEL 5
REMARK VINA RESULT:    -2.916     12.604     13.197
REMARK INTER + INTRA:          -3.295
REMARK INTER:                  -3.268
REMARK INTRA:                  -0.027
REMARK UNBOUND:                -0.038
REMARK SMILES CCCC(=O)[O-]
REMARK SMILES IDX 3 1 4 2 5 3 6 4 2 5 1 6
REMARK H PARENT
REMARK Flexibility Score: inf
ROOT
ATOM      1  C   UNL     1      16.446   1.951  -0.667  1.00  0.00     0.052 C 
ENDROOT
BRANCH   1   2
ATOM      2  C   UNL     1      15.944   3.344  -0.888  1.00  0.00     0.041 C 
ATOM      3  O   UNL     1      15.650   3.736  -2.049  1.00  0.00    -0.550 OA
ATOM      4  O   UNL     1      15.832   4.223   0.182  1.00  0.00    -0.550 OA
ENDBRANCH   1   2
BRANCH   1   5
ATOM      5  C   UNL     1      17.105   1.377  -1.929  1.00  0.00     0.003 C 
ATOM      6  C   UNL     1      18.612   1.179  -1.760  1.00  0.00     0.004 C 
ENDBRANCH   1   5
TORSDOF 2
ENDMDL
MODEL 6
REMARK VINA RESULT:    -2.902     13.651     14.265
REMARK INTER + INTRA:          -3.279
REMARK INTER:                  -3.268
REMARK INTRA:                  -0.011
REMARK UNBOUND:                -0.038
REMARK SMILES CCCC(=O)[O-]
REMARK SMILES IDX 3 1 4 2 5 3 6 4 2 5 1 6
REMARK H PARENT
REMARK Flexibility Score: inf
ROOT
ATOM      1  C   UNL     1      16.302   2.013  -1.715  1.00  0.00     0.052 C 
ENDROOT
BRANCH   1   2
ATOM      2  C   UNL     1      15.874   3.430  -1.487  1.00  0.00     0.041 C 
ATOM      3  O   UNL     1      16.298   4.068  -0.487  1.00  0.00    -0.550 OA
ATOM      4  O   UNL     1      14.980   4.038  -2.360  1.00  0.00    -0.550 OA
ENDBRANCH   1   2
BRANCH   1   5
ATOM      5  C   UNL     1      15.107   1.098  -2.011  1.00  0.00     0.003 C 
ATOM      6  C   UNL     1      15.500  -0.121  -2.844  1.00  0.00     0.004 C 
ENDBRANCH   1   5
TORSDOF 2
ENDMDL
MODEL 7
REMARK VINA RESULT:    -2.842     12.625     13.168
REMARK INTER + INTRA:          -3.212
REMARK INTER:                  -3.154
REMARK INTRA:                  -0.058
REMARK UNBOUND:                -0.038
REMARK SMILES CCCC(=O)[O-]
REMARK SMILES IDX 3 1 4 2 5 3 6 4 2 5 1 6
REMARK H PARENT
REMARK Flexibility Score: inf
ROOT
ATOM      1  C   UNL     1      16.514   1.858  -0.607  1.00  0.00     0.052 C 
ENDROOT
BRANCH   1   2
ATOM      2  C   UNL     1      17.316   1.255  -1.719  1.00  0.00     0.041 C 
ATOM      3  O   UNL     1      18.564   1.417  -1.760  1.00  0.00    -0.550 OA
ATOM      4  O   UNL     1      16.682   0.543  -2.729  1.00  0.00    -0.550 OA
ENDBRANCH   1   2
BRANCH   1   5
ATOM      5  C   UNL     1      16.381   3.379  -0.761  1.00  0.00     0.003 C 
ATOM      6  C   UNL     1      15.378   3.769  -1.846  1.00  0.00     0.004 C 
ENDBRANCH   1   5
TORSDOF 2
ENDMDL
MODEL 8
REMARK VINA RESULT:    -2.835      2.176      2.463
REMARK INTER + INTRA:          -3.204
REMARK INTER:                  -3.138
REMARK INTRA:                  -0.066
REMARK UNBOUND:                -0.038
REMARK SMILES CCCC(=O)[O-]
REMARK SMILES IDX 3 1 4 2 5 3 6 4 2 5 1 6
REMARK H PARENT
REMARK Flexibility Score: inf
ROOT
ATOM      1  C   UNL     1      26.197   7.118   6.972  1.00  0.00     0.052 C 
ENDROOT
BRANCH   1   2
ATOM      2  C   UNL     1      26.794   8.229   7.778  1.00  0.00     0.041 C 
ATOM      3  O   UNL     1      27.853   8.793   7.394  1.00  0.00    -0.550 OA
ATOM      4  O   UNL     1      26.202   8.621   8.972  1.00  0.00    -0.550 OA
ENDBRANCH   1   2
BRANCH   1   5
ATOM      5  C   UNL     1      25.863   7.568   5.543  1.00  0.00     0.003 C 
ATOM      6  C   UNL     1      24.675   8.528   5.498  1.00  0.00     0.004 C 
ENDBRANCH   1   5
TORSDOF 2
ENDMDL
MODEL 9
REMARK VINA RESULT:    -2.818      2.874      3.495
REMARK INTER + INTRA:          -3.185
REMARK INTER:                  -3.180
REMARK INTRA:                  -0.006
REMARK UNBOUND:                -0.038
REMARK SMILES CCCC(=O)[O-]
REMARK SMILES IDX 3 1 4 2 5 3 6 4 2 5 1 6
REMARK H PARENT
REMARK Flexibility Score: inf
ROOT
ATOM      1  C   UNL     1      25.782   7.544   7.191  1.00  0.00     0.052 C 
ENDROOT
BRANCH   1   2
ATOM      2  C   UNL     1      25.306   7.915   5.820  1.00  0.00     0.041 C 
ATOM      3  O   UNL     1      24.073   7.931   5.561  1.00  0.00    -0.550 OA
ATOM      4  O   UNL     1      26.222   8.211   4.819  1.00  0.00    -0.550 OA
ENDBRANCH   1   2
BRANCH   1   5
ATOM      5  C   UNL     1      26.613   8.666   7.827  1.00  0.00     0.003 C 
ATOM      6  C   UNL     1      26.416   8.748   9.341  1.00  0.00     0.004 C 
ENDBRANCH   1   5
TORSDOF 2
ENDMDL
