MODEL 1
REMARK VINA RESULT:    -4.148      0.000      0.000
REMARK INTER + INTRA:          -5.194
REMARK INTER:                  -4.996
REMARK INTRA:                  -0.198
REMARK UNBOUND:                -0.198
REMARK SMILES C=CCc1ccc(O)c(OC)c1
REMARK SMILES IDX 9 1 7 2 6 3 5 4 4 5 12 6 10 7 11 8 8 9 3 11 2 12 1 13
REMARK H PARENT 8 10
REMARK Flexibility Score: inf
ROOT
ATOM      1  C   UNL     1      28.689  29.662  25.424  1.00  0.00     0.160 A 
ATOM      2  C   UNL     1      28.841  28.551  24.582  1.00  0.00     0.157 A 
ATOM      3  C   UNL     1      29.006  28.731  23.202  1.00  0.00     0.050 A 
ATOM      4  C   UNL     1      29.022  30.016  22.657  1.00  0.00     0.008 A 
ATOM      5  C   UNL     1      28.882  31.138  23.487  1.00  0.00    -0.040 A 
ATOM      6  C   UNL     1      28.708  30.958  24.868  1.00  0.00     0.054 A 
ENDROOT
BRANCH   1   7
ATOM      7  O   UNL     1      28.521  29.440  26.800  1.00  0.00    -0.493 OA
ATOM      8  C   UNL     1      29.125  30.226  27.822  1.00  0.00     0.278 C 
ENDBRANCH   1   7
BRANCH   2   9
ATOM      9  O   UNL     1      28.825  27.268  25.125  1.00  0.00    -0.504 OA
ATOM     10  H   UNL     1      29.008  27.105  26.108  1.00  0.00     0.293 HD
ENDBRANCH   2   9
BRANCH   5  11
ATOM     11  C   UNL     1      28.871  32.521  22.891  1.00  0.00     0.062 C 
BRANCH  11  12
ATOM     12  C   UNL     1      28.396  33.531  23.899  1.00  0.00    -0.030 C 
ATOM     13  C   UNL     1      27.631  34.569  23.547  1.00  0.00     0.004 C 
ENDBRANCH  11  12
ENDBRANCH   5  11
TORSDOF 4
ENDMDL
MODEL 2
REMARK VINA RESULT:    -4.135     10.187     11.805
REMARK INTER + INTRA:          -5.178
REMARK INTER:                  -4.944
REMARK INTRA:                  -0.235
REMARK UNBOUND:                -0.198
REMARK SMILES C=CCc1ccc(O)c(OC)c1
REMARK SMILES IDX 9 1 7 2 6 3 5 4 4 5 12 6 10 7 11 8 8 9 3 11 2 12 1 13
REMARK H PARENT 8 10
REMARK Flexibility Score: inf
ROOT
ATOM      1  C   UNL     1      27.054  39.432  18.941  1.00  0.00     0.160 A 
ATOM      2  C   UNL     1      26.060  39.006  19.833  1.00  0.00     0.157 A 
ATOM      3  C   UNL     1      25.641  39.844  20.874  1.00  0.00     0.050 A 
ATOM      4  C   UNL     1      26.209  41.110  21.030  1.00  0.00     0.008 A 
ATOM      5  C   UNL     1      27.196  41.557  20.139  1.00  0.00    -0.040 A 
ATOM      6  C   UNL     1      27.622  40.712  19.100  1.00  0.00     0.054 A 
ENDROOT
BRANCH   1   7
ATOM      7  O   UNL     1      27.449  38.561  17.914  1.00  0.00    -0.493 OA
ATOM      8  C   UNL     1      28.484  38.838  16.976  1.00  0.00     0.278 C 
ENDBRANCH   1   7
BRANCH   2   9
ATOM      9  O   UNL     1      25.493  37.741  19.679  1.00  0.00    -0.504 OA
ATOM     10  H   UNL     1      24.617  37.609  19.187  1.00  0.00     0.293 HD
ENDBRANCH   2   9
BRANCH   5  11
ATOM     11  C   UNL     1      27.826  42.911  20.327  1.00  0.00     0.062 C 
BRANCH  11  12
ATOM     12  C   UNL     1      26.886  44.001  19.894  1.00  0.00    -0.030 C 
ATOM     13  C   UNL     1      26.492  44.125  18.623  1.00  0.00     0.004 C 
ENDBRANCH  11  12
ENDBRANCH   5  11
TORSDOF 4
ENDMDL
MODEL 3
REMARK VINA RESULT:    -4.014      7.343      9.796
REMARK INTER + INTRA:          -5.033
REMARK INTER:                  -4.796
REMARK INTRA:                  -0.237
REMARK UNBOUND:                -0.198
REMARK SMILES C=CCc1ccc(O)c(OC)c1
REMARK SMILES IDX 9 1 7 2 6 3 5 4 4 5 12 6 10 7 11 8 8 9 3 11 2 12 1 13
REMARK H PARENT 8 10
REMARK Flexibility Score: inf
ROOT
ATOM      1  C   UNL     1      26.733  39.129  19.663  1.00  0.00     0.160 A 
ATOM      2  C   UNL     1      25.737  38.691  20.547  1.00  0.00     0.157 A 
ATOM      3  C   UNL     1      25.844  37.437  21.164  1.00  0.00     0.050 A 
ATOM      4  C   UNL     1      26.944  36.617  20.904  1.00  0.00     0.008 A 
ATOM      5  C   UNL     1      27.955  37.045  20.031  1.00  0.00    -0.040 A 
ATOM      6  C   UNL     1      27.843  38.298  19.406  1.00  0.00     0.054 A 
ENDROOT
BRANCH   1   7
ATOM      7  O   UNL     1      26.587  40.388  19.061  1.00  0.00    -0.493 OA
ATOM      8  C   UNL     1      27.216  41.579  19.523  1.00  0.00     0.278 C 
ENDBRANCH   1   7
BRANCH   2   9
ATOM      9  O   UNL     1      24.639  39.509  20.807  1.00  0.00    -0.504 OA
ATOM     10  H   UNL     1      24.400  40.285  20.200  1.00  0.00     0.293 HD
ENDBRANCH   2   9
BRANCH   5  11
ATOM     11  C   UNL     1      29.125  36.145  19.731  1.00  0.00     0.062 C 
BRANCH  11  12
ATOM     12  C   UNL     1      29.043  34.880  20.537  1.00  0.00    -0.030 C 
ATOM     13  C   UNL     1      28.981  33.678  19.955  1.00  0.00     0.004 C 
ENDBRANCH  11  12
ENDBRANCH   5  11
TORSDOF 4
ENDMDL
MODEL 4
REMARK VINA RESULT:    -3.939      7.100      9.635
REMARK INTER + INTRA:          -4.943
REMARK INTER:                  -4.758
REMARK INTRA:                  -0.185
REMARK UNBOUND:                -0.198
REMARK SMILES C=CCc1ccc(O)c(OC)c1
REMARK SMILES IDX 9 1 7 2 6 3 5 4 4 5 12 6 10 7 11 8 8 9 3 11 2 12 1 13
REMARK H PARENT 8 10
REMARK Flexibility Score: inf
ROOT
ATOM      1  C   UNL     1      25.657  38.513  20.799  1.00  0.00     0.160 A 
ATOM      2  C   UNL     1      26.238  39.787  20.875  1.00  0.00     0.157 A 
ATOM      3  C   UNL     1      27.598  39.960  20.586  1.00  0.00     0.050 A 
ATOM      4  C   UNL     1      28.383  38.866  20.217  1.00  0.00     0.008 A 
ATOM      5  C   UNL     1      27.815  37.587  20.124  1.00  0.00    -0.040 A 
ATOM      6  C   UNL     1      26.454  37.412  20.424  1.00  0.00     0.054 A 
ENDROOT
BRANCH   1   7
ATOM      7  O   UNL     1      24.293  38.381  21.102  1.00  0.00    -0.493 OA
ATOM      8  C   UNL     1      23.579  37.149  21.080  1.00  0.00     0.278 C 
ENDBRANCH   1   7
BRANCH   2   9
ATOM      9  O   UNL     1      25.455  40.880  21.244  1.00  0.00    -0.504 OA
ATOM     10  H   UNL     1      25.370  41.169  22.212  1.00  0.00     0.293 HD
ENDBRANCH   2   9
BRANCH   5  11
ATOM     11  C   UNL     1      28.672  36.405  19.754  1.00  0.00     0.062 C 
BRANCH  11  12
ATOM     12  C   UNL     1      28.260  35.185  20.531  1.00  0.00    -0.030 C 
ATOM     13  C   UNL     1      28.538  33.951  20.100  1.00  0.00     0.004 C 
ENDBRANCH  11  12
ENDBRANCH   5  11
TORSDOF 4
ENDMDL
MODEL 5
REMARK VINA RESULT:    -3.877      9.129     10.622
REMARK INTER + INTRA:          -4.868
REMARK INTER:                  -4.601
REMARK INTRA:                  -0.267
REMARK UNBOUND:                -0.198
REMARK SMILES C=CCc1ccc(O)c(OC)c1
REMARK SMILES IDX 9 1 7 2 6 3 5 4 4 5 12 6 10 7 11 8 8 9 3 11 2 12 1 13
REMARK H PARENT 8 10
REMARK Flexibility Score: inf
ROOT
ATOM      1  C   UNL     1      26.570  38.542  20.162  1.00  0.00     0.160 A 
ATOM      2  C   UNL     1      26.705  39.153  18.908  1.00  0.00     0.157 A 
ATOM      3  C   UNL     1      27.467  40.322  18.772  1.00  0.00     0.050 A 
ATOM      4  C   UNL     1      28.097  40.883  19.884  1.00  0.00     0.008 A 
ATOM      5  C   UNL     1      27.982  40.277  21.144  1.00  0.00    -0.040 A 
ATOM      6  C   UNL     1      27.211  39.111  21.281  1.00  0.00     0.054 A 
ENDROOT
BRANCH   1   7
ATOM      7  O   UNL     1      25.794  37.376  20.257  1.00  0.00    -0.493 OA
ATOM      8  C   UNL     1      24.500  37.315  20.848  1.00  0.00     0.278 C 
ENDBRANCH   1   7
BRANCH   2   9
ATOM      9  O   UNL     1      26.075  38.594  17.797  1.00  0.00    -0.504 OA
ATOM     10  H   UNL     1      25.535  37.739  17.867  1.00  0.00     0.293 HD
ENDBRANCH   2   9
BRANCH   5  11
ATOM     11  C   UNL     1      28.640  40.901  22.346  1.00  0.00     0.062 C 
BRANCH  11  12
ATOM     12  C   UNL     1      28.206  42.331  22.507  1.00  0.00    -0.030 C 
ATOM     13  C   UNL     1      26.943  42.653  22.803  1.00  0.00     0.004 C 
ENDBRANCH  11  12
ENDBRANCH   5  11
TORSDOF 4
ENDMDL
MODEL 6
REMARK VINA RESULT:    -3.835      6.202      8.743
REMARK INTER + INTRA:          -4.818
REMARK INTER:                  -4.619
REMARK INTRA:                  -0.199
REMARK UNBOUND:                -0.198
REMARK SMILES C=CCc1ccc(O)c(OC)c1
REMARK SMILES IDX 9 1 7 2 6 3 5 4 4 5 12 6 10 7 11 8 8 9 3 11 2 12 1 13
REMARK H PARENT 8 10
REMARK Flexibility Score: inf
ROOT
ATOM      1  C   UNL     1      26.242  37.634  20.384  1.00  0.00     0.160 A 
ATOM      2  C   UNL     1      26.850  38.278  19.297  1.00  0.00     0.157 A 
ATOM      3  C   UNL     1      28.104  37.853  18.838  1.00  0.00     0.050 A 
ATOM      4  C   UNL     1      28.755  36.785  19.458  1.00  0.00     0.008 A 
ATOM      5  C   UNL     1      28.155  36.123  20.539  1.00  0.00    -0.040 A 
ATOM      6  C   UNL     1      26.902  36.555  21.005  1.00  0.00     0.054 A 
ENDROOT
BRANCH   1   7
ATOM      7  O   UNL     1      24.988  38.094  20.816  1.00  0.00    -0.493 OA
ATOM      8  C   UNL     1      23.876  37.251  21.102  1.00  0.00     0.278 C 
ENDBRANCH   1   7
BRANCH   2   9
ATOM      9  O   UNL     1      26.201  39.345  18.677  1.00  0.00    -0.504 OA
ATOM     10  H   UNL     1      25.797  39.256  17.752  1.00  0.00     0.293 HD
ENDBRANCH   2   9
BRANCH   5  11
ATOM     11  C   UNL     1      28.873  34.990  21.224  1.00  0.00     0.062 C 
BRANCH  11  12
ATOM     12  C   UNL     1      28.066  34.470  22.381  1.00  0.00    -0.030 C 
ATOM     13  C   UNL     1      28.648  33.958  23.470  1.00  0.00     0.004 C 
ENDBRANCH  11  12
ENDBRANCH   5  11
TORSDOF 4
ENDMDL
MODEL 7
REMARK VINA RESULT:    -3.816      8.776     10.479
REMARK INTER + INTRA:          -4.794
REMARK INTER:                  -4.555
REMARK INTRA:                  -0.240
REMARK UNBOUND:                -0.198
REMARK SMILES C=CCc1ccc(O)c(OC)c1
REMARK SMILES IDX 9 1 7 2 6 3 5 4 4 5 12 6 10 7 11 8 8 9 3 11 2 12 1 13
REMARK H PARENT 8 10
REMARK Flexibility Score: inf
ROOT
ATOM      1  C   UNL     1      25.956  38.354  20.555  1.00  0.00     0.160 A 
ATOM      2  C   UNL     1      27.309  38.006  20.432  1.00  0.00     0.157 A 
ATOM      3  C   UNL     1      28.296  39.001  20.446  1.00  0.00     0.050 A 
ATOM      4  C   UNL     1      27.940  40.343  20.585  1.00  0.00     0.008 A 
ATOM      5  C   UNL     1      26.592  40.707  20.720  1.00  0.00    -0.040 A 
ATOM      6  C   UNL     1      25.602  39.711  20.697  1.00  0.00     0.054 A 
ENDROOT
BRANCH   1   7
ATOM      7  O   UNL     1      24.998  37.329  20.531  1.00  0.00    -0.493 OA
ATOM      8  C   UNL     1      23.727  37.399  21.169  1.00  0.00     0.278 C 
ENDBRANCH   1   7
BRANCH   2   9
ATOM      9  O   UNL     1      27.666  36.666  20.293  1.00  0.00    -0.504 OA
ATOM     10  H   UNL     1      28.074  36.311  19.435  1.00  0.00     0.293 HD
ENDBRANCH   2   9
BRANCH   5  11
ATOM     11  C   UNL     1      26.209  42.159  20.840  1.00  0.00     0.062 C 
BRANCH  11  12
ATOM     12  C   UNL     1      27.112  43.018  20.001  1.00  0.00    -0.030 C 
ATOM     13  C   UNL     1      26.657  43.686  18.937  1.00  0.00     0.004 C 
ENDBRANCH  11  12
ENDBRANCH   5  11
TORSDOF 4
ENDMDL
MODEL 8
REMARK VINA RESULT:    -3.815      8.676     11.376
REMARK INTER + INTRA:          -4.793
REMARK INTER:                  -4.539
REMARK INTRA:                  -0.254
REMARK UNBOUND:                -0.198
REMARK SMILES C=CCc1ccc(O)c(OC)c1
REMARK SMILES IDX 9 1 7 2 6 3 5 4 4 5 12 6 10 7 11 8 8 9 3 11 2 12 1 13
REMARK H PARENT 8 10
REMARK Flexibility Score: inf
ROOT
ATOM      1  C   UNL     1      26.345  41.301  20.652  1.00  0.00     0.160 A 
ATOM      2  C   UNL     1      27.096  41.546  19.494  1.00  0.00     0.157 A 
ATOM      3  C   UNL     1      27.371  40.504  18.599  1.00  0.00     0.050 A 
ATOM      4  C   UNL     1      26.896  39.216  18.852  1.00  0.00     0.008 A 
ATOM      5  C   UNL     1      26.133  38.956  20.000  1.00  0.00    -0.040 A 
ATOM      6  C   UNL     1      25.866  39.999  20.902  1.00  0.00     0.054 A 
ENDROOT
BRANCH   1   7
ATOM      7  O   UNL     1      26.096  42.370  21.527  1.00  0.00    -0.493 OA
ATOM      8  C   UNL     1      26.853  42.641  22.702  1.00  0.00     0.278 C 
ENDBRANCH   1   7
BRANCH   2   9
ATOM      9  O   UNL     1      27.571  42.832  19.241  1.00  0.00    -0.504 OA
ATOM     10  H   UNL     1      28.516  43.107  19.485  1.00  0.00     0.293 HD
ENDBRANCH   2   9
BRANCH   5  11
ATOM     11  C   UNL     1      25.647  37.559  20.284  1.00  0.00     0.062 C 
BRANCH  11  12
ATOM     12  C   UNL     1      26.574  36.857  21.236  1.00  0.00    -0.030 C 
ATOM     13  C   UNL     1      27.612  36.135  20.802  1.00  0.00     0.004 C 
ENDBRANCH  11  12
ENDBRANCH   5  11
TORSDOF 4
ENDMDL
MODEL 9
REMARK VINA RESULT:    -3.698      2.166      3.758
REMARK INTER + INTRA:          -4.653
REMARK INTER:                  -4.435
REMARK INTRA:                  -0.218
REMARK UNBOUND:                -0.198
REMARK SMILES C=CCc1ccc(O)c(OC)c1
REMARK SMILES IDX 9 1 7 2 6 3 5 4 4 5 12 6 10 7 11 8 8 9 3 11 2 12 1 13
REMARK H PARENT 8 10
REMARK Flexibility Score: inf
ROOT
ATOM      1  C   UNL     1      29.109  31.430  23.682  1.00  0.00     0.160 A 
ATOM      2  C   UNL     1      29.111  32.309  24.773  1.00  0.00     0.157 A 
ATOM      3  C   UNL     1      29.101  33.694  24.562  1.00  0.00     0.050 A 
ATOM      4  C   UNL     1      29.087  34.208  23.264  1.00  0.00     0.008 A 
ATOM      5  C   UNL     1      29.074  33.341  22.161  1.00  0.00    -0.040 A 
ATOM      6  C   UNL     1      29.093  31.953  22.373  1.00  0.00     0.054 A 
ENDROOT
BRANCH   1   7
ATOM      7  O   UNL     1      29.125  30.049  23.935  1.00  0.00    -0.493 OA
ATOM      8  C   UNL     1      28.250  29.108  23.322  1.00  0.00     0.278 C 
ENDBRANCH   1   7
BRANCH   2   9
ATOM      9  O   UNL     1      29.125  31.798  26.070  1.00  0.00    -0.504 OA
ATOM     10  H   UNL     1      28.277  31.482  26.526  1.00  0.00     0.293 HD
ENDBRANCH   2   9
BRANCH   5  11
ATOM     11  C   UNL     1      29.088  33.899  20.762  1.00  0.00     0.062 C 
BRANCH  11  12
ATOM     12  C   UNL     1      28.480  35.273  20.730  1.00  0.00    -0.030 C 
ATOM     13  C   UNL     1      28.719  36.124  19.728  1.00  0.00     0.004 C 
ENDBRANCH  11  12
ENDBRANCH   5  11
TORSDOF 4
ENDMDL
