MODEL 1
REMARK VINA RESULT:    -4.255      0.000      0.000
REMARK INTER + INTRA:         -16.212
REMARK INTER:                 -11.220
REMARK INTRA:                  -4.993
REMARK UNBOUND:                -4.993
REMARK SMILES CCCCCCCCCCCCCCCCCCCCCCCCCCCCCC(=O)[O-]
REMARK SMILES IDX 16 1 17 2 18 3 19 4 20 5 21 6 22 7 23 8 24 9 25 10 26 11
REMARK SMILES IDX 27 12 28 13 29 14 30 15 31 16 32 17 15 18 14 19 13 20 12 21
REMARK SMILES IDX 11 22 10 23 9 24 8 25 7 26 6 27 5 28 4 29 3 30 2 31 1 32
REMARK H PARENT
REMARK Flexibility Score: inf
ROOT
ATOM      1  C   UNL     1      58.504  32.861  78.120  1.00  0.00     0.000 C 
ENDROOT
BRANCH   1   2
ATOM      2  C   UNL     1      57.991  33.520  79.406  1.00  0.00     0.000 C 
BRANCH   2   3
ATOM      3  C   UNL     1      59.109  34.205  80.212  1.00  0.00     0.000 C 
BRANCH   3   4
ATOM      4  C   UNL     1      58.688  35.491  80.945  1.00  0.00     0.000 C 
BRANCH   4   5
ATOM      5  C   UNL     1      58.686  36.728  80.028  1.00  0.00     0.000 C 
BRANCH   5   6
ATOM      6  C   UNL     1      57.264  37.158  79.635  1.00  0.00     0.000 C 
BRANCH   6   7
ATOM      7  C   UNL     1      57.261  38.103  78.424  1.00  0.00     0.000 C 
BRANCH   7   8
ATOM      8  C   UNL     1      58.646  38.730  78.213  1.00  0.00     0.000 C 
BRANCH   8   9
ATOM      9  C   UNL     1      58.902  39.126  76.748  1.00  0.00     0.000 C 
BRANCH   9  10
ATOM     10  C   UNL     1      58.088  40.339  76.251  1.00  0.00     0.000 C 
BRANCH  10  11
ATOM     11  C   UNL     1      57.371  40.097  74.905  1.00  0.00     0.000 C 
BRANCH  11  12
ATOM     12  C   UNL     1      57.473  38.631  74.449  1.00  0.00     0.000 C 
BRANCH  12  13
ATOM     13  C   UNL     1      56.195  37.828  74.751  1.00  0.00     0.006 C 
BRANCH  13  14
ATOM     14  C   UNL     1      55.160  37.869  73.616  1.00  0.00     0.053 C 
BRANCH  14  15
ATOM     15  C   UNL     1      55.274  36.677  72.712  1.00  0.00     0.041 C 
ATOM     16  O   UNL     1      55.226  36.820  71.463  1.00  0.00    -0.550 OA
ATOM     17  O   UNL     1      55.420  35.405  73.253  1.00  0.00    -0.550 OA
ENDBRANCH  14  15
ENDBRANCH  13  14
ENDBRANCH  12  13
ENDBRANCH  11  12
ENDBRANCH  10  11
ENDBRANCH   9  10
ENDBRANCH   8   9
ENDBRANCH   7   8
ENDBRANCH   6   7
ENDBRANCH   5   6
ENDBRANCH   4   5
ENDBRANCH   3   4
ENDBRANCH   2   3
ENDBRANCH   1   2
BRANCH   1  18
ATOM     18  C   UNL     1      57.633  33.254  76.921  1.00  0.00     0.000 C 
BRANCH  18  19
ATOM     19  C   UNL     1      57.457  34.779  76.844  1.00  0.00     0.000 C 
BRANCH  19  20
ATOM     20  C   UNL     1      58.556  35.470  76.020  1.00  0.00     0.000 C 
BRANCH  20  21
ATOM     21  C   UNL     1      59.055  34.680  74.794  1.00  0.00     0.000 C 
BRANCH  21  22
ATOM     22  C   UNL     1      59.106  35.504  73.490  1.00  0.00     0.000 C 
BRANCH  22  23
ATOM     23  C   UNL     1      58.785  34.660  72.242  1.00  0.00     0.000 C 
BRANCH  23  24
ATOM     24  C   UNL     1      58.658  33.156  72.551  1.00  0.00    -0.000 C 
BRANCH  24  25
ATOM     25  C   UNL     1      57.298  32.540  72.181  1.00  0.00    -0.000 C 
BRANCH  25  26
ATOM     26  C   UNL     1      56.459  32.148  73.413  1.00  0.00    -0.000 C 
BRANCH  26  27
ATOM     27  C   UNL     1      55.840  30.747  73.292  1.00  0.00    -0.000 C 
BRANCH  27  28
ATOM     28  C   UNL     1      56.244  29.743  74.390  1.00  0.00    -0.000 C 
BRANCH  28  29
ATOM     29  C   UNL     1      57.424  30.198  75.275  1.00  0.00    -0.000 C 
BRANCH  29  30
ATOM     30  C   UNL     1      58.453  29.081  75.527  1.00  0.00    -0.000 C 
BRANCH  30  31
ATOM     31  C   UNL     1      59.788  29.630  76.062  1.00  0.00    -0.003 C 
ATOM     32  C   UNL     1      60.192  30.941  75.382  1.00  0.00     0.004 C 
ENDBRANCH  30  31
ENDBRANCH  29  30
ENDBRANCH  28  29
ENDBRANCH  27  28
ENDBRANCH  26  27
ENDBRANCH  25  26
ENDBRANCH  24  25
ENDBRANCH  23  24
ENDBRANCH  22  23
ENDBRANCH  21  22
ENDBRANCH  20  21
ENDBRANCH  19  20
ENDBRANCH  18  19
ENDBRANCH   1  18
TORSDOF 28
ENDMDL
MODEL 2
REMARK VINA RESULT:    -4.194      2.571      7.913
REMARK INTER + INTRA:         -16.052
REMARK INTER:                 -11.688
REMARK INTRA:                  -4.365
REMARK UNBOUND:                -4.993
REMARK SMILES CCCCCCCCCCCCCCCCCCCCCCCCCCCCCC(=O)[O-]
REMARK SMILES IDX 16 1 17 2 18 3 19 4 20 5 21 6 22 7 23 8 24 9 25 10 26 11
REMARK SMILES IDX 27 12 28 13 29 14 30 15 31 16 32 17 15 18 14 19 13 20 12 21
REMARK SMILES IDX 11 22 10 23 9 24 8 25 7 26 6 27 5 28 4 29 3 30 2 31 1 32
REMARK H PARENT
REMARK Flexibility Score: inf
ROOT
ATOM      1  C   UNL     1      57.832  33.497  79.895  1.00  0.00     0.000 C 
ENDROOT
BRANCH   1   2
ATOM      2  C   UNL     1      57.900  32.891  78.487  1.00  0.00     0.000 C 
BRANCH   2   3
ATOM      3  C   UNL     1      58.290  33.921  77.413  1.00  0.00     0.000 C 
BRANCH   3   4
ATOM      4  C   UNL     1      57.359  33.968  76.189  1.00  0.00     0.000 C 
BRANCH   4   5
ATOM      5  C   UNL     1      58.126  33.977  74.854  1.00  0.00     0.000 C 
BRANCH   5   6
ATOM      6  C   UNL     1      57.212  33.684  73.655  1.00  0.00     0.000 C 
BRANCH   6   7
ATOM      7  C   UNL     1      57.414  32.262  73.109  1.00  0.00     0.000 C 
BRANCH   7   8
ATOM      8  C   UNL     1      56.072  31.530  72.971  1.00  0.00     0.000 C 
BRANCH   8   9
ATOM      9  C   UNL     1      55.955  30.319  73.913  1.00  0.00     0.000 C 
BRANCH   9  10
ATOM     10  C   UNL     1      56.904  30.349  75.129  1.00  0.00     0.000 C 
BRANCH  10  11
ATOM     11  C   UNL     1      57.595  28.998  75.412  1.00  0.00     0.000 C 
BRANCH  11  12
ATOM     12  C   UNL     1      59.119  29.147  75.566  1.00  0.00     0.000 C 
BRANCH  12  13
ATOM     13  C   UNL     1      59.573  30.617  75.557  1.00  0.00     0.006 C 
BRANCH  13  14
ATOM     14  C   UNL     1      60.921  30.850  76.258  1.00  0.00     0.053 C 
BRANCH  14  15
ATOM     15  C   UNL     1      62.064  30.841  75.288  1.00  0.00     0.041 C 
ATOM     16  O   UNL     1      62.759  31.876  75.114  1.00  0.00    -0.550 OA
ATOM     17  O   UNL     1      62.354  29.690  74.564  1.00  0.00    -0.550 OA
ENDBRANCH  14  15
ENDBRANCH  13  14
ENDBRANCH  12  13
ENDBRANCH  11  12
ENDBRANCH  10  11
ENDBRANCH   9  10
ENDBRANCH   8   9
ENDBRANCH   7   8
ENDBRANCH   6   7
ENDBRANCH   5   6
ENDBRANCH   4   5
ENDBRANCH   3   4
ENDBRANCH   2   3
ENDBRANCH   1   2
BRANCH   1  18
ATOM     18  C   UNL     1      59.098  34.305  80.202  1.00  0.00     0.000 C 
BRANCH  18  19
ATOM     19  C   UNL     1      58.788  35.480  81.142  1.00  0.00     0.000 C 
BRANCH  19  20
ATOM     20  C   UNL     1      58.519  36.796  80.393  1.00  0.00     0.000 C 
BRANCH  20  21
ATOM     21  C   UNL     1      57.037  37.086  80.084  1.00  0.00     0.000 C 
BRANCH  21  22
ATOM     22  C   UNL     1      56.675  36.996  78.586  1.00  0.00     0.000 C 
BRANCH  22  23
ATOM     23  C   UNL     1      57.287  38.143  77.758  1.00  0.00     0.000 C 
BRANCH  23  24
ATOM     24  C   UNL     1      58.443  37.678  76.852  1.00  0.00    -0.000 C 
BRANCH  24  25
ATOM     25  C   UNL     1      58.094  37.607  75.356  1.00  0.00    -0.000 C 
BRANCH  25  26
ATOM     26  C   UNL     1      56.666  38.094  75.046  1.00  0.00    -0.000 C 
BRANCH  26  27
ATOM     27  C   UNL     1      55.705  36.947  74.699  1.00  0.00    -0.000 C 
BRANCH  27  28
ATOM     28  C   UNL     1      55.214  36.908  73.238  1.00  0.00    -0.000 C 
BRANCH  28  29
ATOM     29  C   UNL     1      54.098  37.922  72.907  1.00  0.00    -0.000 C 
BRANCH  29  30
ATOM     30  C   UNL     1      54.640  39.253  72.355  1.00  0.00    -0.000 C 
BRANCH  30  31
ATOM     31  C   UNL     1      53.627  40.402  72.506  1.00  0.00    -0.003 C 
ATOM     32  C   UNL     1      52.231  39.900  72.884  1.00  0.00     0.004 C 
ENDBRANCH  30  31
ENDBRANCH  29  30
ENDBRANCH  28  29
ENDBRANCH  27  28
ENDBRANCH  26  27
ENDBRANCH  25  26
ENDBRANCH  24  25
ENDBRANCH  23  24
ENDBRANCH  22  23
ENDBRANCH  21  22
ENDBRANCH  20  21
ENDBRANCH  19  20
ENDBRANCH  18  19
ENDBRANCH   1  18
TORSDOF 28
ENDMDL
MODEL 3
REMARK VINA RESULT:    -4.187      3.846      9.197
REMARK INTER + INTRA:         -16.032
REMARK INTER:                 -11.598
REMARK INTRA:                  -4.434
REMARK UNBOUND:                -4.993
REMARK SMILES CCCCCCCCCCCCCCCCCCCCCCCCCCCCCC(=O)[O-]
REMARK SMILES IDX 16 1 17 2 18 3 19 4 20 5 21 6 22 7 23 8 24 9 25 10 26 11
REMARK SMILES IDX 27 12 28 13 29 14 30 15 31 16 32 17 15 18 14 19 13 20 12 21
REMARK SMILES IDX 11 22 10 23 9 24 8 25 7 26 6 27 5 28 4 29 3 30 2 31 1 32
REMARK H PARENT
REMARK Flexibility Score: inf
ROOT
ATOM      1  C   UNL     1      57.036  33.513  73.699  1.00  0.00     0.000 C 
ENDROOT
BRANCH   1   2
ATOM      2  C   UNL     1      57.295  32.009  73.546  1.00  0.00     0.000 C 
BRANCH   2   3
ATOM      3  C   UNL     1      56.017  31.213  73.231  1.00  0.00     0.000 C 
BRANCH   3   4
ATOM      4  C   UNL     1      55.867  29.891  74.005  1.00  0.00     0.000 C 
BRANCH   4   5
ATOM      5  C   UNL     1      56.703  29.858  75.298  1.00  0.00     0.000 C 
BRANCH   5   6
ATOM      6  C   UNL     1      57.877  28.871  75.206  1.00  0.00     0.000 C 
BRANCH   6   7
ATOM      7  C   UNL     1      59.095  29.346  76.013  1.00  0.00     0.000 C 
BRANCH   7   8
ATOM      8  C   UNL     1      60.247  29.748  75.083  1.00  0.00     0.000 C 
BRANCH   8   9
ATOM      9  C   UNL     1      61.073  30.924  75.633  1.00  0.00     0.000 C 
BRANCH   9  10
ATOM     10  C   UNL     1      62.565  30.615  75.872  1.00  0.00     0.000 C 
BRANCH  10  11
ATOM     11  C   UNL     1      63.067  29.361  75.125  1.00  0.00     0.000 C 
BRANCH  11  12
ATOM     12  C   UNL     1      63.486  28.238  76.091  1.00  0.00     0.000 C 
BRANCH  12  13
ATOM     13  C   UNL     1      62.742  28.307  77.435  1.00  0.00     0.006 C 
BRANCH  13  14
ATOM     14  C   UNL     1      63.500  27.640  78.594  1.00  0.00     0.053 C 
BRANCH  14  15
ATOM     15  C   UNL     1      62.588  26.826  79.463  1.00  0.00     0.041 C 
ATOM     16  O   UNL     1      61.491  26.402  79.013  1.00  0.00    -0.550 OA
ATOM     17  O   UNL     1      62.943  26.548  80.777  1.00  0.00    -0.550 OA
ENDBRANCH  14  15
ENDBRANCH  13  14
ENDBRANCH  12  13
ENDBRANCH  11  12
ENDBRANCH  10  11
ENDBRANCH   9  10
ENDBRANCH   8   9
ENDBRANCH   7   8
ENDBRANCH   6   7
ENDBRANCH   5   6
ENDBRANCH   4   5
ENDBRANCH   3   4
ENDBRANCH   2   3
ENDBRANCH   1   2
BRANCH   1  18
ATOM     18  C   UNL     1      57.245  33.958  75.151  1.00  0.00     0.000 C 
BRANCH  18  19
ATOM     19  C   UNL     1      58.330  33.113  75.836  1.00  0.00     0.000 C 
BRANCH  19  20
ATOM     20  C   UNL     1      58.011  32.802  77.308  1.00  0.00     0.000 C 
BRANCH  20  21
ATOM     21  C   UNL     1      58.230  33.970  78.289  1.00  0.00     0.000 C 
BRANCH  21  22
ATOM     22  C   UNL     1      58.012  33.599  79.772  1.00  0.00     0.000 C 
BRANCH  22  23
ATOM     23  C   UNL     1      58.740  34.554  80.736  1.00  0.00     0.000 C 
BRANCH  23  24
ATOM     24  C   UNL     1      59.013  35.938  80.118  1.00  0.00    -0.000 C 
BRANCH  24  25
ATOM     25  C   UNL     1      58.210  37.089  80.747  1.00  0.00    -0.000 C 
BRANCH  25  26
ATOM     26  C   UNL     1      56.729  37.095  80.322  1.00  0.00    -0.000 C 
BRANCH  26  27
ATOM     27  C   UNL     1      56.498  37.796  78.974  1.00  0.00    -0.000 C 
BRANCH  27  28
ATOM     28  C   UNL     1      56.181  36.866  77.785  1.00  0.00    -0.000 C 
BRANCH  28  29
ATOM     29  C   UNL     1      57.006  37.146  76.511  1.00  0.00    -0.000 C 
BRANCH  29  30
ATOM     30  C   UNL     1      58.431  37.642  76.815  1.00  0.00    -0.000 C 
BRANCH  30  31
ATOM     31  C   UNL     1      59.507  36.752  76.167  1.00  0.00    -0.003 C 
ATOM     32  C   UNL     1      59.565  36.922  74.647  1.00  0.00     0.004 C 
ENDBRANCH  30  31
ENDBRANCH  29  30
ENDBRANCH  28  29
ENDBRANCH  27  28
ENDBRANCH  26  27
ENDBRANCH  25  26
ENDBRANCH  24  25
ENDBRANCH  23  24
ENDBRANCH  22  23
ENDBRANCH  21  22
ENDBRANCH  20  21
ENDBRANCH  19  20
ENDBRANCH  18  19
ENDBRANCH   1  18
TORSDOF 28
ENDMDL
MODEL 4
REMARK VINA RESULT:    -4.143      2.791      7.464
REMARK INTER + INTRA:         -15.917
REMARK INTER:                 -10.369
REMARK INTRA:                  -5.548
REMARK UNBOUND:                -4.993
REMARK SMILES CCCCCCCCCCCCCCCCCCCCCCCCCCCCCC(=O)[O-]
REMARK SMILES IDX 16 1 17 2 18 3 19 4 20 5 21 6 22 7 23 8 24 9 25 10 26 11
REMARK SMILES IDX 27 12 28 13 29 14 30 15 31 16 32 17 15 18 14 19 13 20 12 21
REMARK SMILES IDX 11 22 10 23 9 24 8 25 7 26 6 27 5 28 4 29 3 30 2 31 1 32
REMARK H PARENT
REMARK Flexibility Score: inf
ROOT
ATOM      1  C   UNL     1      57.728  33.502  79.995  1.00  0.00     0.000 C 
ENDROOT
BRANCH   1   2
ATOM      2  C   UNL     1      57.704  32.760  78.653  1.00  0.00     0.000 C 
BRANCH   2   3
ATOM      3  C   UNL     1      58.397  33.546  77.525  1.00  0.00     0.000 C 
BRANCH   3   4
ATOM      4  C   UNL     1      57.639  33.566  76.187  1.00  0.00     0.000 C 
BRANCH   4   5
ATOM      5  C   UNL     1      58.471  34.163  75.037  1.00  0.00     0.000 C 
BRANCH   5   6
ATOM      6  C   UNL     1      57.888  33.820  73.657  1.00  0.00     0.000 C 
BRANCH   6   7
ATOM      7  C   UNL     1      57.844  32.305  73.409  1.00  0.00     0.000 C 
BRANCH   7   8
ATOM      8  C   UNL     1      56.486  31.881  72.834  1.00  0.00     0.000 C 
BRANCH   8   9
ATOM      9  C   UNL     1      55.935  30.602  73.490  1.00  0.00     0.000 C 
BRANCH   9  10
ATOM     10  C   UNL     1      56.515  30.287  74.885  1.00  0.00     0.000 C 
BRANCH  10  11
ATOM     11  C   UNL     1      57.171  28.893  74.985  1.00  0.00     0.000 C 
BRANCH  11  12
ATOM     12  C   UNL     1      58.689  28.983  75.226  1.00  0.00     0.000 C 
BRANCH  12  13
ATOM     13  C   UNL     1      59.067  30.115  76.197  1.00  0.00     0.006 C 
BRANCH  13  14
ATOM     14  C   UNL     1      60.481  30.674  75.970  1.00  0.00     0.053 C 
BRANCH  14  15
ATOM     15  C   UNL     1      61.506  29.583  75.885  1.00  0.00     0.041 C 
ATOM     16  O   UNL     1      62.246  29.482  74.872  1.00  0.00    -0.550 OA
ATOM     17  O   UNL     1      61.634  28.666  76.923  1.00  0.00    -0.550 OA
ENDBRANCH  14  15
ENDBRANCH  13  14
ENDBRANCH  12  13
ENDBRANCH  11  12
ENDBRANCH  10  11
ENDBRANCH   9  10
ENDBRANCH   8   9
ENDBRANCH   7   8
ENDBRANCH   6   7
ENDBRANCH   5   6
ENDBRANCH   4   5
ENDBRANCH   3   4
ENDBRANCH   2   3
ENDBRANCH   1   2
BRANCH   1  18
ATOM     18  C   UNL     1      59.074  34.204  80.207  1.00  0.00     0.000 C 
BRANCH  18  19
ATOM     19  C   UNL     1      58.872  35.651  80.684  1.00  0.00     0.000 C 
BRANCH  19  20
ATOM     20  C   UNL     1      59.119  36.690  79.577  1.00  0.00     0.000 C 
BRANCH  20  21
ATOM     21  C   UNL     1      57.906  37.572  79.221  1.00  0.00     0.000 C 
BRANCH  21  22
ATOM     22  C   UNL     1      56.811  36.844  78.413  1.00  0.00     0.000 C 
BRANCH  22  23
ATOM     23  C   UNL     1      56.846  37.199  76.914  1.00  0.00     0.000 C 
BRANCH  23  24
ATOM     24  C   UNL     1      55.691  36.561  76.119  1.00  0.00    -0.000 C 
BRANCH  24  25
ATOM     25  C   UNL     1      55.760  36.785  74.599  1.00  0.00    -0.000 C 
BRANCH  25  26
ATOM     26  C   UNL     1      56.717  37.925  74.201  1.00  0.00    -0.000 C 
BRANCH  26  27
ATOM     27  C   UNL     1      57.294  37.753  72.787  1.00  0.00    -0.000 C 
BRANCH  27  28
ATOM     28  C   UNL     1      58.678  38.390  72.550  1.00  0.00    -0.000 C 
BRANCH  28  29
ATOM     29  C   UNL     1      59.516  38.601  73.829  1.00  0.00    -0.000 C 
BRANCH  29  30
ATOM     30  C   UNL     1      60.183  37.308  74.332  1.00  0.00    -0.000 C 
BRANCH  30  31
ATOM     31  C   UNL     1      60.421  37.329  75.852  1.00  0.00    -0.003 C 
ATOM     32  C   UNL     1      60.177  38.713  76.461  1.00  0.00     0.004 C 
ENDBRANCH  30  31
ENDBRANCH  29  30
ENDBRANCH  28  29
ENDBRANCH  27  28
ENDBRANCH  26  27
ENDBRANCH  25  26
ENDBRANCH  24  25
ENDBRANCH  23  24
ENDBRANCH  22  23
ENDBRANCH  21  22
ENDBRANCH  20  21
ENDBRANCH  19  20
ENDBRANCH  18  19
ENDBRANCH   1  18
TORSDOF 28
ENDMDL
MODEL 5
REMARK VINA RESULT:    -4.128      1.503      3.153
REMARK INTER + INTRA:         -15.878
REMARK INTER:                 -10.671
REMARK INTRA:                  -5.206
REMARK UNBOUND:                -4.993
REMARK SMILES CCCCCCCCCCCCCCCCCCCCCCCCCCCCCC(=O)[O-]
REMARK SMILES IDX 16 1 17 2 18 3 19 4 20 5 21 6 22 7 23 8 24 9 25 10 26 11
REMARK SMILES IDX 27 12 28 13 29 14 30 15 31 16 32 17 15 18 14 19 13 20 12 21
REMARK SMILES IDX 11 22 10 23 9 24 8 25 7 26 6 27 5 28 4 29 3 30 2 31 1 32
REMARK H PARENT
REMARK Flexibility Score: inf
ROOT
ATOM      1  C   UNL     1      58.813  35.928  79.917  1.00  0.00     0.000 C 
ENDROOT
BRANCH   1   2
ATOM      2  C   UNL     1      57.758  36.910  80.443  1.00  0.00     0.000 C 
BRANCH   2   3
ATOM      3  C   UNL     1      56.708  37.281  79.382  1.00  0.00     0.000 C 
BRANCH   3   4
ATOM      4  C   UNL     1      57.277  37.610  77.991  1.00  0.00     0.000 C 
BRANCH   4   5
ATOM      5  C   UNL     1      57.695  39.086  77.850  1.00  0.00     0.000 C 
BRANCH   5   6
ATOM      6  C   UNL     1      59.091  39.238  77.225  1.00  0.00     0.000 C 
BRANCH   6   7
ATOM      7  C   UNL     1      59.769  37.881  76.989  1.00  0.00     0.000 C 
BRANCH   7   8
ATOM      8  C   UNL     1      60.237  37.746  75.533  1.00  0.00     0.000 C 
BRANCH   8   9
ATOM      9  C   UNL     1      59.168  37.120  74.620  1.00  0.00     0.000 C 
BRANCH   9  10
ATOM     10  C   UNL     1      58.957  37.846  73.276  1.00  0.00     0.000 C 
BRANCH  10  11
ATOM     11  C   UNL     1      57.544  38.445  73.107  1.00  0.00     0.000 C 
BRANCH  11  12
ATOM     12  C   UNL     1      56.747  38.430  74.424  1.00  0.00     0.000 C 
BRANCH  12  13
ATOM     13  C   UNL     1      55.348  37.810  74.262  1.00  0.00     0.006 C 
BRANCH  13  14
ATOM     14  C   UNL     1      54.822  37.847  72.818  1.00  0.00     0.053 C 
BRANCH  14  15
ATOM     15  C   UNL     1      53.884  38.995  72.595  1.00  0.00     0.041 C 
ATOM     16  O   UNL     1      52.812  38.826  71.958  1.00  0.00    -0.550 OA
ATOM     17  O   UNL     1      54.202  40.259  73.080  1.00  0.00    -0.550 OA
ENDBRANCH  14  15
ENDBRANCH  13  14
ENDBRANCH  12  13
ENDBRANCH  11  12
ENDBRANCH  10  11
ENDBRANCH   9  10
ENDBRANCH   8   9
ENDBRANCH   7   8
ENDBRANCH   6   7
ENDBRANCH   5   6
ENDBRANCH   4   5
ENDBRANCH   3   4
ENDBRANCH   2   3
ENDBRANCH   1   2
BRANCH   1  18
ATOM     18  C   UNL     1      58.440  34.484  80.273  1.00  0.00     0.000 C 
BRANCH  18  19
ATOM     19  C   UNL     1      58.827  33.519  79.142  1.00  0.00     0.000 C 
BRANCH  19  20
ATOM     20  C   UNL     1      57.758  33.423  78.040  1.00  0.00     0.000 C 
BRANCH  20  21
ATOM     21  C   UNL     1      58.099  34.156  76.728  1.00  0.00     0.000 C 
BRANCH  21  22
ATOM     22  C   UNL     1      56.874  34.748  75.999  1.00  0.00     0.000 C 
BRANCH  22  23
ATOM     23  C   UNL     1      56.937  34.545  74.473  1.00  0.00     0.000 C 
BRANCH  23  24
ATOM     24  C   UNL     1      57.144  33.073  74.071  1.00  0.00    -0.000 C 
BRANCH  24  25
ATOM     25  C   UNL     1      58.315  32.832  73.103  1.00  0.00    -0.000 C 
BRANCH  25  26
ATOM     26  C   UNL     1      59.684  32.805  73.808  1.00  0.00    -0.000 C 
BRANCH  26  27
ATOM     27  C   UNL     1      60.064  31.407  74.321  1.00  0.00    -0.000 C 
BRANCH  27  28
ATOM     28  C   UNL     1      60.016  31.223  75.852  1.00  0.00    -0.000 C 
BRANCH  28  29
ATOM     29  C   UNL     1      59.586  29.816  76.317  1.00  0.00    -0.000 C 
BRANCH  29  30
ATOM     30  C   UNL     1      58.581  29.147  75.363  1.00  0.00    -0.000 C 
BRANCH  30  31
ATOM     31  C   UNL     1      57.122  29.416  75.774  1.00  0.00    -0.003 C 
ATOM     32  C   UNL     1      56.229  29.740  74.572  1.00  0.00     0.004 C 
ENDBRANCH  30  31
ENDBRANCH  29  30
ENDBRANCH  28  29
ENDBRANCH  27  28
ENDBRANCH  26  27
ENDBRANCH  25  26
ENDBRANCH  24  25
ENDBRANCH  23  24
ENDBRANCH  22  23
ENDBRANCH  21  22
ENDBRANCH  20  21
ENDBRANCH  19  20
ENDBRANCH  18  19
ENDBRANCH   1  18
TORSDOF 28
ENDMDL
MODEL 6
REMARK VINA RESULT:    -4.114      2.973      7.344
REMARK INTER + INTRA:         -15.842
REMARK INTER:                 -10.354
REMARK INTRA:                  -5.488
REMARK UNBOUND:                -4.993
REMARK SMILES CCCCCCCCCCCCCCCCCCCCCCCCCCCCCC(=O)[O-]
REMARK SMILES IDX 16 1 17 2 18 3 19 4 20 5 21 6 22 7 23 8 24 9 25 10 26 11
REMARK SMILES IDX 27 12 28 13 29 14 30 15 31 16 32 17 15 18 14 19 13 20 12 21
REMARK SMILES IDX 11 22 10 23 9 24 8 25 7 26 6 27 5 28 4 29 3 30 2 31 1 32
REMARK H PARENT
REMARK Flexibility Score: inf
ROOT
ATOM      1  C   UNL     1      58.955  33.614  79.280  1.00  0.00     0.000 C 
ENDROOT
BRANCH   1   2
ATOM      2  C   UNL     1      57.990  32.881  78.340  1.00  0.00     0.000 C 
BRANCH   2   3
ATOM      3  C   UNL     1      57.610  33.716  77.105  1.00  0.00     0.000 C 
BRANCH   3   4
ATOM      4  C   UNL     1      58.028  33.109  75.755  1.00  0.00     0.000 C 
BRANCH   4   5
ATOM      5  C   UNL     1      57.661  31.619  75.630  1.00  0.00     0.000 C 
BRANCH   5   6
ATOM      6  C   UNL     1      57.080  31.276  74.250  1.00  0.00     0.000 C 
BRANCH   6   7
ATOM      7  C   UNL     1      56.712  32.535  73.449  1.00  0.00     0.000 C 
BRANCH   7   8
ATOM      8  C   UNL     1      57.180  32.415  71.992  1.00  0.00     0.000 C 
BRANCH   8   9
ATOM      9  C   UNL     1      58.118  33.560  71.573  1.00  0.00     0.000 C 
BRANCH   9  10
ATOM     10  C   UNL     1      59.341  33.767  72.490  1.00  0.00     0.000 C 
BRANCH  10  11
ATOM     11  C   UNL     1      60.345  32.594  72.461  1.00  0.00     0.000 C 
BRANCH  11  12
ATOM     12  C   UNL     1      61.060  32.410  73.811  1.00  0.00     0.000 C 
BRANCH  12  13
ATOM     13  C   UNL     1      60.927  30.978  74.361  1.00  0.00     0.006 C 
BRANCH  13  14
ATOM     14  C   UNL     1      61.311  30.850  75.843  1.00  0.00     0.053 C 
BRANCH  14  15
ATOM     15  C   UNL     1      62.784  30.632  76.022  1.00  0.00     0.041 C 
ATOM     16  O   UNL     1      63.430  29.940  75.193  1.00  0.00    -0.550 OA
ATOM     17  O   UNL     1      63.441  31.182  77.116  1.00  0.00    -0.550 OA
ENDBRANCH  14  15
ENDBRANCH  13  14
ENDBRANCH  12  13
ENDBRANCH  11  12
ENDBRANCH  10  11
ENDBRANCH   9  10
ENDBRANCH   8   9
ENDBRANCH   7   8
ENDBRANCH   6   7
ENDBRANCH   5   6
ENDBRANCH   4   5
ENDBRANCH   3   4
ENDBRANCH   2   3
ENDBRANCH   1   2
BRANCH   1  18
ATOM     18  C   UNL     1      58.198  34.248  80.453  1.00  0.00     0.000 C 
BRANCH  18  19
ATOM     19  C   UNL     1      59.017  35.381  81.090  1.00  0.00     0.000 C 
BRANCH  19  20
ATOM     20  C   UNL     1      58.360  36.762  80.929  1.00  0.00     0.000 C 
BRANCH  20  21
ATOM     21  C   UNL     1      57.065  36.781  80.093  1.00  0.00     0.000 C 
BRANCH  21  22
ATOM     22  C   UNL     1      57.270  37.194  78.620  1.00  0.00     0.000 C 
BRANCH  22  23
ATOM     23  C   UNL     1      58.700  37.694  78.338  1.00  0.00     0.000 C 
BRANCH  23  24
ATOM     24  C   UNL     1      59.381  36.942  77.180  1.00  0.00    -0.000 C 
BRANCH  24  25
ATOM     25  C   UNL     1      60.132  37.843  76.185  1.00  0.00    -0.000 C 
BRANCH  25  26
ATOM     26  C   UNL     1      59.248  38.961  75.599  1.00  0.00    -0.000 C 
BRANCH  26  27
ATOM     27  C   UNL     1      58.227  38.440  74.575  1.00  0.00    -0.000 C 
BRANCH  27  28
ATOM     28  C   UNL     1      56.760  38.414  75.050  1.00  0.00    -0.000 C 
BRANCH  28  29
ATOM     29  C   UNL     1      56.163  37.000  75.216  1.00  0.00    -0.000 C 
BRANCH  29  30
ATOM     30  C   UNL     1      56.535  36.052  74.062  1.00  0.00    -0.000 C 
BRANCH  30  31
ATOM     31  C   UNL     1      55.396  35.906  73.038  1.00  0.00    -0.003 C 
ATOM     32  C   UNL     1      55.803  36.387  71.642  1.00  0.00     0.004 C 
ENDBRANCH  30  31
ENDBRANCH  29  30
ENDBRANCH  28  29
ENDBRANCH  27  28
ENDBRANCH  26  27
ENDBRANCH  25  26
ENDBRANCH  24  25
ENDBRANCH  23  24
ENDBRANCH  22  23
ENDBRANCH  21  22
ENDBRANCH  20  21
ENDBRANCH  19  20
ENDBRANCH  18  19
ENDBRANCH   1  18
TORSDOF 28
ENDMDL
MODEL 7
REMARK VINA RESULT:    -4.100      2.297      5.245
REMARK INTER + INTRA:         -15.805
REMARK INTER:                 -11.186
REMARK INTRA:                  -4.619
REMARK UNBOUND:                -4.993
REMARK SMILES CCCCCCCCCCCCCCCCCCCCCCCCCCCCCC(=O)[O-]
REMARK SMILES IDX 16 1 17 2 18 3 19 4 20 5 21 6 22 7 23 8 24 9 25 10 26 11
REMARK SMILES IDX 27 12 28 13 29 14 30 15 31 16 32 17 15 18 14 19 13 20 12 21
REMARK SMILES IDX 11 22 10 23 9 24 8 25 7 26 6 27 5 28 4 29 3 30 2 31 1 32
REMARK H PARENT
REMARK Flexibility Score: inf
ROOT
ATOM      1  C   UNL     1      55.797  36.351  74.595  1.00  0.00     0.000 C 
ENDROOT
BRANCH   1   2
ATOM      2  C   UNL     1      57.030  37.263  74.628  1.00  0.00     0.000 C 
BRANCH   2   3
ATOM      3  C   UNL     1      58.353  36.481  74.542  1.00  0.00     0.000 C 
BRANCH   3   4
ATOM      4  C   UNL     1      58.801  35.815  75.854  1.00  0.00     0.000 C 
BRANCH   4   5
ATOM      5  C   UNL     1      58.522  34.300  75.881  1.00  0.00     0.000 C 
BRANCH   5   6
ATOM      6  C   UNL     1      57.605  33.898  77.046  1.00  0.00     0.000 C 
BRANCH   6   7
ATOM      7  C   UNL     1      58.279  32.892  77.991  1.00  0.00     0.000 C 
BRANCH   7   8
ATOM      8  C   UNL     1      58.828  33.594  79.240  1.00  0.00     0.000 C 
BRANCH   8   9
ATOM      9  C   UNL     1      57.996  34.825  79.645  1.00  0.00     0.000 C 
BRANCH   9  10
ATOM     10  C   UNL     1      58.714  35.811  80.589  1.00  0.00     0.000 C 
BRANCH  10  11
ATOM     11  C   UNL     1      58.316  37.286  80.366  1.00  0.00     0.000 C 
BRANCH  11  12
ATOM     12  C   UNL     1      56.983  37.419  79.608  1.00  0.00     0.000 C 
BRANCH  12  13
ATOM     13  C   UNL     1      57.149  38.087  78.232  1.00  0.00     0.006 C 
BRANCH  13  14
ATOM     14  C   UNL     1      58.478  38.841  78.070  1.00  0.00     0.053 C 
BRANCH  14  15
ATOM     15  C   UNL     1      58.287  40.178  77.418  1.00  0.00     0.041 C 
ATOM     16  O   UNL     1      58.703  41.224  77.980  1.00  0.00    -0.550 OA
ATOM     17  O   UNL     1      57.634  40.269  76.195  1.00  0.00    -0.550 OA
ENDBRANCH  14  15
ENDBRANCH  13  14
ENDBRANCH  12  13
ENDBRANCH  11  12
ENDBRANCH  10  11
ENDBRANCH   9  10
ENDBRANCH   8   9
ENDBRANCH   7   8
ENDBRANCH   6   7
ENDBRANCH   5   6
ENDBRANCH   4   5
ENDBRANCH   3   4
ENDBRANCH   2   3
ENDBRANCH   1   2
BRANCH   1  18
ATOM     18  C   UNL     1      55.642  35.693  73.219  1.00  0.00     0.000 C 
BRANCH  18  19
ATOM     19  C   UNL     1      55.799  34.168  73.315  1.00  0.00     0.000 C 
BRANCH  19  20
ATOM     20  C   UNL     1      57.069  33.648  72.620  1.00  0.00     0.000 C 
BRANCH  20  21
ATOM     21  C   UNL     1      57.303  32.129  72.729  1.00  0.00     0.000 C 
BRANCH  21  22
ATOM     22  C   UNL     1      56.015  31.305  72.940  1.00  0.00     0.000 C 
BRANCH  22  23
ATOM     23  C   UNL     1      56.150  30.271  74.073  1.00  0.00     0.000 C 
BRANCH  23  24
ATOM     24  C   UNL     1      57.054  30.755  75.223  1.00  0.00    -0.000 C 
BRANCH  24  25
ATOM     25  C   UNL     1      57.979  29.675  75.807  1.00  0.00    -0.000 C 
BRANCH  25  26
ATOM     26  C   UNL     1      59.317  29.554  75.052  1.00  0.00    -0.000 C 
BRANCH  26  27
ATOM     27  C   UNL     1      60.367  30.569  75.531  1.00  0.00    -0.000 C 
BRANCH  27  28
ATOM     28  C   UNL     1      61.837  30.133  75.370  1.00  0.00    -0.000 C 
BRANCH  28  29
ATOM     29  C   UNL     1      62.456  29.482  76.626  1.00  0.00    -0.000 C 
BRANCH  29  30
ATOM     30  C   UNL     1      62.347  27.947  76.623  1.00  0.00    -0.000 C 
BRANCH  30  31
ATOM     31  C   UNL     1      61.143  27.448  77.442  1.00  0.00    -0.003 C 
ATOM     32  C   UNL     1      60.345  26.369  76.704  1.00  0.00     0.004 C 
ENDBRANCH  30  31
ENDBRANCH  29  30
ENDBRANCH  28  29
ENDBRANCH  27  28
ENDBRANCH  26  27
ENDBRANCH  25  26
ENDBRANCH  24  25
ENDBRANCH  23  24
ENDBRANCH  22  23
ENDBRANCH  21  22
ENDBRANCH  20  21
ENDBRANCH  19  20
ENDBRANCH  18  19
ENDBRANCH   1  18
TORSDOF 28
ENDMDL
MODEL 8
REMARK VINA RESULT:    -4.076      2.171      6.773
REMARK INTER + INTRA:         -15.740
REMARK INTER:                  -9.841
REMARK INTRA:                  -5.899
REMARK UNBOUND:                -4.993
REMARK SMILES CCCCCCCCCCCCCCCCCCCCCCCCCCCCCC(=O)[O-]
REMARK SMILES IDX 16 1 17 2 18 3 19 4 20 5 21 6 22 7 23 8 24 9 25 10 26 11
REMARK SMILES IDX 27 12 28 13 29 14 30 15 31 16 32 17 15 18 14 19 13 20 12 21
REMARK SMILES IDX 11 22 10 23 9 24 8 25 7 26 6 27 5 28 4 29 3 30 2 31 1 32
REMARK H PARENT
REMARK Flexibility Score: inf
ROOT
ATOM      1  C   UNL     1      58.363  35.033  77.167  1.00  0.00     0.000 C 
ENDROOT
BRANCH   1   2
ATOM      2  C   UNL     1      57.908  35.090  75.703  1.00  0.00     0.000 C 
BRANCH   2   3
ATOM      3  C   UNL     1      56.378  35.162  75.556  1.00  0.00     0.000 C 
BRANCH   3   4
ATOM      4  C   UNL     1      55.803  36.584  75.431  1.00  0.00     0.000 C 
BRANCH   4   5
ATOM      5  C   UNL     1      55.393  36.939  73.990  1.00  0.00     0.000 C 
BRANCH   5   6
ATOM      6  C   UNL     1      55.759  38.385  73.621  1.00  0.00     0.000 C 
BRANCH   6   7
ATOM      7  C   UNL     1      56.388  38.482  72.223  1.00  0.00     0.000 C 
BRANCH   7   8
ATOM      8  C   UNL     1      56.439  37.105  71.546  1.00  0.00     0.000 C 
BRANCH   8   9
ATOM      9  C   UNL     1      57.877  36.611  71.311  1.00  0.00     0.000 C 
BRANCH   9  10
ATOM     10  C   UNL     1      58.286  35.382  72.150  1.00  0.00     0.000 C 
BRANCH  10  11
ATOM     11  C   UNL     1      57.294  34.204  72.052  1.00  0.00     0.000 C 
BRANCH  11  12
ATOM     12  C   UNL     1      57.847  32.924  72.703  1.00  0.00     0.000 C 
BRANCH  12  13
ATOM     13  C   UNL     1      56.746  32.067  73.352  1.00  0.00     0.006 C 
BRANCH  13  14
ATOM     14  C   UNL     1      57.206  31.334  74.622  1.00  0.00     0.053 C 
BRANCH  14  15
ATOM     15  C   UNL     1      56.641  29.946  74.701  1.00  0.00     0.041 C 
ATOM     16  O   UNL     1      57.374  28.979  75.036  1.00  0.00    -0.550 OA
ATOM     17  O   UNL     1      55.305  29.719  74.390  1.00  0.00    -0.550 OA
ENDBRANCH  14  15
ENDBRANCH  13  14
ENDBRANCH  12  13
ENDBRANCH  11  12
ENDBRANCH  10  11
ENDBRANCH   9  10
ENDBRANCH   8   9
ENDBRANCH   7   8
ENDBRANCH   6   7
ENDBRANCH   5   6
ENDBRANCH   4   5
ENDBRANCH   3   4
ENDBRANCH   2   3
ENDBRANCH   1   2
BRANCH   1  18
ATOM     18  C   UNL     1      57.968  33.698  77.809  1.00  0.00     0.000 C 
BRANCH  18  19
ATOM     19  C   UNL     1      58.645  33.523  79.177  1.00  0.00     0.000 C 
BRANCH  19  20
ATOM     20  C   UNL     1      57.997  34.372  80.283  1.00  0.00     0.000 C 
BRANCH  20  21
ATOM     21  C   UNL     1      58.884  35.494  80.856  1.00  0.00     0.000 C 
BRANCH  21  22
ATOM     22  C   UNL     1      58.464  36.915  80.423  1.00  0.00     0.000 C 
BRANCH  22  23
ATOM     23  C   UNL     1      56.980  36.996  80.015  1.00  0.00     0.000 C 
BRANCH  23  24
ATOM     24  C   UNL     1      56.749  37.857  78.760  1.00  0.00    -0.000 C 
BRANCH  24  25
ATOM     25  C   UNL     1      58.017  38.521  78.197  1.00  0.00    -0.000 C 
BRANCH  25  26
ATOM     26  C   UNL     1      57.794  39.180  76.823  1.00  0.00    -0.000 C 
BRANCH  26  27
ATOM     27  C   UNL     1      59.067  39.213  75.962  1.00  0.00    -0.000 C 
BRANCH  27  28
ATOM     28  C   UNL     1      59.104  38.212  74.790  1.00  0.00    -0.000 C 
BRANCH  28  29
ATOM     29  C   UNL     1      60.121  38.558  73.681  1.00  0.00    -0.000 C 
BRANCH  29  30
ATOM     30  C   UNL     1      61.393  37.692  73.741  1.00  0.00    -0.000 C 
BRANCH  30  31
ATOM     31  C   UNL     1      61.144  36.338  74.428  1.00  0.00    -0.003 C 
ATOM     32  C   UNL     1      61.752  35.168  73.648  1.00  0.00     0.004 C 
ENDBRANCH  30  31
ENDBRANCH  29  30
ENDBRANCH  28  29
ENDBRANCH  27  28
ENDBRANCH  26  27
ENDBRANCH  25  26
ENDBRANCH  24  25
ENDBRANCH  23  24
ENDBRANCH  22  23
ENDBRANCH  21  22
ENDBRANCH  20  21
ENDBRANCH  19  20
ENDBRANCH  18  19
ENDBRANCH   1  18
TORSDOF 28
ENDMDL
MODEL 9
REMARK VINA RESULT:    -4.059      2.075      3.362
REMARK INTER + INTRA:         -15.696
REMARK INTER:                 -10.043
REMARK INTRA:                  -5.653
REMARK UNBOUND:                -4.993
REMARK SMILES CCCCCCCCCCCCCCCCCCCCCCCCCCCCCC(=O)[O-]
REMARK SMILES IDX 16 1 17 2 18 3 19 4 20 5 21 6 22 7 23 8 24 9 25 10 26 11
REMARK SMILES IDX 27 12 28 13 29 14 30 15 31 16 32 17 15 18 14 19 13 20 12 21
REMARK SMILES IDX 11 22 10 23 9 24 8 25 7 26 6 27 5 28 4 29 3 30 2 31 1 32
REMARK H PARENT
REMARK Flexibility Score: inf
ROOT
ATOM      1  C   UNL     1      57.458  34.179  77.410  1.00  0.00     0.000 C 
ENDROOT
BRANCH   1   2
ATOM      2  C   UNL     1      58.251  33.047  78.075  1.00  0.00     0.000 C 
BRANCH   2   3
ATOM      3  C   UNL     1      59.123  33.537  79.245  1.00  0.00     0.000 C 
BRANCH   3   4
ATOM      4  C   UNL     1      58.358  34.253  80.371  1.00  0.00     0.000 C 
BRANCH   4   5
ATOM      5  C   UNL     1      58.775  35.726  80.534  1.00  0.00     0.000 C 
BRANCH   5   6
ATOM      6  C   UNL     1      57.657  36.697  80.122  1.00  0.00     0.000 C 
BRANCH   6   7
ATOM      7  C   UNL     1      58.101  37.646  78.999  1.00  0.00     0.000 C 
BRANCH   7   8
ATOM      8  C   UNL     1      59.496  37.268  78.479  1.00  0.00     0.000 C 
BRANCH   8   9
ATOM      9  C   UNL     1      59.534  37.095  76.951  1.00  0.00     0.000 C 
BRANCH   9  10
ATOM     10  C   UNL     1      60.703  37.815  76.245  1.00  0.00     0.000 C 
BRANCH  10  11
ATOM     11  C   UNL     1      60.612  37.785  74.705  1.00  0.00     0.000 C 
BRANCH  11  12
ATOM     12  C   UNL     1      59.311  37.127  74.213  1.00  0.00     0.000 C 
BRANCH  12  13
ATOM     13  C   UNL     1      58.360  38.130  73.537  1.00  0.00     0.006 C 
BRANCH  13  14
ATOM     14  C   UNL     1      57.275  38.679  74.476  1.00  0.00     0.053 C 
BRANCH  14  15
ATOM     15  C   UNL     1      57.523  40.114  74.837  1.00  0.00     0.041 C 
ATOM     16  O   UNL     1      56.875  41.033  74.271  1.00  0.00    -0.550 OA
ATOM     17  O   UNL     1      58.482  40.436  75.790  1.00  0.00    -0.550 OA
ENDBRANCH  14  15
ENDBRANCH  13  14
ENDBRANCH  12  13
ENDBRANCH  11  12
ENDBRANCH  10  11
ENDBRANCH   9  10
ENDBRANCH   8   9
ENDBRANCH   7   8
ENDBRANCH   6   7
ENDBRANCH   5   6
ENDBRANCH   4   5
ENDBRANCH   3   4
ENDBRANCH   2   3
ENDBRANCH   1   2
BRANCH   1  18
ATOM     18  C   UNL     1      57.682  34.185  75.894  1.00  0.00     0.000 C 
BRANCH  18  19
ATOM     19  C   UNL     1      56.602  35.012  75.180  1.00  0.00     0.000 C 
BRANCH  19  20
ATOM     20  C   UNL     1      56.046  34.321  73.923  1.00  0.00     0.000 C 
BRANCH  20  21
ATOM     21  C   UNL     1      57.086  34.016  72.827  1.00  0.00     0.000 C 
BRANCH  21  22
ATOM     22  C   UNL     1      57.379  32.512  72.635  1.00  0.00     0.000 C 
BRANCH  22  23
ATOM     23  C   UNL     1      56.137  31.632  72.870  1.00  0.00     0.000 C 
BRANCH  23  24
ATOM     24  C   UNL     1      56.334  30.604  74.001  1.00  0.00    -0.000 C 
BRANCH  24  25
ATOM     25  C   UNL     1      57.479  30.935  74.972  1.00  0.00    -0.000 C 
BRANCH  25  26
ATOM     26  C   UNL     1      58.055  29.689  75.672  1.00  0.00    -0.000 C 
BRANCH  26  27
ATOM     27  C   UNL     1      59.474  29.913  76.218  1.00  0.00    -0.000 C 
BRANCH  27  28
ATOM     28  C   UNL     1      60.243  31.103  75.607  1.00  0.00    -0.000 C 
BRANCH  28  29
ATOM     29  C   UNL     1      61.033  30.768  74.325  1.00  0.00    -0.000 C 
BRANCH  29  30
ATOM     30  C   UNL     1      61.024  31.914  73.296  1.00  0.00    -0.000 C 
BRANCH  30  31
ATOM     31  C   UNL     1      60.682  33.270  73.939  1.00  0.00    -0.003 C 
ATOM     32  C   UNL     1      61.685  34.363  73.560  1.00  0.00     0.004 C 
ENDBRANCH  30  31
ENDBRANCH  29  30
ENDBRANCH  28  29
ENDBRANCH  27  28
ENDBRANCH  26  27
ENDBRANCH  25  26
ENDBRANCH  24  25
ENDBRANCH  23  24
ENDBRANCH  22  23
ENDBRANCH  21  22
ENDBRANCH  20  21
ENDBRANCH  19  20
ENDBRANCH  18  19
ENDBRANCH   1  18
TORSDOF 28
ENDMDL
