MODEL 1
REMARK VINA RESULT:    -4.358      0.000      0.000
REMARK INTER + INTRA:         -15.720
REMARK INTER:                 -10.981
REMARK INTRA:                  -4.739
REMARK UNBOUND:                -4.739
REMARK SMILES CCCCCCCCCCCCCCCCCCCCCCCCCCCC(=O)[O-]
REMARK SMILES IDX 15 1 16 2 17 3 18 4 19 5 20 6 21 7 22 8 23 9 24 10 25 11
REMARK SMILES IDX 26 12 27 13 28 14 29 15 30 16 14 17 13 18 12 19 11 20 10 21
REMARK SMILES IDX 9 22 8 23 7 24 6 25 5 26 4 27 3 28 2 29 1 30
REMARK H PARENT
REMARK Flexibility Score: inf
ROOT
ATOM      1  C   UNL     1     -43.841 -31.792  38.360  1.00  0.00     0.000 C 
ENDROOT
BRANCH   1   2
ATOM      2  C   UNL     1     -45.237 -31.593  37.728  1.00  0.00     0.000 C 
BRANCH   2   3
ATOM      3  C   UNL     1     -46.276 -30.970  38.675  1.00  0.00     0.000 C 
BRANCH   3   4
ATOM      4  C   UNL     1     -47.724 -31.188  38.209  1.00  0.00     0.000 C 
BRANCH   4   5
ATOM      5  C   UNL     1     -47.821 -31.985  36.888  1.00  0.00     0.000 C 
BRANCH   5   6
ATOM      6  C   UNL     1     -48.548 -31.232  35.759  1.00  0.00     0.000 C 
BRANCH   6   7
ATOM      7  C   UNL     1     -49.198 -29.906  36.192  1.00  0.00     0.000 C 
BRANCH   7   8
ATOM      8  C   UNL     1     -48.664 -28.679  35.419  1.00  0.00     0.000 C 
BRANCH   8   9
ATOM      9  C   UNL     1     -47.705 -29.072  34.287  1.00  0.00     0.000 C 
BRANCH   9  10
ATOM     10  C   UNL     1     -46.353 -28.363  34.438  1.00  0.00     0.000 C 
BRANCH  10  11
ATOM     11  C   UNL     1     -45.622 -28.833  35.705  1.00  0.00     0.000 C 
BRANCH  11  12
ATOM     12  C   UNL     1     -45.238 -27.673  36.641  1.00  0.00     0.006 C 
BRANCH  12  13
ATOM     13  C   UNL     1     -43.725 -27.503  36.854  1.00  0.00     0.053 C 
BRANCH  13  14
ATOM     14  C   UNL     1     -43.244 -28.219  38.078  1.00  0.00     0.041 C 
ATOM     15  O   UNL     1     -43.987 -28.319  39.089  1.00  0.00    -0.550 OA
ATOM     16  O   UNL     1     -41.986 -28.810  38.092  1.00  0.00    -0.550 OA
ENDBRANCH  13  14
ENDBRANCH  12  13
ENDBRANCH  11  12
ENDBRANCH  10  11
ENDBRANCH   9  10
ENDBRANCH   8   9
ENDBRANCH   7   8
ENDBRANCH   6   7
ENDBRANCH   5   6
ENDBRANCH   4   5
ENDBRANCH   3   4
ENDBRANCH   2   3
ENDBRANCH   1   2
BRANCH   1  17
ATOM     17  C   UNL     1     -43.842 -32.094  39.875  1.00  0.00     0.000 C 
BRANCH  17  18
ATOM     18  C   UNL     1     -43.053 -33.344  40.316  1.00  0.00     0.000 C 
BRANCH  18  19
ATOM     19  C   UNL     1     -43.837 -34.658  40.143  1.00  0.00     0.000 C 
BRANCH  19  20
ATOM     20  C   UNL     1     -45.265 -34.563  40.705  1.00  0.00     0.000 C 
BRANCH  20  21
ATOM     21  C   UNL     1     -46.285 -35.360  39.872  1.00  0.00     0.000 C 
BRANCH  21  22
ATOM     22  C   UNL     1     -46.441 -34.803  38.448  1.00  0.00    -0.000 C 
BRANCH  22  23
ATOM     23  C   UNL     1     -45.927 -35.769  37.370  1.00  0.00    -0.000 C 
BRANCH  23  24
ATOM     24  C   UNL     1     -44.828 -35.113  36.526  1.00  0.00    -0.000 C 
BRANCH  24  25
ATOM     25  C   UNL     1     -43.593 -36.021  36.428  1.00  0.00    -0.000 C 
BRANCH  25  26
ATOM     26  C   UNL     1     -42.301 -35.310  36.864  1.00  0.00    -0.000 C 
BRANCH  26  27
ATOM     27  C   UNL     1     -41.072 -35.792  36.077  1.00  0.00    -0.000 C 
BRANCH  27  28
ATOM     28  C   UNL     1     -39.789 -35.632  36.906  1.00  0.00    -0.000 C 
BRANCH  28  29
ATOM     29  C   UNL     1     -40.055 -35.038  38.297  1.00  0.00    -0.003 C 
ATOM     30  C   UNL     1     -39.299 -35.767  39.408  1.00  0.00     0.004 C 
ENDBRANCH  28  29
ENDBRANCH  27  28
ENDBRANCH  26  27
ENDBRANCH  25  26
ENDBRANCH  24  25
ENDBRANCH  23  24
ENDBRANCH  22  23
ENDBRANCH  21  22
ENDBRANCH  20  21
ENDBRANCH  19  20
ENDBRANCH  18  19
ENDBRANCH  17  18
ENDBRANCH   1  17
TORSDOF 26
ENDMDL
MODEL 2
REMARK VINA RESULT:    -4.329      2.916      6.001
REMARK INTER + INTRA:         -15.649
REMARK INTER:                 -10.394
REMARK INTRA:                  -5.255
REMARK UNBOUND:                -4.739
REMARK SMILES CCCCCCCCCCCCCCCCCCCCCCCCCCCC(=O)[O-]
REMARK SMILES IDX 15 1 16 2 17 3 18 4 19 5 20 6 21 7 22 8 23 9 24 10 25 11
REMARK SMILES IDX 26 12 27 13 28 14 29 15 30 16 14 17 13 18 12 19 11 20 10 21
REMARK SMILES IDX 9 22 8 23 7 24 6 25 5 26 4 27 3 28 2 29 1 30
REMARK H PARENT
REMARK Flexibility Score: inf
ROOT
ATOM      1  C   UNL     1     -45.544 -32.660  40.990  1.00  0.00     0.000 C 
ENDROOT
BRANCH   1   2
ATOM      2  C   UNL     1     -46.991 -32.844  40.476  1.00  0.00     0.000 C 
BRANCH   2   3
ATOM      3  C   UNL     1     -47.090 -33.516  39.096  1.00  0.00     0.000 C 
BRANCH   3   4
ATOM      4  C   UNL     1     -47.462 -32.534  37.974  1.00  0.00     0.000 C 
BRANCH   4   5
ATOM      5  C   UNL     1     -46.248 -31.749  37.428  1.00  0.00     0.000 C 
BRANCH   5   6
ATOM      6  C   UNL     1     -46.188 -30.287  37.906  1.00  0.00     0.000 C 
BRANCH   6   7
ATOM      7  C   UNL     1     -44.838 -29.871  38.519  1.00  0.00     0.000 C 
BRANCH   7   8
ATOM      8  C   UNL     1     -43.717 -30.910  38.294  1.00  0.00     0.000 C 
BRANCH   8   9
ATOM      9  C   UNL     1     -42.474 -30.626  39.148  1.00  0.00     0.000 C 
BRANCH   9  10
ATOM     10  C   UNL     1     -41.213 -30.537  38.278  1.00  0.00     0.000 C 
BRANCH  10  11
ATOM     11  C   UNL     1     -40.277 -31.726  38.544  1.00  0.00     0.000 C 
BRANCH  11  12
ATOM     12  C   UNL     1     -40.592 -32.946  37.658  1.00  0.00     0.006 C 
BRANCH  12  13
ATOM     13  C   UNL     1     -40.130 -34.290  38.243  1.00  0.00     0.053 C 
BRANCH  13  14
ATOM     14  C   UNL     1     -39.985 -35.345  37.188  1.00  0.00     0.041 C 
ATOM     15  O   UNL     1     -40.828 -35.431  36.258  1.00  0.00    -0.550 OA
ATOM     16  O   UNL     1     -38.898 -36.210  37.211  1.00  0.00    -0.550 OA
ENDBRANCH  13  14
ENDBRANCH  12  13
ENDBRANCH  11  12
ENDBRANCH  10  11
ENDBRANCH   9  10
ENDBRANCH   8   9
ENDBRANCH   7   8
ENDBRANCH   6   7
ENDBRANCH   5   6
ENDBRANCH   4   5
ENDBRANCH   3   4
ENDBRANCH   2   3
ENDBRANCH   1   2
BRANCH   1  17
ATOM     17  C   UNL     1     -44.688 -33.945  41.019  1.00  0.00     0.000 C 
BRANCH  17  18
ATOM     18  C   UNL     1     -43.529 -34.008  40.003  1.00  0.00     0.000 C 
BRANCH  18  19
ATOM     19  C   UNL     1     -43.676 -35.143  38.973  1.00  0.00     0.000 C 
BRANCH  19  20
ATOM     20  C   UNL     1     -43.845 -34.611  37.541  1.00  0.00     0.000 C 
BRANCH  20  21
ATOM     21  C   UNL     1     -44.857 -35.430  36.719  1.00  0.00     0.000 C 
BRANCH  21  22
ATOM     22  C   UNL     1     -44.435 -36.900  36.568  1.00  0.00    -0.000 C 
BRANCH  22  23
ATOM     23  C   UNL     1     -45.603 -37.879  36.761  1.00  0.00    -0.000 C 
BRANCH  23  24
ATOM     24  C   UNL     1     -46.628 -37.320  37.755  1.00  0.00    -0.000 C 
BRANCH  24  25
ATOM     25  C   UNL     1     -46.419 -37.916  39.155  1.00  0.00    -0.000 C 
BRANCH  25  26
ATOM     26  C   UNL     1     -46.692 -36.900  40.277  1.00  0.00    -0.000 C 
BRANCH  26  27
ATOM     27  C   UNL     1     -47.964 -37.232  41.072  1.00  0.00    -0.000 C 
BRANCH  27  28
ATOM     28  C   UNL     1     -49.222 -36.795  40.308  1.00  0.00    -0.000 C 
BRANCH  28  29
ATOM     29  C   UNL     1     -50.107 -37.983  39.900  1.00  0.00    -0.003 C 
ATOM     30  C   UNL     1     -49.661 -39.300  40.534  1.00  0.00     0.004 C 
ENDBRANCH  28  29
ENDBRANCH  27  28
ENDBRANCH  26  27
ENDBRANCH  25  26
ENDBRANCH  24  25
ENDBRANCH  23  24
ENDBRANCH  22  23
ENDBRANCH  21  22
ENDBRANCH  20  21
ENDBRANCH  19  20
ENDBRANCH  18  19
ENDBRANCH  17  18
ENDBRANCH   1  17
TORSDOF 26
ENDMDL
MODEL 3
REMARK VINA RESULT:    -4.307      3.228      8.122
REMARK INTER + INTRA:         -15.592
REMARK INTER:                 -10.983
REMARK INTRA:                  -4.609
REMARK UNBOUND:                -4.739
REMARK SMILES CCCCCCCCCCCCCCCCCCCCCCCCCCCC(=O)[O-]
REMARK SMILES IDX 15 1 16 2 17 3 18 4 19 5 20 6 21 7 22 8 23 9 24 10 25 11
REMARK SMILES IDX 26 12 27 13 28 14 29 15 30 16 14 17 13 18 12 19 11 20 10 21
REMARK SMILES IDX 9 22 8 23 7 24 6 25 5 26 4 27 3 28 2 29 1 30
REMARK H PARENT
REMARK Flexibility Score: inf
ROOT
ATOM      1  C   UNL     1     -42.283 -31.939  39.198  1.00  0.00     0.000 C 
ENDROOT
BRANCH   1   2
ATOM      2  C   UNL     1     -41.972 -33.375  39.679  1.00  0.00     0.000 C 
BRANCH   2   3
ATOM      3  C   UNL     1     -41.989 -34.432  38.561  1.00  0.00     0.000 C 
BRANCH   3   4
ATOM      4  C   UNL     1     -43.341 -35.152  38.436  1.00  0.00     0.000 C 
BRANCH   4   5
ATOM      5  C   UNL     1     -43.923 -35.103  37.005  1.00  0.00     0.000 C 
BRANCH   5   6
ATOM      6  C   UNL     1     -45.280 -35.817  36.861  1.00  0.00     0.000 C 
BRANCH   6   7
ATOM      7  C   UNL     1     -45.511 -36.957  37.869  1.00  0.00     0.000 C 
BRANCH   7   8
ATOM      8  C   UNL     1     -46.706 -36.706  38.817  1.00  0.00     0.000 C 
BRANCH   8   9
ATOM      9  C   UNL     1     -47.133 -35.232  38.843  1.00  0.00     0.000 C 
BRANCH   9  10
ATOM     10  C   UNL     1     -46.546 -34.508  40.062  1.00  0.00     0.000 C 
BRANCH  10  11
ATOM     11  C   UNL     1     -46.184 -33.055  39.718  1.00  0.00     0.000 C 
BRANCH  11  12
ATOM     12  C   UNL     1     -46.655 -32.637  38.312  1.00  0.00     0.006 C 
BRANCH  12  13
ATOM     13  C   UNL     1     -45.567 -31.982  37.448  1.00  0.00     0.053 C 
BRANCH  13  14
ATOM     14  C   UNL     1     -45.860 -30.539  37.168  1.00  0.00     0.041 C 
ATOM     15  O   UNL     1     -45.881 -29.702  38.108  1.00  0.00    -0.550 OA
ATOM     16  O   UNL     1     -46.075 -30.111  35.864  1.00  0.00    -0.550 OA
ENDBRANCH  13  14
ENDBRANCH  12  13
ENDBRANCH  11  12
ENDBRANCH  10  11
ENDBRANCH   9  10
ENDBRANCH   8   9
ENDBRANCH   7   8
ENDBRANCH   6   7
ENDBRANCH   5   6
ENDBRANCH   4   5
ENDBRANCH   3   4
ENDBRANCH   2   3
ENDBRANCH   1   2
BRANCH   1  17
ATOM     17  C   UNL     1     -43.218 -31.125  40.120  1.00  0.00     0.000 C 
BRANCH  17  18
ATOM     18  C   UNL     1     -43.028 -29.594  40.094  1.00  0.00     0.000 C 
BRANCH  18  19
ATOM     19  C   UNL     1     -41.958 -29.091  41.080  1.00  0.00     0.000 C 
BRANCH  19  20
ATOM     20  C   UNL     1     -40.653 -28.695  40.371  1.00  0.00     0.000 C 
BRANCH  20  21
ATOM     21  C   UNL     1     -39.712 -27.876  41.273  1.00  0.00     0.000 C 
BRANCH  21  22
ATOM     22  C   UNL     1     -38.822 -26.914  40.471  1.00  0.00    -0.000 C 
BRANCH  22  23
ATOM     23  C   UNL     1     -38.982 -25.449  40.906  1.00  0.00    -0.000 C 
BRANCH  23  24
ATOM     24  C   UNL     1     -40.106 -25.305  41.940  1.00  0.00    -0.000 C 
BRANCH  24  25
ATOM     25  C   UNL     1     -40.778 -23.928  41.835  1.00  0.00    -0.000 C 
BRANCH  25  26
ATOM     26  C   UNL     1     -41.987 -23.932  40.884  1.00  0.00    -0.000 C 
BRANCH  26  27
ATOM     27  C   UNL     1     -42.843 -25.201  41.029  1.00  0.00    -0.000 C 
BRANCH  27  28
ATOM     28  C   UNL     1     -42.987 -25.925  39.683  1.00  0.00    -0.000 C 
BRANCH  28  29
ATOM     29  C   UNL     1     -42.268 -25.194  38.539  1.00  0.00    -0.003 C 
ATOM     30  C   UNL     1     -41.270 -26.086  37.801  1.00  0.00     0.004 C 
ENDBRANCH  28  29
ENDBRANCH  27  28
ENDBRANCH  26  27
ENDBRANCH  25  26
ENDBRANCH  24  25
ENDBRANCH  23  24
ENDBRANCH  22  23
ENDBRANCH  21  22
ENDBRANCH  20  21
ENDBRANCH  19  20
ENDBRANCH  18  19
ENDBRANCH  17  18
ENDBRANCH   1  17
TORSDOF 26
ENDMDL
MODEL 4
REMARK VINA RESULT:    -4.222      1.870      4.182
REMARK INTER + INTRA:         -15.378
REMARK INTER:                 -11.005
REMARK INTRA:                  -4.373
REMARK UNBOUND:                -4.739
REMARK SMILES CCCCCCCCCCCCCCCCCCCCCCCCCCCC(=O)[O-]
REMARK SMILES IDX 15 1 16 2 17 3 18 4 19 5 20 6 21 7 22 8 23 9 24 10 25 11
REMARK SMILES IDX 26 12 27 13 28 14 29 15 30 16 14 17 13 18 12 19 11 20 10 21
REMARK SMILES IDX 9 22 8 23 7 24 6 25 5 26 4 27 3 28 2 29 1 30
REMARK H PARENT
REMARK Flexibility Score: inf
ROOT
ATOM      1  C   UNL     1     -45.164 -31.893  40.553  1.00  0.00     0.000 C 
ENDROOT
BRANCH   1   2
ATOM      2  C   UNL     1     -46.657 -32.044  40.928  1.00  0.00     0.000 C 
BRANCH   2   3
ATOM      3  C   UNL     1     -47.628 -31.795  39.762  1.00  0.00     0.000 C 
BRANCH   3   4
ATOM      4  C   UNL     1     -47.642 -32.939  38.735  1.00  0.00     0.000 C 
BRANCH   4   5
ATOM      5  C   UNL     1     -47.403 -32.456  37.287  1.00  0.00     0.000 C 
BRANCH   5   6
ATOM      6  C   UNL     1     -46.000 -31.868  37.051  1.00  0.00     0.000 C 
BRANCH   6   7
ATOM      7  C   UNL     1     -45.995 -30.457  36.435  1.00  0.00     0.000 C 
BRANCH   7   8
ATOM      8  C   UNL     1     -45.657 -29.345  37.454  1.00  0.00     0.000 C 
BRANCH   8   9
ATOM      9  C   UNL     1     -44.662 -28.319  36.893  1.00  0.00     0.000 C 
BRANCH   9  10
ATOM     10  C   UNL     1     -43.501 -28.086  37.868  1.00  0.00     0.000 C 
BRANCH  10  11
ATOM     11  C   UNL     1     -43.695 -28.896  39.159  1.00  0.00     0.000 C 
BRANCH  11  12
ATOM     12  C   UNL     1     -42.401 -29.581  39.637  1.00  0.00     0.006 C 
BRANCH  12  13
ATOM     13  C   UNL     1     -41.877 -29.074  40.989  1.00  0.00     0.053 C 
BRANCH  13  14
ATOM     14  C   UNL     1     -40.820 -28.024  40.829  1.00  0.00     0.041 C 
ATOM     15  O   UNL     1     -39.616 -28.292  41.079  1.00  0.00    -0.550 OA
ATOM     16  O   UNL     1     -41.159 -26.759  40.366  1.00  0.00    -0.550 OA
ENDBRANCH  13  14
ENDBRANCH  12  13
ENDBRANCH  11  12
ENDBRANCH  10  11
ENDBRANCH   9  10
ENDBRANCH   8   9
ENDBRANCH   7   8
ENDBRANCH   6   7
ENDBRANCH   5   6
ENDBRANCH   4   5
ENDBRANCH   3   4
ENDBRANCH   2   3
ENDBRANCH   1   2
BRANCH   1  17
ATOM     17  C   UNL     1     -44.411 -33.218  40.303  1.00  0.00     0.000 C 
BRANCH  17  18
ATOM     18  C   UNL     1     -42.883 -33.176  40.509  1.00  0.00     0.000 C 
BRANCH  18  19
ATOM     19  C   UNL     1     -42.090 -33.817  39.357  1.00  0.00     0.000 C 
BRANCH  19  20
ATOM     20  C   UNL     1     -40.995 -32.885  38.813  1.00  0.00     0.000 C 
BRANCH  20  21
ATOM     21  C   UNL     1     -40.164 -33.535  37.692  1.00  0.00     0.000 C 
BRANCH  21  22
ATOM     22  C   UNL     1     -40.052 -35.059  37.855  1.00  0.00    -0.000 C 
BRANCH  22  23
ATOM     23  C   UNL     1     -40.211 -35.815  36.527  1.00  0.00    -0.000 C 
BRANCH  23  24
ATOM     24  C   UNL     1     -41.522 -35.430  35.831  1.00  0.00    -0.000 C 
BRANCH  24  25
ATOM     25  C   UNL     1     -42.736 -35.937  36.622  1.00  0.00    -0.000 C 
BRANCH  25  26
ATOM     26  C   UNL     1     -44.048 -35.265  36.186  1.00  0.00    -0.000 C 
BRANCH  26  27
ATOM     27  C   UNL     1     -45.167 -35.430  37.228  1.00  0.00    -0.000 C 
BRANCH  27  28
ATOM     28  C   UNL     1     -45.837 -36.806  37.104  1.00  0.00    -0.000 C 
BRANCH  28  29
ATOM     29  C   UNL     1     -46.771 -37.116  38.284  1.00  0.00    -0.003 C 
ATOM     30  C   UNL     1     -46.356 -36.405  39.571  1.00  0.00     0.004 C 
ENDBRANCH  28  29
ENDBRANCH  27  28
ENDBRANCH  26  27
ENDBRANCH  25  26
ENDBRANCH  24  25
ENDBRANCH  23  24
ENDBRANCH  22  23
ENDBRANCH  21  22
ENDBRANCH  20  21
ENDBRANCH  19  20
ENDBRANCH  18  19
ENDBRANCH  17  18
ENDBRANCH   1  17
TORSDOF 26
ENDMDL
MODEL 5
REMARK VINA RESULT:    -4.215      2.727      6.784
REMARK INTER + INTRA:         -15.362
REMARK INTER:                 -10.563
REMARK INTRA:                  -4.800
REMARK UNBOUND:                -4.739
REMARK SMILES CCCCCCCCCCCCCCCCCCCCCCCCCCCC(=O)[O-]
REMARK SMILES IDX 15 1 16 2 17 3 18 4 19 5 20 6 21 7 22 8 23 9 24 10 25 11
REMARK SMILES IDX 26 12 27 13 28 14 29 15 30 16 14 17 13 18 12 19 11 20 10 21
REMARK SMILES IDX 9 22 8 23 7 24 6 25 5 26 4 27 3 28 2 29 1 30
REMARK H PARENT
REMARK Flexibility Score: inf
ROOT
ATOM      1  C   UNL     1     -44.865 -34.595  36.496  1.00  0.00     0.000 C 
ENDROOT
BRANCH   1   2
ATOM      2  C   UNL     1     -45.740 -33.590  37.281  1.00  0.00     0.000 C 
BRANCH   2   3
ATOM      3  C   UNL     1     -44.947 -32.461  37.962  1.00  0.00     0.000 C 
BRANCH   3   4
ATOM      4  C   UNL     1     -45.327 -31.063  37.448  1.00  0.00     0.000 C 
BRANCH   4   5
ATOM      5  C   UNL     1     -45.272 -29.978  38.547  1.00  0.00     0.000 C 
BRANCH   5   6
ATOM      6  C   UNL     1     -44.622 -30.453  39.859  1.00  0.00     0.000 C 
BRANCH   6   7
ATOM      7  C   UNL     1     -43.352 -29.680  40.258  1.00  0.00     0.000 C 
BRANCH   7   8
ATOM      8  C   UNL     1     -42.049 -30.478  40.027  1.00  0.00     0.000 C 
BRANCH   8   9
ATOM      9  C   UNL     1     -41.638 -30.513  38.549  1.00  0.00     0.000 C 
BRANCH   9  10
ATOM     10  C   UNL     1     -40.747 -31.726  38.252  1.00  0.00     0.000 C 
BRANCH  10  11
ATOM     11  C   UNL     1     -41.347 -33.008  38.849  1.00  0.00     0.000 C 
BRANCH  11  12
ATOM     12  C   UNL     1     -40.293 -34.102  39.102  1.00  0.00     0.006 C 
BRANCH  12  13
ATOM     13  C   UNL     1     -40.619 -35.460  38.461  1.00  0.00     0.053 C 
BRANCH  13  14
ATOM     14  C   UNL     1     -40.173 -35.532  37.033  1.00  0.00     0.041 C 
ATOM     15  O   UNL     1     -38.980 -35.825  36.755  1.00  0.00    -0.550 OA
ATOM     16  O   UNL     1     -41.082 -35.312  36.006  1.00  0.00    -0.550 OA
ENDBRANCH  13  14
ENDBRANCH  12  13
ENDBRANCH  11  12
ENDBRANCH  10  11
ENDBRANCH   9  10
ENDBRANCH   8   9
ENDBRANCH   7   8
ENDBRANCH   6   7
ENDBRANCH   5   6
ENDBRANCH   4   5
ENDBRANCH   3   4
ENDBRANCH   2   3
ENDBRANCH   1   2
BRANCH   1  17
ATOM     17  C   UNL     1     -44.575 -35.924  37.226  1.00  0.00     0.000 C 
BRANCH  17  18
ATOM     18  C   UNL     1     -45.563 -37.076  36.953  1.00  0.00     0.000 C 
BRANCH  18  19
ATOM     19  C   UNL     1     -46.701 -37.167  37.985  1.00  0.00     0.000 C 
BRANCH  19  20
ATOM     20  C   UNL     1     -46.175 -37.338  39.419  1.00  0.00     0.000 C 
BRANCH  20  21
ATOM     21  C   UNL     1     -46.534 -36.148  40.329  1.00  0.00     0.000 C 
BRANCH  21  22
ATOM     22  C   UNL     1     -45.307 -35.295  40.688  1.00  0.00    -0.000 C 
BRANCH  22  23
ATOM     23  C   UNL     1     -45.682 -33.948  41.322  1.00  0.00    -0.000 C 
BRANCH  23  24
ATOM     24  C   UNL     1     -46.995 -33.413  40.736  1.00  0.00    -0.000 C 
BRANCH  24  25
ATOM     25  C   UNL     1     -47.413 -32.106  41.424  1.00  0.00    -0.000 C 
BRANCH  25  26
ATOM     26  C   UNL     1     -48.747 -31.557  40.889  1.00  0.00    -0.000 C 
BRANCH  26  27
ATOM     27  C   UNL     1     -48.589 -30.852  39.532  1.00  0.00    -0.000 C 
BRANCH  27  28
ATOM     28  C   UNL     1     -49.143 -31.719  38.392  1.00  0.00    -0.000 C 
BRANCH  28  29
ATOM     29  C   UNL     1     -49.394 -30.915  37.107  1.00  0.00    -0.003 C 
ATOM     30  C   UNL     1     -48.585 -31.431  35.917  1.00  0.00     0.004 C 
ENDBRANCH  28  29
ENDBRANCH  27  28
ENDBRANCH  26  27
ENDBRANCH  25  26
ENDBRANCH  24  25
ENDBRANCH  23  24
ENDBRANCH  22  23
ENDBRANCH  21  22
ENDBRANCH  20  21
ENDBRANCH  19  20
ENDBRANCH  18  19
ENDBRANCH  17  18
ENDBRANCH   1  17
TORSDOF 26
ENDMDL
MODEL 6
REMARK VINA RESULT:    -4.213      2.242      4.659
REMARK INTER + INTRA:         -15.355
REMARK INTER:                 -10.733
REMARK INTRA:                  -4.622
REMARK UNBOUND:                -4.739
REMARK SMILES CCCCCCCCCCCCCCCCCCCCCCCCCCCC(=O)[O-]
REMARK SMILES IDX 15 1 16 2 17 3 18 4 19 5 20 6 21 7 22 8 23 9 24 10 25 11
REMARK SMILES IDX 26 12 27 13 28 14 29 15 30 16 14 17 13 18 12 19 11 20 10 21
REMARK SMILES IDX 9 22 8 23 7 24 6 25 5 26 4 27 3 28 2 29 1 30
REMARK H PARENT
REMARK Flexibility Score: inf
ROOT
ATOM      1  C   UNL     1     -44.818 -30.767  40.190  1.00  0.00     0.000 C 
ENDROOT
BRANCH   1   2
ATOM      2  C   UNL     1     -45.180 -30.454  38.720  1.00  0.00     0.000 C 
BRANCH   2   3
ATOM      3  C   UNL     1     -44.060 -29.755  37.930  1.00  0.00     0.000 C 
BRANCH   3   4
ATOM      4  C   UNL     1     -44.585 -28.678  36.968  1.00  0.00     0.000 C 
BRANCH   4   5
ATOM      5  C   UNL     1     -45.821 -27.928  37.513  1.00  0.00     0.000 C 
BRANCH   5   6
ATOM      6  C   UNL     1     -46.952 -27.760  36.482  1.00  0.00     0.000 C 
BRANCH   6   7
ATOM      7  C   UNL     1     -46.624 -28.308  35.081  1.00  0.00     0.000 C 
BRANCH   7   8
ATOM      8  C   UNL     1     -47.520 -29.495  34.662  1.00  0.00     0.000 C 
BRANCH   8   9
ATOM      9  C   UNL     1     -47.271 -30.747  35.515  1.00  0.00     0.000 C 
BRANCH   9  10
ATOM     10  C   UNL     1     -48.593 -31.404  35.931  1.00  0.00     0.000 C 
BRANCH  10  11
ATOM     11  C   UNL     1     -49.400 -30.481  36.855  1.00  0.00     0.000 C 
BRANCH  11  12
ATOM     12  C   UNL     1     -48.875 -30.475  38.303  1.00  0.00     0.006 C 
BRANCH  12  13
ATOM     13  C   UNL     1     -48.698 -31.872  38.919  1.00  0.00     0.053 C 
BRANCH  13  14
ATOM     14  C   UNL     1     -49.371 -31.990  40.253  1.00  0.00     0.041 C 
ATOM     15  O   UNL     1     -50.443 -32.640  40.367  1.00  0.00    -0.550 OA
ATOM     16  O   UNL     1     -48.795 -31.414  41.378  1.00  0.00    -0.550 OA
ENDBRANCH  13  14
ENDBRANCH  12  13
ENDBRANCH  11  12
ENDBRANCH  10  11
ENDBRANCH   9  10
ENDBRANCH   8   9
ENDBRANCH   7   8
ENDBRANCH   6   7
ENDBRANCH   5   6
ENDBRANCH   4   5
ENDBRANCH   3   4
ENDBRANCH   2   3
ENDBRANCH   1   2
BRANCH   1  17
ATOM     17  C   UNL     1     -45.349 -32.116  40.725  1.00  0.00     0.000 C 
BRANCH  17  18
ATOM     18  C   UNL     1     -44.403 -33.324  40.568  1.00  0.00     0.000 C 
BRANCH  18  19
ATOM     19  C   UNL     1     -42.926 -32.929  40.389  1.00  0.00     0.000 C 
BRANCH  19  20
ATOM     20  C   UNL     1     -42.481 -32.990  38.918  1.00  0.00     0.000 C 
BRANCH  20  21
ATOM     21  C   UNL     1     -41.087 -32.377  38.694  1.00  0.00     0.000 C 
BRANCH  21  22
ATOM     22  C   UNL     1     -40.139 -33.335  37.955  1.00  0.00    -0.000 C 
BRANCH  22  23
ATOM     23  C   UNL     1     -40.582 -34.803  38.048  1.00  0.00    -0.000 C 
BRANCH  23  24
ATOM     24  C   UNL     1     -39.985 -35.629  36.902  1.00  0.00    -0.000 C 
BRANCH  24  25
ATOM     25  C   UNL     1     -41.086 -36.148  35.966  1.00  0.00    -0.000 C 
BRANCH  25  26
ATOM     26  C   UNL     1     -42.469 -35.563  36.300  1.00  0.00    -0.000 C 
BRANCH  26  27
ATOM     27  C   UNL     1     -43.525 -36.655  36.537  1.00  0.00    -0.000 C 
BRANCH  27  28
ATOM     28  C   UNL     1     -44.888 -36.038  36.884  1.00  0.00    -0.000 C 
BRANCH  28  29
ATOM     29  C   UNL     1     -44.947 -34.532  36.585  1.00  0.00    -0.003 C 
ATOM     30  C   UNL     1     -46.054 -33.817  37.361  1.00  0.00     0.004 C 
ENDBRANCH  28  29
ENDBRANCH  27  28
ENDBRANCH  26  27
ENDBRANCH  25  26
ENDBRANCH  24  25
ENDBRANCH  23  24
ENDBRANCH  22  23
ENDBRANCH  21  22
ENDBRANCH  20  21
ENDBRANCH  19  20
ENDBRANCH  18  19
ENDBRANCH  17  18
ENDBRANCH   1  17
TORSDOF 26
ENDMDL
MODEL 7
REMARK VINA RESULT:    -4.203      3.432      8.668
REMARK INTER + INTRA:         -15.331
REMARK INTER:                 -11.034
REMARK INTRA:                  -4.297
REMARK UNBOUND:                -4.739
REMARK SMILES CCCCCCCCCCCCCCCCCCCCCCCCCCCC(=O)[O-]
REMARK SMILES IDX 15 1 16 2 17 3 18 4 19 5 20 6 21 7 22 8 23 9 24 10 25 11
REMARK SMILES IDX 26 12 27 13 28 14 29 15 30 16 14 17 13 18 12 19 11 20 10 21
REMARK SMILES IDX 9 22 8 23 7 24 6 25 5 26 4 27 3 28 2 29 1 30
REMARK H PARENT
REMARK Flexibility Score: inf
ROOT
ATOM      1  C   UNL     1     -42.877 -29.346  40.941  1.00  0.00     0.000 C 
ENDROOT
BRANCH   1   2
ATOM      2  C   UNL     1     -42.126 -30.356  40.042  1.00  0.00     0.000 C 
BRANCH   2   3
ATOM      3  C   UNL     1     -43.005 -31.501  39.510  1.00  0.00     0.000 C 
BRANCH   3   4
ATOM      4  C   UNL     1     -43.813 -31.109  38.263  1.00  0.00     0.000 C 
BRANCH   4   5
ATOM      5  C   UNL     1     -45.250 -31.681  38.267  1.00  0.00     0.000 C 
BRANCH   5   6
ATOM      6  C   UNL     1     -45.435 -32.904  37.351  1.00  0.00     0.000 C 
BRANCH   6   7
ATOM      7  C   UNL     1     -44.879 -34.220  37.923  1.00  0.00     0.000 C 
BRANCH   7   8
ATOM      8  C   UNL     1     -45.386 -35.476  37.179  1.00  0.00     0.000 C 
BRANCH   8   9
ATOM      9  C   UNL     1     -44.244 -36.286  36.550  1.00  0.00     0.000 C 
BRANCH   9  10
ATOM     10  C   UNL     1     -43.099 -35.369  36.100  1.00  0.00     0.000 C 
BRANCH  10  11
ATOM     11  C   UNL     1     -41.770 -36.137  36.041  1.00  0.00     0.000 C 
BRANCH  11  12
ATOM     12  C   UNL     1     -40.642 -35.442  36.826  1.00  0.00     0.006 C 
BRANCH  12  13
ATOM     13  C   UNL     1     -41.124 -34.587  38.008  1.00  0.00     0.053 C 
BRANCH  13  14
ATOM     14  C   UNL     1     -40.016 -33.780  38.612  1.00  0.00     0.041 C 
ATOM     15  O   UNL     1     -39.838 -32.584  38.262  1.00  0.00    -0.550 OA
ATOM     16  O   UNL     1     -39.201 -34.336  39.590  1.00  0.00    -0.550 OA
ENDBRANCH  13  14
ENDBRANCH  12  13
ENDBRANCH  11  12
ENDBRANCH  10  11
ENDBRANCH   9  10
ENDBRANCH   8   9
ENDBRANCH   7   8
ENDBRANCH   6   7
ENDBRANCH   5   6
ENDBRANCH   4   5
ENDBRANCH   3   4
ENDBRANCH   2   3
ENDBRANCH   1   2
BRANCH   1  17
ATOM     17  C   UNL     1     -42.854 -27.882  40.448  1.00  0.00     0.000 C 
BRANCH  17  18
ATOM     18  C   UNL     1     -43.804 -27.548  39.281  1.00  0.00     0.000 C 
BRANCH  18  19
ATOM     19  C   UNL     1     -43.083 -26.979  38.045  1.00  0.00     0.000 C 
BRANCH  19  20
ATOM     20  C   UNL     1     -41.579 -27.299  38.050  1.00  0.00     0.000 C 
BRANCH  20  21
ATOM     21  C   UNL     1     -40.710 -26.071  37.723  1.00  0.00     0.000 C 
BRANCH  21  22
ATOM     22  C   UNL     1     -39.427 -26.021  38.568  1.00  0.00    -0.000 C 
BRANCH  22  23
ATOM     23  C   UNL     1     -39.339 -27.166  39.587  1.00  0.00    -0.000 C 
BRANCH  23  24
ATOM     24  C   UNL     1     -39.484 -26.637  41.020  1.00  0.00    -0.000 C 
BRANCH  24  25
ATOM     25  C   UNL     1     -39.128 -25.145  41.094  1.00  0.00    -0.000 C 
BRANCH  25  26
ATOM     26  C   UNL     1     -40.141 -24.337  41.922  1.00  0.00    -0.000 C 
BRANCH  26  27
ATOM     27  C   UNL     1     -41.565 -24.419  41.349  1.00  0.00    -0.000 C 
BRANCH  27  28
ATOM     28  C   UNL     1     -41.719 -23.511  40.120  1.00  0.00    -0.000 C 
BRANCH  28  29
ATOM     29  C   UNL     1     -43.086 -23.668  39.437  1.00  0.00    -0.003 C 
ATOM     30  C   UNL     1     -44.206 -24.003  40.422  1.00  0.00     0.004 C 
ENDBRANCH  28  29
ENDBRANCH  27  28
ENDBRANCH  26  27
ENDBRANCH  25  26
ENDBRANCH  24  25
ENDBRANCH  23  24
ENDBRANCH  22  23
ENDBRANCH  21  22
ENDBRANCH  20  21
ENDBRANCH  19  20
ENDBRANCH  18  19
ENDBRANCH  17  18
ENDBRANCH   1  17
TORSDOF 26
ENDMDL
MODEL 8
REMARK VINA RESULT:    -4.182      2.370      6.999
REMARK INTER + INTRA:         -15.278
REMARK INTER:                 -10.317
REMARK INTRA:                  -4.961
REMARK UNBOUND:                -4.739
REMARK SMILES CCCCCCCCCCCCCCCCCCCCCCCCCCCC(=O)[O-]
REMARK SMILES IDX 15 1 16 2 17 3 18 4 19 5 20 6 21 7 22 8 23 9 24 10 25 11
REMARK SMILES IDX 26 12 27 13 28 14 29 15 30 16 14 17 13 18 12 19 11 20 10 21
REMARK SMILES IDX 9 22 8 23 7 24 6 25 5 26 4 27 3 28 2 29 1 30
REMARK H PARENT
REMARK Flexibility Score: inf
ROOT
ATOM      1  C   UNL     1     -41.401 -33.124  39.092  1.00  0.00     0.000 C 
ENDROOT
BRANCH   1   2
ATOM      2  C   UNL     1     -40.110 -33.975  39.091  1.00  0.00     0.000 C 
BRANCH   2   3
ATOM      3  C   UNL     1     -40.271 -35.365  38.453  1.00  0.00     0.000 C 
BRANCH   3   4
ATOM      4  C   UNL     1     -40.095 -35.349  36.926  1.00  0.00     0.000 C 
BRANCH   4   5
ATOM      5  C   UNL     1     -41.412 -35.608  36.161  1.00  0.00     0.000 C 
BRANCH   5   6
ATOM      6  C   UNL     1     -42.669 -35.550  37.049  1.00  0.00     0.000 C 
BRANCH   6   7
ATOM      7  C   UNL     1     -43.994 -35.754  36.293  1.00  0.00     0.000 C 
BRANCH   7   8
ATOM      8  C   UNL     1     -44.683 -37.099  36.615  1.00  0.00     0.000 C 
BRANCH   8   9
ATOM      9  C   UNL     1     -46.024 -36.912  37.338  1.00  0.00     0.000 C 
BRANCH   9  10
ATOM     10  C   UNL     1     -45.818 -36.345  38.748  1.00  0.00     0.000 C 
BRANCH  10  11
ATOM     11  C   UNL     1     -47.097 -36.478  39.588  1.00  0.00     0.000 C 
BRANCH  11  12
ATOM     12  C   UNL     1     -47.775 -35.124  39.867  1.00  0.00     0.006 C 
BRANCH  12  13
ATOM     13  C   UNL     1     -47.747 -34.692  41.342  1.00  0.00     0.053 C 
BRANCH  13  14
ATOM     14  C   UNL     1     -48.557 -33.456  41.585  1.00  0.00     0.041 C 
ATOM     15  O   UNL     1     -48.939 -32.748  40.617  1.00  0.00    -0.550 OA
ATOM     16  O   UNL     1     -48.924 -33.106  42.878  1.00  0.00    -0.550 OA
ENDBRANCH  13  14
ENDBRANCH  12  13
ENDBRANCH  11  12
ENDBRANCH  10  11
ENDBRANCH   9  10
ENDBRANCH   8   9
ENDBRANCH   7   8
ENDBRANCH   6   7
ENDBRANCH   5   6
ENDBRANCH   4   5
ENDBRANCH   3   4
ENDBRANCH   2   3
ENDBRANCH   1   2
BRANCH   1  17
ATOM     17  C   UNL     1     -42.213 -33.162  40.405  1.00  0.00     0.000 C 
BRANCH  17  18
ATOM     18  C   UNL     1     -43.658 -33.689  40.291  1.00  0.00     0.000 C 
BRANCH  18  19
ATOM     19  C   UNL     1     -44.725 -32.643  40.661  1.00  0.00     0.000 C 
BRANCH  19  20
ATOM     20  C   UNL     1     -45.590 -32.241  39.455  1.00  0.00     0.000 C 
BRANCH  20  21
ATOM     21  C   UNL     1     -45.077 -32.837  38.132  1.00  0.00     0.000 C 
BRANCH  21  22
ATOM     22  C   UNL     1     -46.008 -32.525  36.949  1.00  0.00    -0.000 C 
BRANCH  22  23
ATOM     23  C   UNL     1     -47.492 -32.515  37.345  1.00  0.00    -0.000 C 
BRANCH  23  24
ATOM     24  C   UNL     1     -48.209 -31.296  36.751  1.00  0.00    -0.000 C 
BRANCH  24  25
ATOM     25  C   UNL     1     -47.661 -29.991  37.347  1.00  0.00    -0.000 C 
BRANCH  25  26
ATOM     26  C   UNL     1     -46.997 -29.092  36.290  1.00  0.00    -0.000 C 
BRANCH  26  27
ATOM     27  C   UNL     1     -45.860 -28.239  36.875  1.00  0.00    -0.000 C 
BRANCH  27  28
ATOM     28  C   UNL     1     -44.639 -29.106  37.215  1.00  0.00    -0.000 C 
BRANCH  28  29
ATOM     29  C   UNL     1     -44.216 -28.980  38.686  1.00  0.00    -0.003 C 
ATOM     30  C   UNL     1     -42.922 -29.732  38.998  1.00  0.00     0.004 C 
ENDBRANCH  28  29
ENDBRANCH  27  28
ENDBRANCH  26  27
ENDBRANCH  25  26
ENDBRANCH  24  25
ENDBRANCH  23  24
ENDBRANCH  22  23
ENDBRANCH  21  22
ENDBRANCH  20  21
ENDBRANCH  19  20
ENDBRANCH  18  19
ENDBRANCH  17  18
ENDBRANCH   1  17
TORSDOF 26
ENDMDL
MODEL 9
REMARK VINA RESULT:    -4.145      3.924      8.502
REMARK INTER + INTRA:         -15.184
REMARK INTER:                 -10.395
REMARK INTRA:                  -4.789
REMARK UNBOUND:                -4.739
REMARK SMILES CCCCCCCCCCCCCCCCCCCCCCCCCCCC(=O)[O-]
REMARK SMILES IDX 15 1 16 2 17 3 18 4 19 5 20 6 21 7 22 8 23 9 24 10 25 11
REMARK SMILES IDX 26 12 27 13 28 14 29 15 30 16 14 17 13 18 12 19 11 20 10 21
REMARK SMILES IDX 9 22 8 23 7 24 6 25 5 26 4 27 3 28 2 29 1 30
REMARK H PARENT
REMARK Flexibility Score: inf
ROOT
ATOM      1  C   UNL     1     -43.115 -29.741  40.455  1.00  0.00     0.000 C 
ENDROOT
BRANCH   1   2
ATOM      2  C   UNL     1     -42.601 -30.360  39.134  1.00  0.00     0.000 C 
BRANCH   2   3
ATOM      3  C   UNL     1     -42.797 -31.882  39.033  1.00  0.00     0.000 C 
BRANCH   3   4
ATOM      4  C   UNL     1     -43.055 -32.547  40.395  1.00  0.00     0.000 C 
BRANCH   4   5
ATOM      5  C   UNL     1     -44.461 -33.180  40.503  1.00  0.00     0.000 C 
BRANCH   5   6
ATOM      6  C   UNL     1     -45.526 -32.233  41.085  1.00  0.00     0.000 C 
BRANCH   6   7
ATOM      7  C   UNL     1     -46.758 -32.027  40.185  1.00  0.00     0.000 C 
BRANCH   7   8
ATOM      8  C   UNL     1     -46.711 -30.713  39.373  1.00  0.00     0.000 C 
BRANCH   8   9
ATOM      9  C   UNL     1     -46.066 -30.900  37.993  1.00  0.00     0.000 C 
BRANCH   9  10
ATOM     10  C   UNL     1     -46.699 -32.078  37.241  1.00  0.00     0.000 C 
BRANCH  10  11
ATOM     11  C   UNL     1     -45.655 -33.163  36.940  1.00  0.00     0.000 C 
BRANCH  11  12
ATOM     12  C   UNL     1     -46.066 -34.552  37.465  1.00  0.00     0.006 C 
BRANCH  12  13
ATOM     13  C   UNL     1     -44.933 -35.591  37.465  1.00  0.00     0.053 C 
BRANCH  13  14
ATOM     14  C   UNL     1     -45.429 -36.967  37.137  1.00  0.00     0.041 C 
ATOM     15  O   UNL     1     -46.558 -37.347  37.542  1.00  0.00    -0.550 OA
ATOM     16  O   UNL     1     -44.659 -37.817  36.353  1.00  0.00    -0.550 OA
ENDBRANCH  13  14
ENDBRANCH  12  13
ENDBRANCH  11  12
ENDBRANCH  10  11
ENDBRANCH   9  10
ENDBRANCH   8   9
ENDBRANCH   7   8
ENDBRANCH   6   7
ENDBRANCH   5   6
ENDBRANCH   4   5
ENDBRANCH   3   4
ENDBRANCH   2   3
ENDBRANCH   1   2
BRANCH   1  17
ATOM     17  C   UNL     1     -42.132 -28.777  41.156  1.00  0.00     0.000 C 
BRANCH  17  18
ATOM     18  C   UNL     1     -41.119 -28.061  40.240  1.00  0.00     0.000 C 
BRANCH  18  19
ATOM     19  C   UNL     1     -39.828 -27.638  40.965  1.00  0.00     0.000 C 
BRANCH  19  20
ATOM     20  C   UNL     1     -39.037 -26.581  40.178  1.00  0.00     0.000 C 
BRANCH  20  21
ATOM     21  C   UNL     1     -38.760 -25.311  41.003  1.00  0.00     0.000 C 
BRANCH  21  22
ATOM     22  C   UNL     1     -39.852 -24.245  40.821  1.00  0.00    -0.000 C 
BRANCH  22  23
ATOM     23  C   UNL     1     -40.947 -24.324  41.895  1.00  0.00    -0.000 C 
BRANCH  23  24
ATOM     24  C   UNL     1     -42.311 -24.632  41.265  1.00  0.00    -0.000 C 
BRANCH  24  25
ATOM     25  C   UNL     1     -42.248 -24.525  39.735  1.00  0.00    -0.000 C 
BRANCH  25  26
ATOM     26  C   UNL     1     -43.586 -24.874  39.062  1.00  0.00    -0.000 C 
BRANCH  26  27
ATOM     27  C   UNL     1     -44.573 -25.546  40.032  1.00  0.00    -0.000 C 
BRANCH  27  28
ATOM     28  C   UNL     1     -45.054 -26.896  39.482  1.00  0.00    -0.000 C 
BRANCH  28  29
ATOM     29  C   UNL     1     -44.458 -27.219  38.103  1.00  0.00    -0.003 C 
ATOM     30  C   UNL     1     -45.512 -27.255  36.996  1.00  0.00     0.004 C 
ENDBRANCH  28  29
ENDBRANCH  27  28
ENDBRANCH  26  27
ENDBRANCH  25  26
ENDBRANCH  24  25
ENDBRANCH  23  24
ENDBRANCH  22  23
ENDBRANCH  21  22
ENDBRANCH  20  21
ENDBRANCH  19  20
ENDBRANCH  18  19
ENDBRANCH  17  18
ENDBRANCH   1  17
TORSDOF 26
ENDMDL
