MODEL 1
REMARK VINA RESULT:    -5.145      0.000      0.000
REMARK INTER + INTRA:          -5.844
REMARK INTER:                  -5.596
REMARK INTRA:                  -0.249
REMARK UNBOUND:                -0.249
REMARK SMILES O=C([O-])c1ccccc1O
REMARK SMILES IDX 4 1 9 2 5 3 8 4 6 5 7 6 2 7 1 8 3 9 10 10
REMARK H PARENT 10 11
REMARK Flexibility Score: inf
ROOT
ATOM      1  C   UNL     1      21.063  -6.342  17.843  1.00  0.00     0.039 A 
ATOM      2  C   UNL     1      21.885  -7.354  17.282  1.00  0.00     0.124 A 
ATOM      3  C   UNL     1      19.693  -6.322  17.518  1.00  0.00     0.014 A 
ATOM      4  C   UNL     1      21.336  -8.269  16.374  1.00  0.00     0.047 A 
ATOM      5  C   UNL     1      19.158  -7.254  16.628  1.00  0.00     0.001 A 
ATOM      6  C   UNL     1      19.980  -8.220  16.048  1.00  0.00     0.004 A 
ENDROOT
BRANCH   1   7
ATOM      7  C   UNL     1      21.588  -5.283  18.732  1.00  0.00     0.075 C 
ATOM      8  O   UNL     1      21.258  -4.079  18.570  1.00  0.00    -0.545 OA
ATOM      9  O   UNL     1      22.405  -5.618  19.807  1.00  0.00    -0.545 OA
ENDBRANCH   1   7
BRANCH   2  10
ATOM     10  O   UNL     1      23.231  -7.506  17.622  1.00  0.00    -0.507 OA
ATOM     11  H   UNL     1      23.548  -7.784  18.541  1.00  0.00     0.293 HD
ENDBRANCH   2  10
TORSDOF 2
ENDMDL
MODEL 2
REMARK VINA RESULT:    -4.653      2.402      3.323
REMARK INTER + INTRA:          -5.309
REMARK INTER:                  -5.060
REMARK INTRA:                  -0.249
REMARK UNBOUND:                -0.249
REMARK SMILES O=C([O-])c1ccccc1O
REMARK SMILES IDX 4 1 9 2 5 3 8 4 6 5 7 6 2 7 1 8 3 9 10 10
REMARK H PARENT 10 11
REMARK Flexibility Score: inf
ROOT
ATOM      1  C   UNL     1      22.052  -4.936  19.759  1.00  0.00     0.039 A 
ATOM      2  C   UNL     1      21.348  -4.413  18.643  1.00  0.00     0.124 A 
ATOM      3  C   UNL     1      22.535  -6.257  19.700  1.00  0.00     0.014 A 
ATOM      4  C   UNL     1      21.093  -5.235  17.537  1.00  0.00     0.047 A 
ATOM      5  C   UNL     1      22.290  -7.056  18.582  1.00  0.00     0.001 A 
ATOM      6  C   UNL     1      21.562  -6.550  17.506  1.00  0.00     0.004 A 
ENDROOT
BRANCH   1   7
ATOM      7  C   UNL     1      22.275  -4.163  21.000  1.00  0.00     0.075 C 
ATOM      8  O   UNL     1      22.676  -2.971  20.957  1.00  0.00    -0.545 OA
ATOM      9  O   UNL     1      21.976  -4.728  22.236  1.00  0.00    -0.545 OA
ENDBRANCH   1   7
BRANCH   2  10
ATOM     10  O   UNL     1      20.917  -3.086  18.577  1.00  0.00    -0.507 OA
ATOM     11  H   UNL     1      21.263  -2.419  17.901  1.00  0.00     0.293 HD
ENDBRANCH   2  10
TORSDOF 2
ENDMDL
MODEL 3
REMARK VINA RESULT:    -4.572     17.814     19.299
REMARK INTER + INTRA:          -5.222
REMARK INTER:                  -4.985
REMARK INTRA:                  -0.237
REMARK UNBOUND:                -0.249
REMARK SMILES O=C([O-])c1ccccc1O
REMARK SMILES IDX 4 1 9 2 5 3 8 4 6 5 7 6 2 7 1 8 3 9 10 10
REMARK H PARENT 10 11
REMARK Flexibility Score: inf
ROOT
ATOM      1  C   UNL     1      21.641   9.507  28.592  1.00  0.00     0.039 A 
ATOM      2  C   UNL     1      21.693   8.848  27.336  1.00  0.00     0.124 A 
ATOM      3  C   UNL     1      20.417  10.050  29.024  1.00  0.00     0.014 A 
ATOM      4  C   UNL     1      20.548   8.806  26.528  1.00  0.00     0.047 A 
ATOM      5  C   UNL     1      19.281   9.982  28.216  1.00  0.00     0.001 A 
ATOM      6  C   UNL     1      19.348   9.370  26.965  1.00  0.00     0.004 A 
ENDROOT
BRANCH   1   7
ATOM      7  C   UNL     1      22.828   9.677  29.457  1.00  0.00     0.075 C 
ATOM      8  O   UNL     1      23.909  10.125  28.993  1.00  0.00    -0.545 OA
ATOM      9  O   UNL     1      22.742   9.406  30.819  1.00  0.00    -0.545 OA
ENDBRANCH   1   7
BRANCH   2  10
ATOM     10  O   UNL     1      22.838   8.198  26.871  1.00  0.00    -0.507 OA
ATOM     11  H   UNL     1      23.575   8.663  26.360  1.00  0.00     0.293 HD
ENDBRANCH   2  10
TORSDOF 2
ENDMDL
MODEL 4
REMARK VINA RESULT:    -4.413      2.345      3.475
REMARK INTER + INTRA:          -5.048
REMARK INTER:                  -4.812
REMARK INTRA:                  -0.236
REMARK UNBOUND:                -0.249
REMARK SMILES O=C([O-])c1ccccc1O
REMARK SMILES IDX 4 1 9 2 5 3 8 4 6 5 7 6 2 7 1 8 3 9 10 10
REMARK H PARENT 10 11
REMARK Flexibility Score: inf
ROOT
ATOM      1  C   UNL     1      20.525  -7.096  16.920  1.00  0.00     0.039 A 
ATOM      2  C   UNL     1      21.656  -7.842  17.343  1.00  0.00     0.124 A 
ATOM      3  C   UNL     1      20.275  -5.845  17.514  1.00  0.00     0.014 A 
ATOM      4  C   UNL     1      22.461  -7.351  18.380  1.00  0.00     0.047 A 
ATOM      5  C   UNL     1      21.098  -5.362  18.532  1.00  0.00     0.001 A 
ATOM      6  C   UNL     1      22.184  -6.117  18.972  1.00  0.00     0.004 A 
ENDROOT
BRANCH   1   7
ATOM      7  C   UNL     1      19.574  -7.591  15.900  1.00  0.00     0.075 C 
ATOM      8  O   UNL     1      18.896  -6.791  15.205  1.00  0.00    -0.545 OA
ATOM      9  O   UNL     1      19.470  -8.956  15.650  1.00  0.00    -0.545 OA
ENDBRANCH   1   7
BRANCH   2  10
ATOM     10  O   UNL     1      22.034  -9.045  16.744  1.00  0.00    -0.507 OA
ATOM     11  H   UNL     1      21.805  -9.291  15.791  1.00  0.00     0.293 HD
ENDBRANCH   2  10
TORSDOF 2
ENDMDL
MODEL 5
REMARK VINA RESULT:    -4.353     18.341     18.927
REMARK INTER + INTRA:          -4.983
REMARK INTER:                  -4.763
REMARK INTRA:                  -0.220
REMARK UNBOUND:                -0.249
REMARK SMILES O=C([O-])c1ccccc1O
REMARK SMILES IDX 4 1 9 2 5 3 8 4 6 5 7 6 2 7 1 8 3 9 10 10
REMARK H PARENT 10 11
REMARK Flexibility Score: inf
ROOT
ATOM      1  C   UNL     1      20.200   8.184  29.125  1.00  0.00     0.039 A 
ATOM      2  C   UNL     1      19.622   8.832  28.003  1.00  0.00     0.124 A 
ATOM      3  C   UNL     1      21.571   7.868  29.095  1.00  0.00     0.014 A 
ATOM      4  C   UNL     1      20.406   9.086  26.869  1.00  0.00     0.047 A 
ATOM      5  C   UNL     1      22.343   8.147  27.966  1.00  0.00     0.001 A 
ATOM      6  C   UNL     1      21.760   8.746  26.851  1.00  0.00     0.004 A 
ENDROOT
BRANCH   1   7
ATOM      7  C   UNL     1      19.417   7.795  30.318  1.00  0.00     0.075 C 
ATOM      8  O   UNL     1      18.387   7.079  30.211  1.00  0.00    -0.545 OA
ATOM      9  O   UNL     1      19.851   8.164  31.587  1.00  0.00    -0.545 OA
ENDBRANCH   1   7
BRANCH   2  10
ATOM     10  O   UNL     1      18.295   9.267  27.983  1.00  0.00    -0.507 OA
ATOM     11  H   UNL     1      17.865   9.783  28.738  1.00  0.00     0.293 HD
ENDBRANCH   2  10
TORSDOF 2
ENDMDL
MODEL 6
REMARK VINA RESULT:    -4.337     17.580     18.402
REMARK INTER + INTRA:          -4.965
REMARK INTER:                  -4.717
REMARK INTRA:                  -0.249
REMARK UNBOUND:                -0.249
REMARK SMILES O=C([O-])c1ccccc1O
REMARK SMILES IDX 4 1 9 2 5 3 8 4 6 5 7 6 2 7 1 8 3 9 10 10
REMARK H PARENT 10 11
REMARK Flexibility Score: inf
ROOT
ATOM      1  C   UNL     1      21.913   7.952  28.332  1.00  0.00     0.039 A 
ATOM      2  C   UNL     1      21.661   8.861  27.271  1.00  0.00     0.124 A 
ATOM      3  C   UNL     1      20.908   7.736  29.294  1.00  0.00     0.014 A 
ATOM      4  C   UNL     1      20.451   9.569  27.237  1.00  0.00     0.047 A 
ATOM      5  C   UNL     1      19.701   8.433  29.234  1.00  0.00     0.001 A 
ATOM      6  C   UNL     1      19.476   9.355  28.213  1.00  0.00     0.004 A 
ENDROOT
BRANCH   1   7
ATOM      7  C   UNL     1      23.200   7.242  28.490  1.00  0.00     0.075 C 
ATOM      8  O   UNL     1      23.757   6.684  27.509  1.00  0.00    -0.545 OA
ATOM      9  O   UNL     1      23.849   7.243  29.721  1.00  0.00    -0.545 OA
ENDBRANCH   1   7
BRANCH   2  10
ATOM     10  O   UNL     1      22.560   9.065  26.223  1.00  0.00    -0.507 OA
ATOM     11  H   UNL     1      23.388   8.504  26.079  1.00  0.00     0.293 HD
ENDBRANCH   2  10
TORSDOF 2
ENDMDL
MODEL 7
REMARK VINA RESULT:    -4.321     18.400     19.528
REMARK INTER + INTRA:          -4.949
REMARK INTER:                  -4.700
REMARK INTRA:                  -0.249
REMARK UNBOUND:                -0.249
REMARK SMILES O=C([O-])c1ccccc1O
REMARK SMILES IDX 4 1 9 2 5 3 8 4 6 5 7 6 2 7 1 8 3 9 10 10
REMARK H PARENT 10 11
REMARK Flexibility Score: inf
ROOT
ATOM      1  C   UNL     1      20.887   9.544  28.060  1.00  0.00     0.039 A 
ATOM      2  C   UNL     1      22.255   9.535  27.683  1.00  0.00     0.124 A 
ATOM      3  C   UNL     1      20.557   9.699  29.419  1.00  0.00     0.014 A 
ATOM      4  C   UNL     1      23.246   9.616  28.672  1.00  0.00     0.047 A 
ATOM      5  C   UNL     1      21.556   9.799  30.389  1.00  0.00     0.001 A 
ATOM      6  C   UNL     1      22.899   9.748  30.017  1.00  0.00     0.004 A 
ENDROOT
BRANCH   1   7
ATOM      7  C   UNL     1      19.787   9.366  27.087  1.00  0.00     0.075 C 
ATOM      8  O   UNL     1      18.687   9.959  27.237  1.00  0.00    -0.545 OA
ATOM      9  O   UNL     1      19.982   8.588  25.951  1.00  0.00    -0.545 OA
ENDBRANCH   1   7
BRANCH   2  10
ATOM     10  O   UNL     1      22.671   9.482  26.351  1.00  0.00    -0.507 OA
ATOM     11  H   UNL     1      23.172   8.700  25.953  1.00  0.00     0.293 HD
ENDBRANCH   2  10
TORSDOF 2
ENDMDL
MODEL 8
REMARK VINA RESULT:    -4.285     13.356     14.535
REMARK INTER + INTRA:          -4.909
REMARK INTER:                  -4.676
REMARK INTRA:                  -0.233
REMARK UNBOUND:                -0.249
REMARK SMILES O=C([O-])c1ccccc1O
REMARK SMILES IDX 4 1 9 2 5 3 8 4 6 5 7 6 2 7 1 8 3 9 10 10
REMARK H PARENT 10 11
REMARK Flexibility Score: inf
ROOT
ATOM      1  C   UNL     1      26.869   4.504  24.725  1.00  0.00     0.039 A 
ATOM      2  C   UNL     1      25.642   4.817  25.365  1.00  0.00     0.124 A 
ATOM      3  C   UNL     1      27.129   3.167  24.369  1.00  0.00     0.014 A 
ATOM      4  C   UNL     1      24.745   3.788  25.686  1.00  0.00     0.047 A 
ATOM      5  C   UNL     1      26.216   2.157  24.677  1.00  0.00     0.001 A 
ATOM      6  C   UNL     1      25.030   2.465  25.343  1.00  0.00     0.004 A 
ENDROOT
BRANCH   1   7
ATOM      7  C   UNL     1      27.907   5.519  24.443  1.00  0.00     0.075 C 
ATOM      8  O   UNL     1      28.318   6.294  25.346  1.00  0.00    -0.545 OA
ATOM      9  O   UNL     1      28.494   5.583  23.183  1.00  0.00    -0.545 OA
ENDBRANCH   1   7
BRANCH   2  10
ATOM     10  O   UNL     1      25.260   6.126  25.668  1.00  0.00    -0.507 OA
ATOM     11  H   UNL     1      25.544   6.930  25.126  1.00  0.00     0.293 HD
ENDBRANCH   2  10
TORSDOF 2
ENDMDL
MODEL 9
REMARK VINA RESULT:    -4.146     18.481     19.552
REMARK INTER + INTRA:          -4.758
REMARK INTER:                  -4.554
REMARK INTRA:                  -0.204
REMARK UNBOUND:                -0.249
REMARK SMILES O=C([O-])c1ccccc1O
REMARK SMILES IDX 4 1 9 2 5 3 8 4 6 5 7 6 2 7 1 8 3 9 10 10
REMARK H PARENT 10 11
REMARK Flexibility Score: inf
ROOT
ATOM      1  C   UNL     1      19.919   8.748  28.939  1.00  0.00     0.039 A 
ATOM      2  C   UNL     1      20.916   9.216  29.835  1.00  0.00     0.124 A 
ATOM      3  C   UNL     1      18.902   7.909  29.433  1.00  0.00     0.014 A 
ATOM      4  C   UNL     1      20.906   8.786  31.169  1.00  0.00     0.047 A 
ATOM      5  C   UNL     1      18.895   7.507  30.770  1.00  0.00     0.001 A 
ATOM      6  C   UNL     1      19.901   7.936  31.634  1.00  0.00     0.004 A 
ENDROOT
BRANCH   1   7
ATOM      7  C   UNL     1      19.917   9.078  27.498  1.00  0.00     0.075 C 
ATOM      8  O   UNL     1      18.955   9.699  26.977  1.00  0.00    -0.545 OA
ATOM      9  O   UNL     1      21.020   8.764  26.711  1.00  0.00    -0.545 OA
ENDBRANCH   1   7
BRANCH   2  10
ATOM     10  O   UNL     1      21.905  10.125  29.454  1.00  0.00    -0.507 OA
ATOM     11  H   UNL     1      22.796   9.851  29.064  1.00  0.00     0.293 HD
ENDBRANCH   2  10
TORSDOF 2
ENDMDL
