MODEL 1
REMARK VINA RESULT:    -1.613      0.000      0.000
REMARK INTER + INTRA:          -6.034
REMARK INTER:                  -3.122
REMARK INTRA:                  -2.912
REMARK UNBOUND:                -2.912
REMARK SMILES CCCCCCCCCCCCCCCCCC(=O)[O-]
REMARK SMILES IDX 10 1 11 2 12 3 13 4 14 5 15 6 16 7 17 8 18 9 19 10 20 11
REMARK SMILES IDX 9 12 8 13 7 14 6 15 5 16 4 17 3 18 2 19 1 20
REMARK H PARENT
REMARK Flexibility Score: inf
ROOT
ATOM      1  C   UNL     1     -32.151 -32.624  15.136  1.00  0.00     0.000 C 
ENDROOT
BRANCH   1   2
ATOM      2  C   UNL     1     -32.973 -33.599  16.002  1.00  0.00     0.000 C 
BRANCH   2   3
ATOM      3  C   UNL     1     -32.417 -35.036  16.080  1.00  0.00     0.000 C 
BRANCH   3   4
ATOM      4  C   UNL     1     -32.298 -35.614  17.502  1.00  0.00     0.000 C 
BRANCH   4   5
ATOM      5  C   UNL     1     -30.868 -36.068  17.843  1.00  0.00     0.000 C 
BRANCH   5   6
ATOM      6  C   UNL     1     -29.867 -35.756  16.718  1.00  0.00     0.000 C 
BRANCH   6   7
ATOM      7  C   UNL     1     -28.719 -34.842  17.185  1.00  0.00     0.006 C 
BRANCH   7   8
ATOM      8  C   UNL     1     -28.862 -33.413  16.647  1.00  0.00     0.053 C 
BRANCH   8   9
ATOM      9  C   UNL     1     -29.026 -32.413  17.751  1.00  0.00     0.041 C 
ATOM     10  O   UNL     1     -30.075 -31.722  17.827  1.00  0.00    -0.550 OA
ATOM     11  O   UNL     1     -28.034 -32.268  18.712  1.00  0.00    -0.550 OA
ENDBRANCH   8   9
ENDBRANCH   7   8
ENDBRANCH   6   7
ENDBRANCH   5   6
ENDBRANCH   4   5
ENDBRANCH   3   4
ENDBRANCH   2   3
ENDBRANCH   1   2
BRANCH   1  12
ATOM     12  C   UNL     1     -32.803 -32.240  13.796  1.00  0.00     0.000 C 
BRANCH  12  13
ATOM     13  C   UNL     1     -34.337 -32.227  13.862  1.00  0.00    -0.000 C 
BRANCH  13  14
ATOM     14  C   UNL     1     -34.940 -33.162  12.803  1.00  0.00    -0.000 C 
BRANCH  14  15
ATOM     15  C   UNL     1     -33.879 -34.013  12.078  1.00  0.00    -0.000 C 
BRANCH  15  16
ATOM     16  C   UNL     1     -33.856 -35.500  12.479  1.00  0.00    -0.000 C 
BRANCH  16  17
ATOM     17  C   UNL     1     -32.449 -36.122  12.578  1.00  0.00    -0.000 C 
BRANCH  17  18
ATOM     18  C   UNL     1     -31.307 -35.107  12.342  1.00  0.00    -0.000 C 
BRANCH  18  19
ATOM     19  C   UNL     1     -30.039 -35.400  13.162  1.00  0.00    -0.003 C 
ATOM     20  C   UNL     1     -28.929 -34.379  12.913  1.00  0.00     0.004 C 
ENDBRANCH  18  19
ENDBRANCH  17  18
ENDBRANCH  16  17
ENDBRANCH  15  16
ENDBRANCH  14  15
ENDBRANCH  13  14
ENDBRANCH  12  13
ENDBRANCH   1  12
TORSDOF 16
ENDMDL
MODEL 2
REMARK VINA RESULT:    -1.567      2.466      5.186
REMARK INTER + INTRA:          -5.946
REMARK INTER:                  -2.960
REMARK INTRA:                  -2.985
REMARK UNBOUND:                -2.912
REMARK SMILES CCCCCCCCCCCCCCCCCC(=O)[O-]
REMARK SMILES IDX 10 1 11 2 12 3 13 4 14 5 15 6 16 7 17 8 18 9 19 10 20 11
REMARK SMILES IDX 9 12 8 13 7 14 6 15 5 16 4 17 3 18 2 19 1 20
REMARK H PARENT
REMARK Flexibility Score: inf
ROOT
ATOM      1  C   UNL     1     -33.781 -32.476  15.118  1.00  0.00     0.000 C 
ENDROOT
BRANCH   1   2
ATOM      2  C   UNL     1     -33.723 -32.744  13.602  1.00  0.00     0.000 C 
BRANCH   2   3
ATOM      3  C   UNL     1     -34.650 -33.869  13.098  1.00  0.00     0.000 C 
BRANCH   3   4
ATOM      4  C   UNL     1     -34.100 -34.690  11.918  1.00  0.00     0.000 C 
BRANCH   4   5
ATOM      5  C   UNL     1     -33.669 -36.109  12.328  1.00  0.00     0.000 C 
BRANCH   5   6
ATOM      6  C   UNL     1     -32.547 -36.104  13.378  1.00  0.00     0.000 C 
BRANCH   6   7
ATOM      7  C   UNL     1     -31.144 -36.125  12.744  1.00  0.00     0.006 C 
BRANCH   7   8
ATOM      8  C   UNL     1     -30.608 -34.712  12.475  1.00  0.00     0.053 C 
BRANCH   8   9
ATOM      9  C   UNL     1     -29.126 -34.629  12.677  1.00  0.00     0.041 C 
ATOM     10  O   UNL     1     -28.495 -33.602  12.316  1.00  0.00    -0.550 OA
ATOM     11  O   UNL     1     -28.447 -35.674  13.290  1.00  0.00    -0.550 OA
ENDBRANCH   8   9
ENDBRANCH   7   8
ENDBRANCH   6   7
ENDBRANCH   5   6
ENDBRANCH   4   5
ENDBRANCH   3   4
ENDBRANCH   2   3
ENDBRANCH   1   2
BRANCH   1  12
ATOM     12  C   UNL     1     -33.940 -33.733  15.993  1.00  0.00     0.000 C 
BRANCH  12  13
ATOM     13  C   UNL     1     -32.869 -33.836  17.088  1.00  0.00    -0.000 C 
BRANCH  13  14
ATOM     14  C   UNL     1     -31.910 -35.003  16.809  1.00  0.00    -0.000 C 
BRANCH  14  15
ATOM     15  C   UNL     1     -30.588 -34.554  16.158  1.00  0.00    -0.000 C 
BRANCH  15  16
ATOM     16  C   UNL     1     -30.169 -33.105  16.472  1.00  0.00    -0.000 C 
BRANCH  16  17
ATOM     17  C   UNL     1     -30.066 -32.180  15.245  1.00  0.00    -0.000 C 
BRANCH  17  18
ATOM     18  C   UNL     1     -30.521 -30.729  15.526  1.00  0.00    -0.000 C 
BRANCH  18  19
ATOM     19  C   UNL     1     -31.150 -30.535  16.916  1.00  0.00    -0.003 C 
ATOM     20  C   UNL     1     -32.291 -29.517  16.910  1.00  0.00     0.004 C 
ENDBRANCH  18  19
ENDBRANCH  17  18
ENDBRANCH  16  17
ENDBRANCH  15  16
ENDBRANCH  14  15
ENDBRANCH  13  14
ENDBRANCH  12  13
ENDBRANCH   1  12
TORSDOF 16
ENDMDL
MODEL 3
REMARK VINA RESULT:    -1.556      2.349      4.539
REMARK INTER + INTRA:          -5.923
REMARK INTER:                  -3.067
REMARK INTRA:                  -2.856
REMARK UNBOUND:                -2.912
REMARK SMILES CCCCCCCCCCCCCCCCCC(=O)[O-]
REMARK SMILES IDX 10 1 11 2 12 3 13 4 14 5 15 6 16 7 17 8 18 9 19 10 20 11
REMARK SMILES IDX 9 12 8 13 7 14 6 15 5 16 4 17 3 18 2 19 1 20
REMARK H PARENT
REMARK Flexibility Score: inf
ROOT
ATOM      1  C   UNL     1     -30.302 -33.890  17.282  1.00  0.00     0.000 C 
ENDROOT
BRANCH   1   2
ATOM      2  C   UNL     1     -30.804 -33.723  15.834  1.00  0.00     0.000 C 
BRANCH   2   3
ATOM      3  C   UNL     1     -31.819 -32.581  15.620  1.00  0.00     0.000 C 
BRANCH   3   4
ATOM      4  C   UNL     1     -31.949 -32.086  14.168  1.00  0.00     0.000 C 
BRANCH   4   5
ATOM      5  C   UNL     1     -30.622 -31.553  13.600  1.00  0.00     0.000 C 
BRANCH   5   6
ATOM      6  C   UNL     1     -30.313 -32.113  12.202  1.00  0.00     0.000 C 
BRANCH   6   7
ATOM      7  C   UNL     1     -28.926 -32.775  12.124  1.00  0.00     0.006 C 
BRANCH   7   8
ATOM      8  C   UNL     1     -28.950 -34.231  12.607  1.00  0.00     0.053 C 
BRANCH   8   9
ATOM      9  C   UNL     1     -27.783 -34.546  13.492  1.00  0.00     0.041 C 
ATOM     10  O   UNL     1     -27.001 -35.487  13.196  1.00  0.00    -0.550 OA
ATOM     11  O   UNL     1     -27.542 -33.780  14.625  1.00  0.00    -0.550 OA
ENDBRANCH   8   9
ENDBRANCH   7   8
ENDBRANCH   6   7
ENDBRANCH   5   6
ENDBRANCH   4   5
ENDBRANCH   3   4
ENDBRANCH   2   3
ENDBRANCH   1   2
BRANCH   1  12
ATOM     12  C   UNL     1     -31.362 -34.384  18.282  1.00  0.00     0.000 C 
BRANCH  12  13
ATOM     13  C   UNL     1     -32.149 -35.597  17.765  1.00  0.00    -0.000 C 
BRANCH  13  14
ATOM     14  C   UNL     1     -33.659 -35.315  17.772  1.00  0.00    -0.000 C 
BRANCH  14  15
ATOM     15  C   UNL     1     -34.398 -35.959  16.584  1.00  0.00    -0.000 C 
BRANCH  15  16
ATOM     16  C   UNL     1     -34.935 -34.965  15.537  1.00  0.00    -0.000 C 
BRANCH  16  17
ATOM     17  C   UNL     1     -34.323 -35.111  14.131  1.00  0.00    -0.000 C 
BRANCH  17  18
ATOM     18  C   UNL     1     -33.157 -36.125  14.067  1.00  0.00    -0.000 C 
BRANCH  18  19
ATOM     19  C   UNL     1     -32.240 -35.938  12.846  1.00  0.00    -0.003 C 
ATOM     20  C   UNL     1     -32.734 -34.842  11.901  1.00  0.00     0.004 C 
ENDBRANCH  18  19
ENDBRANCH  17  18
ENDBRANCH  16  17
ENDBRANCH  15  16
ENDBRANCH  14  15
ENDBRANCH  13  14
ENDBRANCH  12  13
ENDBRANCH   1  12
TORSDOF 16
ENDMDL
MODEL 4
REMARK VINA RESULT:    -1.507      1.571      3.158
REMARK INTER + INTRA:          -5.828
REMARK INTER:                  -2.816
REMARK INTRA:                  -3.012
REMARK UNBOUND:                -2.912
REMARK SMILES CCCCCCCCCCCCCCCCCC(=O)[O-]
REMARK SMILES IDX 10 1 11 2 12 3 13 4 14 5 15 6 16 7 17 8 18 9 19 10 20 11
REMARK SMILES IDX 9 12 8 13 7 14 6 15 5 16 4 17 3 18 2 19 1 20
REMARK H PARENT
REMARK Flexibility Score: inf
ROOT
ATOM      1  C   UNL     1     -31.001 -35.123  14.986  1.00  0.00     0.000 C 
ENDROOT
BRANCH   1   2
ATOM      2  C   UNL     1     -32.050 -36.125  15.510  1.00  0.00     0.000 C 
BRANCH   2   3
ATOM      3  C   UNL     1     -33.350 -35.493  16.046  1.00  0.00     0.000 C 
BRANCH   3   4
ATOM      4  C   UNL     1     -33.444 -35.392  17.579  1.00  0.00     0.000 C 
BRANCH   4   5
ATOM      5  C   UNL     1     -33.692 -33.954  18.068  1.00  0.00     0.000 C 
BRANCH   5   6
ATOM      6  C   UNL     1     -33.567 -32.918  16.940  1.00  0.00     0.000 C 
BRANCH   6   7
ATOM      7  C   UNL     1     -32.228 -32.160  16.979  1.00  0.00     0.006 C 
BRANCH   7   8
ATOM      8  C   UNL     1     -31.438 -32.444  18.263  1.00  0.00     0.053 C 
BRANCH   8   9
ATOM      9  C   UNL     1     -30.047 -32.917  17.970  1.00  0.00     0.041 C 
ATOM     10  O   UNL     1     -29.648 -34.024  18.417  1.00  0.00    -0.550 OA
ATOM     11  O   UNL     1     -29.203 -32.149  17.179  1.00  0.00    -0.550 OA
ENDBRANCH   8   9
ENDBRANCH   7   8
ENDBRANCH   6   7
ENDBRANCH   5   6
ENDBRANCH   4   5
ENDBRANCH   3   4
ENDBRANCH   2   3
ENDBRANCH   1   2
BRANCH   1  12
ATOM     12  C   UNL     1     -30.603 -35.314  13.512  1.00  0.00     0.000 C 
BRANCH  12  13
ATOM     13  C   UNL     1     -31.688 -36.025  12.689  1.00  0.00    -0.000 C 
BRANCH  13  14
ATOM     14  C   UNL     1     -32.509 -35.014  11.875  1.00  0.00    -0.000 C 
BRANCH  14  15
ATOM     15  C   UNL     1     -33.985 -34.948  12.312  1.00  0.00    -0.000 C 
BRANCH  15  16
ATOM     16  C   UNL     1     -34.393 -33.646  13.028  1.00  0.00    -0.000 C 
BRANCH  16  17
ATOM     17  C   UNL     1     -33.686 -32.376  12.515  1.00  0.00    -0.000 C 
BRANCH  17  18
ATOM     18  C   UNL     1     -32.588 -31.853  13.470  1.00  0.00    -0.000 C 
BRANCH  18  19
ATOM     19  C   UNL     1     -31.211 -31.697  12.803  1.00  0.00    -0.003 C 
ATOM     20  C   UNL     1     -30.084 -31.505  13.818  1.00  0.00     0.004 C 
ENDBRANCH  18  19
ENDBRANCH  17  18
ENDBRANCH  16  17
ENDBRANCH  15  16
ENDBRANCH  14  15
ENDBRANCH  13  14
ENDBRANCH  12  13
ENDBRANCH   1  12
TORSDOF 16
ENDMDL
MODEL 5
REMARK VINA RESULT:    -1.504     20.981     23.201
REMARK INTER + INTRA:          -5.824
REMARK INTER:                  -2.725
REMARK INTRA:                  -3.099
REMARK UNBOUND:                -2.912
REMARK SMILES CCCCCCCCCCCCCCCCCC(=O)[O-]
REMARK SMILES IDX 10 1 11 2 12 3 13 4 14 5 15 6 16 7 17 8 18 9 19 10 20 11
REMARK SMILES IDX 9 12 8 13 7 14 6 15 5 16 4 17 3 18 2 19 1 20
REMARK H PARENT
REMARK Flexibility Score: inf
ROOT
ATOM      1  C   UNL     1     -18.071 -26.210  29.403  1.00  0.00     0.000 C 
ENDROOT
BRANCH   1   2
ATOM      2  C   UNL     1     -19.406 -25.475  29.631  1.00  0.00     0.000 C 
BRANCH   2   3
ATOM      3  C   UNL     1     -20.141 -25.840  30.938  1.00  0.00     0.000 C 
BRANCH   3   4
ATOM      4  C   UNL     1     -20.549 -24.641  31.815  1.00  0.00     0.000 C 
BRANCH   4   5
ATOM      5  C   UNL     1     -20.608 -23.320  31.029  1.00  0.00     0.000 C 
BRANCH   5   6
ATOM      6  C   UNL     1     -20.200 -22.108  31.882  1.00  0.00     0.000 C 
BRANCH   6   7
ATOM      7  C   UNL     1     -20.518 -20.768  31.195  1.00  0.00     0.006 C 
BRANCH   7   8
ATOM      8  C   UNL     1     -20.963 -20.954  29.738  1.00  0.00     0.053 C 
BRANCH   8   9
ATOM      9  C   UNL     1     -22.182 -20.145  29.418  1.00  0.00     0.041 C 
ATOM     10  O   UNL     1     -23.326 -20.665  29.497  1.00  0.00    -0.550 OA
ATOM     11  O   UNL     1     -22.057 -18.808  29.062  1.00  0.00    -0.550 OA
ENDBRANCH   8   9
ENDBRANCH   7   8
ENDBRANCH   6   7
ENDBRANCH   5   6
ENDBRANCH   4   5
ENDBRANCH   3   4
ENDBRANCH   2   3
ENDBRANCH   1   2
BRANCH   1  12
ATOM     12  C   UNL     1     -17.180 -26.337  30.652  1.00  0.00     0.000 C 
BRANCH  12  13
ATOM     13  C   UNL     1     -15.820 -25.643  30.486  1.00  0.00    -0.000 C 
BRANCH  13  14
ATOM     14  C   UNL     1     -15.613 -24.578  31.574  1.00  0.00    -0.000 C 
BRANCH  14  15
ATOM     15  C   UNL     1     -16.818 -23.630  31.726  1.00  0.00    -0.000 C 
BRANCH  15  16
ATOM     16  C   UNL     1     -16.475 -22.129  31.663  1.00  0.00    -0.000 C 
BRANCH  16  17
ATOM     17  C   UNL     1     -16.751 -21.458  30.304  1.00  0.00    -0.000 C 
BRANCH  17  18
ATOM     18  C   UNL     1     -17.502 -22.369  29.306  1.00  0.00    -0.000 C 
BRANCH  18  19
ATOM     19  C   UNL     1     -16.631 -22.857  28.136  1.00  0.00    -0.003 C 
ATOM     20  C   UNL     1     -15.170 -22.423  28.269  1.00  0.00     0.004 C 
ENDBRANCH  18  19
ENDBRANCH  17  18
ENDBRANCH  16  17
ENDBRANCH  15  16
ENDBRANCH  14  15
ENDBRANCH  13  14
ENDBRANCH  12  13
ENDBRANCH   1  12
TORSDOF 16
ENDMDL
MODEL 6
REMARK VINA RESULT:    -1.398      2.599      4.879
REMARK INTER + INTRA:          -5.618
REMARK INTER:                  -2.852
REMARK INTRA:                  -2.766
REMARK UNBOUND:                -2.912
REMARK SMILES CCCCCCCCCCCCCCCCCC(=O)[O-]
REMARK SMILES IDX 10 1 11 2 12 3 13 4 14 5 15 6 16 7 17 8 18 9 19 10 20 11
REMARK SMILES IDX 9 12 8 13 7 14 6 15 5 16 4 17 3 18 2 19 1 20
REMARK H PARENT
REMARK Flexibility Score: inf
ROOT
ATOM      1  C   UNL     1     -33.266 -33.820  16.106  1.00  0.00     0.000 C 
ENDROOT
BRANCH   1   2
ATOM      2  C   UNL     1     -33.516 -35.334  16.251  1.00  0.00     0.000 C 
BRANCH   2   3
ATOM      3  C   UNL     1     -34.022 -36.040  14.977  1.00  0.00     0.000 C 
BRANCH   3   4
ATOM      4  C   UNL     1     -34.150 -35.137  13.737  1.00  0.00     0.000 C 
BRANCH   4   5
ATOM      5  C   UNL     1     -33.092 -35.444  12.663  1.00  0.00     0.000 C 
BRANCH   5   6
ATOM      6  C   UNL     1     -32.672 -34.193  11.875  1.00  0.00     0.000 C 
BRANCH   6   7
ATOM      7  C   UNL     1     -33.178 -32.891  12.520  1.00  0.00     0.006 C 
BRANCH   7   8
ATOM      8  C   UNL     1     -32.379 -31.665  12.056  1.00  0.00     0.053 C 
BRANCH   8   9
ATOM      9  C   UNL     1     -32.475 -30.533  13.032  1.00  0.00     0.041 C 
ATOM     10  O   UNL     1     -31.791 -29.490  12.860  1.00  0.00    -0.550 OA
ATOM     11  O   UNL     1     -33.342 -30.617  14.113  1.00  0.00    -0.550 OA
ENDBRANCH   8   9
ENDBRANCH   7   8
ENDBRANCH   6   7
ENDBRANCH   5   6
ENDBRANCH   4   5
ENDBRANCH   3   4
ENDBRANCH   2   3
ENDBRANCH   1   2
BRANCH   1  12
ATOM     12  C   UNL     1     -31.817 -33.374  16.370  1.00  0.00     0.000 C 
BRANCH  12  13
ATOM     13  C   UNL     1     -30.924 -33.486  15.125  1.00  0.00    -0.000 C 
BRANCH  13  14
ATOM     14  C   UNL     1     -29.914 -34.634  15.275  1.00  0.00    -0.000 C 
BRANCH  14  15
ATOM     15  C   UNL     1     -29.809 -35.512  14.014  1.00  0.00    -0.000 C 
BRANCH  15  16
ATOM     16  C   UNL     1     -28.398 -35.601  13.401  1.00  0.00    -0.000 C 
BRANCH  16  17
ATOM     17  C   UNL     1     -27.679 -34.249  13.231  1.00  0.00    -0.000 C 
BRANCH  17  18
ATOM     18  C   UNL     1     -28.317 -33.340  12.156  1.00  0.00    -0.000 C 
BRANCH  18  19
ATOM     19  C   UNL     1     -28.867 -32.016  12.712  1.00  0.00    -0.003 C 
ATOM     20  C   UNL     1     -28.447 -30.807  11.875  1.00  0.00     0.004 C 
ENDBRANCH  18  19
ENDBRANCH  17  18
ENDBRANCH  16  17
ENDBRANCH  15  16
ENDBRANCH  14  15
ENDBRANCH  13  14
ENDBRANCH  12  13
ENDBRANCH   1  12
TORSDOF 16
ENDMDL
MODEL 7
REMARK VINA RESULT:    -0.786      2.253      4.789
REMARK INTER + INTRA:          -4.433
REMARK INTER:                  -1.773
REMARK INTRA:                  -2.660
REMARK UNBOUND:                -2.912
REMARK SMILES CCCCCCCCCCCCCCCCCC(=O)[O-]
REMARK SMILES IDX 10 1 11 2 12 3 13 4 14 5 15 6 16 7 17 8 18 9 19 10 20 11
REMARK SMILES IDX 9 12 8 13 7 14 6 15 5 16 4 17 3 18 2 19 1 20
REMARK H PARENT
REMARK Flexibility Score: inf
ROOT
ATOM      1  C   UNL     1     -33.797 -32.692  14.012  1.00  0.00     0.000 C 
ENDROOT
BRANCH   1   2
ATOM      2  C   UNL     1     -32.551 -32.777  13.110  1.00  0.00     0.000 C 
BRANCH   2   3
ATOM      3  C   UNL     1     -32.696 -33.690  11.875  1.00  0.00     0.000 C 
BRANCH   3   4
ATOM      4  C   UNL     1     -33.675 -34.866  12.044  1.00  0.00     0.000 C 
BRANCH   4   5
ATOM      5  C   UNL     1     -33.027 -36.091  12.713  1.00  0.00     0.000 C 
BRANCH   5   6
ATOM      6  C   UNL     1     -31.499 -35.968  12.813  1.00  0.00     0.000 C 
BRANCH   6   7
ATOM      7  C   UNL     1     -30.987 -36.124  14.256  1.00  0.00     0.006 C 
BRANCH   7   8
ATOM      8  C   UNL     1     -30.138 -34.926  14.703  1.00  0.00     0.053 C 
BRANCH   8   9
ATOM      9  C   UNL     1     -28.679 -35.263  14.755  1.00  0.00     0.041 C 
ATOM     10  O   UNL     1     -27.967 -34.846  15.705  1.00  0.00    -0.550 OA
ATOM     11  O   UNL     1     -28.113 -36.062  13.769  1.00  0.00    -0.550 OA
ENDBRANCH   8   9
ENDBRANCH   7   8
ENDBRANCH   6   7
ENDBRANCH   5   6
ENDBRANCH   4   5
ENDBRANCH   3   4
ENDBRANCH   2   3
ENDBRANCH   1   2
BRANCH   1  12
ATOM     12  C   UNL     1     -33.682 -33.446  15.349  1.00  0.00     0.000 C 
BRANCH  12  13
ATOM     13  C   UNL     1     -34.980 -34.167  15.739  1.00  0.00    -0.000 C 
BRANCH  13  14
ATOM     14  C   UNL     1     -34.678 -35.501  16.438  1.00  0.00    -0.000 C 
BRANCH  14  15
ATOM     15  C   UNL     1     -33.285 -35.534  17.096  1.00  0.00    -0.000 C 
BRANCH  15  16
ATOM     16  C   UNL     1     -33.279 -35.285  18.616  1.00  0.00    -0.000 C 
BRANCH  16  17
ATOM     17  C   UNL     1     -32.103 -34.432  19.128  1.00  0.00    -0.000 C 
BRANCH  17  18
ATOM     18  C   UNL     1     -31.031 -34.148  18.051  1.00  0.00    -0.000 C 
BRANCH  18  19
ATOM     19  C   UNL     1     -30.793 -32.650  17.794  1.00  0.00    -0.003 C 
ATOM     20  C   UNL     1     -32.084 -31.832  17.848  1.00  0.00     0.004 C 
ENDBRANCH  18  19
ENDBRANCH  17  18
ENDBRANCH  16  17
ENDBRANCH  15  16
ENDBRANCH  14  15
ENDBRANCH  13  14
ENDBRANCH  12  13
ENDBRANCH   1  12
TORSDOF 16
ENDMDL
MODEL 8
REMARK VINA RESULT:    -0.185      1.728      2.582
REMARK INTER + INTRA:          -3.271
REMARK INTER:                  -0.426
REMARK INTRA:                  -2.845
REMARK UNBOUND:                -2.912
REMARK SMILES CCCCCCCCCCCCCCCCCC(=O)[O-]
REMARK SMILES IDX 10 1 11 2 12 3 13 4 14 5 15 6 16 7 17 8 18 9 19 10 20 11
REMARK SMILES IDX 9 12 8 13 7 14 6 15 5 16 4 17 3 18 2 19 1 20
REMARK H PARENT
REMARK Flexibility Score: inf
ROOT
ATOM      1  C   UNL     1     -31.500 -34.135  16.202  1.00  0.00     0.000 C 
ENDROOT
BRANCH   1   2
ATOM      2  C   UNL     1     -31.132 -35.631  16.247  1.00  0.00     0.000 C 
BRANCH   2   3
ATOM      3  C   UNL     1     -30.249 -36.125  15.082  1.00  0.00     0.000 C 
BRANCH   3   4
ATOM      4  C   UNL     1     -29.013 -35.256  14.785  1.00  0.00     0.000 C 
BRANCH   4   5
ATOM      5  C   UNL     1     -27.689 -35.991  15.056  1.00  0.00     0.000 C 
BRANCH   5   6
ATOM      6  C   UNL     1     -27.079 -35.624  16.418  1.00  0.00     0.000 C 
BRANCH   6   7
ATOM      7  C   UNL     1     -27.691 -34.344  17.015  1.00  0.00     0.006 C 
BRANCH   7   8
ATOM      8  C   UNL     1     -27.892 -34.450  18.532  1.00  0.00     0.053 C 
BRANCH   8   9
ATOM      9  C   UNL     1     -29.135 -33.744  18.982  1.00  0.00     0.041 C 
ATOM     10  O   UNL     1     -29.260 -32.505  18.800  1.00  0.00    -0.550 OA
ATOM     11  O   UNL     1     -30.166 -34.461  19.575  1.00  0.00    -0.550 OA
ENDBRANCH   8   9
ENDBRANCH   7   8
ENDBRANCH   6   7
ENDBRANCH   5   6
ENDBRANCH   4   5
ENDBRANCH   3   4
ENDBRANCH   2   3
ENDBRANCH   1   2
BRANCH   1  12
ATOM     12  C   UNL     1     -32.927 -33.833  15.713  1.00  0.00     0.000 C 
BRANCH  12  13
ATOM     13  C   UNL     1     -33.892 -35.009  15.929  1.00  0.00    -0.000 C 
BRANCH  13  14
ATOM     14  C   UNL     1     -34.437 -35.524  14.589  1.00  0.00    -0.000 C 
BRANCH  14  15
ATOM     15  C   UNL     1     -34.667 -34.399  13.560  1.00  0.00    -0.000 C 
BRANCH  15  16
ATOM     16  C   UNL     1     -33.987 -34.619  12.195  1.00  0.00    -0.000 C 
BRANCH  16  17
ATOM     17  C   UNL     1     -32.704 -35.471  12.240  1.00  0.00    -0.000 C 
BRANCH  17  18
ATOM     18  C   UNL     1     -31.409 -34.648  12.053  1.00  0.00    -0.000 C 
BRANCH  18  19
ATOM     19  C   UNL     1     -31.639 -33.128  12.029  1.00  0.00    -0.003 C 
ATOM     20  C   UNL     1     -30.717 -32.378  12.991  1.00  0.00     0.004 C 
ENDBRANCH  18  19
ENDBRANCH  17  18
ENDBRANCH  16  17
ENDBRANCH  15  16
ENDBRANCH  14  15
ENDBRANCH  13  14
ENDBRANCH  12  13
ENDBRANCH   1  12
TORSDOF 16
ENDMDL
