MODEL 1
REMARK VINA RESULT:    -5.618      0.000      0.000
REMARK INTER + INTRA:          -9.676
REMARK INTER:                  -7.753
REMARK INTRA:                  -1.923
REMARK UNBOUND:                -1.923
REMARK SMILES O=C([O-])[C@@H]1O[C@H](Oc2cc3oc(-c4ccccc4)cc(=O)c3c(O)c2O)[C@H](O)[C@H](O)[C@@H]1O
REMARK SMILES IDX 7 1 6 2 4 3 31 4 5 5 29 6 27 7 2 8 1 9 3 10 32 11 30 13
REMARK SMILES IDX 28 15 8 17 25 18 9 19 23 20 10 21 22 22 11 23 20 24 12 25
REMARK SMILES IDX 19 26 21 27 26 28 24 30 13 32 14 33 18 34 15 35 17 36 16 37
REMARK H PARENT 32 12 30 14 28 16 26 29 24 31
REMARK Flexibility Score: inf
ROOT
ATOM      1  O   UNL     1     -57.552  26.384 -14.298  1.00  0.00    -0.458 OA
ENDROOT
BRANCH   1   2
ATOM      2  C   UNL     1     -58.685  26.323 -15.176  1.00  0.00     0.339 C 
ATOM      3  C   UNL     1     -60.286  26.791 -13.472  1.00  0.00     0.199 C 
ATOM      4  C   UNL     1     -60.542  28.216 -14.040  1.00  0.00     0.180 C 
ATOM      5  O   UNL     1     -59.832  25.876 -14.465  1.00  0.00    -0.328 OA
ATOM      6  C   UNL     1     -59.375  28.752 -14.892  1.00  0.00     0.181 C 
ATOM      7  C   UNL     1     -58.960  27.664 -15.897  1.00  0.00     0.214 C 
BRANCH   3   8
ATOM      8  C   UNL     1     -59.459  26.692 -12.209  1.00  0.00     0.073 C 
ATOM      9  O   UNL     1     -58.923  27.702 -11.688  1.00  0.00    -0.547 OA
ATOM     10  O   UNL     1     -59.244  25.445 -11.639  1.00  0.00    -0.547 OA
ENDBRANCH   3   8
BRANCH   4  11
ATOM     11  O   UNL     1     -60.954  29.124 -13.046  1.00  0.00    -0.387 OA
ATOM     12  H   UNL     1     -60.663  30.034 -13.307  1.00  0.00     0.211 HD
ENDBRANCH   4  11
BRANCH   6  13
ATOM     13  O   UNL     1     -58.288  29.125 -14.083  1.00  0.00    -0.387 OA
ATOM     14  H   UNL     1     -57.705  29.712 -14.631  1.00  0.00     0.211 HD
ENDBRANCH   6  13
BRANCH   7  15
ATOM     15  O   UNL     1     -57.838  28.069 -16.636  1.00  0.00    -0.384 OA
ATOM     16  H   UNL     1     -58.083  27.995 -17.595  1.00  0.00     0.211 HD
ENDBRANCH   7  15
ENDBRANCH   1   2
BRANCH   1  17
ATOM     17  C   UNL     1     -56.480  25.475 -14.213  1.00  0.00     0.172 A 
ATOM     18  C   UNL     1     -56.619  24.130 -13.807  1.00  0.00     0.201 A 
ATOM     19  C   UNL     1     -55.213  25.966 -14.521  1.00  0.00     0.098 A 
ATOM     20  C   UNL     1     -55.498  23.275 -13.781  1.00  0.00     0.176 A 
ATOM     21  C   UNL     1     -54.099  25.131 -14.530  1.00  0.00     0.146 A 
ATOM     22  C   UNL     1     -54.226  23.761 -14.199  1.00  0.00     0.111 A 
ATOM     23  O   UNL     1     -52.921  25.647 -14.868  1.00  0.00    -0.456 OA
ATOM     24  C   UNL     1     -53.066  22.960 -14.342  1.00  0.00     0.197 A 
ATOM     25  C   UNL     1     -51.802  24.932 -14.941  1.00  0.00     0.138 A 
ATOM     26  C   UNL     1     -51.854  23.553 -14.695  1.00  0.00     0.100 A 
ATOM     27  O   UNL     1     -53.097  21.711 -14.198  1.00  0.00    -0.289 OA
BRANCH  18  28
ATOM     28  O   UNL     1     -57.861  23.651 -13.390  1.00  0.00    -0.502 OA
ATOM     29  H   UNL     1     -58.010  22.697 -13.088  1.00  0.00     0.293 HD
ENDBRANCH  18  28
BRANCH  20  30
ATOM     30  O   UNL     1     -55.693  21.976 -13.299  1.00  0.00    -0.504 OA
ATOM     31  H   UNL     1     -54.950  21.334 -13.067  1.00  0.00     0.293 HD
ENDBRANCH  20  30
BRANCH  25  32
ATOM     32  C   UNL     1     -50.537  25.617 -15.308  1.00  0.00     0.017 A 
ATOM     33  C   UNL     1     -49.805  25.173 -16.424  1.00  0.00     0.012 A 
ATOM     34  C   UNL     1     -50.062  26.731 -14.583  1.00  0.00     0.012 A 
ATOM     35  C   UNL     1     -48.618  25.812 -16.795  1.00  0.00     0.001 A 
ATOM     36  C   UNL     1     -48.875  27.367 -14.960  1.00  0.00     0.001 A 
ATOM     37  C   UNL     1     -48.152  26.906 -16.062  1.00  0.00     0.000 A 
ENDBRANCH  25  32
ENDBRANCH   1  17
TORSDOF 9
ENDMDL
MODEL 2
REMARK VINA RESULT:    -5.474      4.059      7.920
REMARK INTER + INTRA:          -9.476
REMARK INTER:                  -7.680
REMARK INTRA:                  -1.797
REMARK UNBOUND:                -1.923
REMARK SMILES O=C([O-])[C@@H]1O[C@H](Oc2cc3oc(-c4ccccc4)cc(=O)c3c(O)c2O)[C@H](O)[C@H](O)[C@@H]1O
REMARK SMILES IDX 7 1 6 2 4 3 31 4 5 5 29 6 27 7 2 8 1 9 3 10 32 11 30 13
REMARK SMILES IDX 28 15 8 17 25 18 9 19 23 20 10 21 22 22 11 23 20 24 12 25
REMARK SMILES IDX 19 26 21 27 26 28 24 30 13 32 14 33 18 34 15 35 17 36 16 37
REMARK H PARENT 32 12 30 14 28 16 26 29 24 31
REMARK Flexibility Score: inf
ROOT
ATOM      1  O   UNL     1     -57.858  25.814 -13.734  1.00  0.00    -0.458 OA
ENDROOT
BRANCH   1   2
ATOM      2  C   UNL     1     -57.337  27.088 -13.328  1.00  0.00     0.339 C 
ATOM      3  C   UNL     1     -56.907  27.846 -15.547  1.00  0.00     0.199 C 
ATOM      4  C   UNL     1     -58.086  28.858 -15.480  1.00  0.00     0.180 C 
ATOM      5  O   UNL     1     -56.368  27.542 -14.264  1.00  0.00    -0.328 OA
ATOM      6  C   UNL     1     -59.152  28.483 -14.432  1.00  0.00     0.181 C 
ATOM      7  C   UNL     1     -58.443  28.147 -13.109  1.00  0.00     0.214 C 
BRANCH   3   8
ATOM      8  C   UNL     1     -57.119  26.594 -16.368  1.00  0.00     0.073 C 
ATOM      9  O   UNL     1     -58.254  26.272 -16.802  1.00  0.00    -0.547 OA
ATOM     10  O   UNL     1     -56.042  25.752 -16.607  1.00  0.00    -0.547 OA
ENDBRANCH   3   8
BRANCH   4  11
ATOM     11  O   UNL     1     -58.637  29.125 -16.747  1.00  0.00    -0.387 OA
ATOM     12  H   UNL     1     -59.354  29.800 -16.646  1.00  0.00     0.211 HD
ENDBRANCH   4  11
BRANCH   6  13
ATOM     13  O   UNL     1     -59.931  27.398 -14.869  1.00  0.00    -0.387 OA
ATOM     14  H   UNL     1     -60.088  26.815 -14.082  1.00  0.00     0.211 HD
ENDBRANCH   6  13
BRANCH   7  15
ATOM     15  O   UNL     1     -59.366  27.709 -12.146  1.00  0.00    -0.384 OA
ATOM     16  H   UNL     1     -59.421  28.420 -11.456  1.00  0.00     0.211 HD
ENDBRANCH   7  15
ENDBRANCH   1   2
BRANCH   1  17
ATOM     17  C   UNL     1     -57.691  24.573 -13.091  1.00  0.00     0.172 A 
ATOM     18  C   UNL     1     -56.691  23.637 -13.435  1.00  0.00     0.201 A 
ATOM     19  C   UNL     1     -58.599  24.260 -12.082  1.00  0.00     0.098 A 
ATOM     20  C   UNL     1     -56.571  22.428 -12.718  1.00  0.00     0.176 A 
ATOM     21  C   UNL     1     -58.479  23.086 -11.343  1.00  0.00     0.146 A 
ATOM     22  C   UNL     1     -57.440  22.166 -11.619  1.00  0.00     0.111 A 
ATOM     23  O   UNL     1     -59.353  22.858 -10.367  1.00  0.00    -0.456 OA
ATOM     24  C   UNL     1     -57.323  21.055 -10.749  1.00  0.00     0.197 A 
ATOM     25  C   UNL     1     -59.308  21.787  -9.580  1.00  0.00     0.138 A 
ATOM     26  C   UNL     1     -58.270  20.860  -9.743  1.00  0.00     0.100 A 
ATOM     27  O   UNL     1     -56.362  20.246 -10.825  1.00  0.00    -0.289 OA
BRANCH  18  28
ATOM     28  O   UNL     1     -55.844  23.885 -14.514  1.00  0.00    -0.502 OA
ATOM     29  H   UNL     1     -56.110  24.462 -15.302  1.00  0.00     0.293 HD
ENDBRANCH  18  28
BRANCH  20  30
ATOM     30  O   UNL     1     -55.608  21.514 -13.158  1.00  0.00    -0.504 OA
ATOM     31  H   UNL     1     -55.696  20.511 -13.088  1.00  0.00     0.293 HD
ENDBRANCH  20  30
BRANCH  25  32
ATOM     32  C   UNL     1     -60.350  21.623  -8.535  1.00  0.00     0.017 A 
ATOM     33  C   UNL     1     -61.626  22.181  -8.733  1.00  0.00     0.012 A 
ATOM     34  C   UNL     1     -60.105  20.891  -7.354  1.00  0.00     0.012 A 
ATOM     35  C   UNL     1     -62.626  22.028  -7.768  1.00  0.00     0.001 A 
ATOM     36  C   UNL     1     -61.109  20.741  -6.392  1.00  0.00     0.001 A 
ATOM     37  C   UNL     1     -62.367  21.311  -6.597  1.00  0.00     0.000 A 
ENDBRANCH  25  32
ENDBRANCH   1  17
TORSDOF 9
ENDMDL
MODEL 3
REMARK VINA RESULT:    -5.222      8.832     10.465
REMARK INTER + INTRA:          -9.129
REMARK INTER:                  -7.435
REMARK INTRA:                  -1.693
REMARK UNBOUND:                -1.923
REMARK SMILES O=C([O-])[C@@H]1O[C@H](Oc2cc3oc(-c4ccccc4)cc(=O)c3c(O)c2O)[C@H](O)[C@H](O)[C@@H]1O
REMARK SMILES IDX 7 1 6 2 4 3 31 4 5 5 29 6 27 7 2 8 1 9 3 10 32 11 30 13
REMARK SMILES IDX 28 15 8 17 25 18 9 19 23 20 10 21 22 22 11 23 20 24 12 25
REMARK SMILES IDX 19 26 21 27 26 28 24 30 13 32 14 33 18 34 15 35 17 36 16 37
REMARK H PARENT 32 12 30 14 28 16 26 29 24 31
REMARK Flexibility Score: inf
ROOT
ATOM      1  O   UNL     1     -56.493  17.542 -17.601  1.00  0.00    -0.458 OA
ENDROOT
BRANCH   1   2
ATOM      2  C   UNL     1     -56.560  16.855 -18.859  1.00  0.00     0.339 C 
ATOM      3  C   UNL     1     -58.874  16.313 -18.669  1.00  0.00     0.199 C 
ATOM      4  C   UNL     1     -59.252  17.344 -19.771  1.00  0.00     0.180 C 
ATOM      5  O   UNL     1     -57.541  15.828 -18.804  1.00  0.00    -0.328 OA
ATOM      6  C   UNL     1     -58.201  18.456 -19.952  1.00  0.00     0.181 C 
ATOM      7  C   UNL     1     -56.811  17.807 -20.052  1.00  0.00     0.214 C 
BRANCH   3   8
ATOM      8  C   UNL     1     -59.183  16.691 -17.238  1.00  0.00     0.073 C 
ATOM      9  O   UNL     1     -58.988  15.893 -16.286  1.00  0.00    -0.547 OA
ATOM     10  O   UNL     1     -59.745  17.932 -16.972  1.00  0.00    -0.547 OA
ENDBRANCH   3   8
BRANCH   4  11
ATOM     11  O   UNL     1     -60.557  17.847 -19.610  1.00  0.00    -0.387 OA
ATOM     12  H   UNL     1     -60.759  18.454 -20.365  1.00  0.00     0.211 HD
ENDBRANCH   4  11
BRANCH   6  13
ATOM     13  O   UNL     1     -58.248  19.374 -18.889  1.00  0.00    -0.387 OA
ATOM     14  H   UNL     1     -57.707  20.161 -19.159  1.00  0.00     0.211 HD
ENDBRANCH   6  13
BRANCH   7  15
ATOM     15  O   UNL     1     -55.807  18.785 -20.125  1.00  0.00    -0.384 OA
ATOM     16  H   UNL     1     -55.291  18.606 -20.954  1.00  0.00     0.211 HD
ENDBRANCH   7  15
ENDBRANCH   1   2
BRANCH   1  17
ATOM     17  C   UNL     1     -55.451  17.504 -16.655  1.00  0.00     0.172 A 
ATOM     18  C   UNL     1     -54.112  17.844 -16.945  1.00  0.00     0.201 A 
ATOM     19  C   UNL     1     -55.782  17.071 -15.372  1.00  0.00     0.098 A 
ATOM     20  C   UNL     1     -53.133  17.811 -15.929  1.00  0.00     0.176 A 
ATOM     21  C   UNL     1     -54.837  17.060 -14.350  1.00  0.00     0.146 A 
ATOM     22  C   UNL     1     -53.504  17.467 -14.598  1.00  0.00     0.111 A 
ATOM     23  O   UNL     1     -55.218  16.671 -13.137  1.00  0.00    -0.456 OA
ATOM     24  C   UNL     1     -52.638  17.533 -13.479  1.00  0.00     0.197 A 
ATOM     25  C   UNL     1     -54.406  16.656 -12.084  1.00  0.00     0.138 A 
ATOM     26  C   UNL     1     -53.088  17.108 -12.229  1.00  0.00     0.100 A 
ATOM     27  O   UNL     1     -51.474  18.002 -13.564  1.00  0.00    -0.289 OA
BRANCH  18  28
ATOM     28  O   UNL     1     -53.742  18.174 -18.248  1.00  0.00    -0.502 OA
ATOM     29  H   UNL     1     -54.415  18.353 -18.983  1.00  0.00     0.293 HD
ENDBRANCH  18  28
BRANCH  20  30
ATOM     30  O   UNL     1     -51.813  18.088 -16.302  1.00  0.00    -0.504 OA
ATOM     31  H   UNL     1     -51.369  17.737 -17.137  1.00  0.00     0.293 HD
ENDBRANCH  20  30
BRANCH  25  32
ATOM     32  C   UNL     1     -54.935  16.181 -10.779  1.00  0.00     0.017 A 
ATOM     33  C   UNL     1     -54.041  15.733  -9.789  1.00  0.00     0.012 A 
ATOM     34  C   UNL     1     -56.315  16.197 -10.491  1.00  0.00     0.012 A 
ATOM     35  C   UNL     1     -54.515  15.294  -8.550  1.00  0.00     0.001 A 
ATOM     36  C   UNL     1     -56.784  15.758  -9.249  1.00  0.00     0.001 A 
ATOM     37  C   UNL     1     -55.886  15.304  -8.280  1.00  0.00     0.000 A 
ENDBRANCH  25  32
ENDBRANCH   1  17
TORSDOF 9
ENDMDL
MODEL 4
REMARK VINA RESULT:    -5.215      1.120      1.278
REMARK INTER + INTRA:          -9.119
REMARK INTER:                  -7.286
REMARK INTRA:                  -1.833
REMARK UNBOUND:                -1.923
REMARK SMILES O=C([O-])[C@@H]1O[C@H](Oc2cc3oc(-c4ccccc4)cc(=O)c3c(O)c2O)[C@H](O)[C@H](O)[C@@H]1O
REMARK SMILES IDX 7 1 6 2 4 3 31 4 5 5 29 6 27 7 2 8 1 9 3 10 32 11 30 13
REMARK SMILES IDX 28 15 8 17 25 18 9 19 23 20 10 21 22 22 11 23 20 24 12 25
REMARK SMILES IDX 19 26 21 27 26 28 24 30 13 32 14 33 18 34 15 35 17 36 16 37
REMARK H PARENT 32 12 30 14 28 16 26 29 24 31
REMARK Flexibility Score: inf
ROOT
ATOM      1  O   UNL     1     -56.777  25.889 -14.518  1.00  0.00    -0.458 OA
ENDROOT
BRANCH   1   2
ATOM      2  C   UNL     1     -57.739  26.023 -15.573  1.00  0.00     0.339 C 
ATOM      3  C   UNL     1     -59.512  26.721 -14.140  1.00  0.00     0.199 C 
ATOM      4  C   UNL     1     -59.442  28.176 -14.685  1.00  0.00     0.180 C 
ATOM      5  O   UNL     1     -59.046  25.758 -15.080  1.00  0.00    -0.328 OA
ATOM      6  C   UNL     1     -58.078  28.527 -15.309  1.00  0.00     0.181 C 
ATOM      7  C   UNL     1     -57.674  27.400 -16.275  1.00  0.00     0.214 C 
BRANCH   3   8
ATOM      8  C   UNL     1     -58.939  26.472 -12.763  1.00  0.00     0.073 C 
ATOM      9  O   UNL     1     -58.425  27.397 -12.083  1.00  0.00    -0.547 OA
ATOM     10  O   UNL     1     -58.932  25.180 -12.257  1.00  0.00    -0.547 OA
ENDBRANCH   3   8
BRANCH   4  11
ATOM     11  O   UNL     1     -59.869  29.125 -13.737  1.00  0.00    -0.387 OA
ATOM     12  H   UNL     1     -60.388  29.828 -14.203  1.00  0.00     0.211 HD
ENDBRANCH   4  11
BRANCH   6  13
ATOM     13  O   UNL     1     -57.099  28.709 -14.317  1.00  0.00    -0.387 OA
ATOM     14  H   UNL     1     -56.310  28.169 -14.584  1.00  0.00     0.211 HD
ENDBRANCH   6  13
BRANCH   7  15
ATOM     15  O   UNL     1     -56.393  27.629 -16.800  1.00  0.00    -0.384 OA
ATOM     16  H   UNL     1     -55.874  26.793 -16.667  1.00  0.00     0.211 HD
ENDBRANCH   7  15
ENDBRANCH   1   2
BRANCH   1  17
ATOM     17  C   UNL     1     -55.752  24.930 -14.406  1.00  0.00     0.172 A 
ATOM     18  C   UNL     1     -55.973  23.576 -14.071  1.00  0.00     0.201 A 
ATOM     19  C   UNL     1     -54.448  25.376 -14.611  1.00  0.00     0.098 A 
ATOM     20  C   UNL     1     -54.893  22.671 -14.012  1.00  0.00     0.176 A 
ATOM     21  C   UNL     1     -53.372  24.493 -14.586  1.00  0.00     0.146 A 
ATOM     22  C   UNL     1     -53.577  23.117 -14.326  1.00  0.00     0.111 A 
ATOM     23  O   UNL     1     -52.153  24.970 -14.825  1.00  0.00    -0.456 OA
ATOM     24  C   UNL     1     -52.445  22.273 -14.431  1.00  0.00     0.197 A 
ATOM     25  C   UNL     1     -51.063  24.209 -14.859  1.00  0.00     0.138 A 
ATOM     26  C   UNL     1     -51.188  22.825 -14.679  1.00  0.00     0.100 A 
ATOM     27  O   UNL     1     -52.538  21.020 -14.345  1.00  0.00    -0.289 OA
BRANCH  18  28
ATOM     28  O   UNL     1     -57.259  23.137 -13.755  1.00  0.00    -0.502 OA
ATOM     29  H   UNL     1     -58.088  23.481 -14.222  1.00  0.00     0.293 HD
ENDBRANCH  18  28
BRANCH  20  30
ATOM     30  O   UNL     1     -55.174  21.363 -13.602  1.00  0.00    -0.504 OA
ATOM     31  H   UNL     1     -54.480  20.700 -13.291  1.00  0.00     0.293 HD
ENDBRANCH  20  30
BRANCH  25  32
ATOM     32  C   UNL     1     -49.749  24.852 -15.113  1.00  0.00     0.017 A 
ATOM     33  C   UNL     1     -49.705  26.161 -15.628  1.00  0.00     0.012 A 
ATOM     34  C   UNL     1     -48.535  24.195 -14.822  1.00  0.00     0.012 A 
ATOM     35  C   UNL     1     -48.479  26.791 -15.863  1.00  0.00     0.001 A 
ATOM     36  C   UNL     1     -47.312  24.831 -15.058  1.00  0.00     0.001 A 
ATOM     37  C   UNL     1     -47.283  26.125 -15.581  1.00  0.00     0.000 A 
ENDBRANCH  25  32
ENDBRANCH   1  17
TORSDOF 9
ENDMDL
MODEL 5
REMARK VINA RESULT:    -5.195      0.912      2.481
REMARK INTER + INTRA:          -9.092
REMARK INTER:                  -7.225
REMARK INTRA:                  -1.866
REMARK UNBOUND:                -1.923
REMARK SMILES O=C([O-])[C@@H]1O[C@H](Oc2cc3oc(-c4ccccc4)cc(=O)c3c(O)c2O)[C@H](O)[C@H](O)[C@@H]1O
REMARK SMILES IDX 7 1 6 2 4 3 31 4 5 5 29 6 27 7 2 8 1 9 3 10 32 11 30 13
REMARK SMILES IDX 28 15 8 17 25 18 9 19 23 20 10 21 22 22 11 23 20 24 12 25
REMARK SMILES IDX 19 26 21 27 26 28 24 30 13 32 14 33 18 34 15 35 17 36 16 37
REMARK H PARENT 32 12 30 14 28 16 26 29 24 31
REMARK Flexibility Score: inf
ROOT
ATOM      1  O   UNL     1     -57.672  26.106 -13.367  1.00  0.00    -0.458 OA
ENDROOT
BRANCH   1   2
ATOM      2  C   UNL     1     -57.955  26.906 -12.210  1.00  0.00     0.339 C 
ATOM      3  C   UNL     1     -58.627  28.827 -13.452  1.00  0.00     0.199 C 
ATOM      4  C   UNL     1     -60.118  28.615 -13.063  1.00  0.00     0.180 C 
ATOM      5  O   UNL     1     -57.725  28.279 -12.496  1.00  0.00    -0.328 OA
ATOM      6  C   UNL     1     -60.442  27.162 -12.663  1.00  0.00     0.181 C 
ATOM      7  C   UNL     1     -59.382  26.680 -11.658  1.00  0.00     0.214 C 
BRANCH   3   8
ATOM      8  C   UNL     1     -58.225  28.462 -14.864  1.00  0.00     0.073 C 
ATOM      9  O   UNL     1     -59.048  27.977 -15.682  1.00  0.00    -0.547 OA
ATOM     10  O   UNL     1     -56.902  28.618 -15.252  1.00  0.00    -0.547 OA
ENDBRANCH   3   8
BRANCH   4  11
ATOM     11  O   UNL     1     -61.003  29.125 -14.030  1.00  0.00    -0.387 OA
ATOM     12  H   UNL     1     -61.769  29.549 -13.568  1.00  0.00     0.211 HD
ENDBRANCH   4  11
BRANCH   6  13
ATOM     13  O   UNL     1     -60.478  26.323 -13.790  1.00  0.00    -0.387 OA
ATOM     14  H   UNL     1     -61.377  25.903 -13.812  1.00  0.00     0.211 HD
ENDBRANCH   6  13
BRANCH   7  15
ATOM     15  O   UNL     1     -59.580  25.330 -11.332  1.00  0.00    -0.384 OA
ATOM     16  H   UNL     1     -58.683  24.908 -11.297  1.00  0.00     0.211 HD
ENDBRANCH   7  15
ENDBRANCH   1   2
BRANCH   1  17
ATOM     17  C   UNL     1     -56.620  25.187 -13.541  1.00  0.00     0.172 A 
ATOM     18  C   UNL     1     -56.746  23.797 -13.327  1.00  0.00     0.201 A 
ATOM     19  C   UNL     1     -55.384  25.710 -13.915  1.00  0.00     0.098 A 
ATOM     20  C   UNL     1     -55.649  22.940 -13.556  1.00  0.00     0.176 A 
ATOM     21  C   UNL     1     -54.298  24.877 -14.175  1.00  0.00     0.146 A 
ATOM     22  C   UNL     1     -54.420  23.474 -14.039  1.00  0.00     0.111 A 
ATOM     23  O   UNL     1     -53.153  25.430 -14.564  1.00  0.00    -0.456 OA
ATOM     24  C   UNL     1     -53.304  22.696 -14.431  1.00  0.00     0.197 A 
ATOM     25  C   UNL     1     -52.067  24.725 -14.870  1.00  0.00     0.138 A 
ATOM     26  C   UNL     1     -52.124  23.326 -14.827  1.00  0.00     0.100 A 
ATOM     27  O   UNL     1     -53.349  21.439 -14.471  1.00  0.00    -0.289 OA
BRANCH  18  28
ATOM     28  O   UNL     1     -57.944  23.270 -12.847  1.00  0.00    -0.502 OA
ATOM     29  H   UNL     1     -58.327  22.390 -13.169  1.00  0.00     0.293 HD
ENDBRANCH  18  28
BRANCH  20  30
ATOM     30  O   UNL     1     -55.821  21.585 -13.254  1.00  0.00    -0.504 OA
ATOM     31  H   UNL     1     -56.077  20.877 -13.926  1.00  0.00     0.293 HD
ENDBRANCH  20  30
BRANCH  25  32
ATOM     32  C   UNL     1     -50.835  25.449 -15.273  1.00  0.00     0.017 A 
ATOM     33  C   UNL     1     -50.401  26.555 -14.519  1.00  0.00     0.012 A 
ATOM     34  C   UNL     1     -50.063  25.037 -16.380  1.00  0.00     0.012 A 
ATOM     35  C   UNL     1     -49.237  27.244 -14.872  1.00  0.00     0.001 A 
ATOM     36  C   UNL     1     -48.898  25.729 -16.728  1.00  0.00     0.001 A 
ATOM     37  C   UNL     1     -48.487  26.833 -15.977  1.00  0.00     0.000 A 
ENDBRANCH  25  32
ENDBRANCH   1  17
TORSDOF 9
ENDMDL
MODEL 6
REMARK VINA RESULT:    -5.076      5.030      8.210
REMARK INTER + INTRA:          -8.927
REMARK INTER:                  -7.064
REMARK INTRA:                  -1.864
REMARK UNBOUND:                -1.923
REMARK SMILES O=C([O-])[C@@H]1O[C@H](Oc2cc3oc(-c4ccccc4)cc(=O)c3c(O)c2O)[C@H](O)[C@H](O)[C@@H]1O
REMARK SMILES IDX 7 1 6 2 4 3 31 4 5 5 29 6 27 7 2 8 1 9 3 10 32 11 30 13
REMARK SMILES IDX 28 15 8 17 25 18 9 19 23 20 10 21 22 22 11 23 20 24 12 25
REMARK SMILES IDX 19 26 21 27 26 28 24 30 13 32 14 33 18 34 15 35 17 36 16 37
REMARK H PARENT 32 12 30 14 28 16 26 29 24 31
REMARK Flexibility Score: inf
ROOT
ATOM      1  O   UNL     1     -55.762  22.835 -14.531  1.00  0.00    -0.458 OA
ENDROOT
BRANCH   1   2
ATOM      2  C   UNL     1     -55.839  23.318 -13.182  1.00  0.00     0.339 C 
ATOM      3  C   UNL     1     -54.549  25.280 -13.597  1.00  0.00     0.199 C 
ATOM      4  C   UNL     1     -55.806  26.188 -13.472  1.00  0.00     0.180 C 
ATOM      5  O   UNL     1     -54.673  24.066 -12.863  1.00  0.00    -0.328 OA
ATOM      6  C   UNL     1     -57.127  25.438 -13.729  1.00  0.00     0.181 C 
ATOM      7  C   UNL     1     -57.122  24.137 -12.909  1.00  0.00     0.214 C 
BRANCH   3   8
ATOM      8  C   UNL     1     -54.014  25.032 -14.989  1.00  0.00     0.073 C 
ATOM      9  O   UNL     1     -54.663  25.358 -16.016  1.00  0.00    -0.547 OA
ATOM     10  O   UNL     1     -52.797  24.381 -15.140  1.00  0.00    -0.547 OA
ENDBRANCH   3   8
BRANCH   4  11
ATOM     11  O   UNL     1     -55.692  27.369 -14.230  1.00  0.00    -0.387 OA
ATOM     12  H   UNL     1     -55.923  28.139 -13.654  1.00  0.00     0.211 HD
ENDBRANCH   4  11
BRANCH   6  13
ATOM     13  O   UNL     1     -57.296  25.164 -15.097  1.00  0.00    -0.387 OA
ATOM     14  H   UNL     1     -58.272  25.173 -15.278  1.00  0.00     0.211 HD
ENDBRANCH   6  13
BRANCH   7  15
ATOM     15  O   UNL     1     -58.267  23.372 -13.179  1.00  0.00    -0.384 OA
ATOM     16  H   UNL     1     -58.025  22.740 -13.906  1.00  0.00     0.211 HD
ENDBRANCH   7  15
ENDBRANCH   1   2
BRANCH   1  17
ATOM     17  C   UNL     1     -55.479  21.525 -14.960  1.00  0.00     0.172 A 
ATOM     18  C   UNL     1     -54.229  20.891 -14.783  1.00  0.00     0.201 A 
ATOM     19  C   UNL     1     -56.498  20.847 -15.626  1.00  0.00     0.098 A 
ATOM     20  C   UNL     1     -54.038  19.562 -15.214  1.00  0.00     0.176 A 
ATOM     21  C   UNL     1     -56.338  19.524 -16.032  1.00  0.00     0.146 A 
ATOM     22  C   UNL     1     -55.120  18.844 -15.799  1.00  0.00     0.111 A 
ATOM     23  O   UNL     1     -57.358  18.916 -16.630  1.00  0.00    -0.456 OA
ATOM     24  C   UNL     1     -55.081  17.470 -16.142  1.00  0.00     0.197 A 
ATOM     25  C   UNL     1     -57.323  17.647 -17.026  1.00  0.00     0.138 A 
ATOM     26  C   UNL     1     -56.178  16.881 -16.772  1.00  0.00     0.100 A 
ATOM     27  O   UNL     1     -54.094  16.740 -15.861  1.00  0.00    -0.289 OA
BRANCH  18  28
ATOM     28  O   UNL     1     -53.165  21.593 -14.218  1.00  0.00    -0.502 OA
ATOM     29  H   UNL     1     -52.225  21.220 -14.166  1.00  0.00     0.293 HD
ENDBRANCH  18  28
BRANCH  20  30
ATOM     30  O   UNL     1     -52.755  19.022 -15.075  1.00  0.00    -0.504 OA
ATOM     31  H   UNL     1     -52.561  18.083 -14.760  1.00  0.00     0.293 HD
ENDBRANCH  20  30
BRANCH  25  32
ATOM     32  C   UNL     1     -58.515  17.076 -17.704  1.00  0.00     0.017 A 
ATOM     33  C   UNL     1     -58.912  17.584 -18.955  1.00  0.00     0.012 A 
ATOM     34  C   UNL     1     -59.246  16.009 -17.141  1.00  0.00     0.012 A 
ATOM     35  C   UNL     1     -60.023  17.053 -19.616  1.00  0.00     0.001 A 
ATOM     36  C   UNL     1     -60.356  15.481 -17.808  1.00  0.00     0.001 A 
ATOM     37  C   UNL     1     -60.747  16.004 -19.042  1.00  0.00     0.000 A 
ENDBRANCH  25  32
ENDBRANCH   1  17
TORSDOF 9
ENDMDL
MODEL 7
REMARK VINA RESULT:    -4.954      4.187      7.850
REMARK INTER + INTRA:          -8.759
REMARK INTER:                  -6.899
REMARK INTRA:                  -1.860
REMARK UNBOUND:                -1.923
REMARK SMILES O=C([O-])[C@@H]1O[C@H](Oc2cc3oc(-c4ccccc4)cc(=O)c3c(O)c2O)[C@H](O)[C@H](O)[C@@H]1O
REMARK SMILES IDX 7 1 6 2 4 3 31 4 5 5 29 6 27 7 2 8 1 9 3 10 32 11 30 13
REMARK SMILES IDX 28 15 8 17 25 18 9 19 23 20 10 21 22 22 11 23 20 24 12 25
REMARK SMILES IDX 19 26 21 27 26 28 24 30 13 32 14 33 18 34 15 35 17 36 16 37
REMARK H PARENT 32 12 30 14 28 16 26 29 24 31
REMARK Flexibility Score: inf
ROOT
ATOM      1  O   UNL     1     -58.633  26.022 -12.803  1.00  0.00    -0.458 OA
ENDROOT
BRANCH   1   2
ATOM      2  C   UNL     1     -58.906  25.944 -14.210  1.00  0.00     0.339 C 
ATOM      3  C   UNL     1     -58.598  28.276 -14.603  1.00  0.00     0.199 C 
ATOM      4  C   UNL     1     -57.258  28.020 -15.349  1.00  0.00     0.180 C 
ATOM      5  O   UNL     1     -59.483  27.162 -14.664  1.00  0.00    -0.328 OA
ATOM      6  C   UNL     1     -56.597  26.680 -14.972  1.00  0.00     0.181 C 
ATOM      7  C   UNL     1     -57.659  25.570 -15.044  1.00  0.00     0.214 C 
BRANCH   3   8
ATOM      8  C   UNL     1     -58.510  28.836 -13.201  1.00  0.00     0.073 C 
ATOM      9  O   UNL     1     -59.539  29.123 -12.537  1.00  0.00    -0.547 OA
ATOM     10  O   UNL     1     -57.261  29.089 -12.651  1.00  0.00    -0.547 OA
ENDBRANCH   3   8
BRANCH   4  11
ATOM     11  O   UNL     1     -56.374  29.111 -15.253  1.00  0.00    -0.387 OA
ATOM     12  H   UNL     1     -56.788  29.895 -15.693  1.00  0.00     0.211 HD
ENDBRANCH   4  11
BRANCH   6  13
ATOM     13  O   UNL     1     -56.026  26.741 -13.689  1.00  0.00    -0.387 OA
ATOM     14  H   UNL     1     -56.143  27.670 -13.361  1.00  0.00     0.211 HD
ENDBRANCH   6  13
BRANCH   7  15
ATOM     15  O   UNL     1     -57.128  24.343 -14.620  1.00  0.00    -0.384 OA
ATOM     16  H   UNL     1     -57.897  23.773 -14.356  1.00  0.00     0.211 HD
ENDBRANCH   7  15
ENDBRANCH   1   2
BRANCH   1  17
ATOM     17  C   UNL     1     -59.248  25.294 -11.767  1.00  0.00     0.172 A 
ATOM     18  C   UNL     1     -60.440  25.693 -11.125  1.00  0.00     0.201 A 
ATOM     19  C   UNL     1     -58.603  24.132 -11.346  1.00  0.00     0.098 A 
ATOM     20  C   UNL     1     -61.009  24.888 -10.115  1.00  0.00     0.176 A 
ATOM     21  C   UNL     1     -59.164  23.310 -10.373  1.00  0.00     0.146 A 
ATOM     22  C   UNL     1     -60.397  23.650  -9.767  1.00  0.00     0.111 A 
ATOM     23  O   UNL     1     -58.523  22.194 -10.037  1.00  0.00    -0.456 OA
ATOM     24  C   UNL     1     -60.951  22.703  -8.871  1.00  0.00     0.197 A 
ATOM     25  C   UNL     1     -58.986  21.323  -9.146  1.00  0.00     0.138 A 
ATOM     26  C   UNL     1     -60.233  21.551  -8.549  1.00  0.00     0.100 A 
ATOM     27  O   UNL     1     -62.099  22.847  -8.376  1.00  0.00    -0.289 OA
BRANCH  18  28
ATOM     28  O   UNL     1     -61.039  26.908 -11.457  1.00  0.00    -0.502 OA
ATOM     29  H   UNL     1     -61.393  27.112 -12.383  1.00  0.00     0.293 HD
ENDBRANCH  18  28
BRANCH  20  30
ATOM     30  O   UNL     1     -62.150  25.379  -9.471  1.00  0.00    -0.504 OA
ATOM     31  H   UNL     1     -62.904  24.805  -9.125  1.00  0.00     0.293 HD
ENDBRANCH  20  30
BRANCH  25  32
ATOM     32  C   UNL     1     -58.174  20.120  -8.832  1.00  0.00     0.017 A 
ATOM     33  C   UNL     1     -58.133  19.634  -7.512  1.00  0.00     0.012 A 
ATOM     34  C   UNL     1     -57.463  19.426  -9.833  1.00  0.00     0.012 A 
ATOM     35  C   UNL     1     -57.385  18.496  -7.196  1.00  0.00     0.001 A 
ATOM     36  C   UNL     1     -56.717  18.287  -9.512  1.00  0.00     0.001 A 
ATOM     37  C   UNL     1     -56.676  17.824  -8.195  1.00  0.00     0.000 A 
ENDBRANCH  25  32
ENDBRANCH   1  17
TORSDOF 9
ENDMDL
MODEL 8
REMARK VINA RESULT:    -4.874      2.337      8.743
REMARK INTER + INTRA:          -8.649
REMARK INTER:                  -6.779
REMARK INTRA:                  -1.870
REMARK UNBOUND:                -1.923
REMARK SMILES O=C([O-])[C@@H]1O[C@H](Oc2cc3oc(-c4ccccc4)cc(=O)c3c(O)c2O)[C@H](O)[C@H](O)[C@@H]1O
REMARK SMILES IDX 7 1 6 2 4 3 31 4 5 5 29 6 27 7 2 8 1 9 3 10 32 11 30 13
REMARK SMILES IDX 28 15 8 17 25 18 9 19 23 20 10 21 22 22 11 23 20 24 12 25
REMARK SMILES IDX 19 26 21 27 26 28 24 30 13 32 14 33 18 34 15 35 17 36 16 37
REMARK H PARENT 32 12 30 14 28 16 26 29 24 31
REMARK Flexibility Score: inf
ROOT
ATOM      1  O   UNL     1     -54.737  23.992 -13.762  1.00  0.00    -0.458 OA
ENDROOT
BRANCH   1   2
ATOM      2  C   UNL     1     -54.697  22.563 -13.889  1.00  0.00     0.339 C 
ATOM      3  C   UNL     1     -52.319  22.421 -13.796  1.00  0.00     0.199 C 
ATOM      4  C   UNL     1     -52.366  21.801 -12.370  1.00  0.00     0.180 C 
ATOM      5  O   UNL     1     -53.501  22.164 -14.547  1.00  0.00    -0.328 OA
ATOM      6  C   UNL     1     -53.666  22.122 -11.609  1.00  0.00     0.181 C 
ATOM      7  C   UNL     1     -54.861  21.835 -12.534  1.00  0.00     0.214 C 
BRANCH   3   8
ATOM      8  C   UNL     1     -51.899  23.870 -13.904  1.00  0.00     0.073 C 
ATOM      9  O   UNL     1     -51.771  24.441 -15.016  1.00  0.00    -0.547 OA
ATOM     10  O   UNL     1     -51.595  24.573 -12.746  1.00  0.00    -0.547 OA
ENDBRANCH   3   8
BRANCH   4  11
ATOM     11  O   UNL     1     -51.210  22.091 -11.621  1.00  0.00    -0.387 OA
ATOM     12  H   UNL     1     -50.606  22.650 -12.172  1.00  0.00     0.211 HD
ENDBRANCH   4  11
BRANCH   6  13
ATOM     13  O   UNL     1     -53.682  23.458 -11.174  1.00  0.00    -0.387 OA
ATOM     14  H   UNL     1     -54.141  23.472 -10.294  1.00  0.00     0.211 HD
ENDBRANCH   6  13
BRANCH   7  15
ATOM     15  O   UNL     1     -56.068  22.199 -11.919  1.00  0.00    -0.384 OA
ATOM     16  H   UNL     1     -55.943  22.071 -10.942  1.00  0.00     0.211 HD
ENDBRANCH   7  15
ENDBRANCH   1   2
BRANCH   1  17
ATOM     17  C   UNL     1     -55.636  24.884 -14.376  1.00  0.00     0.172 A 
ATOM     18  C   UNL     1     -55.433  25.453 -15.653  1.00  0.00     0.201 A 
ATOM     19  C   UNL     1     -56.770  25.236 -13.646  1.00  0.00     0.098 A 
ATOM     20  C   UNL     1     -56.401  26.314 -16.211  1.00  0.00     0.176 A 
ATOM     21  C   UNL     1     -57.751  26.061 -14.192  1.00  0.00     0.146 A 
ATOM     22  C   UNL     1     -57.605  26.583 -15.499  1.00  0.00     0.111 A 
ATOM     23  O   UNL     1     -58.829  26.333 -13.463  1.00  0.00    -0.456 OA
ATOM     24  C   UNL     1     -58.699  27.319 -16.017  1.00  0.00     0.197 A 
ATOM     25  C   UNL     1     -59.839  27.080 -13.900  1.00  0.00     0.138 A 
ATOM     26  C   UNL     1     -59.804  27.581 -15.208  1.00  0.00     0.100 A 
ATOM     27  O   UNL     1     -58.727  27.719 -17.210  1.00  0.00    -0.289 OA
BRANCH  18  28
ATOM     28  O   UNL     1     -54.253  25.198 -16.350  1.00  0.00    -0.502 OA
ATOM     29  H   UNL     1     -53.348  25.528 -16.039  1.00  0.00     0.293 HD
ENDBRANCH  18  28
BRANCH  20  30
ATOM     30  O   UNL     1     -56.102  26.900 -17.446  1.00  0.00    -0.504 OA
ATOM     31  H   UNL     1     -56.529  26.637 -18.322  1.00  0.00     0.293 HD
ENDBRANCH  20  30
BRANCH  25  32
ATOM     32  C   UNL     1     -60.985  27.337 -12.991  1.00  0.00     0.017 A 
ATOM     33  C   UNL     1     -61.205  26.485 -11.893  1.00  0.00     0.012 A 
ATOM     34  C   UNL     1     -61.846  28.439 -13.179  1.00  0.00     0.012 A 
ATOM     35  C   UNL     1     -62.270  26.715 -11.017  1.00  0.00     0.001 A 
ATOM     36  C   UNL     1     -62.908  28.666 -12.298  1.00  0.00     0.001 A 
ATOM     37  C   UNL     1     -63.123  27.803 -11.221  1.00  0.00     0.000 A 
ENDBRANCH  25  32
ENDBRANCH   1  17
TORSDOF 9
ENDMDL
