MODEL 1
REMARK VINA RESULT:    -3.829      0.000      0.000
REMARK INTER + INTRA:          -8.192
REMARK INTER:                  -6.963
REMARK INTRA:                  -1.230
REMARK UNBOUND:                -1.230
REMARK SMILES CCCCCCCCCCCCCCCC(=O)[O-]
REMARK SMILES IDX 9 1 10 2 11 3 12 4 13 5 14 6 15 7 16 8 17 9 18 10 8 11 7 12
REMARK SMILES IDX 6 13 5 14 4 15 3 16 2 17 1 18
REMARK H PARENT
REMARK Flexibility Score: inf
ROOT
ATOM      1  C   UNL     1      12.556   1.058 -16.554  1.00  0.00     0.000 C 
ENDROOT
BRANCH   1   2
ATOM      2  C   UNL     1      11.860  -0.316 -16.596  1.00  0.00     0.000 C 
BRANCH   2   3
ATOM      3  C   UNL     1      10.369  -0.222 -16.962  1.00  0.00     0.000 C 
BRANCH   3   4
ATOM      4  C   UNL     1      10.116  -0.430 -18.465  1.00  0.00     0.000 C 
BRANCH   4   5
ATOM      5  C   UNL     1      10.143  -1.915 -18.867  1.00  0.00     0.000 C 
BRANCH   5   6
ATOM      6  C   UNL     1       9.898  -2.130 -20.374  1.00  0.00     0.006 C 
BRANCH   6   7
ATOM      7  C   UNL     1      10.895  -1.386 -21.279  1.00  0.00     0.053 C 
BRANCH   7   8
ATOM      8  C   UNL     1      11.141  -2.101 -22.571  1.00  0.00     0.041 C 
ATOM      9  O   UNL     1      10.289  -2.913 -23.019  1.00  0.00    -0.550 OA
ATOM     10  O   UNL     1      12.310  -1.868 -23.284  1.00  0.00    -0.550 OA
ENDBRANCH   7   8
ENDBRANCH   6   7
ENDBRANCH   5   6
ENDBRANCH   4   5
ENDBRANCH   3   4
ENDBRANCH   2   3
ENDBRANCH   1   2
BRANCH   1  11
ATOM     11  C   UNL     1      13.534   1.333 -17.711  1.00  0.00     0.000 C 
BRANCH  11  12
ATOM     12  C   UNL     1      12.825   1.537 -19.061  1.00  0.00    -0.000 C 
BRANCH  12  13
ATOM     13  C   UNL     1      13.278   0.523 -20.124  1.00  0.00    -0.000 C 
BRANCH  13  14
ATOM     14  C   UNL     1      13.662  -0.837 -19.521  1.00  0.00    -0.000 C 
BRANCH  14  15
ATOM     15  C   UNL     1      14.622  -1.598 -20.449  1.00  0.00    -0.000 C 
BRANCH  15  16
ATOM     16  C   UNL     1      16.005  -1.823 -19.802  1.00  0.00    -0.000 C 
BRANCH  16  17
ATOM     17  C   UNL     1      17.182  -1.431 -20.711  1.00  0.00    -0.003 C 
ATOM     18  C   UNL     1      18.516  -1.370 -19.970  1.00  0.00     0.004 C 
ENDBRANCH  16  17
ENDBRANCH  15  16
ENDBRANCH  14  15
ENDBRANCH  13  14
ENDBRANCH  12  13
ENDBRANCH  11  12
ENDBRANCH   1  11
TORSDOF 14
ENDMDL
MODEL 2
REMARK VINA RESULT:    -3.646      2.982      4.783
REMARK INTER + INTRA:          -7.859
REMARK INTER:                  -6.471
REMARK INTRA:                  -1.389
REMARK UNBOUND:                -1.230
REMARK SMILES CCCCCCCCCCCCCCCC(=O)[O-]
REMARK SMILES IDX 9 1 10 2 11 3 12 4 13 5 14 6 15 7 16 8 17 9 18 10 8 11 7 12
REMARK SMILES IDX 6 13 5 14 4 15 3 16 2 17 1 18
REMARK H PARENT
REMARK Flexibility Score: inf
ROOT
ATOM      1  C   UNL     1      10.451  -0.750 -18.606  1.00  0.00     0.000 C 
ENDROOT
BRANCH   1   2
ATOM      2  C   UNL     1      11.652  -1.006 -17.678  1.00  0.00     0.000 C 
BRANCH   2   3
ATOM      3  C   UNL     1      11.809   0.070 -16.589  1.00  0.00     0.000 C 
BRANCH   3   4
ATOM      4  C   UNL     1      12.937   1.067 -16.904  1.00  0.00     0.000 C 
BRANCH   4   5
ATOM      5  C   UNL     1      13.103   1.313 -18.413  1.00  0.00     0.000 C 
BRANCH   5   6
ATOM      6  C   UNL     1      12.911   2.792 -18.802  1.00  0.00     0.006 C 
BRANCH   6   7
ATOM      7  C   UNL     1      13.258   3.101 -20.268  1.00  0.00     0.053 C 
BRANCH   7   8
ATOM      8  C   UNL     1      13.539   4.553 -20.499  1.00  0.00     0.041 C 
ATOM      9  O   UNL     1      12.593   5.383 -20.541  1.00  0.00    -0.550 OA
ATOM     10  O   UNL     1      14.847   4.992 -20.662  1.00  0.00    -0.550 OA
ENDBRANCH   7   8
ENDBRANCH   6   7
ENDBRANCH   5   6
ENDBRANCH   4   5
ENDBRANCH   3   4
ENDBRANCH   2   3
ENDBRANCH   1   2
BRANCH   1  11
ATOM     11  C   UNL     1       9.744  -2.014 -19.129  1.00  0.00     0.000 C 
BRANCH  11  12
ATOM     12  C   UNL     1       9.929  -2.223 -20.642  1.00  0.00    -0.000 C 
BRANCH  12  13
ATOM     13  C   UNL     1      10.844  -1.161 -21.275  1.00  0.00    -0.000 C 
BRANCH  13  14
ATOM     14  C   UNL     1      11.626  -1.695 -22.484  1.00  0.00    -0.000 C 
BRANCH  14  15
ATOM     15  C   UNL     1      13.119  -1.840 -22.152  1.00  0.00    -0.000 C 
BRANCH  15  16
ATOM     16  C   UNL     1      13.547  -0.936 -20.976  1.00  0.00    -0.000 C 
BRANCH  16  17
ATOM     17  C   UNL     1      14.288  -1.689 -19.858  1.00  0.00    -0.003 C 
ATOM     18  C   UNL     1      15.802  -1.714 -20.056  1.00  0.00     0.004 C 
ENDBRANCH  16  17
ENDBRANCH  15  16
ENDBRANCH  14  15
ENDBRANCH  13  14
ENDBRANCH  12  13
ENDBRANCH  11  12
ENDBRANCH   1  11
TORSDOF 14
ENDMDL
MODEL 3
REMARK VINA RESULT:    -3.601      3.342      4.369
REMARK INTER + INTRA:          -7.778
REMARK INTER:                  -6.795
REMARK INTRA:                  -0.983
REMARK UNBOUND:                -1.230
REMARK SMILES CCCCCCCCCCCCCCCC(=O)[O-]
REMARK SMILES IDX 9 1 10 2 11 3 12 4 13 5 14 6 15 7 16 8 17 9 18 10 8 11 7 12
REMARK SMILES IDX 6 13 5 14 4 15 3 16 2 17 1 18
REMARK H PARENT
REMARK Flexibility Score: inf
ROOT
ATOM      1  C   UNL     1      13.241   2.141 -17.928  1.00  0.00     0.000 C 
ENDROOT
BRANCH   1   2
ATOM      2  C   UNL     1      12.741   0.876 -17.205  1.00  0.00     0.000 C 
BRANCH   2   3
ATOM      3  C   UNL     1      11.637   0.138 -17.982  1.00  0.00     0.000 C 
BRANCH   3   4
ATOM      4  C   UNL     1      12.058  -1.281 -18.401  1.00  0.00     0.000 C 
BRANCH   4   5
ATOM      5  C   UNL     1      13.431  -1.308 -19.095  1.00  0.00     0.000 C 
BRANCH   5   6
ATOM      6  C   UNL     1      13.349  -0.950 -20.593  1.00  0.00     0.006 C 
BRANCH   6   7
ATOM      7  C   UNL     1      11.918  -0.952 -21.156  1.00  0.00     0.053 C 
BRANCH   7   8
ATOM      8  C   UNL     1      11.807  -1.717 -22.439  1.00  0.00     0.041 C 
ATOM      9  O   UNL     1      12.842  -2.015 -23.091  1.00  0.00    -0.550 OA
ATOM     10  O   UNL     1      10.561  -2.106 -22.912  1.00  0.00    -0.550 OA
ENDBRANCH   7   8
ENDBRANCH   6   7
ENDBRANCH   5   6
ENDBRANCH   4   5
ENDBRANCH   3   4
ENDBRANCH   2   3
ENDBRANCH   1   2
BRANCH   1  11
ATOM     11  C   UNL     1      12.789   2.282 -19.393  1.00  0.00     0.000 C 
BRANCH  11  12
ATOM     12  C   UNL     1      13.580   3.352 -20.164  1.00  0.00    -0.000 C 
BRANCH  12  13
ATOM     13  C   UNL     1      12.799   4.668 -20.316  1.00  0.00    -0.000 C 
BRANCH  13  14
ATOM     14  C   UNL     1      13.695   5.849 -20.712  1.00  0.00    -0.000 C 
BRANCH  14  15
ATOM     15  C   UNL     1      15.151   5.396 -20.901  1.00  0.00    -0.000 C 
BRANCH  15  16
ATOM     16  C   UNL     1      15.800   6.021 -22.155  1.00  0.00    -0.000 C 
BRANCH  16  17
ATOM     17  C   UNL     1      17.031   5.250 -22.662  1.00  0.00    -0.003 C 
ATOM     18  C   UNL     1      16.817   4.622 -24.038  1.00  0.00     0.004 C 
ENDBRANCH  16  17
ENDBRANCH  15  16
ENDBRANCH  14  15
ENDBRANCH  13  14
ENDBRANCH  12  13
ENDBRANCH  11  12
ENDBRANCH   1  11
TORSDOF 14
ENDMDL
MODEL 4
REMARK VINA RESULT:    -3.528      4.252      6.505
REMARK INTER + INTRA:          -7.645
REMARK INTER:                  -6.784
REMARK INTRA:                  -0.861
REMARK UNBOUND:                -1.230
REMARK SMILES CCCCCCCCCCCCCCCC(=O)[O-]
REMARK SMILES IDX 9 1 10 2 11 3 12 4 13 5 14 6 15 7 16 8 17 9 18 10 8 11 7 12
REMARK SMILES IDX 6 13 5 14 4 15 3 16 2 17 1 18
REMARK H PARENT
REMARK Flexibility Score: inf
ROOT
ATOM      1  C   UNL     1      12.445   1.430 -18.903  1.00  0.00     0.000 C 
ENDROOT
BRANCH   1   2
ATOM      2  C   UNL     1      13.212   2.759 -19.041  1.00  0.00     0.000 C 
BRANCH   2   3
ATOM      3  C   UNL     1      13.295   3.255 -20.495  1.00  0.00     0.000 C 
BRANCH   3   4
ATOM      4  C   UNL     1      13.368   4.789 -20.591  1.00  0.00     0.000 C 
BRANCH   4   5
ATOM      5  C   UNL     1      14.803   5.321 -20.434  1.00  0.00     0.000 C 
BRANCH   5   6
ATOM      6  C   UNL     1      15.427   5.756 -21.776  1.00  0.00     0.006 C 
BRANCH   6   7
ATOM      7  C   UNL     1      16.965   5.798 -21.762  1.00  0.00     0.053 C 
BRANCH   7   8
ATOM      8  C   UNL     1      17.570   5.062 -22.917  1.00  0.00     0.041 C 
ATOM      9  O   UNL     1      16.834   4.454 -23.737  1.00  0.00    -0.550 OA
ATOM     10  O   UNL     1      18.948   5.051 -23.090  1.00  0.00    -0.550 OA
ENDBRANCH   7   8
ENDBRANCH   6   7
ENDBRANCH   5   6
ENDBRANCH   4   5
ENDBRANCH   3   4
ENDBRANCH   2   3
ENDBRANCH   1   2
BRANCH   1  11
ATOM     11  C   UNL     1      12.329   0.886 -17.467  1.00  0.00     0.000 C 
BRANCH  11  12
ATOM     12  C   UNL     1      12.309  -0.651 -17.408  1.00  0.00    -0.000 C 
BRANCH  12  13
ATOM     13  C   UNL     1      12.418  -1.295 -18.800  1.00  0.00    -0.000 C 
BRANCH  13  14
ATOM     14  C   UNL     1      13.865  -1.633 -19.187  1.00  0.00    -0.000 C 
BRANCH  14  15
ATOM     15  C   UNL     1      14.107  -1.382 -20.684  1.00  0.00    -0.000 C 
BRANCH  15  16
ATOM     16  C   UNL     1      12.822  -0.939 -21.417  1.00  0.00    -0.000 C 
BRANCH  16  17
ATOM     17  C   UNL     1      12.458  -1.833 -22.616  1.00  0.00    -0.003 C 
ATOM     18  C   UNL     1      10.972  -2.179 -22.673  1.00  0.00     0.004 C 
ENDBRANCH  16  17
ENDBRANCH  15  16
ENDBRANCH  14  15
ENDBRANCH  13  14
ENDBRANCH  12  13
ENDBRANCH  11  12
ENDBRANCH   1  11
TORSDOF 14
ENDMDL
MODEL 5
REMARK VINA RESULT:    -3.522      3.881      5.981
REMARK INTER + INTRA:          -7.634
REMARK INTER:                  -6.151
REMARK INTRA:                  -1.483
REMARK UNBOUND:                -1.230
REMARK SMILES CCCCCCCCCCCCCCCC(=O)[O-]
REMARK SMILES IDX 9 1 10 2 11 3 12 4 13 5 14 6 15 7 16 8 17 9 18 10 8 11 7 12
REMARK SMILES IDX 6 13 5 14 4 15 3 16 2 17 1 18
REMARK H PARENT
REMARK Flexibility Score: inf
ROOT
ATOM      1  C   UNL     1      12.190   0.505 -17.428  1.00  0.00     0.000 C 
ENDROOT
BRANCH   1   2
ATOM      2  C   UNL     1      13.002   1.726 -17.899  1.00  0.00     0.000 C 
BRANCH   2   3
ATOM      3  C   UNL     1      12.895   1.970 -19.414  1.00  0.00     0.000 C 
BRANCH   3   4
ATOM      4  C   UNL     1      12.910   3.467 -19.772  1.00  0.00     0.000 C 
BRANCH   4   5
ATOM      5  C   UNL     1      14.148   3.864 -20.593  1.00  0.00     0.000 C 
BRANCH   5   6
ATOM      6  C   UNL     1      14.323   5.391 -20.710  1.00  0.00     0.006 C 
BRANCH   6   7
ATOM      7  C   UNL     1      15.782   5.862 -20.592  1.00  0.00     0.053 C 
BRANCH   7   8
ATOM      8  C   UNL     1      16.544   5.694 -21.870  1.00  0.00     0.041 C 
ATOM      9  O   UNL     1      17.788   5.500 -21.845  1.00  0.00    -0.550 OA
ATOM     10  O   UNL     1      15.881   5.747 -23.089  1.00  0.00    -0.550 OA
ENDBRANCH   7   8
ENDBRANCH   6   7
ENDBRANCH   5   6
ENDBRANCH   4   5
ENDBRANCH   3   4
ENDBRANCH   2   3
ENDBRANCH   1   2
BRANCH   1  11
ATOM     11  C   UNL     1      10.942   0.182 -18.271  1.00  0.00     0.000 C 
BRANCH  11  12
ATOM     12  C   UNL     1      10.883  -1.289 -18.716  1.00  0.00    -0.000 C 
BRANCH  12  13
ATOM     13  C   UNL     1       9.880  -1.518 -19.859  1.00  0.00    -0.000 C 
BRANCH  13  14
ATOM     14  C   UNL     1      10.562  -1.901 -21.180  1.00  0.00    -0.000 C 
BRANCH  14  15
ATOM     15  C   UNL     1      11.691  -0.916 -21.522  1.00  0.00    -0.000 C 
BRANCH  15  16
ATOM     16  C   UNL     1      13.061  -1.617 -21.644  1.00  0.00    -0.000 C 
BRANCH  16  17
ATOM     17  C   UNL     1      14.156  -0.987 -20.767  1.00  0.00    -0.003 C 
ATOM     18  C   UNL     1      14.397  -1.753 -19.469  1.00  0.00     0.004 C 
ENDBRANCH  16  17
ENDBRANCH  15  16
ENDBRANCH  14  15
ENDBRANCH  13  14
ENDBRANCH  12  13
ENDBRANCH  11  12
ENDBRANCH   1  11
TORSDOF 14
ENDMDL
MODEL 6
REMARK VINA RESULT:    -3.481      2.193      3.992
REMARK INTER + INTRA:          -7.559
REMARK INTER:                  -6.182
REMARK INTRA:                  -1.377
REMARK UNBOUND:                -1.230
REMARK SMILES CCCCCCCCCCCCCCCC(=O)[O-]
REMARK SMILES IDX 9 1 10 2 11 3 12 4 13 5 14 6 15 7 16 8 17 9 18 10 8 11 7 12
REMARK SMILES IDX 6 13 5 14 4 15 3 16 2 17 1 18
REMARK H PARENT
REMARK Flexibility Score: inf
ROOT
ATOM      1  C   UNL     1       9.739  -1.721 -19.971  1.00  0.00     0.000 C 
ENDROOT
BRANCH   1   2
ATOM      2  C   UNL     1      10.524  -1.700 -18.646  1.00  0.00     0.000 C 
BRANCH   2   3
ATOM      3  C   UNL     1      10.402  -0.361 -17.899  1.00  0.00     0.000 C 
BRANCH   3   4
ATOM      4  C   UNL     1      11.429  -0.226 -16.760  1.00  0.00     0.000 C 
BRANCH   4   5
ATOM      5  C   UNL     1      12.710   0.500 -17.205  1.00  0.00     0.000 C 
BRANCH   5   6
ATOM      6  C   UNL     1      12.599   1.089 -18.626  1.00  0.00     0.006 C 
BRANCH   6   7
ATOM      7  C   UNL     1      12.943   2.586 -18.708  1.00  0.00     0.053 C 
BRANCH   7   8
ATOM      8  C   UNL     1      13.316   3.015 -20.093  1.00  0.00     0.041 C 
ATOM      9  O   UNL     1      13.332   2.178 -21.033  1.00  0.00    -0.550 OA
ATOM     10  O   UNL     1      13.642   4.341 -20.347  1.00  0.00    -0.550 OA
ENDBRANCH   7   8
ENDBRANCH   6   7
ENDBRANCH   5   6
ENDBRANCH   4   5
ENDBRANCH   3   4
ENDBRANCH   2   3
ENDBRANCH   1   2
BRANCH   1  11
ATOM     11  C   UNL     1      10.556  -2.124 -21.212  1.00  0.00     0.000 C 
BRANCH  11  12
ATOM     12  C   UNL     1      11.600  -1.068 -21.612  1.00  0.00    -0.000 C 
BRANCH  12  13
ATOM     13  C   UNL     1      13.015  -1.657 -21.743  1.00  0.00    -0.000 C 
BRANCH  13  14
ATOM     14  C   UNL     1      13.817  -1.571 -20.437  1.00  0.00    -0.000 C 
BRANCH  14  15
ATOM     15  C   UNL     1      15.199  -0.944 -20.680  1.00  0.00    -0.000 C 
BRANCH  15  16
ATOM     16  C   UNL     1      16.340  -1.797 -20.086  1.00  0.00    -0.000 C 
BRANCH  16  17
ATOM     17  C   UNL     1      17.741  -1.356 -20.543  1.00  0.00    -0.003 C 
ATOM     18  C   UNL     1      18.817  -1.593 -19.486  1.00  0.00     0.004 C 
ENDBRANCH  16  17
ENDBRANCH  15  16
ENDBRANCH  14  15
ENDBRANCH  13  14
ENDBRANCH  12  13
ENDBRANCH  11  12
ENDBRANCH   1  11
TORSDOF 14
ENDMDL
MODEL 7
REMARK VINA RESULT:    -3.415      4.256      6.857
REMARK INTER + INTRA:          -7.439
REMARK INTER:                  -6.192
REMARK INTRA:                  -1.247
REMARK UNBOUND:                -1.230
REMARK SMILES CCCCCCCCCCCCCCCC(=O)[O-]
REMARK SMILES IDX 9 1 10 2 11 3 12 4 13 5 14 6 15 7 16 8 17 9 18 10 8 11 7 12
REMARK SMILES IDX 6 13 5 14 4 15 3 16 2 17 1 18
REMARK H PARENT
REMARK Flexibility Score: inf
ROOT
ATOM      1  C   UNL     1      13.561   1.390 -21.156  1.00  0.00     0.000 C 
ENDROOT
BRANCH   1   2
ATOM      2  C   UNL     1      12.806   2.563 -20.503  1.00  0.00     0.000 C 
BRANCH   2   3
ATOM      3  C   UNL     1      13.728   3.734 -20.124  1.00  0.00     0.000 C 
BRANCH   3   4
ATOM      4  C   UNL     1      13.233   5.079 -20.684  1.00  0.00     0.000 C 
BRANCH   4   5
ATOM      5  C   UNL     1      14.363   6.115 -20.815  1.00  0.00     0.000 C 
BRANCH   5   6
ATOM      6  C   UNL     1      15.678   5.501 -21.336  1.00  0.00     0.006 C 
BRANCH   6   7
ATOM      7  C   UNL     1      16.091   6.006 -22.729  1.00  0.00     0.053 C 
BRANCH   7   8
ATOM      8  C   UNL     1      17.146   5.151 -23.360  1.00  0.00     0.041 C 
ATOM      9  O   UNL     1      18.359   5.322 -23.067  1.00  0.00    -0.550 OA
ATOM     10  O   UNL     1      16.791   4.163 -24.269  1.00  0.00    -0.550 OA
ENDBRANCH   7   8
ENDBRANCH   6   7
ENDBRANCH   5   6
ENDBRANCH   4   5
ENDBRANCH   3   4
ENDBRANCH   2   3
ENDBRANCH   1   2
BRANCH   1  11
ATOM     11  C   UNL     1      12.883   0.014 -21.019  1.00  0.00     0.000 C 
BRANCH  11  12
ATOM     12  C   UNL     1      13.611  -0.918 -20.036  1.00  0.00    -0.000 C 
BRANCH  12  13
ATOM     13  C   UNL     1      12.670  -1.496 -18.966  1.00  0.00    -0.000 C 
BRANCH  13  14
ATOM     14  C   UNL     1      11.239  -0.950 -19.076  1.00  0.00    -0.000 C 
BRANCH  14  15
ATOM     15  C   UNL     1      10.901  -0.047 -17.879  1.00  0.00    -0.000 C 
BRANCH  15  16
ATOM     16  C   UNL     1      11.805  -0.329 -16.660  1.00  0.00    -0.000 C 
BRANCH  16  17
ATOM     17  C   UNL     1      12.584   0.904 -16.172  1.00  0.00    -0.003 C 
ATOM     18  C   UNL     1      13.310   1.636 -17.298  1.00  0.00     0.004 C 
ENDBRANCH  16  17
ENDBRANCH  15  16
ENDBRANCH  14  15
ENDBRANCH  13  14
ENDBRANCH  12  13
ENDBRANCH  11  12
ENDBRANCH   1  11
TORSDOF 14
ENDMDL
MODEL 8
REMARK VINA RESULT:    -3.368      1.461      2.833
REMARK INTER + INTRA:          -7.354
REMARK INTER:                  -6.095
REMARK INTRA:                  -1.259
REMARK UNBOUND:                -1.230
REMARK SMILES CCCCCCCCCCCCCCCC(=O)[O-]
REMARK SMILES IDX 9 1 10 2 11 3 12 4 13 5 14 6 15 7 16 8 17 9 18 10 8 11 7 12
REMARK SMILES IDX 6 13 5 14 4 15 3 16 2 17 1 18
REMARK H PARENT
REMARK Flexibility Score: inf
ROOT
ATOM      1  C   UNL     1      13.266   2.786 -19.832  1.00  0.00     0.000 C 
ENDROOT
BRANCH   1   2
ATOM      2  C   UNL     1      12.499   2.383 -18.559  1.00  0.00     0.000 C 
BRANCH   2   3
ATOM      3  C   UNL     1      13.373   1.617 -17.550  1.00  0.00     0.000 C 
BRANCH   3   4
ATOM      4  C   UNL     1      12.540   0.767 -16.575  1.00  0.00     0.000 C 
BRANCH   4   5
ATOM      5  C   UNL     1      12.093  -0.570 -17.192  1.00  0.00     0.000 C 
BRANCH   5   6
ATOM      6  C   UNL     1      10.580  -0.614 -17.489  1.00  0.00     0.006 C 
BRANCH   6   7
ATOM      7  C   UNL     1      10.238  -0.567 -18.987  1.00  0.00     0.053 C 
BRANCH   7   8
ATOM      8  C   UNL     1       9.878  -1.913 -19.537  1.00  0.00     0.041 C 
ATOM      9  O   UNL     1       9.888  -2.114 -20.779  1.00  0.00    -0.550 OA
ATOM     10  O   UNL     1       9.536  -2.948 -18.676  1.00  0.00    -0.550 OA
ENDBRANCH   7   8
ENDBRANCH   6   7
ENDBRANCH   5   6
ENDBRANCH   4   5
ENDBRANCH   3   4
ENDBRANCH   2   3
ENDBRANCH   1   2
BRANCH   1  11
ATOM     11  C   UNL     1      13.244   1.747 -20.969  1.00  0.00     0.000 C 
BRANCH  11  12
ATOM     12  C   UNL     1      12.884   0.333 -20.481  1.00  0.00    -0.000 C 
BRANCH  12  13
ATOM     13  C   UNL     1      13.066  -0.731 -21.576  1.00  0.00    -0.000 C 
BRANCH  13  14
ATOM     14  C   UNL     1      14.025  -1.856 -21.159  1.00  0.00    -0.000 C 
BRANCH  14  15
ATOM     15  C   UNL     1      14.674  -1.549 -19.800  1.00  0.00    -0.000 C 
BRANCH  15  16
ATOM     16  C   UNL     1      16.109  -2.108 -19.699  1.00  0.00    -0.000 C 
BRANCH  16  17
ATOM     17  C   UNL     1      17.113  -1.401 -20.624  1.00  0.00    -0.003 C 
ATOM     18  C   UNL     1      18.502  -1.260 -20.004  1.00  0.00     0.004 C 
ENDBRANCH  16  17
ENDBRANCH  15  16
ENDBRANCH  14  15
ENDBRANCH  13  14
ENDBRANCH  12  13
ENDBRANCH  11  12
ENDBRANCH   1  11
TORSDOF 14
ENDMDL
MODEL 9
REMARK VINA RESULT:    -3.342      2.152      4.780
REMARK INTER + INTRA:          -7.306
REMARK INTER:                  -6.537
REMARK INTRA:                  -0.769
REMARK UNBOUND:                -1.230
REMARK SMILES CCCCCCCCCCCCCCCC(=O)[O-]
REMARK SMILES IDX 9 1 10 2 11 3 12 4 13 5 14 6 15 7 16 8 17 9 18 10 8 11 7 12
REMARK SMILES IDX 6 13 5 14 4 15 3 16 2 17 1 18
REMARK H PARENT
REMARK Flexibility Score: inf
ROOT
ATOM      1  C   UNL     1      12.517   0.795 -16.288  1.00  0.00     0.000 C 
ENDROOT
BRANCH   1   2
ATOM      2  C   UNL     1      13.245   1.614 -17.370  1.00  0.00     0.000 C 
BRANCH   2   3
ATOM      3  C   UNL     1      12.481   1.657 -18.705  1.00  0.00     0.000 C 
BRANCH   3   4
ATOM      4  C   UNL     1      13.273   2.372 -19.814  1.00  0.00     0.000 C 
BRANCH   4   5
ATOM      5  C   UNL     1      13.548   1.461 -21.022  1.00  0.00     0.000 C 
BRANCH   5   6
ATOM      6  C   UNL     1      12.948   0.050 -20.855  1.00  0.00     0.006 C 
BRANCH   6   7
ATOM      7  C   UNL     1      13.934  -1.086 -21.175  1.00  0.00     0.053 C 
BRANCH   7   8
ATOM      8  C   UNL     1      14.678  -1.559 -19.965  1.00  0.00     0.041 C 
ATOM      9  O   UNL     1      14.065  -1.774 -18.887  1.00  0.00    -0.550 OA
ATOM     10  O   UNL     1      16.050  -1.766 -20.029  1.00  0.00    -0.550 OA
ENDBRANCH   7   8
ENDBRANCH   6   7
ENDBRANCH   5   6
ENDBRANCH   4   5
ENDBRANCH   3   4
ENDBRANCH   2   3
ENDBRANCH   1   2
BRANCH   1  11
ATOM     11  C   UNL     1      11.818  -0.482 -16.791  1.00  0.00     0.000 C 
BRANCH  11  12
ATOM     12  C   UNL     1      10.314  -0.283 -17.043  1.00  0.00    -0.000 C 
BRANCH  12  13
ATOM     13  C   UNL     1       9.930  -0.502 -18.516  1.00  0.00    -0.000 C 
BRANCH  13  14
ATOM     14  C   UNL     1      10.534  -1.785 -19.103  1.00  0.00    -0.000 C 
BRANCH  14  15
ATOM     15  C   UNL     1       9.861  -2.151 -20.435  1.00  0.00    -0.000 C 
BRANCH  15  16
ATOM     16  C   UNL     1      10.663  -1.644 -21.653  1.00  0.00    -0.000 C 
BRANCH  16  17
ATOM     17  C   UNL     1      10.506  -2.525 -22.904  1.00  0.00    -0.003 C 
ATOM     18  C   UNL     1       9.495  -3.654 -22.718  1.00  0.00     0.004 C 
ENDBRANCH  16  17
ENDBRANCH  15  16
ENDBRANCH  14  15
ENDBRANCH  13  14
ENDBRANCH  12  13
ENDBRANCH  11  12
ENDBRANCH   1  11
TORSDOF 14
ENDMDL
