MODEL 1
REMARK VINA RESULT:    -2.728      0.000      0.000
REMARK INTER + INTRA:          -2.728
REMARK INTER:                  -2.728
REMARK INTRA:                   0.000
REMARK UNBOUND:                 0.000
REMARK SMILES CC(=O)[O-]
REMARK SMILES IDX 1 1 2 2 3 3 4 4
REMARK H PARENT
REMARK Flexibility Score: inf
ROOT
ATOM      1  C   UNL     1      13.499  33.239  12.923  1.00  0.00     0.063 C 
ATOM      2  C   UNL     1      13.917  34.594  13.382  1.00  0.00     0.038 C 
ATOM      3  O   UNL     1      13.050  35.444  13.713  1.00  0.00    -0.550 OA
ATOM      4  O   UNL     1      15.262  34.940  13.394  1.00  0.00    -0.550 OA
ENDROOT
TORSDOF 0
ENDMDL
MODEL 2
REMARK VINA RESULT:    -2.619      1.286      2.249
REMARK INTER + INTRA:          -2.619
REMARK INTER:                  -2.619
REMARK INTRA:                   0.000
REMARK UNBOUND:                 0.000
REMARK SMILES CC(=O)[O-]
REMARK SMILES IDX 1 1 2 2 3 3 4 4
REMARK H PARENT
REMARK Flexibility Score: inf
ROOT
ATOM      1  C   UNL     1      13.123  36.334  13.137  1.00  0.00     0.063 C 
ATOM      2  C   UNL     1      13.868  35.052  13.285  1.00  0.00     0.038 C 
ATOM      3  O   UNL     1      15.126  35.042  13.233  1.00  0.00    -0.550 OA
ATOM      4  O   UNL     1      13.175  33.856  13.427  1.00  0.00    -0.550 OA
ENDROOT
TORSDOF 0
ENDMDL
MODEL 3
REMARK VINA RESULT:    -2.577      2.368      2.943
REMARK INTER + INTRA:          -2.577
REMARK INTER:                  -2.577
REMARK INTRA:                   0.000
REMARK UNBOUND:                 0.000
REMARK SMILES CC(=O)[O-]
REMARK SMILES IDX 1 1 2 2 3 3 4 4
REMARK H PARENT
REMARK Flexibility Score: inf
ROOT
ATOM      1  C   UNL     1      13.469  34.272  13.305  1.00  0.00     0.063 C 
ATOM      2  C   UNL     1      13.407  32.813  13.008  1.00  0.00     0.038 C 
ATOM      3  O   UNL     1      14.139  32.320  12.110  1.00  0.00    -0.550 OA
ATOM      4  O   UNL     1      12.502  32.002  13.682  1.00  0.00    -0.550 OA
ENDROOT
TORSDOF 0
ENDMDL
MODEL 4
REMARK VINA RESULT:    -2.490     10.672     11.096
REMARK INTER + INTRA:          -2.490
REMARK INTER:                  -2.490
REMARK INTRA:                   0.000
REMARK UNBOUND:                 0.000
REMARK SMILES CC(=O)[O-]
REMARK SMILES IDX 1 1 2 2 3 3 4 4
REMARK H PARENT
REMARK Flexibility Score: inf
ROOT
ATOM      1  C   UNL     1       3.243  38.378  12.397  1.00  0.00     0.063 C 
ATOM      2  C   UNL     1       4.069  39.581  12.702  1.00  0.00     0.038 C 
ATOM      3  O   UNL     1       3.874  40.656  12.076  1.00  0.00    -0.550 OA
ATOM      4  O   UNL     1       5.094  39.503  13.637  1.00  0.00    -0.550 OA
ENDROOT
TORSDOF 0
ENDMDL
MODEL 5
REMARK VINA RESULT:    -2.490     15.251     15.817
REMARK INTER + INTRA:          -2.490
REMARK INTER:                  -2.490
REMARK INTRA:                   0.000
REMARK UNBOUND:                 0.000
REMARK SMILES CC(=O)[O-]
REMARK SMILES IDX 1 1 2 2 3 3 4 4
REMARK H PARENT
REMARK Flexibility Score: inf
ROOT
ATOM      1  C   UNL     1       5.366  46.966   9.508  1.00  0.00     0.063 C 
ATOM      2  C   UNL     1       6.565  47.825   9.295  1.00  0.00     0.038 C 
ATOM      3  O   UNL     1       7.713  47.385   9.569  1.00  0.00    -0.550 OA
ATOM      4  O   UNL     1       6.416  49.131   8.846  1.00  0.00    -0.550 OA
ENDROOT
TORSDOF 0
ENDMDL
MODEL 6
REMARK VINA RESULT:    -2.480     10.795     11.414
REMARK INTER + INTRA:          -2.480
REMARK INTER:                  -2.480
REMARK INTRA:                   0.000
REMARK UNBOUND:                 0.000
REMARK SMILES CC(=O)[O-]
REMARK SMILES IDX 1 1 2 2 3 3 4 4
REMARK H PARENT
REMARK Flexibility Score: inf
ROOT
ATOM      1  C   UNL     1       3.302  40.551  12.048  1.00  0.00     0.063 C 
ATOM      2  C   UNL     1       3.817  39.278  12.627  1.00  0.00     0.038 C 
ATOM      3  O   UNL     1       4.803  39.293  13.410  1.00  0.00    -0.550 OA
ATOM      4  O   UNL     1       3.246  38.065  12.261  1.00  0.00    -0.550 OA
ENDROOT
TORSDOF 0
ENDMDL
MODEL 7
REMARK VINA RESULT:    -2.466     15.257     15.812
REMARK INTER + INTRA:          -2.466
REMARK INTER:                  -2.466
REMARK INTRA:                   0.000
REMARK UNBOUND:                 0.000
REMARK SMILES CC(=O)[O-]
REMARK SMILES IDX 1 1 2 2 3 3 4 4
REMARK H PARENT
REMARK Flexibility Score: inf
ROOT
ATOM      1  C   UNL     1       6.374  49.237   8.904  1.00  0.00     0.063 C 
ATOM      2  C   UNL     1       6.586  47.804   9.259  1.00  0.00     0.038 C 
ATOM      3  O   UNL     1       5.608  47.014   9.306  1.00  0.00    -0.550 OA
ATOM      4  O   UNL     1       7.856  47.350   9.593  1.00  0.00    -0.550 OA
ENDROOT
TORSDOF 0
ENDMDL
MODEL 8
REMARK VINA RESULT:    -2.385      2.090      2.458
REMARK INTER + INTRA:          -2.385
REMARK INTER:                  -2.385
REMARK INTRA:                   0.000
REMARK UNBOUND:                 0.000
REMARK SMILES CC(=O)[O-]
REMARK SMILES IDX 1 1 2 2 3 3 4 4
REMARK H PARENT
REMARK Flexibility Score: inf
ROOT
ATOM      1  C   UNL     1      14.421  32.201  12.427  1.00  0.00     0.063 C 
ATOM      2  C   UNL     1      13.300  32.705  13.269  1.00  0.00     0.038 C 
ATOM      3  O   UNL     1      12.434  31.906  13.711  1.00  0.00    -0.550 OA
ATOM      4  O   UNL     1      13.176  34.065  13.523  1.00  0.00    -0.550 OA
ENDROOT
TORSDOF 0
ENDMDL
MODEL 9
REMARK VINA RESULT:    -2.291     13.117     13.435
REMARK INTER + INTRA:          -2.291
REMARK INTER:                  -2.291
REMARK INTRA:                   0.000
REMARK UNBOUND:                 0.000
REMARK SMILES CC(=O)[O-]
REMARK SMILES IDX 1 1 2 2 3 3 4 4
REMARK H PARENT
REMARK Flexibility Score: inf
ROOT
ATOM      1  C   UNL     1       4.448  44.123  12.123  1.00  0.00     0.063 C 
ATOM      2  C   UNL     1       4.088  43.140  11.062  1.00  0.00     0.038 C 
ATOM      3  O   UNL     1       4.154  43.468   9.849  1.00  0.00    -0.550 OA
ATOM      4  O   UNL     1       3.624  41.878  11.411  1.00  0.00    -0.550 OA
ENDROOT
TORSDOF 0
ENDMDL
