MODEL 1
REMARK VINA RESULT:    -3.116      0.000      0.000
REMARK INTER + INTRA:          -8.000
REMARK INTER:                  -5.666
REMARK INTRA:                  -2.334
REMARK UNBOUND:                -2.334
REMARK SMILES CCCCCCCCCCCCCCCC(=O)[O-]
REMARK SMILES IDX 9 1 10 2 11 3 12 4 13 5 14 6 15 7 16 8 17 9 18 10 8 11 7 12
REMARK SMILES IDX 6 13 5 14 4 15 3 16 2 17 1 18
REMARK H PARENT
REMARK Flexibility Score: inf
ROOT
ATOM      1  C   UNL     1      59.196  26.705  49.617  1.00  0.00     0.000 C 
ENDROOT
BRANCH   1   2
ATOM      2  C   UNL     1      59.834  28.061  49.281  1.00  0.00     0.000 C 
BRANCH   2   3
ATOM      3  C   UNL     1      58.791  29.184  49.323  1.00  0.00     0.000 C 
BRANCH   3   4
ATOM      4  C   UNL     1      58.092  29.234  50.690  1.00  0.00     0.000 C 
BRANCH   4   5
ATOM      5  C   UNL     1      56.560  29.227  50.573  1.00  0.00     0.000 C 
BRANCH   5   6
ATOM      6  C   UNL     1      55.923  27.980  51.204  1.00  0.00     0.006 C 
BRANCH   6   7
ATOM      7  C   UNL     1      54.843  27.393  50.289  1.00  0.00     0.053 C 
BRANCH   7   8
ATOM      8  C   UNL     1      55.095  25.939  50.046  1.00  0.00     0.041 C 
ATOM      9  O   UNL     1      54.370  25.296  49.241  1.00  0.00    -0.550 OA
ATOM     10  O   UNL     1      56.164  25.305  50.668  1.00  0.00    -0.550 OA
ENDBRANCH   7   8
ENDBRANCH   6   7
ENDBRANCH   5   6
ENDBRANCH   4   5
ENDBRANCH   3   4
ENDBRANCH   2   3
ENDBRANCH   1   2
BRANCH   1  11
ATOM     11  C   UNL     1      60.072  25.853  50.551  1.00  0.00     0.000 C 
BRANCH  11  12
ATOM     12  C   UNL     1      59.515  25.787  51.985  1.00  0.00    -0.000 C 
BRANCH  12  13
ATOM     13  C   UNL     1      59.972  26.970  52.854  1.00  0.00    -0.000 C 
BRANCH  13  14
ATOM     14  C   UNL     1      61.480  27.246  52.729  1.00  0.00    -0.000 C 
BRANCH  14  15
ATOM     15  C   UNL     1      61.792  28.704  52.348  1.00  0.00    -0.000 C 
BRANCH  15  16
ATOM     16  C   UNL     1      62.806  28.881  51.199  1.00  0.00    -0.000 C 
BRANCH  16  17
ATOM     17  C   UNL     1      63.355  27.570  50.609  1.00  0.00    -0.003 C 
ATOM     18  C   UNL     1      63.514  27.621  49.090  1.00  0.00     0.004 C 
ENDBRANCH  16  17
ENDBRANCH  15  16
ENDBRANCH  14  15
ENDBRANCH  13  14
ENDBRANCH  12  13
ENDBRANCH  11  12
ENDBRANCH   1  11
TORSDOF 14
ENDMDL
MODEL 2
REMARK VINA RESULT:    -3.095      2.521      5.833
REMARK INTER + INTRA:          -7.962
REMARK INTER:                  -5.744
REMARK INTRA:                  -2.218
REMARK UNBOUND:                -2.334
REMARK SMILES CCCCCCCCCCCCCCCC(=O)[O-]
REMARK SMILES IDX 9 1 10 2 11 3 12 4 13 5 14 6 15 7 16 8 17 9 18 10 8 11 7 12
REMARK SMILES IDX 6 13 5 14 4 15 3 16 2 17 1 18
REMARK H PARENT
REMARK Flexibility Score: inf
ROOT
ATOM      1  C   UNL     1      56.898  29.615  51.214  1.00  0.00     0.000 C 
ENDROOT
BRANCH   1   2
ATOM      2  C   UNL     1      57.465  28.573  50.240  1.00  0.00     0.000 C 
BRANCH   2   3
ATOM      3  C   UNL     1      58.689  29.123  49.498  1.00  0.00     0.000 C 
BRANCH   3   4
ATOM      4  C   UNL     1      59.942  29.064  50.386  1.00  0.00     0.000 C 
BRANCH   4   5
ATOM      5  C   UNL     1      60.025  27.769  51.208  1.00  0.00     0.000 C 
BRANCH   5   6
ATOM      6  C   UNL     1      60.816  26.663  50.494  1.00  0.00     0.006 C 
BRANCH   6   7
ATOM      7  C   UNL     1      59.879  25.577  49.958  1.00  0.00     0.053 C 
BRANCH   7   8
ATOM      8  C   UNL     1      60.139  24.273  50.645  1.00  0.00     0.041 C 
ATOM      9  O   UNL     1      60.367  23.235  49.970  1.00  0.00    -0.550 OA
ATOM     10  O   UNL     1      60.182  24.216  52.033  1.00  0.00    -0.550 OA
ENDBRANCH   7   8
ENDBRANCH   6   7
ENDBRANCH   5   6
ENDBRANCH   4   5
ENDBRANCH   3   4
ENDBRANCH   2   3
ENDBRANCH   1   2
BRANCH   1  11
ATOM     11  C   UNL     1      55.451  29.308  51.634  1.00  0.00     0.000 C 
BRANCH  11  12
ATOM     12  C   UNL     1      54.562  28.910  50.442  1.00  0.00    -0.000 C 
BRANCH  12  13
ATOM     13  C   UNL     1      53.590  27.768  50.784  1.00  0.00    -0.000 C 
BRANCH  13  14
ATOM     14  C   UNL     1      53.653  26.615  49.769  1.00  0.00    -0.000 C 
BRANCH  14  15
ATOM     15  C   UNL     1      54.928  25.765  49.908  1.00  0.00    -0.000 C 
BRANCH  15  16
ATOM     16  C   UNL     1      55.253  25.296  51.342  1.00  0.00    -0.000 C 
BRANCH  16  17
ATOM     17  C   UNL     1      56.745  25.333  51.715  1.00  0.00    -0.003 C 
ATOM     18  C   UNL     1      57.030  26.190  52.948  1.00  0.00     0.004 C 
ENDBRANCH  16  17
ENDBRANCH  15  16
ENDBRANCH  14  15
ENDBRANCH  13  14
ENDBRANCH  12  13
ENDBRANCH  11  12
ENDBRANCH   1  11
TORSDOF 14
ENDMDL
MODEL 3
REMARK VINA RESULT:    -3.054     10.600     12.363
REMARK INTER + INTRA:          -7.887
REMARK INTER:                  -5.773
REMARK INTRA:                  -2.114
REMARK UNBOUND:                -2.334
REMARK SMILES CCCCCCCCCCCCCCCC(=O)[O-]
REMARK SMILES IDX 9 1 10 2 11 3 12 4 13 5 14 6 15 7 16 8 17 9 18 10 8 11 7 12
REMARK SMILES IDX 6 13 5 14 4 15 3 16 2 17 1 18
REMARK H PARENT
REMARK Flexibility Score: inf
ROOT
ATOM      1  C   UNL     1      61.441  32.315  58.412  1.00  0.00     0.000 C 
ENDROOT
BRANCH   1   2
ATOM      2  C   UNL     1      60.969  33.542  57.620  1.00  0.00     0.000 C 
BRANCH   2   3
ATOM      3  C   UNL     1      60.084  34.447  58.486  1.00  0.00     0.000 C 
BRANCH   3   4
ATOM      4  C   UNL     1      60.888  35.632  59.042  1.00  0.00     0.000 C 
BRANCH   4   5
ATOM      5  C   UNL     1      61.032  35.584  60.572  1.00  0.00     0.000 C 
BRANCH   5   6
ATOM      6  C   UNL     1      62.472  35.838  61.040  1.00  0.00     0.006 C 
BRANCH   6   7
ATOM      7  C   UNL     1      63.363  34.625  60.755  1.00  0.00     0.053 C 
BRANCH   7   8
ATOM      8  C   UNL     1      64.792  35.046  60.613  1.00  0.00     0.041 C 
ATOM      9  O   UNL     1      65.360  34.994  59.491  1.00  0.00    -0.550 OA
ATOM     10  O   UNL     1      65.482  35.546  61.712  1.00  0.00    -0.550 OA
ENDBRANCH   7   8
ENDBRANCH   6   7
ENDBRANCH   5   6
ENDBRANCH   4   5
ENDBRANCH   3   4
ENDBRANCH   2   3
ENDBRANCH   1   2
BRANCH   1  11
ATOM     11  C   UNL     1      60.443  31.894  59.503  1.00  0.00     0.000 C 
BRANCH  11  12
ATOM     12  C   UNL     1      61.066  31.906  60.911  1.00  0.00    -0.000 C 
BRANCH  12  13
ATOM     13  C   UNL     1      60.891  30.567  61.648  1.00  0.00    -0.000 C 
BRANCH  13  14
ATOM     14  C   UNL     1      62.180  29.729  61.664  1.00  0.00    -0.000 C 
BRANCH  14  15
ATOM     15  C   UNL     1      63.445  30.574  61.426  1.00  0.00    -0.000 C 
BRANCH  15  16
ATOM     16  C   UNL     1      64.228  30.238  60.140  1.00  0.00    -0.000 C 
BRANCH  16  17
ATOM     17  C   UNL     1      65.173  31.347  59.646  1.00  0.00    -0.003 C 
ATOM     18  C   UNL     1      65.027  31.632  58.151  1.00  0.00     0.004 C 
ENDBRANCH  16  17
ENDBRANCH  15  16
ENDBRANCH  14  15
ENDBRANCH  13  14
ENDBRANCH  12  13
ENDBRANCH  11  12
ENDBRANCH   1  11
TORSDOF 14
ENDMDL
MODEL 4
REMARK VINA RESULT:    -3.040      9.659     11.952
REMARK INTER + INTRA:          -7.862
REMARK INTER:                  -5.820
REMARK INTRA:                  -2.042
REMARK UNBOUND:                -2.334
REMARK SMILES CCCCCCCCCCCCCCCC(=O)[O-]
REMARK SMILES IDX 9 1 10 2 11 3 12 4 13 5 14 6 15 7 16 8 17 9 18 10 8 11 7 12
REMARK SMILES IDX 6 13 5 14 4 15 3 16 2 17 1 18
REMARK H PARENT
REMARK Flexibility Score: inf
ROOT
ATOM      1  C   UNL     1      63.075  31.659  57.935  1.00  0.00     0.000 C 
ENDROOT
BRANCH   1   2
ATOM      2  C   UNL     1      63.944  30.700  58.761  1.00  0.00     0.000 C 
BRANCH   2   3
ATOM      3  C   UNL     1      64.639  31.441  59.910  1.00  0.00     0.000 C 
BRANCH   3   4
ATOM      4  C   UNL     1      64.045  31.032  61.267  1.00  0.00     0.000 C 
BRANCH   4   5
ATOM      5  C   UNL     1      63.044  29.871  61.149  1.00  0.00     0.000 C 
BRANCH   5   6
ATOM      6  C   UNL     1      61.738  30.135  61.912  1.00  0.00     0.006 C 
BRANCH   6   7
ATOM      7  C   UNL     1      60.698  30.801  61.005  1.00  0.00     0.053 C 
BRANCH   7   8
ATOM      8  C   UNL     1      59.885  29.767  60.293  1.00  0.00     0.041 C 
ATOM      9  O   UNL     1      60.193  29.412  59.125  1.00  0.00    -0.550 OA
ATOM     10  O   UNL     1      58.817  29.156  60.940  1.00  0.00    -0.550 OA
ENDBRANCH   7   8
ENDBRANCH   6   7
ENDBRANCH   5   6
ENDBRANCH   4   5
ENDBRANCH   3   4
ENDBRANCH   2   3
ENDBRANCH   1   2
BRANCH   1  11
ATOM     11  C   UNL     1      63.265  33.130  58.341  1.00  0.00     0.000 C 
BRANCH  11  12
ATOM     12  C   UNL     1      61.942  33.807  58.744  1.00  0.00    -0.000 C 
BRANCH  12  13
ATOM     13  C   UNL     1      61.864  34.102  60.252  1.00  0.00    -0.000 C 
BRANCH  13  14
ATOM     14  C   UNL     1      61.379  35.531  60.548  1.00  0.00    -0.000 C 
BRANCH  14  15
ATOM     15  C   UNL     1      62.484  36.428  61.132  1.00  0.00    -0.000 C 
BRANCH  15  16
ATOM     16  C   UNL     1      63.639  36.764  60.164  1.00  0.00    -0.000 C 
BRANCH  16  17
ATOM     17  C   UNL     1      65.044  36.413  60.683  1.00  0.00    -0.003 C 
ATOM     18  C   UNL     1      65.041  35.242  61.666  1.00  0.00     0.004 C 
ENDBRANCH  16  17
ENDBRANCH  15  16
ENDBRANCH  14  15
ENDBRANCH  13  14
ENDBRANCH  12  13
ENDBRANCH  11  12
ENDBRANCH   1  11
TORSDOF 14
ENDMDL
MODEL 5
REMARK VINA RESULT:    -3.039      1.692      2.782
REMARK INTER + INTRA:          -7.861
REMARK INTER:                  -5.758
REMARK INTRA:                  -2.103
REMARK UNBOUND:                -2.334
REMARK SMILES CCCCCCCCCCCCCCCC(=O)[O-]
REMARK SMILES IDX 9 1 10 2 11 3 12 4 13 5 14 6 15 7 16 8 17 9 18 10 8 11 7 12
REMARK SMILES IDX 6 13 5 14 4 15 3 16 2 17 1 18
REMARK H PARENT
REMARK Flexibility Score: inf
ROOT
ATOM      1  C   UNL     1      58.783  25.492  50.191  1.00  0.00     0.000 C 
ENDROOT
BRANCH   1   2
ATOM      2  C   UNL     1      58.091  25.125  51.512  1.00  0.00     0.000 C 
BRANCH   2   3
ATOM      3  C   UNL     1      58.071  26.320  52.472  1.00  0.00     0.000 C 
BRANCH   3   4
ATOM      4  C   UNL     1      56.634  26.797  52.727  1.00  0.00     0.000 C 
BRANCH   4   5
ATOM      5  C   UNL     1      56.326  28.140  52.047  1.00  0.00     0.000 C 
BRANCH   5   6
ATOM      6  C   UNL     1      55.942  27.982  50.569  1.00  0.00     0.006 C 
BRANCH   6   7
ATOM      7  C   UNL     1      54.425  27.837  50.408  1.00  0.00     0.053 C 
BRANCH   7   8
ATOM      8  C   UNL     1      54.081  26.479  49.883  1.00  0.00     0.041 C 
ATOM      9  O   UNL     1      52.884  26.183  49.628  1.00  0.00    -0.550 OA
ATOM     10  O   UNL     1      55.088  25.557  49.627  1.00  0.00    -0.550 OA
ENDBRANCH   7   8
ENDBRANCH   6   7
ENDBRANCH   5   6
ENDBRANCH   4   5
ENDBRANCH   3   4
ENDBRANCH   2   3
ENDBRANCH   1   2
BRANCH   1  11
ATOM     11  C   UNL     1      60.291  25.741  50.361  1.00  0.00     0.000 C 
BRANCH  11  12
ATOM     12  C   UNL     1      60.712  27.151  49.908  1.00  0.00    -0.000 C 
BRANCH  12  13
ATOM     13  C   UNL     1      59.544  27.955  49.313  1.00  0.00    -0.000 C 
BRANCH  13  14
ATOM     14  C   UNL     1      59.288  29.270  50.068  1.00  0.00    -0.000 C 
BRANCH  14  15
ATOM     15  C   UNL     1      60.060  29.357  51.397  1.00  0.00    -0.000 C 
BRANCH  15  16
ATOM     16  C   UNL     1      61.089  30.503  51.487  1.00  0.00    -0.000 C 
BRANCH  16  17
ATOM     17  C   UNL     1      62.100  30.561  50.329  1.00  0.00    -0.003 C 
ATOM     18  C   UNL     1      62.450  31.989  49.913  1.00  0.00     0.004 C 
ENDBRANCH  16  17
ENDBRANCH  15  16
ENDBRANCH  14  15
ENDBRANCH  13  14
ENDBRANCH  12  13
ENDBRANCH  11  12
ENDBRANCH   1  11
TORSDOF 14
ENDMDL
MODEL 6
REMARK VINA RESULT:    -3.013     10.039     12.306
REMARK INTER + INTRA:          -7.812
REMARK INTER:                  -5.365
REMARK INTRA:                  -2.447
REMARK UNBOUND:                -2.334
REMARK SMILES CCCCCCCCCCCCCCCC(=O)[O-]
REMARK SMILES IDX 9 1 10 2 11 3 12 4 13 5 14 6 15 7 16 8 17 9 18 10 8 11 7 12
REMARK SMILES IDX 6 13 5 14 4 15 3 16 2 17 1 18
REMARK H PARENT
REMARK Flexibility Score: inf
ROOT
ATOM      1  C   UNL     1      60.951  30.189  61.072  1.00  0.00     0.000 C 
ENDROOT
BRANCH   1   2
ATOM      2  C   UNL     1      61.013  31.722  61.145  1.00  0.00     0.000 C 
BRANCH   2   3
ATOM      3  C   UNL     1      60.727  32.349  59.775  1.00  0.00     0.000 C 
BRANCH   3   4
ATOM      4  C   UNL     1      61.587  33.603  59.554  1.00  0.00     0.000 C 
BRANCH   4   5
ATOM      5  C   UNL     1      61.137  34.790  60.420  1.00  0.00     0.000 C 
BRANCH   5   6
ATOM      6  C   UNL     1      62.307  35.685  60.853  1.00  0.00     0.006 C 
BRANCH   6   7
ATOM      7  C   UNL     1      63.533  35.454  59.963  1.00  0.00     0.053 C 
BRANCH   7   8
ATOM      8  C   UNL     1      64.759  35.261  60.799  1.00  0.00     0.041 C 
ATOM      9  O   UNL     1      64.759  34.425  61.740  1.00  0.00    -0.550 OA
ATOM     10  O   UNL     1      65.918  35.968  60.504  1.00  0.00    -0.550 OA
ENDBRANCH   7   8
ENDBRANCH   6   7
ENDBRANCH   5   6
ENDBRANCH   4   5
ENDBRANCH   3   4
ENDBRANCH   2   3
ENDBRANCH   1   2
BRANCH   1  11
ATOM     11  C   UNL     1      62.286  29.525  61.446  1.00  0.00     0.000 C 
BRANCH  11  12
ATOM     12  C   UNL     1      63.443  30.536  61.542  1.00  0.00    -0.000 C 
BRANCH  12  13
ATOM     13  C   UNL     1      64.562  30.254  60.525  1.00  0.00    -0.000 C 
BRANCH  13  14
ATOM     14  C   UNL     1      64.953  31.503  59.718  1.00  0.00    -0.000 C 
BRANCH  14  15
ATOM     15  C   UNL     1      64.218  31.598  58.369  1.00  0.00    -0.000 C 
BRANCH  15  16
ATOM     16  C   UNL     1      63.891  30.246  57.701  1.00  0.00    -0.000 C 
BRANCH  16  17
ATOM     17  C   UNL     1      62.394  29.985  57.461  1.00  0.00    -0.003 C 
ATOM     18  C   UNL     1      61.963  28.576  57.867  1.00  0.00     0.004 C 
ENDBRANCH  16  17
ENDBRANCH  15  16
ENDBRANCH  14  15
ENDBRANCH  13  14
ENDBRANCH  12  13
ENDBRANCH  11  12
ENDBRANCH   1  11
TORSDOF 14
ENDMDL
MODEL 7
REMARK VINA RESULT:    -2.999      9.557     11.305
REMARK INTER + INTRA:          -7.788
REMARK INTER:                  -5.483
REMARK INTRA:                  -2.305
REMARK UNBOUND:                -2.334
REMARK SMILES CCCCCCCCCCCCCCCC(=O)[O-]
REMARK SMILES IDX 9 1 10 2 11 3 12 4 13 5 14 6 15 7 16 8 17 9 18 10 8 11 7 12
REMARK SMILES IDX 6 13 5 14 4 15 3 16 2 17 1 18
REMARK H PARENT
REMARK Flexibility Score: inf
ROOT
ATOM      1  C   UNL     1      63.483  28.828  60.350  1.00  0.00     0.000 C 
ENDROOT
BRANCH   1   2
ATOM      2  C   UNL     1      62.214  28.925  61.209  1.00  0.00     0.000 C 
BRANCH   2   3
ATOM      3  C   UNL     1      62.114  30.295  61.890  1.00  0.00     0.000 C 
BRANCH   3   4
ATOM      4  C   UNL     1      60.760  30.957  61.598  1.00  0.00     0.000 C 
BRANCH   4   5
ATOM      5  C   UNL     1      60.022  30.303  60.419  1.00  0.00     0.000 C 
BRANCH   5   6
ATOM      6  C   UNL     1      60.004  31.190  59.166  1.00  0.00     0.006 C 
BRANCH   6   7
ATOM      7  C   UNL     1      60.471  32.612  59.493  1.00  0.00     0.053 C 
BRANCH   7   8
ATOM      8  C   UNL     1      60.048  33.563  58.418  1.00  0.00     0.041 C 
ATOM      9  O   UNL     1      58.835  33.877  58.292  1.00  0.00    -0.550 OA
ATOM     10  O   UNL     1      61.000  34.144  57.590  1.00  0.00    -0.550 OA
ENDBRANCH   7   8
ENDBRANCH   6   7
ENDBRANCH   5   6
ENDBRANCH   4   5
ENDBRANCH   3   4
ENDBRANCH   2   3
ENDBRANCH   1   2
BRANCH   1  11
ATOM     11  C   UNL     1      63.202  29.036  58.853  1.00  0.00     0.000 C 
BRANCH  11  12
ATOM     12  C   UNL     1      64.094  30.125  58.230  1.00  0.00    -0.000 C 
BRANCH  12  13
ATOM     13  C   UNL     1      63.685  31.544  58.661  1.00  0.00    -0.000 C 
BRANCH  13  14
ATOM     14  C   UNL     1      64.779  32.249  59.481  1.00  0.00    -0.000 C 
BRANCH  14  15
ATOM     15  C   UNL     1      64.270  32.763  60.839  1.00  0.00    -0.000 C 
BRANCH  15  16
ATOM     16  C   UNL     1      64.313  34.294  61.021  1.00  0.00    -0.000 C 
BRANCH  16  17
ATOM     17  C   UNL     1      63.345  35.083  60.122  1.00  0.00    -0.003 C 
ATOM     18  C   UNL     1      62.148  35.648  60.887  1.00  0.00     0.004 C 
ENDBRANCH  16  17
ENDBRANCH  15  16
ENDBRANCH  14  15
ENDBRANCH  13  14
ENDBRANCH  12  13
ENDBRANCH  11  12
ENDBRANCH   1  11
TORSDOF 14
ENDMDL
MODEL 8
REMARK VINA RESULT:    -2.995      9.494     11.584
REMARK INTER + INTRA:          -7.780
REMARK INTER:                  -6.058
REMARK INTRA:                  -1.722
REMARK UNBOUND:                -2.334
REMARK SMILES CCCCCCCCCCCCCCCC(=O)[O-]
REMARK SMILES IDX 9 1 10 2 11 3 12 4 13 5 14 6 15 7 16 8 17 9 18 10 8 11 7 12
REMARK SMILES IDX 6 13 5 14 4 15 3 16 2 17 1 18
REMARK H PARENT
REMARK Flexibility Score: inf
ROOT
ATOM      1  C   UNL     1      64.342  31.168  60.888  1.00  0.00     0.000 C 
ENDROOT
BRANCH   1   2
ATOM      2  C   UNL     1      63.139  30.248  60.631  1.00  0.00     0.000 C 
BRANCH   2   3
ATOM      3  C   UNL     1      62.161  30.283  61.811  1.00  0.00     0.000 C 
BRANCH   3   4
ATOM      4  C   UNL     1      60.734  30.591  61.334  1.00  0.00     0.000 C 
BRANCH   4   5
ATOM      5  C   UNL     1      60.293  29.694  60.166  1.00  0.00     0.000 C 
BRANCH   5   6
ATOM      6  C   UNL     1      60.267  28.205  60.541  1.00  0.00     0.006 C 
BRANCH   6   7
ATOM      7  C   UNL     1      59.118  27.481  59.831  1.00  0.00     0.053 C 
BRANCH   7   8
ATOM      8  C   UNL     1      57.808  28.120  60.167  1.00  0.00     0.041 C 
ATOM      9  O   UNL     1      57.418  28.176  61.363  1.00  0.00    -0.550 OA
ATOM     10  O   UNL     1      57.042  28.702  59.164  1.00  0.00    -0.550 OA
ENDBRANCH   7   8
ENDBRANCH   6   7
ENDBRANCH   5   6
ENDBRANCH   4   5
ENDBRANCH   3   4
ENDBRANCH   2   3
ENDBRANCH   1   2
BRANCH   1  11
ATOM     11  C   UNL     1      64.266  32.480  60.090  1.00  0.00     0.000 C 
BRANCH  11  12
ATOM     12  C   UNL     1      63.278  32.399  58.912  1.00  0.00    -0.000 C 
BRANCH  12  13
ATOM     13  C   UNL     1      62.047  33.299  59.108  1.00  0.00    -0.000 C 
BRANCH  13  14
ATOM     14  C   UNL     1      62.007  33.949  60.501  1.00  0.00    -0.000 C 
BRANCH  14  15
ATOM     15  C   UNL     1      61.717  35.460  60.448  1.00  0.00    -0.000 C 
BRANCH  15  16
ATOM     16  C   UNL     1      62.724  36.350  61.205  1.00  0.00    -0.000 C 
BRANCH  16  17
ATOM     17  C   UNL     1      64.185  36.219  60.740  1.00  0.00    -0.003 C 
ATOM     18  C   UNL     1      65.106  35.653  61.821  1.00  0.00     0.004 C 
ENDBRANCH  16  17
ENDBRANCH  15  16
ENDBRANCH  14  15
ENDBRANCH  13  14
ENDBRANCH  12  13
ENDBRANCH  11  12
ENDBRANCH   1  11
TORSDOF 14
ENDMDL
MODEL 9
REMARK VINA RESULT:    -2.980      2.172      4.263
REMARK INTER + INTRA:          -7.752
REMARK INTER:                  -5.458
REMARK INTRA:                  -2.294
REMARK UNBOUND:                -2.334
REMARK SMILES CCCCCCCCCCCCCCCC(=O)[O-]
REMARK SMILES IDX 9 1 10 2 11 3 12 4 13 5 14 6 15 7 16 8 17 9 18 10 8 11 7 12
REMARK SMILES IDX 6 13 5 14 4 15 3 16 2 17 1 18
REMARK H PARENT
REMARK Flexibility Score: inf
ROOT
ATOM      1  C   UNL     1      57.918  29.140  49.925  1.00  0.00     0.000 C 
ENDROOT
BRANCH   1   2
ATOM      2  C   UNL     1      57.889  29.545  51.406  1.00  0.00     0.000 C 
BRANCH   2   3
ATOM      3  C   UNL     1      56.450  29.781  51.882  1.00  0.00     0.000 C 
BRANCH   3   4
ATOM      4  C   UNL     1      55.449  29.555  50.739  1.00  0.00     0.000 C 
BRANCH   4   5
ATOM      5  C   UNL     1      54.036  29.227  51.246  1.00  0.00     0.000 C 
BRANCH   5   6
ATOM      6  C   UNL     1      53.479  27.925  50.649  1.00  0.00     0.006 C 
BRANCH   6   7
ATOM      7  C   UNL     1      54.611  27.027  50.140  1.00  0.00     0.053 C 
BRANCH   7   8
ATOM      8  C   UNL     1      54.147  25.609  50.031  1.00  0.00     0.041 C 
ATOM      9  O   UNL     1      53.883  25.114  48.904  1.00  0.00    -0.550 OA
ATOM     10  O   UNL     1      54.056  24.818  51.170  1.00  0.00    -0.550 OA
ENDBRANCH   7   8
ENDBRANCH   6   7
ENDBRANCH   5   6
ENDBRANCH   4   5
ENDBRANCH   3   4
ENDBRANCH   2   3
ENDBRANCH   1   2
BRANCH   1  11
ATOM     11  C   UNL     1      59.279  28.567  49.494  1.00  0.00     0.000 C 
BRANCH  11  12
ATOM     12  C   UNL     1      59.724  27.381  50.368  1.00  0.00    -0.000 C 
BRANCH  12  13
ATOM     13  C   UNL     1      59.315  26.022  49.775  1.00  0.00    -0.000 C 
BRANCH  13  14
ATOM     14  C   UNL     1      57.876  25.626  50.145  1.00  0.00    -0.000 C 
BRANCH  14  15
ATOM     15  C   UNL     1      57.745  25.133  51.596  1.00  0.00    -0.000 C 
BRANCH  15  16
ATOM     16  C   UNL     1      57.374  26.217  52.629  1.00  0.00    -0.000 C 
BRANCH  16  17
ATOM     17  C   UNL     1      56.303  25.801  53.652  1.00  0.00    -0.003 C 
ATOM     18  C   UNL     1      55.216  26.859  53.840  1.00  0.00     0.004 C 
ENDBRANCH  16  17
ENDBRANCH  15  16
ENDBRANCH  14  15
ENDBRANCH  13  14
ENDBRANCH  12  13
ENDBRANCH  11  12
ENDBRANCH   1  11
TORSDOF 14
ENDMDL
