MODEL 1
REMARK VINA RESULT:    -4.010      0.000      0.000
REMARK INTER + INTRA:          -4.627
REMARK INTER:                  -4.596
REMARK INTRA:                  -0.031
REMARK UNBOUND:                -0.031
REMARK SMILES CC(C)[C@H]([NH3+])C(=O)[O-]
REMARK SMILES IDX 4 1 5 2 6 6 7 7 8 8 2 9 1 10 3 11
REMARK H PARENT 5 3 5 4 5 5
REMARK Flexibility Score: inf
ROOT
ATOM      1  C   UNL     1     121.684 156.010 158.810  1.00  0.00     0.230 C 
ENDROOT
BRANCH   1   2
ATOM      2  N   UNL     1     123.126 156.067 158.527  1.00  0.00    -0.350 N 
ATOM      3  H   UNL     1     123.401 156.990 158.123  1.00  0.00     0.345 HD
ATOM      4  H   UNL     1     123.376 155.316 157.842  1.00  0.00     0.345 HD
ATOM      5  H   UNL     1     123.670 155.898 159.404  1.00  0.00     0.345 HD
ENDBRANCH   1   2
BRANCH   1   6
ATOM      6  C   UNL     1     121.286 154.640 159.305  1.00  0.00     0.099 C 
ATOM      7  O   UNL     1     120.653 153.844 158.561  1.00  0.00    -0.544 OA
ATOM      8  O   UNL     1     121.593 154.259 160.605  1.00  0.00    -0.544 OA
ENDBRANCH   1   6
BRANCH   1   9
ATOM      9  C   UNL     1     120.837 156.480 157.589  1.00  0.00     0.047 C 
ATOM     10  C   UNL     1     120.368 157.942 157.688  1.00  0.00     0.014 C 
ATOM     11  C   UNL     1     121.590 156.258 156.268  1.00  0.00     0.014 C 
ENDBRANCH   1   9
TORSDOF 3
ENDMDL
MODEL 2
REMARK VINA RESULT:    -3.882      2.477      3.750
REMARK INTER + INTRA:          -4.480
REMARK INTER:                  -4.473
REMARK INTRA:                  -0.007
REMARK UNBOUND:                -0.031
REMARK SMILES CC(C)[C@H]([NH3+])C(=O)[O-]
REMARK SMILES IDX 4 1 5 2 6 6 7 7 8 8 2 9 1 10 3 11
REMARK H PARENT 5 3 5 4 5 5
REMARK Flexibility Score: inf
ROOT
ATOM      1  C   UNL     1     121.047 154.751 159.512  1.00  0.00     0.230 C 
ENDROOT
BRANCH   1   2
ATOM      2  N   UNL     1     120.427 154.202 158.296  1.00  0.00    -0.350 N 
ATOM      3  H   UNL     1     120.797 154.664 157.436  1.00  0.00     0.345 HD
ATOM      4  H   UNL     1     119.392 154.352 158.335  1.00  0.00     0.345 HD
ATOM      5  H   UNL     1     120.602 153.173 158.238  1.00  0.00     0.345 HD
ENDBRANCH   1   2
BRANCH   1   6
ATOM      6  C   UNL     1     122.112 155.763 159.162  1.00  0.00     0.099 C 
ATOM      7  O   UNL     1     122.187 156.247 158.001  1.00  0.00    -0.544 OA
ATOM      8  O   UNL     1     123.041 156.147 160.122  1.00  0.00    -0.544 OA
ENDBRANCH   1   6
BRANCH   1   9
ATOM      9  C   UNL     1     121.571 153.624 160.453  1.00  0.00     0.047 C 
ATOM     10  C   UNL     1     121.277 153.878 161.942  1.00  0.00     0.014 C 
ATOM     11  C   UNL     1     121.026 152.250 160.036  1.00  0.00     0.014 C 
ENDBRANCH   1   9
TORSDOF 3
ENDMDL
MODEL 3
REMARK VINA RESULT:    -3.873      2.405      3.528
REMARK INTER + INTRA:          -4.469
REMARK INTER:                  -4.416
REMARK INTRA:                  -0.053
REMARK UNBOUND:                -0.031
REMARK SMILES CC(C)[C@H]([NH3+])C(=O)[O-]
REMARK SMILES IDX 4 1 5 2 6 6 7 7 8 8 2 9 1 10 3 11
REMARK H PARENT 5 3 5 4 5 5
REMARK Flexibility Score: inf
ROOT
ATOM      1  C   UNL     1     121.682 155.905 157.544  1.00  0.00     0.230 C 
ENDROOT
BRANCH   1   2
ATOM      2  N   UNL     1     123.092 156.243 157.304  1.00  0.00    -0.350 N 
ATOM      3  H   UNL     1     123.692 155.984 158.119  1.00  0.00     0.345 HD
ATOM      4  H   UNL     1     123.180 157.273 157.141  1.00  0.00     0.345 HD
ATOM      5  H   UNL     1     123.438 155.750 156.449  1.00  0.00     0.345 HD
ENDBRANCH   1   2
BRANCH   1   6
ATOM      6  C   UNL     1     120.769 156.967 156.977  1.00  0.00     0.099 C 
ATOM      7  O   UNL     1     120.302 157.876 157.714  1.00  0.00    -0.544 OA
ATOM      8  O   UNL     1     120.415 156.928 155.635  1.00  0.00    -0.544 OA
ENDBRANCH   1   6
BRANCH   1   9
ATOM      9  C   UNL     1     121.405 155.613 159.050  1.00  0.00     0.047 C 
ATOM     10  C   UNL     1     120.974 154.163 159.329  1.00  0.00     0.014 C 
ATOM     11  C   UNL     1     122.616 155.978 159.921  1.00  0.00     0.014 C 
ENDBRANCH   1   9
TORSDOF 3
ENDMDL
MODEL 4
REMARK VINA RESULT:    -3.778      7.405      8.504
REMARK INTER + INTRA:          -4.360
REMARK INTER:                  -4.291
REMARK INTRA:                  -0.069
REMARK UNBOUND:                -0.031
REMARK SMILES CC(C)[C@H]([NH3+])C(=O)[O-]
REMARK SMILES IDX 4 1 5 2 6 6 7 7 8 8 2 9 1 10 3 11
REMARK H PARENT 5 3 5 4 5 5
REMARK Flexibility Score: inf
ROOT
ATOM      1  C   UNL     1     118.222 158.822 152.155  1.00  0.00     0.230 C 
ENDROOT
BRANCH   1   2
ATOM      2  N   UNL     1     117.158 158.333 153.046  1.00  0.00    -0.350 N 
ATOM      3  H   UNL     1     116.472 157.738 152.531  1.00  0.00     0.345 HD
ATOM      4  H   UNL     1     116.648 159.149 153.457  1.00  0.00     0.345 HD
ATOM      5  H   UNL     1     117.574 157.783 153.831  1.00  0.00     0.345 HD
ENDBRANCH   1   2
BRANCH   1   6
ATOM      6  C   UNL     1     117.734 158.902 150.728  1.00  0.00     0.099 C 
ATOM      7  O   UNL     1     117.561 157.858 150.045  1.00  0.00    -0.544 OA
ATOM      8  O   UNL     1     117.499 160.143 150.147  1.00  0.00    -0.544 OA
ENDBRANCH   1   6
BRANCH   1   9
ATOM      9  C   UNL     1     119.527 157.982 152.299  1.00  0.00     0.047 C 
ATOM     10  C   UNL     1     120.760 158.644 151.660  1.00  0.00     0.014 C 
ATOM     11  C   UNL     1     119.815 157.646 153.770  1.00  0.00     0.014 C 
ENDBRANCH   1   9
TORSDOF 3
ENDMDL
MODEL 5
REMARK VINA RESULT:    -3.726      3.914      4.696
REMARK INTER + INTRA:          -4.301
REMARK INTER:                  -4.393
REMARK INTRA:                   0.091
REMARK UNBOUND:                -0.031
REMARK SMILES CC(C)[C@H]([NH3+])C(=O)[O-]
REMARK SMILES IDX 4 1 5 2 6 6 7 7 8 8 2 9 1 10 3 11
REMARK H PARENT 5 3 5 4 5 5
REMARK Flexibility Score: inf
ROOT
ATOM      1  C   UNL     1     120.858 152.499 159.582  1.00  0.00     0.230 C 
ENDROOT
BRANCH   1   2
ATOM      2  N   UNL     1     120.385 153.365 158.492  1.00  0.00    -0.350 N 
ATOM      3  H   UNL     1     119.453 153.783 158.713  1.00  0.00     0.345 HD
ATOM      4  H   UNL     1     120.297 152.803 157.613  1.00  0.00     0.345 HD
ATOM      5  H   UNL     1     121.074 154.131 158.318  1.00  0.00     0.345 HD
ENDBRANCH   1   2
BRANCH   1   6
ATOM      6  C   UNL     1     120.164 151.158 159.544  1.00  0.00     0.099 C 
ATOM      7  O   UNL     1     119.030 151.004 160.071  1.00  0.00    -0.544 OA
ATOM      8  O   UNL     1     120.791 150.071 158.948  1.00  0.00    -0.544 OA
ENDBRANCH   1   6
BRANCH   1   9
ATOM      9  C   UNL     1     120.743 153.199 160.969  1.00  0.00     0.047 C 
ATOM     10  C   UNL     1     121.078 152.278 162.156  1.00  0.00     0.014 C 
ATOM     11  C   UNL     1     121.607 154.468 161.028  1.00  0.00     0.014 C 
ENDBRANCH   1   9
TORSDOF 3
ENDMDL
MODEL 6
REMARK VINA RESULT:    -3.709      8.989     10.130
REMARK INTER + INTRA:          -4.282
REMARK INTER:                  -4.237
REMARK INTRA:                  -0.045
REMARK UNBOUND:                -0.031
REMARK SMILES CC(C)[C@H]([NH3+])C(=O)[O-]
REMARK SMILES IDX 4 1 5 2 6 6 7 7 8 8 2 9 1 10 3 11
REMARK H PARENT 5 3 5 4 5 5
REMARK Flexibility Score: inf
ROOT
ATOM      1  C   UNL     1     118.743 158.484 149.386  1.00  0.00     0.230 C 
ENDROOT
BRANCH   1   2
ATOM      2  N   UNL     1     118.355 158.444 147.968  1.00  0.00    -0.350 N 
ATOM      3  H   UNL     1     119.119 158.801 147.352  1.00  0.00     0.345 HD
ATOM      4  H   UNL     1     117.505 159.038 147.824  1.00  0.00     0.345 HD
ATOM      5  H   UNL     1     118.116 157.465 147.691  1.00  0.00     0.345 HD
ENDBRANCH   1   2
BRANCH   1   6
ATOM      6  C   UNL     1     117.876 159.453 150.155  1.00  0.00     0.099 C 
ATOM      7  O   UNL     1     117.589 159.244 151.363  1.00  0.00    -0.544 OA
ATOM      8  O   UNL     1     117.363 160.576 149.517  1.00  0.00    -0.544 OA
ENDBRANCH   1   6
BRANCH   1   9
ATOM      9  C   UNL     1     120.266 158.768 149.561  1.00  0.00     0.047 C 
ATOM     10  C   UNL     1     120.905 158.010 150.738  1.00  0.00     0.014 C 
ATOM     11  C   UNL     1     121.040 158.478 148.266  1.00  0.00     0.014 C 
ENDBRANCH   1   9
TORSDOF 3
ENDMDL
MODEL 7
REMARK VINA RESULT:    -3.583      2.582      3.208
REMARK INTER + INTRA:          -4.137
REMARK INTER:                  -4.117
REMARK INTRA:                  -0.020
REMARK UNBOUND:                -0.031
REMARK SMILES CC(C)[C@H]([NH3+])C(=O)[O-]
REMARK SMILES IDX 4 1 5 2 6 6 7 7 8 8 2 9 1 10 3 11
REMARK H PARENT 5 3 5 4 5 5
REMARK Flexibility Score: inf
ROOT
ATOM      1  C   UNL     1     121.348 153.593 160.165  1.00  0.00     0.230 C 
ENDROOT
BRANCH   1   2
ATOM      2  N   UNL     1     120.681 152.649 159.254  1.00  0.00    -0.350 N 
ATOM      3  H   UNL     1     120.178 153.148 158.488  1.00  0.00     0.345 HD
ATOM      4  H   UNL     1     119.988 152.078 159.792  1.00  0.00     0.345 HD
ATOM      5  H   UNL     1     121.384 151.997 158.838  1.00  0.00     0.345 HD
ENDBRANCH   1   2
BRANCH   1   6
ATOM      6  C   UNL     1     120.812 153.454 161.571  1.00  0.00     0.099 C 
ATOM      7  O   UNL     1     121.320 154.104 162.522  1.00  0.00    -0.544 OA
ATOM      8  O   UNL     1     119.765 152.577 161.827  1.00  0.00    -0.544 OA
ENDBRANCH   1   6
BRANCH   1   9
ATOM      9  C   UNL     1     121.276 155.057 159.634  1.00  0.00     0.047 C 
ATOM     10  C   UNL     1     122.579 155.850 159.834  1.00  0.00     0.014 C 
ATOM     11  C   UNL     1     120.857 155.095 158.157  1.00  0.00     0.014 C 
ENDBRANCH   1   9
TORSDOF 3
ENDMDL
MODEL 8
REMARK VINA RESULT:    -3.579      6.826      7.821
REMARK INTER + INTRA:          -4.133
REMARK INTER:                  -4.090
REMARK INTRA:                  -0.042
REMARK UNBOUND:                -0.031
REMARK SMILES CC(C)[C@H]([NH3+])C(=O)[O-]
REMARK SMILES IDX 4 1 5 2 6 6 7 7 8 8 2 9 1 10 3 11
REMARK H PARENT 5 3 5 4 5 5
REMARK Flexibility Score: inf
ROOT
ATOM      1  C   UNL     1     118.501 158.464 152.737  1.00  0.00     0.230 C 
ENDROOT
BRANCH   1   2
ATOM      2  N   UNL     1     117.095 158.230 153.097  1.00  0.00    -0.350 N 
ATOM      3  H   UNL     1     116.615 159.119 153.362  1.00  0.00     0.345 HD
ATOM      4  H   UNL     1     117.049 157.572 153.910  1.00  0.00     0.345 HD
ATOM      5  H   UNL     1     116.589 157.789 152.296  1.00  0.00     0.345 HD
ENDBRANCH   1   2
BRANCH   1   6
ATOM      6  C   UNL     1     118.623 158.886 151.291  1.00  0.00     0.099 C 
ATOM      7  O   UNL     1     117.616 158.899 150.536  1.00  0.00    -0.544 OA
ATOM      8  O   UNL     1     119.865 159.237 150.777  1.00  0.00    -0.544 OA
ENDBRANCH   1   6
BRANCH   1   9
ATOM      9  C   UNL     1     119.399 157.238 153.085  1.00  0.00     0.047 C 
ATOM     10  C   UNL     1     120.257 157.439 154.346  1.00  0.00     0.014 C 
ATOM     11  C   UNL     1     118.565 155.954 153.215  1.00  0.00     0.014 C 
ENDBRANCH   1   9
TORSDOF 3
ENDMDL
MODEL 9
REMARK VINA RESULT:    -3.506      2.558      3.035
REMARK INTER + INTRA:          -4.049
REMARK INTER:                  -4.000
REMARK INTRA:                  -0.049
REMARK UNBOUND:                -0.031
REMARK SMILES CC(C)[C@H]([NH3+])C(=O)[O-]
REMARK SMILES IDX 4 1 5 2 6 6 7 7 8 8 2 9 1 10 3 11
REMARK H PARENT 5 3 5 4 5 5
REMARK Flexibility Score: inf
ROOT
ATOM      1  C   UNL     1     120.501 155.518 157.610  1.00  0.00     0.230 C 
ENDROOT
BRANCH   1   2
ATOM      2  N   UNL     1     120.596 154.348 158.495  1.00  0.00    -0.350 N 
ATOM      3  H   UNL     1     119.936 154.423 159.301  1.00  0.00     0.345 HD
ATOM      4  H   UNL     1     121.570 154.272 158.869  1.00  0.00     0.345 HD
ATOM      5  H   UNL     1     120.387 153.475 157.958  1.00  0.00     0.345 HD
ENDBRANCH   1   2
BRANCH   1   6
ATOM      6  C   UNL     1     120.489 155.097 156.160  1.00  0.00     0.099 C 
ATOM      7  O   UNL     1     119.834 154.088 155.786  1.00  0.00    -0.544 OA
ATOM      8  O   UNL     1     121.231 155.812 155.227  1.00  0.00    -0.544 OA
ENDBRANCH   1   6
BRANCH   1   9
ATOM      9  C   UNL     1     121.607 156.571 157.924  1.00  0.00     0.047 C 
ATOM     10  C   UNL     1     121.082 158.016 157.993  1.00  0.00     0.014 C 
ATOM     11  C   UNL     1     122.360 156.222 159.217  1.00  0.00     0.014 C 
ENDBRANCH   1   9
TORSDOF 3
ENDMDL
