MODEL 1
REMARK VINA RESULT:    -3.584      0.000      0.000
REMARK INTER + INTRA:          -8.687
REMARK INTER:                  -6.726
REMARK INTRA:                  -1.961
REMARK UNBOUND:                -1.961
REMARK SMILES O=C([O-])CCCCCCCCCCCCCCC(=O)[O-]
REMARK SMILES IDX 10 1 9 2 8 3 7 4 6 5 5 6 4 7 2 8 1 9 3 10 11 11 12 12 13 13
REMARK SMILES IDX 14 14 15 15 16 16 17 17 18 18 19 19 20 20
REMARK H PARENT
REMARK Flexibility Score: inf
ROOT
ATOM      1  C   UNL     1     -16.443 -20.643   4.766  1.00  0.00     0.000 C 
ENDROOT
BRANCH   1   2
ATOM      2  C   UNL     1     -15.817 -19.794   3.646  1.00  0.00     0.000 C 
BRANCH   2   3
ATOM      3  C   UNL     1     -16.259 -20.237   2.239  1.00  0.00     0.000 C 
BRANCH   3   4
ATOM      4  C   UNL     1     -17.301 -19.325   1.565  1.00  0.00     0.000 C 
BRANCH   4   5
ATOM      5  C   UNL     1     -17.634 -18.078   2.403  1.00  0.00     0.000 C 
BRANCH   5   6
ATOM      6  C   UNL     1     -18.214 -16.935   1.555  1.00  0.00     0.006 C 
BRANCH   6   7
ATOM      7  C   UNL     1     -17.594 -15.574   1.897  1.00  0.00     0.053 C 
BRANCH   7   8
ATOM      8  C   UNL     1     -17.194 -14.854   0.649  1.00  0.00     0.041 C 
ATOM      9  O   UNL     1     -17.870 -14.988  -0.405  1.00  0.00    -0.550 OA
ATOM     10  O   UNL     1     -16.101 -13.997   0.660  1.00  0.00    -0.550 OA
ENDBRANCH   7   8
ENDBRANCH   6   7
ENDBRANCH   5   6
ENDBRANCH   4   5
ENDBRANCH   3   4
ENDBRANCH   2   3
ENDBRANCH   1   2
BRANCH   1  11
ATOM     11  C   UNL     1     -17.518 -19.878   5.555  1.00  0.00     0.000 C 
BRANCH  11  12
ATOM     12  C   UNL     1     -18.947 -20.261   5.138  1.00  0.00     0.000 C 
BRANCH  12  13
ATOM     13  C   UNL     1     -18.988 -21.685   4.562  1.00  0.00     0.000 C 
BRANCH  13  14
ATOM     14  C   UNL     1     -19.681 -21.742   3.183  1.00  0.00     0.000 C 
BRANCH  14  15
ATOM     15  C   UNL     1     -20.479 -20.470   2.835  1.00  0.00     0.000 C 
BRANCH  15  16
ATOM     16  C   UNL     1     -20.922 -20.364   1.363  1.00  0.00     0.006 C 
BRANCH  16  17
ATOM     17  C   UNL     1     -22.140 -21.231   1.005  1.00  0.00     0.053 C 
BRANCH  17  18
ATOM     18  C   UNL     1     -22.090 -21.710  -0.412  1.00  0.00     0.041 C 
ATOM     19  O   UNL     1     -22.515 -22.858  -0.709  1.00  0.00    -0.550 OA
ATOM     20  O   UNL     1     -21.606 -20.876  -1.412  1.00  0.00    -0.550 OA
ENDBRANCH  17  18
ENDBRANCH  16  17
ENDBRANCH  15  16
ENDBRANCH  14  15
ENDBRANCH  13  14
ENDBRANCH  12  13
ENDBRANCH  11  12
ENDBRANCH   1  11
TORSDOF 15
ENDMDL
MODEL 2
REMARK VINA RESULT:    -3.542      3.884      7.336
REMARK INTER + INTRA:          -8.609
REMARK INTER:                  -7.482
REMARK INTRA:                  -1.127
REMARK UNBOUND:                -1.961
REMARK SMILES O=C([O-])CCCCCCCCCCCCCCC(=O)[O-]
REMARK SMILES IDX 10 1 9 2 8 3 7 4 6 5 5 6 4 7 2 8 1 9 3 10 11 11 12 12 13 13
REMARK SMILES IDX 14 14 15 15 16 16 17 17 18 18 19 19 20 20
REMARK H PARENT
REMARK Flexibility Score: inf
ROOT
ATOM      1  C   UNL     1     -18.274 -16.432   1.959  1.00  0.00     0.000 C 
ENDROOT
BRANCH   1   2
ATOM      2  C   UNL     1     -17.969 -17.907   1.642  1.00  0.00     0.000 C 
BRANCH   2   3
ATOM      3  C   UNL     1     -18.596 -18.880   2.658  1.00  0.00     0.000 C 
BRANCH   3   4
ATOM      4  C   UNL     1     -17.883 -20.238   2.785  1.00  0.00     0.000 C 
BRANCH   4   5
ATOM      5  C   UNL     1     -16.478 -20.236   2.158  1.00  0.00     0.000 C 
BRANCH   5   6
ATOM      6  C   UNL     1     -15.364 -20.102   3.208  1.00  0.00     0.006 C 
BRANCH   6   7
ATOM      7  C   UNL     1     -15.910 -20.004   4.637  1.00  0.00     0.053 C 
BRANCH   7   8
ATOM      8  C   UNL     1     -15.532 -18.694   5.253  1.00  0.00     0.041 C 
ATOM      9  O   UNL     1     -14.516 -18.610   5.992  1.00  0.00    -0.550 OA
ATOM     10  O   UNL     1     -16.274 -17.554   4.972  1.00  0.00    -0.550 OA
ENDBRANCH   7   8
ENDBRANCH   6   7
ENDBRANCH   5   6
ENDBRANCH   4   5
ENDBRANCH   3   4
ENDBRANCH   2   3
ENDBRANCH   1   2
BRANCH   1  11
ATOM     11  C   UNL     1     -18.121 -15.521   0.730  1.00  0.00     0.000 C 
BRANCH  11  12
ATOM     12  C   UNL     1     -16.911 -14.579   0.836  1.00  0.00     0.000 C 
BRANCH  12  13
ATOM     13  C   UNL     1     -16.595 -13.937  -0.524  1.00  0.00     0.000 C 
BRANCH  13  14
ATOM     14  C   UNL     1     -16.931 -14.869  -1.707  1.00  0.00     0.000 C 
BRANCH  14  15
ATOM     15  C   UNL     1     -17.646 -14.162  -2.874  1.00  0.00     0.000 C 
BRANCH  15  16
ATOM     16  C   UNL     1     -17.755 -12.631  -2.737  1.00  0.00     0.006 C 
BRANCH  16  17
ATOM     17  C   UNL     1     -19.197 -12.105  -2.656  1.00  0.00     0.053 C 
BRANCH  17  18
ATOM     18  C   UNL     1     -20.053 -12.641  -3.761  1.00  0.00     0.041 C 
ATOM     19  O   UNL     1     -19.833 -12.303  -4.955  1.00  0.00    -0.550 OA
ATOM     20  O   UNL     1     -21.073 -13.542  -3.478  1.00  0.00    -0.550 OA
ENDBRANCH  17  18
ENDBRANCH  16  17
ENDBRANCH  15  16
ENDBRANCH  14  15
ENDBRANCH  13  14
ENDBRANCH  12  13
ENDBRANCH  11  12
ENDBRANCH   1  11
TORSDOF 15
ENDMDL
MODEL 3
REMARK VINA RESULT:    -3.534      2.215      3.735
REMARK INTER + INTRA:          -8.595
REMARK INTER:                  -7.360
REMARK INTRA:                  -1.235
REMARK UNBOUND:                -1.961
REMARK SMILES O=C([O-])CCCCCCCCCCCCCCC(=O)[O-]
REMARK SMILES IDX 10 1 9 2 8 3 7 4 6 5 5 6 4 7 2 8 1 9 3 10 11 11 12 12 13 13
REMARK SMILES IDX 14 14 15 15 16 16 17 17 18 18 19 19 20 20
REMARK H PARENT
REMARK Flexibility Score: inf
ROOT
ATOM      1  C   UNL     1     -17.651 -17.994   2.411  1.00  0.00     0.000 C 
ENDROOT
BRANCH   1   2
ATOM      2  C   UNL     1     -18.417 -16.983   1.540  1.00  0.00     0.000 C 
BRANCH   2   3
ATOM      3  C   UNL     1     -17.740 -15.601   1.491  1.00  0.00     0.000 C 
BRANCH   3   4
ATOM      4  C   UNL     1     -18.139 -14.722   0.291  1.00  0.00     0.000 C 
BRANCH   4   5
ATOM      5  C   UNL     1     -17.203 -14.898  -0.917  1.00  0.00     0.000 C 
BRANCH   5   6
ATOM      6  C   UNL     1     -17.320 -13.747  -1.927  1.00  0.00     0.006 C 
BRANCH   6   7
ATOM      7  C   UNL     1     -18.015 -14.172  -3.227  1.00  0.00     0.053 C 
BRANCH   7   8
ATOM      8  C   UNL     1     -19.319 -13.456  -3.381  1.00  0.00     0.041 C 
ATOM      9  O   UNL     1     -19.547 -12.767  -4.410  1.00  0.00    -0.550 OA
ATOM     10  O   UNL     1     -20.304 -13.586  -2.410  1.00  0.00    -0.550 OA
ENDBRANCH   7   8
ENDBRANCH   6   7
ENDBRANCH   5   6
ENDBRANCH   4   5
ENDBRANCH   3   4
ENDBRANCH   2   3
ENDBRANCH   1   2
BRANCH   1  11
ATOM     11  C   UNL     1     -17.217 -19.240   1.622  1.00  0.00     0.000 C 
BRANCH  11  12
ATOM     12  C   UNL     1     -16.474 -20.266   2.494  1.00  0.00     0.000 C 
BRANCH  12  13
ATOM     13  C   UNL     1     -17.272 -20.584   3.768  1.00  0.00     0.000 C 
BRANCH  13  14
ATOM     14  C   UNL     1     -18.398 -21.610   3.516  1.00  0.00     0.000 C 
BRANCH  14  15
ATOM     15  C   UNL     1     -19.811 -20.996   3.518  1.00  0.00     0.000 C 
BRANCH  15  16
ATOM     16  C   UNL     1     -20.636 -21.259   2.245  1.00  0.00     0.006 C 
BRANCH  16  17
ATOM     17  C   UNL     1     -20.855 -20.019   1.364  1.00  0.00     0.053 C 
BRANCH  17  18
ATOM     18  C   UNL     1     -21.646 -20.336   0.134  1.00  0.00     0.041 C 
ATOM     19  O   UNL     1     -22.899 -20.455   0.198  1.00  0.00    -0.550 OA
ATOM     20  O   UNL     1     -21.004 -20.467  -1.092  1.00  0.00    -0.550 OA
ENDBRANCH  17  18
ENDBRANCH  16  17
ENDBRANCH  15  16
ENDBRANCH  14  15
ENDBRANCH  13  14
ENDBRANCH  12  13
ENDBRANCH  11  12
ENDBRANCH   1  11
TORSDOF 15
ENDMDL
MODEL 4
REMARK VINA RESULT:    -3.413      6.818      9.943
REMARK INTER + INTRA:          -8.367
REMARK INTER:                  -6.728
REMARK INTRA:                  -1.639
REMARK UNBOUND:                -1.961
REMARK SMILES O=C([O-])CCCCCCCCCCCCCCC(=O)[O-]
REMARK SMILES IDX 10 1 9 2 8 3 7 4 6 5 5 6 4 7 2 8 1 9 3 10 11 11 12 12 13 13
REMARK SMILES IDX 14 14 15 15 16 16 17 17 18 18 19 19 20 20
REMARK H PARENT
REMARK Flexibility Score: inf
ROOT
ATOM      1  C   UNL     1     -14.970 -11.440  -0.087  1.00  0.00     0.000 C 
ENDROOT
BRANCH   1   2
ATOM      2  C   UNL     1     -16.105 -11.680   0.924  1.00  0.00     0.000 C 
BRANCH   2   3
ATOM      3  C   UNL     1     -16.205 -13.149   1.375  1.00  0.00     0.000 C 
BRANCH   3   4
ATOM      4  C   UNL     1     -15.987 -14.189   0.261  1.00  0.00     0.000 C 
BRANCH   4   5
ATOM      5  C   UNL     1     -17.282 -14.533  -0.497  1.00  0.00     0.000 C 
BRANCH   5   6
ATOM      6  C   UNL     1     -17.055 -14.693  -2.008  1.00  0.00     0.006 C 
BRANCH   6   7
ATOM      7  C   UNL     1     -17.202 -13.370  -2.769  1.00  0.00     0.053 C 
BRANCH   7   8
ATOM      8  C   UNL     1     -18.645 -13.074  -3.030  1.00  0.00     0.041 C 
ATOM      9  O   UNL     1     -19.225 -12.147  -2.405  1.00  0.00    -0.550 OA
ATOM     10  O   UNL     1     -19.339 -13.790  -3.997  1.00  0.00    -0.550 OA
ENDBRANCH   7   8
ENDBRANCH   6   7
ENDBRANCH   5   6
ENDBRANCH   4   5
ENDBRANCH   3   4
ENDBRANCH   2   3
ENDBRANCH   1   2
BRANCH   1  11
ATOM     11  C   UNL     1     -13.837 -10.578   0.493  1.00  0.00     0.000 C 
BRANCH  11  12
ATOM     12  C   UNL     1     -12.862 -11.386   1.364  1.00  0.00     0.000 C 
BRANCH  12  13
ATOM     13  C   UNL     1     -12.173 -12.485   0.542  1.00  0.00     0.000 C 
BRANCH  13  14
ATOM     14  C   UNL     1     -12.343 -13.885   1.171  1.00  0.00     0.000 C 
BRANCH  14  15
ATOM     15  C   UNL     1     -12.687 -13.855   2.673  1.00  0.00     0.000 C 
BRANCH  15  16
ATOM     16  C   UNL     1     -11.499 -14.117   3.617  1.00  0.00     0.006 C 
BRANCH  16  17
ATOM     17  C   UNL     1     -11.330 -15.589   4.026  1.00  0.00     0.053 C 
BRANCH  17  18
ATOM     18  C   UNL     1     -10.443 -15.740   5.223  1.00  0.00     0.041 C 
ATOM     19  O   UNL     1     -10.762 -15.211   6.321  1.00  0.00    -0.550 OA
ATOM     20  O   UNL     1      -9.280 -16.496   5.137  1.00  0.00    -0.550 OA
ENDBRANCH  17  18
ENDBRANCH  16  17
ENDBRANCH  15  16
ENDBRANCH  14  15
ENDBRANCH  13  14
ENDBRANCH  12  13
ENDBRANCH  11  12
ENDBRANCH   1  11
TORSDOF 15
ENDMDL
MODEL 5
REMARK VINA RESULT:    -3.412      2.976      5.340
REMARK INTER + INTRA:          -8.366
REMARK INTER:                  -7.295
REMARK INTRA:                  -1.070
REMARK UNBOUND:                -1.961
REMARK SMILES O=C([O-])CCCCCCCCCCCCCCC(=O)[O-]
REMARK SMILES IDX 10 1 9 2 8 3 7 4 6 5 5 6 4 7 2 8 1 9 3 10 11 11 12 12 13 13
REMARK SMILES IDX 14 14 15 15 16 16 17 17 18 18 19 19 20 20
REMARK H PARENT
REMARK Flexibility Score: inf
ROOT
ATOM      1  C   UNL     1     -17.942 -14.763  -0.354  1.00  0.00     0.000 C 
ENDROOT
BRANCH   1   2
ATOM      2  C   UNL     1     -16.933 -14.990  -1.493  1.00  0.00     0.000 C 
BRANCH   2   3
ATOM      3  C   UNL     1     -17.250 -14.157  -2.750  1.00  0.00     0.000 C 
BRANCH   3   4
ATOM      4  C   UNL     1     -18.395 -13.141  -2.586  1.00  0.00     0.000 C 
BRANCH   4   5
ATOM      5  C   UNL     1     -17.941 -11.688  -2.816  1.00  0.00     0.000 C 
BRANCH   5   6
ATOM      6  C   UNL     1     -16.511 -11.431  -2.319  1.00  0.00     0.006 C 
BRANCH   6   7
ATOM      7  C   UNL     1     -16.457 -11.111  -0.819  1.00  0.00     0.053 C 
BRANCH   7   8
ATOM      8  C   UNL     1     -15.130 -11.501  -0.249  1.00  0.00     0.041 C 
ATOM      9  O   UNL     1     -14.143 -10.725  -0.352  1.00  0.00    -0.550 OA
ATOM     10  O   UNL     1     -14.993 -12.700   0.438  1.00  0.00    -0.550 OA
ENDBRANCH   7   8
ENDBRANCH   6   7
ENDBRANCH   5   6
ENDBRANCH   4   5
ENDBRANCH   3   4
ENDBRANCH   2   3
ENDBRANCH   1   2
BRANCH   1  11
ATOM     11  C   UNL     1     -17.417 -15.251   1.005  1.00  0.00     0.000 C 
BRANCH  11  12
ATOM     12  C   UNL     1     -18.527 -15.821   1.902  1.00  0.00     0.000 C 
BRANCH  12  13
ATOM     13  C   UNL     1     -18.689 -17.333   1.681  1.00  0.00     0.000 C 
BRANCH  13  14
ATOM     14  C   UNL     1     -20.131 -17.718   1.284  1.00  0.00     0.000 C 
BRANCH  14  15
ATOM     15  C   UNL     1     -20.291 -19.197   0.881  1.00  0.00     0.000 C 
BRANCH  15  16
ATOM     16  C   UNL     1     -21.574 -19.520   0.093  1.00  0.00     0.006 C 
BRANCH  16  17
ATOM     17  C   UNL     1     -21.469 -20.764  -0.803  1.00  0.00     0.053 C 
BRANCH  17  18
ATOM     18  C   UNL     1     -22.177 -21.943  -0.213  1.00  0.00     0.041 C 
ATOM     19  O   UNL     1     -22.604 -22.866  -0.957  1.00  0.00    -0.550 OA
ATOM     20  O   UNL     1     -22.337 -22.041   1.164  1.00  0.00    -0.550 OA
ENDBRANCH  17  18
ENDBRANCH  16  17
ENDBRANCH  15  16
ENDBRANCH  14  15
ENDBRANCH  13  14
ENDBRANCH  12  13
ENDBRANCH  11  12
ENDBRANCH   1  11
TORSDOF 15
ENDMDL
MODEL 6
REMARK VINA RESULT:    -3.411      4.361      7.056
REMARK INTER + INTRA:          -8.364
REMARK INTER:                  -7.414
REMARK INTRA:                  -0.950
REMARK UNBOUND:                -1.961
REMARK SMILES O=C([O-])CCCCCCCCCCCCCCC(=O)[O-]
REMARK SMILES IDX 10 1 9 2 8 3 7 4 6 5 5 6 4 7 2 8 1 9 3 10 11 11 12 12 13 13
REMARK SMILES IDX 14 14 15 15 16 16 17 17 18 18 19 19 20 20
REMARK H PARENT
REMARK Flexibility Score: inf
ROOT
ATOM      1  C   UNL     1     -18.441 -14.471   0.108  1.00  0.00     0.000 C 
ENDROOT
BRANCH   1   2
ATOM      2  C   UNL     1     -17.155 -14.789  -0.675  1.00  0.00     0.000 C 
BRANCH   2   3
ATOM      3  C   UNL     1     -17.221 -14.336  -2.145  1.00  0.00     0.000 C 
BRANCH   3   4
ATOM      4  C   UNL     1     -16.970 -12.835  -2.377  1.00  0.00     0.000 C 
BRANCH   4   5
ATOM      5  C   UNL     1     -18.207 -12.099  -2.922  1.00  0.00     0.000 C 
BRANCH   5   6
ATOM      6  C   UNL     1     -19.342 -13.060  -3.308  1.00  0.00     0.006 C 
BRANCH   6   7
ATOM      7  C   UNL     1     -20.624 -12.324  -3.718  1.00  0.00     0.053 C 
BRANCH   7   8
ATOM      8  C   UNL     1     -20.365 -11.443  -4.899  1.00  0.00     0.041 C 
ATOM      9  O   UNL     1     -20.491 -10.194  -4.798  1.00  0.00    -0.550 OA
ATOM     10  O   UNL     1     -19.938 -11.996  -6.100  1.00  0.00    -0.550 OA
ENDBRANCH   7   8
ENDBRANCH   6   7
ENDBRANCH   5   6
ENDBRANCH   4   5
ENDBRANCH   3   4
ENDBRANCH   2   3
ENDBRANCH   1   2
BRANCH   1  11
ATOM     11  C   UNL     1     -18.509 -15.208   1.455  1.00  0.00     0.000 C 
BRANCH  11  12
ATOM     12  C   UNL     1     -17.978 -16.648   1.371  1.00  0.00     0.000 C 
BRANCH  12  13
ATOM     13  C   UNL     1     -19.067 -17.659   1.759  1.00  0.00     0.000 C 
BRANCH  13  14
ATOM     14  C   UNL     1     -18.479 -18.965   2.337  1.00  0.00     0.000 C 
BRANCH  14  15
ATOM     15  C   UNL     1     -17.149 -19.389   1.686  1.00  0.00     0.000 C 
BRANCH  15  16
ATOM     16  C   UNL     1     -16.231 -20.243   2.581  1.00  0.00     0.006 C 
BRANCH  16  17
ATOM     17  C   UNL     1     -16.693 -20.348   4.044  1.00  0.00     0.053 C 
BRANCH  17  18
ATOM     18  C   UNL     1     -15.603 -19.987   5.004  1.00  0.00     0.041 C 
ATOM     19  O   UNL     1     -15.117 -18.824   5.004  1.00  0.00    -0.550 OA
ATOM     20  O   UNL     1     -15.145 -20.924   5.922  1.00  0.00    -0.550 OA
ENDBRANCH  17  18
ENDBRANCH  16  17
ENDBRANCH  15  16
ENDBRANCH  14  15
ENDBRANCH  13  14
ENDBRANCH  12  13
ENDBRANCH  11  12
ENDBRANCH   1  11
TORSDOF 15
ENDMDL
MODEL 7
REMARK VINA RESULT:    -3.392      3.659      9.378
REMARK INTER + INTRA:          -8.327
REMARK INTER:                  -6.551
REMARK INTRA:                  -1.777
REMARK UNBOUND:                -1.961
REMARK SMILES O=C([O-])CCCCCCCCCCCCCCC(=O)[O-]
REMARK SMILES IDX 10 1 9 2 8 3 7 4 6 5 5 6 4 7 2 8 1 9 3 10 11 11 12 12 13 13
REMARK SMILES IDX 14 14 15 15 16 16 17 17 18 18 19 19 20 20
REMARK H PARENT
REMARK Flexibility Score: inf
ROOT
ATOM      1  C   UNL     1     -17.785 -12.499  -2.555  1.00  0.00     0.000 C 
ENDROOT
BRANCH   1   2
ATOM      2  C   UNL     1     -17.582 -14.013  -2.743  1.00  0.00     0.000 C 
BRANCH   2   3
ATOM      3  C   UNL     1     -17.074 -14.712  -1.468  1.00  0.00     0.000 C 
BRANCH   3   4
ATOM      4  C   UNL     1     -18.099 -14.803  -0.322  1.00  0.00     0.000 C 
BRANCH   4   5
ATOM      5  C   UNL     1     -17.545 -15.526   0.919  1.00  0.00     0.000 C 
BRANCH   5   6
ATOM      6  C   UNL     1     -18.421 -16.712   1.350  1.00  0.00     0.006 C 
BRANCH   6   7
ATOM      7  C   UNL     1     -17.746 -17.585   2.416  1.00  0.00     0.053 C 
BRANCH   7   8
ATOM      8  C   UNL     1     -17.810 -19.028   2.025  1.00  0.00     0.041 C 
ATOM      9  O   UNL     1     -18.910 -19.642   2.044  1.00  0.00    -0.550 OA
ATOM     10  O   UNL     1     -16.664 -19.684   1.595  1.00  0.00    -0.550 OA
ENDBRANCH   7   8
ENDBRANCH   6   7
ENDBRANCH   5   6
ENDBRANCH   4   5
ENDBRANCH   3   4
ENDBRANCH   2   3
ENDBRANCH   1   2
BRANCH   1  11
ATOM     11  C   UNL     1     -16.483 -11.703  -2.739  1.00  0.00     0.000 C 
BRANCH  11  12
ATOM     12  C   UNL     1     -16.124 -10.857  -1.507  1.00  0.00     0.000 C 
BRANCH  12  13
ATOM     13  C   UNL     1     -17.056 -11.180  -0.329  1.00  0.00     0.000 C 
BRANCH  13  14
ATOM     14  C   UNL     1     -16.303 -11.820   0.858  1.00  0.00     0.000 C 
BRANCH  14  15
ATOM     15  C   UNL     1     -14.824 -12.133   0.561  1.00  0.00     0.000 C 
BRANCH  15  16
ATOM     16  C   UNL     1     -14.351 -13.527   1.012  1.00  0.00     0.006 C 
BRANCH  16  17
ATOM     17  C   UNL     1     -12.845 -13.619   1.305  1.00  0.00     0.053 C 
BRANCH  17  18
ATOM     18  C   UNL     1     -12.567 -13.777   2.768  1.00  0.00     0.041 C 
ATOM     19  O   UNL     1     -11.388 -13.964   3.173  1.00  0.00    -0.550 OA
ATOM     20  O   UNL     1     -13.604 -13.682   3.688  1.00  0.00    -0.550 OA
ENDBRANCH  17  18
ENDBRANCH  16  17
ENDBRANCH  15  16
ENDBRANCH  14  15
ENDBRANCH  13  14
ENDBRANCH  12  13
ENDBRANCH  11  12
ENDBRANCH   1  11
TORSDOF 15
ENDMDL
MODEL 8
REMARK VINA RESULT:    -3.385      6.210      9.773
REMARK INTER + INTRA:          -8.314
REMARK INTER:                  -6.367
REMARK INTRA:                  -1.948
REMARK UNBOUND:                -1.961
REMARK SMILES O=C([O-])CCCCCCCCCCCCCCC(=O)[O-]
REMARK SMILES IDX 10 1 9 2 8 3 7 4 6 5 5 6 4 7 2 8 1 9 3 10 11 11 12 12 13 13
REMARK SMILES IDX 14 14 15 15 16 16 17 17 18 18 19 19 20 20
REMARK H PARENT
REMARK Flexibility Score: inf
ROOT
ATOM      1  C   UNL     1     -16.732 -12.516   1.346  1.00  0.00     0.000 C 
ENDROOT
BRANCH   1   2
ATOM      2  C   UNL     1     -16.132 -13.918   1.137  1.00  0.00     0.000 C 
BRANCH   2   3
ATOM      3  C   UNL     1     -17.198 -14.987   0.834  1.00  0.00     0.000 C 
BRANCH   3   4
ATOM      4  C   UNL     1     -17.941 -14.805  -0.503  1.00  0.00     0.000 C 
BRANCH   4   5
ATOM      5  C   UNL     1     -16.989 -14.702  -1.707  1.00  0.00     0.000 C 
BRANCH   5   6
ATOM      6  C   UNL     1     -17.434 -13.637  -2.721  1.00  0.00     0.006 C 
BRANCH   6   7
ATOM      7  C   UNL     1     -18.760 -12.972  -2.333  1.00  0.00     0.053 C 
BRANCH   7   8
ATOM      8  C   UNL     1     -19.764 -13.128  -3.431  1.00  0.00     0.041 C 
ATOM      9  O   UNL     1     -19.522 -12.675  -4.581  1.00  0.00    -0.550 OA
ATOM     10  O   UNL     1     -20.948 -13.817  -3.199  1.00  0.00    -0.550 OA
ENDBRANCH   7   8
ENDBRANCH   6   7
ENDBRANCH   5   6
ENDBRANCH   4   5
ENDBRANCH   3   4
ENDBRANCH   2   3
ENDBRANCH   1   2
BRANCH   1  11
ATOM     11  C   UNL     1     -15.767 -11.394   0.929  1.00  0.00     0.000 C 
BRANCH  11  12
ATOM     12  C   UNL     1     -14.576 -11.910   0.105  1.00  0.00     0.000 C 
BRANCH  12  13
ATOM     13  C   UNL     1     -13.333 -11.035   0.330  1.00  0.00     0.000 C 
BRANCH  13  14
ATOM     14  C   UNL     1     -12.097 -11.864   0.742  1.00  0.00     0.000 C 
BRANCH  14  15
ATOM     15  C   UNL     1     -12.385 -13.368   0.910  1.00  0.00     0.000 C 
BRANCH  15  16
ATOM     16  C   UNL     1     -12.170 -13.916   2.333  1.00  0.00     0.006 C 
BRANCH  16  17
ATOM     17  C   UNL     1     -13.260 -13.511   3.338  1.00  0.00     0.053 C 
BRANCH  17  18
ATOM     18  C   UNL     1     -12.755 -12.530   4.350  1.00  0.00     0.041 C 
ATOM     19  O   UNL     1     -12.876 -11.292   4.149  1.00  0.00    -0.550 OA
ATOM     20  O   UNL     1     -12.180 -12.982   5.531  1.00  0.00    -0.550 OA
ENDBRANCH  17  18
ENDBRANCH  16  17
ENDBRANCH  15  16
ENDBRANCH  14  15
ENDBRANCH  13  14
ENDBRANCH  12  13
ENDBRANCH  11  12
ENDBRANCH   1  11
TORSDOF 15
ENDMDL
MODEL 9
REMARK VINA RESULT:    -3.383      2.659      4.210
REMARK INTER + INTRA:          -8.310
REMARK INTER:                  -6.647
REMARK INTRA:                  -1.663
REMARK UNBOUND:                -1.961
REMARK SMILES O=C([O-])CCCCCCCCCCCCCCC(=O)[O-]
REMARK SMILES IDX 10 1 9 2 8 3 7 4 6 5 5 6 4 7 2 8 1 9 3 10 11 11 12 12 13 13
REMARK SMILES IDX 14 14 15 15 16 16 17 17 18 18 19 19 20 20
REMARK H PARENT
REMARK Flexibility Score: inf
ROOT
ATOM      1  C   UNL     1     -19.129 -17.069   2.411  1.00  0.00     0.000 C 
ENDROOT
BRANCH   1   2
ATOM      2  C   UNL     1     -17.877 -17.703   1.779  1.00  0.00     0.000 C 
BRANCH   2   3
ATOM      3  C   UNL     1     -17.857 -19.238   1.899  1.00  0.00     0.000 C 
BRANCH   3   4
ATOM      4  C   UNL     1     -16.485 -19.893   1.656  1.00  0.00     0.000 C 
BRANCH   4   5
ATOM      5  C   UNL     1     -15.747 -20.239   2.961  1.00  0.00     0.000 C 
BRANCH   5   6
ATOM      6  C   UNL     1     -16.679 -20.240   4.183  1.00  0.00     0.006 C 
BRANCH   6   7
ATOM      7  C   UNL     1     -15.976 -19.765   5.460  1.00  0.00     0.053 C 
BRANCH   7   8
ATOM      8  C   UNL     1     -15.592 -18.324   5.341  1.00  0.00     0.041 C 
ATOM      9  O   UNL     1     -14.378 -17.993   5.306  1.00  0.00    -0.550 OA
ATOM     10  O   UNL     1     -16.574 -17.350   5.220  1.00  0.00    -0.550 OA
ENDBRANCH   7   8
ENDBRANCH   6   7
ENDBRANCH   5   6
ENDBRANCH   4   5
ENDBRANCH   3   4
ENDBRANCH   2   3
ENDBRANCH   1   2
BRANCH   1  11
ATOM     11  C   UNL     1     -19.974 -18.087   3.193  1.00  0.00     0.000 C 
BRANCH  11  12
ATOM     12  C   UNL     1     -21.425 -18.165   2.692  1.00  0.00     0.000 C 
BRANCH  12  13
ATOM     13  C   UNL     1     -21.588 -17.413   1.362  1.00  0.00     0.000 C 
BRANCH  13  14
ATOM     14  C   UNL     1     -22.049 -18.339   0.216  1.00  0.00     0.000 C 
BRANCH  14  15
ATOM     15  C   UNL     1     -21.115 -19.539  -0.029  1.00  0.00     0.000 C 
BRANCH  15  16
ATOM     16  C   UNL     1     -21.497 -20.427  -1.228  1.00  0.00     0.006 C 
BRANCH  16  17
ATOM     17  C   UNL     1     -22.071 -21.799  -0.842  1.00  0.00     0.053 C 
BRANCH  17  18
ATOM     18  C   UNL     1     -23.315 -21.675  -0.017  1.00  0.00     0.041 C 
ATOM     19  O   UNL     1     -23.347 -22.135   1.156  1.00  0.00    -0.550 OA
ATOM     20  O   UNL     1     -24.428 -21.021  -0.530  1.00  0.00    -0.550 OA
ENDBRANCH  17  18
ENDBRANCH  16  17
ENDBRANCH  15  16
ENDBRANCH  14  15
ENDBRANCH  13  14
ENDBRANCH  12  13
ENDBRANCH  11  12
ENDBRANCH   1  11
TORSDOF 15
ENDMDL
