MODEL 1
REMARK VINA RESULT:    -4.020      0.000      0.000
REMARK INTER + INTRA:          -4.762
REMARK INTER:                  -4.725
REMARK INTRA:                  -0.037
REMARK UNBOUND:                -0.037
REMARK SMILES O=C([O-])CCC(=O)[O-]
REMARK SMILES IDX 4 1 2 2 1 3 3 4 5 5 6 6 7 7 8 8
REMARK H PARENT
REMARK Flexibility Score: inf
ROOT
ATOM      1  C   UNL     1       5.446 -35.795  24.296  1.00  0.00     0.059 C 
ENDROOT
BRANCH   1   2
ATOM      2  C   UNL     1       4.794 -37.096  24.644  1.00  0.00     0.042 C 
ATOM      3  O   UNL     1       4.651 -37.988  23.767  1.00  0.00    -0.550 OA
ATOM      4  O   UNL     1       4.302 -37.306  25.926  1.00  0.00    -0.550 OA
ENDBRANCH   1   2
BRANCH   1   5
ATOM      5  C   UNL     1       5.193 -35.447  22.829  1.00  0.00     0.059 C 
BRANCH   5   6
ATOM      6  C   UNL     1       4.910 -33.985  22.679  1.00  0.00     0.042 C 
ATOM      7  O   UNL     1       5.651 -33.135  23.240  1.00  0.00    -0.550 OA
ATOM      8  O   UNL     1       3.856 -33.560  21.881  1.00  0.00    -0.550 OA
ENDBRANCH   5   6
ENDBRANCH   1   5
TORSDOF 3
ENDMDL
MODEL 2
REMARK VINA RESULT:    -4.005      0.082      1.148
REMARK INTER + INTRA:          -4.745
REMARK INTER:                  -4.711
REMARK INTRA:                  -0.034
REMARK UNBOUND:                -0.037
REMARK SMILES O=C([O-])CCC(=O)[O-]
REMARK SMILES IDX 4 1 2 2 1 3 3 4 5 5 6 6 7 7 8 8
REMARK H PARENT
REMARK Flexibility Score: inf
ROOT
ATOM      1  C   UNL     1       5.439 -35.792  24.375  1.00  0.00     0.059 C 
ENDROOT
BRANCH   1   2
ATOM      2  C   UNL     1       4.765 -37.091  24.688  1.00  0.00     0.042 C 
ATOM      3  O   UNL     1       4.301 -37.303  25.840  1.00  0.00    -0.550 OA
ATOM      4  O   UNL     1       4.691 -38.086  23.723  1.00  0.00    -0.550 OA
ENDBRANCH   1   2
BRANCH   1   5
ATOM      5  C   UNL     1       5.262 -35.441  22.898  1.00  0.00     0.059 C 
BRANCH   5   6
ATOM      6  C   UNL     1       4.952 -33.985  22.740  1.00  0.00     0.042 C 
ATOM      7  O   UNL     1       5.683 -33.119  23.289  1.00  0.00    -0.550 OA
ATOM      8  O   UNL     1       3.885 -33.583  21.948  1.00  0.00    -0.550 OA
ENDBRANCH   5   6
ENDBRANCH   1   5
TORSDOF 3
ENDMDL
MODEL 3
REMARK VINA RESULT:    -3.983      0.540      4.179
REMARK INTER + INTRA:          -4.719
REMARK INTER:                  -4.672
REMARK INTRA:                  -0.047
REMARK UNBOUND:                -0.037
REMARK SMILES O=C([O-])CCC(=O)[O-]
REMARK SMILES IDX 4 1 2 2 1 3 3 4 5 5 6 6 7 7 8 8
REMARK H PARENT
REMARK Flexibility Score: inf
ROOT
ATOM      1  C   UNL     1       5.009 -35.424  22.231  1.00  0.00     0.059 C 
ENDROOT
BRANCH   1   2
ATOM      2  C   UNL     1       4.642 -33.975  22.301  1.00  0.00     0.042 C 
ATOM      3  O   UNL     1       5.338 -33.177  22.982  1.00  0.00    -0.550 OA
ATOM      4  O   UNL     1       3.503 -33.515  21.653  1.00  0.00    -0.550 OA
ENDBRANCH   1   2
BRANCH   1   5
ATOM      5  C   UNL     1       5.668 -35.872  23.536  1.00  0.00     0.059 C 
BRANCH   5   6
ATOM      6  C   UNL     1       4.912 -37.015  24.137  1.00  0.00     0.042 C 
ATOM      7  O   UNL     1       4.646 -38.033  23.445  1.00  0.00    -0.550 OA
ATOM      8  O   UNL     1       4.544 -36.978  25.476  1.00  0.00    -0.550 OA
ENDBRANCH   5   6
ENDBRANCH   1   5
TORSDOF 3
ENDMDL
MODEL 4
REMARK VINA RESULT:    -3.905      1.383      1.704
REMARK INTER + INTRA:          -4.627
REMARK INTER:                  -4.506
REMARK INTRA:                  -0.121
REMARK UNBOUND:                -0.037
REMARK SMILES O=C([O-])CCC(=O)[O-]
REMARK SMILES IDX 4 1 2 2 1 3 3 4 5 5 6 6 7 7 8 8
REMARK H PARENT
REMARK Flexibility Score: inf
ROOT
ATOM      1  C   UNL     1       5.964 -35.241  23.054  1.00  0.00     0.059 C 
ENDROOT
BRANCH   1   2
ATOM      2  C   UNL     1       5.166 -36.357  23.652  1.00  0.00     0.042 C 
ATOM      3  O   UNL     1       4.694 -37.263  22.917  1.00  0.00    -0.550 OA
ATOM      4  O   UNL     1       4.903 -36.369  25.016  1.00  0.00    -0.550 OA
ENDBRANCH   1   2
BRANCH   1   5
ATOM      5  C   UNL     1       5.113 -33.975  22.942  1.00  0.00     0.059 C 
BRANCH   5   6
ATOM      6  C   UNL     1       4.499 -33.876  21.581  1.00  0.00     0.042 C 
ATOM      7  O   UNL     1       3.456 -33.195  21.404  1.00  0.00    -0.550 OA
ATOM      8  O   UNL     1       5.108 -34.498  20.498  1.00  0.00    -0.550 OA
ENDBRANCH   5   6
ENDBRANCH   1   5
TORSDOF 3
ENDMDL
MODEL 5
REMARK VINA RESULT:    -3.903      2.730      4.205
REMARK INTER + INTRA:          -4.624
REMARK INTER:                  -4.506
REMARK INTRA:                  -0.119
REMARK UNBOUND:                -0.037
REMARK SMILES O=C([O-])CCC(=O)[O-]
REMARK SMILES IDX 4 1 2 2 1 3 3 4 5 5 6 6 7 7 8 8
REMARK H PARENT
REMARK Flexibility Score: inf
ROOT
ATOM      1  C   UNL     1       5.789 -34.980  21.587  1.00  0.00     0.059 C 
ENDROOT
BRANCH   1   2
ATOM      2  C   UNL     1       5.017 -33.871  22.232  1.00  0.00     0.042 C 
ATOM      3  O   UNL     1       5.484 -33.276  23.238  1.00  0.00    -0.550 OA
ATOM      4  O   UNL     1       3.761 -33.528  21.750  1.00  0.00    -0.550 OA
ENDBRANCH   1   2
BRANCH   1   5
ATOM      5  C   UNL     1       5.009 -36.292  21.670  1.00  0.00     0.059 C 
BRANCH   5   6
ATOM      6  C   UNL     1       4.703 -36.806  20.298  1.00  0.00     0.042 C 
ATOM      7  O   UNL     1       5.249 -37.861  19.880  1.00  0.00    -0.550 OA
ATOM      8  O   UNL     1       3.780 -36.145  19.499  1.00  0.00    -0.550 OA
ENDBRANCH   5   6
ENDBRANCH   1   5
TORSDOF 3
ENDMDL
MODEL 6
REMARK VINA RESULT:    -3.851      2.717      3.320
REMARK INTER + INTRA:          -4.563
REMARK INTER:                  -4.450
REMARK INTRA:                  -0.113
REMARK UNBOUND:                -0.037
REMARK SMILES O=C([O-])CCC(=O)[O-]
REMARK SMILES IDX 4 1 2 2 1 3 3 4 5 5 6 6 7 7 8 8
REMARK H PARENT
REMARK Flexibility Score: inf
ROOT
ATOM      1  C   UNL     1       4.991 -36.383  21.639  1.00  0.00     0.059 C 
ENDROOT
BRANCH   1   2
ATOM      2  C   UNL     1       4.723 -36.963  20.286  1.00  0.00     0.042 C 
ATOM      3  O   UNL     1       5.309 -38.015  19.919  1.00  0.00    -0.550 OA
ATOM      4  O   UNL     1       3.861 -36.314  19.411  1.00  0.00    -0.550 OA
ENDBRANCH   1   2
BRANCH   1   5
ATOM      5  C   UNL     1       5.723 -35.047  21.513  1.00  0.00     0.059 C 
BRANCH   5   6
ATOM      6  C   UNL     1       4.927 -33.952  22.152  1.00  0.00     0.042 C 
ATOM      7  O   UNL     1       5.349 -33.388  23.195  1.00  0.00    -0.550 OA
ATOM      8  O   UNL     1       3.742 -33.523  21.568  1.00  0.00    -0.550 OA
ENDBRANCH   5   6
ENDBRANCH   1   5
TORSDOF 3
ENDMDL
MODEL 7
REMARK VINA RESULT:    -3.782      1.812      4.234
REMARK INTER + INTRA:          -4.482
REMARK INTER:                  -4.432
REMARK INTRA:                  -0.050
REMARK UNBOUND:                -0.037
REMARK SMILES O=C([O-])CCC(=O)[O-]
REMARK SMILES IDX 4 1 2 2 1 3 3 4 5 5 6 6 7 7 8 8
REMARK H PARENT
REMARK Flexibility Score: inf
ROOT
ATOM      1  C   UNL     1       5.476 -35.448  21.812  1.00  0.00     0.059 C 
ENDROOT
BRANCH   1   2
ATOM      2  C   UNL     1       4.844 -34.157  22.228  1.00  0.00     0.042 C 
ATOM      3  O   UNL     1       3.826 -33.726  21.626  1.00  0.00    -0.550 OA
ATOM      4  O   UNL     1       5.408 -33.406  23.252  1.00  0.00    -0.550 OA
ENDBRANCH   1   2
BRANCH   1   5
ATOM      5  C   UNL     1       4.994 -36.592  22.704  1.00  0.00     0.059 C 
BRANCH   5   6
ATOM      6  C   UNL     1       4.722 -37.815  21.886  1.00  0.00     0.042 C 
ATOM      7  O   UNL     1       4.957 -37.815  20.649  1.00  0.00    -0.550 OA
ATOM      8  O   UNL     1       4.254 -38.970  22.498  1.00  0.00    -0.550 OA
ENDBRANCH   5   6
ENDBRANCH   1   5
TORSDOF 3
ENDMDL
MODEL 8
REMARK VINA RESULT:    -3.770      2.410      4.260
REMARK INTER + INTRA:          -4.468
REMARK INTER:                  -4.408
REMARK INTRA:                  -0.060
REMARK UNBOUND:                -0.037
REMARK SMILES O=C([O-])CCC(=O)[O-]
REMARK SMILES IDX 4 1 2 2 1 3 3 4 5 5 6 6 7 7 8 8
REMARK H PARENT
REMARK Flexibility Score: inf
ROOT
ATOM      1  C   UNL     1       5.920 -34.844  20.813  1.00  0.00     0.059 C 
ENDROOT
BRANCH   1   2
ATOM      2  C   UNL     1       5.060 -34.833  19.588  1.00  0.00     0.042 C 
ATOM      3  O   UNL     1       5.229 -33.953  18.703  1.00  0.00    -0.550 OA
ATOM      4  O   UNL     1       4.042 -35.766  19.445  1.00  0.00    -0.550 OA
ENDBRANCH   1   2
BRANCH   1   5
ATOM      5  C   UNL     1       5.196 -35.538  21.967  1.00  0.00     0.059 C 
BRANCH   5   6
ATOM      6  C   UNL     1       5.331 -34.739  23.225  1.00  0.00     0.042 C 
ATOM      7  O   UNL     1       5.306 -33.481  23.183  1.00  0.00    -0.550 OA
ATOM      8  O   UNL     1       5.438 -35.385  24.450  1.00  0.00    -0.550 OA
ENDBRANCH   5   6
ENDBRANCH   1   5
TORSDOF 3
ENDMDL
MODEL 9
REMARK VINA RESULT:    -3.674      4.212      5.299
REMARK INTER + INTRA:          -4.356
REMARK INTER:                  -4.320
REMARK INTRA:                  -0.036
REMARK UNBOUND:                -0.037
REMARK SMILES O=C([O-])CCC(=O)[O-]
REMARK SMILES IDX 4 1 2 2 1 3 3 4 5 5 6 6 7 7 8 8
REMARK H PARENT
REMARK Flexibility Score: inf
ROOT
ATOM      1  C   UNL     1       3.973 -37.249  19.182  1.00  0.00     0.059 C 
ENDROOT
BRANCH   1   2
ATOM      2  C   UNL     1       2.776 -37.239  18.284  1.00  0.00     0.042 C 
ATOM      3  O   UNL     1       2.863 -36.775  17.117  1.00  0.00    -0.550 OA
ATOM      4  O   UNL     1       1.552 -37.699  18.752  1.00  0.00    -0.550 OA
ENDBRANCH   1   2
BRANCH   1   5
ATOM      5  C   UNL     1       4.270 -35.839  19.692  1.00  0.00     0.059 C 
BRANCH   5   6
ATOM      6  C   UNL     1       5.134 -35.895  20.912  1.00  0.00     0.042 C 
ATOM      7  O   UNL     1       4.996 -36.829  21.744  1.00  0.00    -0.550 OA
ATOM      8  O   UNL     1       6.125 -34.941  21.106  1.00  0.00    -0.550 OA
ENDBRANCH   5   6
ENDBRANCH   1   5
TORSDOF 3
ENDMDL
