MODEL 1
REMARK VINA RESULT:    -4.722      0.000      0.000
REMARK INTER + INTRA:          -7.964
REMARK INTER:                  -7.206
REMARK INTRA:                  -0.758
REMARK UNBOUND:                -0.758
REMARK SMILES O=C([O-])CCCCCCCCC(=O)[O-]
REMARK SMILES IDX 7 1 6 2 5 3 4 4 2 5 1 6 3 7 8 8 9 9 10 10 11 11 12 12 13 13
REMARK SMILES IDX 14 14
REMARK H PARENT
REMARK Flexibility Score: inf
ROOT
ATOM      1  C   UNL     1      11.428   0.704  33.741  1.00  0.00     0.000 C 
ENDROOT
BRANCH   1   2
ATOM      2  C   UNL     1      10.307  -0.355  33.758  1.00  0.00     0.000 C 
BRANCH   2   3
ATOM      3  C   UNL     1       8.877   0.213  33.707  1.00  0.00     0.006 C 
BRANCH   3   4
ATOM      4  C   UNL     1       8.735   1.537  34.466  1.00  0.00     0.053 C 
BRANCH   4   5
ATOM      5  C   UNL     1       8.379   1.283  35.896  1.00  0.00     0.041 C 
ATOM      6  O   UNL     1       9.241   1.434  36.801  1.00  0.00    -0.550 OA
ATOM      7  O   UNL     1       7.107   0.831  36.226  1.00  0.00    -0.550 OA
ENDBRANCH   4   5
ENDBRANCH   3   4
ENDBRANCH   2   3
ENDBRANCH   1   2
BRANCH   1   8
ATOM      8  C   UNL     1      12.607   0.426  34.694  1.00  0.00     0.000 C 
BRANCH   8   9
ATOM      9  C   UNL     1      12.612   1.265  35.986  1.00  0.00     0.000 C 
BRANCH   9  10
ATOM     10  C   UNL     1      13.347   2.603  35.823  1.00  0.00     0.006 C 
BRANCH  10  11
ATOM     11  C   UNL     1      12.365   3.728  35.480  1.00  0.00     0.053 C 
BRANCH  11  12
ATOM     12  C   UNL     1      12.573   4.193  34.073  1.00  0.00     0.041 C 
ATOM     13  O   UNL     1      11.854   5.111  33.596  1.00  0.00    -0.550 OA
ATOM     14  O   UNL     1      13.527   3.580  33.272  1.00  0.00    -0.550 OA
ENDBRANCH  11  12
ENDBRANCH  10  11
ENDBRANCH   9  10
ENDBRANCH   8   9
ENDBRANCH   1   8
TORSDOF 9
ENDMDL
MODEL 2
REMARK VINA RESULT:    -4.604      1.588      2.534
REMARK INTER + INTRA:          -7.784
REMARK INTER:                  -7.041
REMARK INTRA:                  -0.744
REMARK UNBOUND:                -0.758
REMARK SMILES O=C([O-])CCCCCCCCC(=O)[O-]
REMARK SMILES IDX 7 1 6 2 5 3 4 4 2 5 1 6 3 7 8 8 9 9 10 10 11 11 12 12 13 13
REMARK SMILES IDX 14 14
REMARK H PARENT
REMARK Flexibility Score: inf
ROOT
ATOM      1  C   UNL     1       9.534   1.849  34.118  1.00  0.00     0.000 C 
ENDROOT
BRANCH   1   2
ATOM      2  C   UNL     1       9.528   1.838  35.660  1.00  0.00     0.000 C 
BRANCH   2   3
ATOM      3  C   UNL     1       8.335   1.107  36.300  1.00  0.00     0.006 C 
BRANCH   3   4
ATOM      4  C   UNL     1       7.767  -0.001  35.404  1.00  0.00     0.053 C 
BRANCH   4   5
ATOM      5  C   UNL     1       6.495  -0.537  35.981  1.00  0.00     0.041 C 
ATOM      6  O   UNL     1       5.608   0.251  36.403  1.00  0.00    -0.550 OA
ATOM      7  O   UNL     1       6.309  -1.909  36.098  1.00  0.00    -0.550 OA
ENDBRANCH   4   5
ENDBRANCH   3   4
ENDBRANCH   2   3
ENDBRANCH   1   2
BRANCH   1   8
ATOM      8  C   UNL     1      10.727   1.124  33.462  1.00  0.00     0.000 C 
BRANCH   8   9
ATOM      9  C   UNL     1      11.667   0.400  34.443  1.00  0.00     0.000 C 
BRANCH   9  10
ATOM     10  C   UNL     1      13.059   1.045  34.519  1.00  0.00     0.006 C 
BRANCH  10  11
ATOM     11  C   UNL     1      13.170   1.964  35.740  1.00  0.00     0.053 C 
BRANCH  11  12
ATOM     12  C   UNL     1      12.996   3.394  35.335  1.00  0.00     0.041 C 
ATOM     13  O   UNL     1      13.078   3.723  34.122  1.00  0.00    -0.550 OA
ATOM     14  O   UNL     1      12.792   4.370  36.300  1.00  0.00    -0.550 OA
ENDBRANCH  11  12
ENDBRANCH  10  11
ENDBRANCH   9  10
ENDBRANCH   8   9
ENDBRANCH   1   8
TORSDOF 9
ENDMDL
MODEL 3
REMARK VINA RESULT:    -4.577      4.939      8.853
REMARK INTER + INTRA:          -7.743
REMARK INTER:                  -7.392
REMARK INTRA:                  -0.351
REMARK UNBOUND:                -0.758
REMARK SMILES O=C([O-])CCCCCCCCC(=O)[O-]
REMARK SMILES IDX 7 1 6 2 5 3 4 4 2 5 1 6 3 7 8 8 9 9 10 10 11 11 12 12 13 13
REMARK SMILES IDX 14 14
REMARK H PARENT
REMARK Flexibility Score: inf
ROOT
ATOM      1  C   UNL     1       5.331  -0.984  36.432  1.00  0.00     0.000 C 
ENDROOT
BRANCH   1   2
ATOM      2  C   UNL     1       6.770  -0.867  35.890  1.00  0.00     0.000 C 
BRANCH   2   3
ATOM      3  C   UNL     1       7.378   0.544  35.962  1.00  0.00     0.006 C 
BRANCH   3   4
ATOM      4  C   UNL     1       8.911   0.529  35.998  1.00  0.00     0.053 C 
BRANCH   4   5
ATOM      5  C   UNL     1       9.460   1.752  35.334  1.00  0.00     0.041 C 
ATOM      6  O   UNL     1       8.989   2.142  34.233  1.00  0.00    -0.550 OA
ATOM      7  O   UNL     1      10.525   2.436  35.907  1.00  0.00    -0.550 OA
ENDBRANCH   4   5
ENDBRANCH   3   4
ENDBRANCH   2   3
ENDBRANCH   1   2
BRANCH   1   8
ATOM      8  C   UNL     1       4.607   0.358  36.663  1.00  0.00     0.000 C 
BRANCH   8   9
ATOM      9  C   UNL     1       3.363   0.278  37.568  1.00  0.00     0.000 C 
BRANCH   9  10
ATOM     10  C   UNL     1       3.146  -1.123  38.159  1.00  0.00     0.006 C 
BRANCH  10  11
ATOM     11  C   UNL     1       2.673  -1.036  39.614  1.00  0.00     0.053 C 
BRANCH  11  12
ATOM     12  C   UNL     1       2.721  -2.384  40.261  1.00  0.00     0.041 C 
ATOM     13  O   UNL     1       2.312  -2.533  41.443  1.00  0.00    -0.550 OA
ATOM     14  O   UNL     1       3.261  -3.465  39.578  1.00  0.00    -0.550 OA
ENDBRANCH  11  12
ENDBRANCH  10  11
ENDBRANCH   9  10
ENDBRANCH   8   9
ENDBRANCH   1   8
TORSDOF 9
ENDMDL
MODEL 4
REMARK VINA RESULT:    -4.565      4.690      6.391
REMARK INTER + INTRA:          -7.724
REMARK INTER:                  -7.377
REMARK INTRA:                  -0.347
REMARK UNBOUND:                -0.758
REMARK SMILES O=C([O-])CCCCCCCCC(=O)[O-]
REMARK SMILES IDX 7 1 6 2 5 3 4 4 2 5 1 6 3 7 8 8 9 9 10 10 11 11 12 12 13 13
REMARK SMILES IDX 14 14
REMARK H PARENT
REMARK Flexibility Score: inf
ROOT
ATOM      1  C   UNL     1       4.815   0.391  36.384  1.00  0.00     0.000 C 
ENDROOT
BRANCH   1   2
ATOM      2  C   UNL     1       4.203  -0.629  37.365  1.00  0.00     0.000 C 
BRANCH   2   3
ATOM      3  C   UNL     1       3.091  -0.072  38.272  1.00  0.00     0.006 C 
BRANCH   3   4
ATOM      4  C   UNL     1       2.146  -1.162  38.791  1.00  0.00     0.053 C 
BRANCH   4   5
ATOM      5  C   UNL     1       2.654  -1.721  40.083  1.00  0.00     0.041 C 
ATOM      6  O   UNL     1       3.228  -2.841  40.107  1.00  0.00    -0.550 OA
ATOM      7  O   UNL     1       2.450  -1.027  41.269  1.00  0.00    -0.550 OA
ENDBRANCH   4   5
ENDBRANCH   3   4
ENDBRANCH   2   3
ENDBRANCH   1   2
BRANCH   1   8
ATOM      8  C   UNL     1       6.354   0.487  36.414  1.00  0.00     0.000 C 
BRANCH   8   9
ATOM      9  C   UNL     1       7.090  -0.661  35.699  1.00  0.00     0.000 C 
BRANCH   9  10
ATOM     10  C   UNL     1       8.514  -0.279  35.270  1.00  0.00     0.006 C 
BRANCH  10  11
ATOM     11  C   UNL     1       9.029   0.913  36.084  1.00  0.00     0.053 C 
BRANCH  11  12
ATOM     12  C   UNL     1       9.657   1.929  35.183  1.00  0.00     0.041 C 
ATOM     13  O   UNL     1       9.062   2.300  34.136  1.00  0.00    -0.550 OA
ATOM     14  O   UNL     1      10.918   2.430  35.472  1.00  0.00    -0.550 OA
ENDBRANCH  11  12
ENDBRANCH  10  11
ENDBRANCH   9  10
ENDBRANCH   8   9
ENDBRANCH   1   8
TORSDOF 9
ENDMDL
MODEL 5
REMARK VINA RESULT:    -4.560      1.888      5.092
REMARK INTER + INTRA:          -7.717
REMARK INTER:                  -7.131
REMARK INTRA:                  -0.586
REMARK UNBOUND:                -0.758
REMARK SMILES O=C([O-])CCCCCCCCC(=O)[O-]
REMARK SMILES IDX 7 1 6 2 5 3 4 4 2 5 1 6 3 7 8 8 9 9 10 10 11 11 12 12 13 13
REMARK SMILES IDX 14 14
REMARK H PARENT
REMARK Flexibility Score: inf
ROOT
ATOM      1  C   UNL     1      11.787   1.194  36.035  1.00  0.00     0.000 C 
ENDROOT
BRANCH   1   2
ATOM      2  C   UNL     1      13.145   1.774  35.591  1.00  0.00     0.000 C 
BRANCH   2   3
ATOM      3  C   UNL     1      13.283   2.019  34.078  1.00  0.00     0.006 C 
BRANCH   3   4
ATOM      4  C   UNL     1      13.416   3.505  33.725  1.00  0.00     0.053 C 
BRANCH   4   5
ATOM      5  C   UNL     1      12.137   4.019  33.143  1.00  0.00     0.041 C 
ATOM      6  O   UNL     1      11.231   3.216  32.795  1.00  0.00    -0.550 OA
ATOM      7  O   UNL     1      11.963   5.382  32.940  1.00  0.00    -0.550 OA
ENDBRANCH   4   5
ENDBRANCH   3   4
ENDBRANCH   2   3
ENDBRANCH   1   2
BRANCH   1   8
ATOM      8  C   UNL     1      10.629   2.210  36.100  1.00  0.00     0.000 C 
BRANCH   8   9
ATOM      9  C   UNL     1       9.402   1.746  36.906  1.00  0.00     0.000 C 
BRANCH   9  10
ATOM     10  C   UNL     1       8.440   0.880  36.079  1.00  0.00     0.006 C 
BRANCH  10  11
ATOM     11  C   UNL     1       8.633   1.127  34.579  1.00  0.00     0.053 C 
BRANCH  11  12
ATOM     12  C   UNL     1       9.012  -0.142  33.884  1.00  0.00     0.041 C 
ATOM     13  O   UNL     1      10.165  -0.277  33.396  1.00  0.00    -0.550 OA
ATOM     14  O   UNL     1       8.077  -1.157  33.732  1.00  0.00    -0.550 OA
ENDBRANCH  11  12
ENDBRANCH  10  11
ENDBRANCH   9  10
ENDBRANCH   8   9
ENDBRANCH   1   8
TORSDOF 9
ENDMDL
MODEL 6
REMARK VINA RESULT:    -4.540     17.521     19.012
REMARK INTER + INTRA:          -7.686
REMARK INTER:                  -6.910
REMARK INTRA:                  -0.776
REMARK UNBOUND:                -0.758
REMARK SMILES O=C([O-])CCCCCCCCC(=O)[O-]
REMARK SMILES IDX 7 1 6 2 5 3 4 4 2 5 1 6 3 7 8 8 9 9 10 10 11 11 12 12 13 13
REMARK SMILES IDX 14 14
REMARK H PARENT
REMARK Flexibility Score: inf
ROOT
ATOM      1  C   UNL     1      13.070 -11.344  46.542  1.00  0.00     0.000 C 
ENDROOT
BRANCH   1   2
ATOM      2  C   UNL     1      11.555 -11.625  46.516  1.00  0.00     0.000 C 
BRANCH   2   3
ATOM      3  C   UNL     1      10.667 -10.435  46.922  1.00  0.00     0.006 C 
BRANCH   3   4
ATOM      4  C   UNL     1       9.570 -10.825  47.920  1.00  0.00     0.053 C 
BRANCH   4   5
ATOM      5  C   UNL     1       8.218 -10.645  47.306  1.00  0.00     0.041 C 
ATOM      6  O   UNL     1       7.883  -9.531  46.825  1.00  0.00    -0.550 OA
ATOM      7  O   UNL     1       7.308 -11.695  47.309  1.00  0.00    -0.550 OA
ENDBRANCH   4   5
ENDBRANCH   3   4
ENDBRANCH   2   3
ENDBRANCH   1   2
BRANCH   1   8
ATOM      8  C   UNL     1      13.870 -12.158  47.579  1.00  0.00     0.000 C 
BRANCH   8   9
ATOM      9  C   UNL     1      13.170 -12.348  48.937  1.00  0.00     0.000 C 
BRANCH   9  10
ATOM     10  C   UNL     1      13.558 -11.272  49.962  1.00  0.00     0.006 C 
BRANCH  10  11
ATOM     11  C   UNL     1      12.584 -10.090  49.909  1.00  0.00     0.053 C 
BRANCH  11  12
ATOM     12  C   UNL     1      11.666 -10.115  51.090  1.00  0.00     0.041 C 
ATOM     13  O   UNL     1      11.778  -9.248  51.997  1.00  0.00    -0.550 OA
ATOM     14  O   UNL     1      10.720 -11.123  51.215  1.00  0.00    -0.550 OA
ENDBRANCH  11  12
ENDBRANCH  10  11
ENDBRANCH   9  10
ENDBRANCH   8   9
ENDBRANCH   1   8
TORSDOF 9
ENDMDL
MODEL 7
REMARK VINA RESULT:    -4.505      3.997      7.912
REMARK INTER + INTRA:          -7.633
REMARK INTER:                  -7.305
REMARK INTRA:                  -0.328
REMARK UNBOUND:                -0.758
REMARK SMILES O=C([O-])CCCCCCCCC(=O)[O-]
REMARK SMILES IDX 7 1 6 2 5 3 4 4 2 5 1 6 3 7 8 8 9 9 10 10 11 11 12 12 13 13
REMARK SMILES IDX 14 14
REMARK H PARENT
REMARK Flexibility Score: inf
ROOT
ATOM      1  C   UNL     1       7.933  -0.258  35.265  1.00  0.00     0.000 C 
ENDROOT
BRANCH   1   2
ATOM      2  C   UNL     1       8.304   1.133  35.816  1.00  0.00     0.000 C 
BRANCH   2   3
ATOM      3  C   UNL     1       9.642   1.197  36.573  1.00  0.00     0.006 C 
BRANCH   3   4
ATOM      4  C   UNL     1      10.722   1.971  35.808  1.00  0.00     0.053 C 
BRANCH   4   5
ATOM      5  C   UNL     1      11.738   1.030  35.244  1.00  0.00     0.041 C 
ATOM      6  O   UNL     1      11.418   0.224  34.331  1.00  0.00    -0.550 OA
ATOM      7  O   UNL     1      13.028   1.008  35.760  1.00  0.00    -0.550 OA
ENDBRANCH   4   5
ENDBRANCH   3   4
ENDBRANCH   2   3
ENDBRANCH   1   2
BRANCH   1   8
ATOM      8  C   UNL     1       6.759  -0.956  35.982  1.00  0.00     0.000 C 
BRANCH   8   9
ATOM      9  C   UNL     1       5.580  -0.035  36.346  1.00  0.00     0.000 C 
BRANCH   9  10
ATOM     10  C   UNL     1       4.392  -0.799  36.949  1.00  0.00     0.006 C 
BRANCH  10  11
ATOM     11  C   UNL     1       3.508   0.135  37.782  1.00  0.00     0.053 C 
BRANCH  11  12
ATOM     12  C   UNL     1       2.491  -0.652  38.548  1.00  0.00     0.041 C 
ATOM     13  O   UNL     1       2.770  -1.104  39.690  1.00  0.00    -0.550 OA
ATOM     14  O   UNL     1       1.255  -0.929  37.981  1.00  0.00    -0.550 OA
ENDBRANCH  11  12
ENDBRANCH  10  11
ENDBRANCH   9  10
ENDBRANCH   8   9
ENDBRANCH   1   8
TORSDOF 9
ENDMDL
MODEL 8
REMARK VINA RESULT:    -4.485      1.623      2.526
REMARK INTER + INTRA:          -7.603
REMARK INTER:                  -7.002
REMARK INTRA:                  -0.601
REMARK UNBOUND:                -0.758
REMARK SMILES O=C([O-])CCCCCCCCC(=O)[O-]
REMARK SMILES IDX 7 1 6 2 5 3 4 4 2 5 1 6 3 7 8 8 9 9 10 10 11 11 12 12 13 13
REMARK SMILES IDX 14 14
REMARK H PARENT
REMARK Flexibility Score: inf
ROOT
ATOM      1  C   UNL     1      10.821   1.082  33.932  1.00  0.00     0.000 C 
ENDROOT
BRANCH   1   2
ATOM      2  C   UNL     1       9.851   0.007  33.401  1.00  0.00     0.000 C 
BRANCH   2   3
ATOM      3  C   UNL     1       8.375   0.217  33.784  1.00  0.00     0.006 C 
BRANCH   3   4
ATOM      4  C   UNL     1       8.017  -0.408  35.137  1.00  0.00     0.053 C 
BRANCH   4   5
ATOM      5  C   UNL     1       7.591   0.650  36.105  1.00  0.00     0.041 C 
ATOM      6  O   UNL     1       6.372   0.798  36.387  1.00  0.00    -0.550 OA
ATOM      7  O   UNL     1       8.534   1.507  36.659  1.00  0.00    -0.550 OA
ENDBRANCH   4   5
ENDBRANCH   3   4
ENDBRANCH   2   3
ENDBRANCH   1   2
BRANCH   1   8
ATOM      8  C   UNL     1      10.352   2.539  33.743  1.00  0.00     0.000 C 
BRANCH   8   9
ATOM      9  C   UNL     1      11.226   3.386  32.800  1.00  0.00     0.000 C 
BRANCH   9  10
ATOM     10  C   UNL     1      12.101   4.400  33.552  1.00  0.00     0.006 C 
BRANCH  10  11
ATOM     11  C   UNL     1      13.320   3.714  34.176  1.00  0.00     0.053 C 
BRANCH  11  12
ATOM     12  C   UNL     1      13.191   3.670  35.666  1.00  0.00     0.041 C 
ATOM     13  O   UNL     1      13.611   2.672  36.309  1.00  0.00    -0.550 OA
ATOM     14  O   UNL     1      12.563   4.709  36.340  1.00  0.00    -0.550 OA
ENDBRANCH  11  12
ENDBRANCH  10  11
ENDBRANCH   9  10
ENDBRANCH   8   9
ENDBRANCH   1   8
TORSDOF 9
ENDMDL
MODEL 9
REMARK VINA RESULT:    -4.425      4.126      5.637
REMARK INTER + INTRA:          -7.511
REMARK INTER:                  -7.202
REMARK INTRA:                  -0.309
REMARK UNBOUND:                -0.758
REMARK SMILES O=C([O-])CCCCCCCCC(=O)[O-]
REMARK SMILES IDX 7 1 6 2 5 3 4 4 2 5 1 6 3 7 8 8 9 9 10 10 11 11 12 12 13 13
REMARK SMILES IDX 14 14
REMARK H PARENT
REMARK Flexibility Score: inf
ROOT
ATOM      1  C   UNL     1       6.117   0.340  36.291  1.00  0.00     0.000 C 
ENDROOT
BRANCH   1   2
ATOM      2  C   UNL     1       4.849  -0.450  36.672  1.00  0.00     0.000 C 
BRANCH   2   3
ATOM      3  C   UNL     1       3.685   0.406  37.201  1.00  0.00     0.006 C 
BRANCH   3   4
ATOM      4  C   UNL     1       3.276   0.035  38.632  1.00  0.00     0.053 C 
BRANCH   4   5
ATOM      5  C   UNL     1       2.389  -1.169  38.624  1.00  0.00     0.041 C 
ATOM      6  O   UNL     1       1.202  -1.081  38.212  1.00  0.00    -0.550 OA
ATOM      7  O   UNL     1       2.857  -2.381  39.118  1.00  0.00    -0.550 OA
ENDBRANCH   4   5
ENDBRANCH   3   4
ENDBRANCH   2   3
ENDBRANCH   1   2
BRANCH   1   8
ATOM      8  C   UNL     1       7.293  -0.516  35.778  1.00  0.00     0.000 C 
BRANCH   8   9
ATOM      9  C   UNL     1       8.145   0.143  34.677  1.00  0.00     0.000 C 
BRANCH   9  10
ATOM     10  C   UNL     1       8.706   1.510  35.097  1.00  0.00     0.006 C 
BRANCH  10  11
ATOM     11  C   UNL     1       9.731   1.358  36.225  1.00  0.00     0.053 C 
BRANCH  11  12
ATOM     12  C   UNL     1      11.076   1.836  35.779  1.00  0.00     0.041 C 
ATOM     13  O   UNL     1      11.172   2.814  34.992  1.00  0.00    -0.550 OA
ATOM     14  O   UNL     1      12.223   1.171  36.192  1.00  0.00    -0.550 OA
ENDBRANCH  11  12
ENDBRANCH  10  11
ENDBRANCH   9  10
ENDBRANCH   8   9
ENDBRANCH   1   8
TORSDOF 9
ENDMDL
