MODEL 1
REMARK VINA RESULT:    -4.611      0.000      0.000
REMARK INTER + INTRA:          -9.919
REMARK INTER:                  -8.655
REMARK INTRA:                  -1.264
REMARK UNBOUND:                -1.264
REMARK SMILES O=C([O-])CCCCCCCCCCCCCCC(=O)[O-]
REMARK SMILES IDX 10 1 9 2 8 3 7 4 6 5 5 6 4 7 2 8 1 9 3 10 11 11 12 12 13 13
REMARK SMILES IDX 14 14 15 15 16 16 17 17 18 18 19 19 20 20
REMARK H PARENT
REMARK Flexibility Score: inf
ROOT
ATOM      1  C   UNL     1      47.587  -8.113 -55.458  1.00  0.00     0.000 C 
ENDROOT
BRANCH   1   2
ATOM      2  C   UNL     1      47.326  -8.313 -56.961  1.00  0.00     0.000 C 
BRANCH   2   3
ATOM      3  C   UNL     1      46.606  -9.633 -57.271  1.00  0.00     0.000 C 
BRANCH   3   4
ATOM      4  C   UNL     1      47.250 -10.341 -58.473  1.00  0.00     0.000 C 
BRANCH   4   5
ATOM      5  C   UNL     1      47.849 -11.708 -58.104  1.00  0.00     0.000 C 
BRANCH   5   6
ATOM      6  C   UNL     1      47.803 -11.988 -56.592  1.00  0.00     0.006 C 
BRANCH   6   7
ATOM      7  C   UNL     1      48.771 -13.104 -56.180  1.00  0.00     0.053 C 
BRANCH   7   8
ATOM      8  C   UNL     1      48.044 -14.350 -55.777  1.00  0.00     0.041 C 
ATOM      9  O   UNL     1      47.251 -14.333 -54.800  1.00  0.00    -0.550 OA
ATOM     10  O   UNL     1      48.264 -15.537 -56.465  1.00  0.00    -0.550 OA
ENDBRANCH   7   8
ENDBRANCH   6   7
ENDBRANCH   5   6
ENDBRANCH   4   5
ENDBRANCH   3   4
ENDBRANCH   2   3
ENDBRANCH   1   2
BRANCH   1  11
ATOM     11  C   UNL     1      48.939  -8.690 -54.984  1.00  0.00     0.000 C 
BRANCH  11  12
ATOM     12  C   UNL     1      49.685  -7.726 -54.045  1.00  0.00     0.000 C 
BRANCH  12  13
ATOM     13  C   UNL     1      49.348  -6.249 -54.313  1.00  0.00     0.000 C 
BRANCH  13  14
ATOM     14  C   UNL     1      50.560  -5.360 -54.648  1.00  0.00     0.000 C 
BRANCH  14  15
ATOM     15  C   UNL     1      51.631  -6.099 -55.467  1.00  0.00     0.000 C 
BRANCH  15  16
ATOM     16  C   UNL     1      51.403  -5.985 -56.986  1.00  0.00     0.006 C 
BRANCH  16  17
ATOM     17  C   UNL     1      52.697  -5.972 -57.816  1.00  0.00     0.053 C 
BRANCH  17  18
ATOM     18  C   UNL     1      53.200  -4.582 -58.054  1.00  0.00     0.041 C 
ATOM     19  O   UNL     1      54.370  -4.396 -58.479  1.00  0.00    -0.550 OA
ATOM     20  O   UNL     1      52.365  -3.492 -57.838  1.00  0.00    -0.550 OA
ENDBRANCH  17  18
ENDBRANCH  16  17
ENDBRANCH  15  16
ENDBRANCH  14  15
ENDBRANCH  13  14
ENDBRANCH  12  13
ENDBRANCH  11  12
ENDBRANCH   1  11
TORSDOF 15
ENDMDL
MODEL 2
REMARK VINA RESULT:    -4.603      2.487      3.951
REMARK INTER + INTRA:          -9.904
REMARK INTER:                  -8.253
REMARK INTRA:                  -1.651
REMARK UNBOUND:                -1.264
REMARK SMILES O=C([O-])CCCCCCCCCCCCCCC(=O)[O-]
REMARK SMILES IDX 10 1 9 2 8 3 7 4 6 5 5 6 4 7 2 8 1 9 3 10 11 11 12 12 13 13
REMARK SMILES IDX 14 14 15 15 16 16 17 17 18 18 19 19 20 20
REMARK H PARENT
REMARK Flexibility Score: inf
ROOT
ATOM      1  C   UNL     1      49.122  -7.757 -58.969  1.00  0.00     0.000 C 
ENDROOT
BRANCH   1   2
ATOM      2  C   UNL     1      47.849  -7.315 -58.227  1.00  0.00     0.000 C 
BRANCH   2   3
ATOM      3  C   UNL     1      47.211  -8.447 -57.409  1.00  0.00     0.000 C 
BRANCH   3   4
ATOM      4  C   UNL     1      47.885  -9.793 -57.713  1.00  0.00     0.000 C 
BRANCH   4   5
ATOM      5  C   UNL     1      47.929 -10.723 -56.491  1.00  0.00     0.000 C 
BRANCH   5   6
ATOM      6  C   UNL     1      47.759 -12.206 -56.866  1.00  0.00     0.006 C 
BRANCH   6   7
ATOM      7  C   UNL     1      48.695 -13.118 -56.063  1.00  0.00     0.053 C 
BRANCH   7   8
ATOM      8  C   UNL     1      48.045 -14.425 -55.727  1.00  0.00     0.041 C 
ATOM      9  O   UNL     1      47.186 -14.488 -54.809  1.00  0.00    -0.550 OA
ATOM     10  O   UNL     1      48.409 -15.578 -56.411  1.00  0.00    -0.550 OA
ENDBRANCH   7   8
ENDBRANCH   6   7
ENDBRANCH   5   6
ENDBRANCH   4   5
ENDBRANCH   3   4
ENDBRANCH   2   3
ENDBRANCH   1   2
BRANCH   1  11
ATOM     11  C   UNL     1      50.316  -6.798 -58.770  1.00  0.00     0.000 C 
BRANCH  11  12
ATOM     12  C   UNL     1      50.149  -5.915 -57.520  1.00  0.00     0.000 C 
BRANCH  12  13
ATOM     13  C   UNL     1      51.382  -5.941 -56.599  1.00  0.00     0.000 C 
BRANCH  13  14
ATOM     14  C   UNL     1      51.087  -6.323 -55.137  1.00  0.00     0.000 C 
BRANCH  14  15
ATOM     15  C   UNL     1      50.004  -7.407 -55.011  1.00  0.00     0.000 C 
BRANCH  15  16
ATOM     16  C   UNL     1      49.132  -7.233 -53.754  1.00  0.00     0.006 C 
BRANCH  16  17
ATOM     17  C   UNL     1      47.630  -7.082 -54.047  1.00  0.00     0.053 C 
BRANCH  17  18
ATOM     18  C   UNL     1      47.194  -5.650 -54.026  1.00  0.00     0.041 C 
ATOM     19  O   UNL     1      46.153  -5.314 -53.402  1.00  0.00    -0.550 OA
ATOM     20  O   UNL     1      47.955  -4.680 -54.667  1.00  0.00    -0.550 OA
ENDBRANCH  17  18
ENDBRANCH  16  17
ENDBRANCH  15  16
ENDBRANCH  14  15
ENDBRANCH  13  14
ENDBRANCH  12  13
ENDBRANCH  11  12
ENDBRANCH   1  11
TORSDOF 15
ENDMDL
MODEL 3
REMARK VINA RESULT:    -4.586      0.721      8.400
REMARK INTER + INTRA:          -9.871
REMARK INTER:                  -8.543
REMARK INTRA:                  -1.328
REMARK UNBOUND:                -1.264
REMARK SMILES O=C([O-])CCCCCCCCCCCCCCC(=O)[O-]
REMARK SMILES IDX 10 1 9 2 8 3 7 4 6 5 5 6 4 7 2 8 1 9 3 10 11 11 12 12 13 13
REMARK SMILES IDX 14 14 15 15 16 16 17 17 18 18 19 19 20 20
REMARK H PARENT
REMARK Flexibility Score: inf
ROOT
ATOM      1  C   UNL     1      47.609  -7.222 -55.567  1.00  0.00     0.000 C 
ENDROOT
BRANCH   1   2
ATOM      2  C   UNL     1      48.486  -8.340 -54.977  1.00  0.00     0.000 C 
BRANCH   2   3
ATOM      3  C   UNL     1      49.733  -7.806 -54.261  1.00  0.00     0.000 C 
BRANCH   3   4
ATOM      4  C   UNL     1      50.024  -6.354 -54.671  1.00  0.00     0.000 C 
BRANCH   4   5
ATOM      5  C   UNL     1      51.393  -6.194 -55.350  1.00  0.00     0.000 C 
BRANCH   5   6
ATOM      6  C   UNL     1      51.277  -5.858 -56.847  1.00  0.00     0.006 C 
BRANCH   6   7
ATOM      7  C   UNL     1      52.638  -5.893 -57.555  1.00  0.00     0.053 C 
BRANCH   7   8
ATOM      8  C   UNL     1      53.044  -4.537 -58.046  1.00  0.00     0.041 C 
ATOM      9  O   UNL     1      54.132  -4.384 -58.660  1.00  0.00    -0.550 OA
ATOM     10  O   UNL     1      52.233  -3.437 -57.798  1.00  0.00    -0.550 OA
ENDBRANCH   7   8
ENDBRANCH   6   7
ENDBRANCH   5   6
ENDBRANCH   4   5
ENDBRANCH   3   4
ENDBRANCH   2   3
ENDBRANCH   1   2
BRANCH   1  11
ATOM     11  C   UNL     1      47.373  -7.359 -57.087  1.00  0.00     0.000 C 
BRANCH  11  12
ATOM     12  C   UNL     1      48.479  -8.180 -57.774  1.00  0.00     0.000 C 
BRANCH  12  13
ATOM     13  C   UNL     1      47.970  -8.965 -58.996  1.00  0.00     0.000 C 
BRANCH  13  14
ATOM     14  C   UNL     1      47.869 -10.488 -58.788  1.00  0.00     0.000 C 
BRANCH  14  15
ATOM     15  C   UNL     1      47.686 -10.876 -57.312  1.00  0.00     0.000 C 
BRANCH  15  16
ATOM     16  C   UNL     1      47.453 -12.387 -57.119  1.00  0.00     0.006 C 
BRANCH  16  17
ATOM     17  C   UNL     1      48.499 -13.074 -56.227  1.00  0.00     0.053 C 
BRANCH  17  18
ATOM     18  C   UNL     1      48.022 -14.400 -55.720  1.00  0.00     0.041 C 
ATOM     19  O   UNL     1      48.469 -15.467 -56.219  1.00  0.00    -0.550 OA
ATOM     20  O   UNL     1      47.110 -14.460 -54.673  1.00  0.00    -0.550 OA
ENDBRANCH  17  18
ENDBRANCH  16  17
ENDBRANCH  15  16
ENDBRANCH  14  15
ENDBRANCH  13  14
ENDBRANCH  12  13
ENDBRANCH  11  12
ENDBRANCH   1  11
TORSDOF 15
ENDMDL
MODEL 4
REMARK VINA RESULT:    -4.526      3.677      5.308
REMARK INTER + INTRA:          -9.758
REMARK INTER:                  -7.770
REMARK INTRA:                  -1.988
REMARK UNBOUND:                -1.264
REMARK SMILES O=C([O-])CCCCCCCCCCCCCCC(=O)[O-]
REMARK SMILES IDX 10 1 9 2 8 3 7 4 6 5 5 6 4 7 2 8 1 9 3 10 11 11 12 12 13 13
REMARK SMILES IDX 14 14 15 15 16 16 17 17 18 18 19 19 20 20
REMARK H PARENT
REMARK Flexibility Score: inf
ROOT
ATOM      1  C   UNL     1      49.890  -7.661 -54.250  1.00  0.00     0.000 C 
ENDROOT
BRANCH   1   2
ATOM      2  C   UNL     1      48.492  -7.138 -53.878  1.00  0.00     0.000 C 
BRANCH   2   3
ATOM      3  C   UNL     1      47.377  -7.751 -54.736  1.00  0.00     0.000 C 
BRANCH   3   4
ATOM      4  C   UNL     1      47.512  -7.318 -56.204  1.00  0.00     0.000 C 
BRANCH   4   5
ATOM      5  C   UNL     1      47.830  -8.493 -57.142  1.00  0.00     0.000 C 
BRANCH   5   6
ATOM      6  C   UNL     1      47.460  -9.856 -56.532  1.00  0.00     0.006 C 
BRANCH   6   7
ATOM      7  C   UNL     1      47.769 -11.019 -57.484  1.00  0.00     0.053 C 
BRANCH   7   8
ATOM      8  C   UNL     1      47.887 -12.321 -56.751  1.00  0.00     0.041 C 
ATOM      9  O   UNL     1      47.042 -13.234 -56.942  1.00  0.00    -0.550 OA
ATOM     10  O   UNL     1      48.915 -12.512 -55.837  1.00  0.00    -0.550 OA
ENDBRANCH   7   8
ENDBRANCH   6   7
ENDBRANCH   5   6
ENDBRANCH   4   5
ENDBRANCH   3   4
ENDBRANCH   2   3
ENDBRANCH   1   2
BRANCH   1  11
ATOM     11  C   UNL     1      50.822  -6.574 -54.828  1.00  0.00     0.000 C 
BRANCH  11  12
ATOM     12  C   UNL     1      50.262  -5.156 -54.615  1.00  0.00     0.000 C 
BRANCH  12  13
ATOM     13  C   UNL     1      49.883  -4.459 -55.933  1.00  0.00     0.000 C 
BRANCH  13  14
ATOM     14  C   UNL     1      48.529  -3.725 -55.909  1.00  0.00     0.000 C 
BRANCH  14  15
ATOM     15  C   UNL     1      48.019  -3.465 -54.482  1.00  0.00     0.000 C 
BRANCH  15  16
ATOM     16  C   UNL     1      46.633  -4.085 -54.224  1.00  0.00     0.006 C 
BRANCH  16  17
ATOM     17  C   UNL     1      46.120  -3.901 -52.787  1.00  0.00     0.053 C 
BRANCH  17  18
ATOM     18  C   UNL     1      45.391  -5.111 -52.290  1.00  0.00     0.041 C 
ATOM     19  O   UNL     1      45.356  -5.367 -51.058  1.00  0.00    -0.550 OA
ATOM     20  O   UNL     1      44.722  -5.938 -53.184  1.00  0.00    -0.550 OA
ENDBRANCH  17  18
ENDBRANCH  16  17
ENDBRANCH  15  16
ENDBRANCH  14  15
ENDBRANCH  13  14
ENDBRANCH  12  13
ENDBRANCH  11  12
ENDBRANCH   1  11
TORSDOF 15
ENDMDL
MODEL 5
REMARK VINA RESULT:    -4.435      3.180      7.723
REMARK INTER + INTRA:          -9.587
REMARK INTER:                  -7.589
REMARK INTRA:                  -1.998
REMARK UNBOUND:                -1.264
REMARK SMILES O=C([O-])CCCCCCCCCCCCCCC(=O)[O-]
REMARK SMILES IDX 10 1 9 2 8 3 7 4 6 5 5 6 4 7 2 8 1 9 3 10 11 11 12 12 13 13
REMARK SMILES IDX 14 14 15 15 16 16 17 17 18 18 19 19 20 20
REMARK H PARENT
REMARK Flexibility Score: inf
ROOT
ATOM      1  C   UNL     1      48.976  -8.190 -55.108  1.00  0.00     0.000 C 
ENDROOT
BRANCH   1   2
ATOM      2  C   UNL     1      49.714  -7.269 -54.121  1.00  0.00     0.000 C 
BRANCH   2   3
ATOM      3  C   UNL     1      50.937  -6.582 -54.746  1.00  0.00     0.000 C 
BRANCH   3   4
ATOM      4  C   UNL     1      50.557  -5.217 -55.340  1.00  0.00     0.000 C 
BRANCH   4   5
ATOM      5  C   UNL     1      49.717  -4.364 -54.376  1.00  0.00     0.000 C 
BRANCH   5   6
ATOM      6  C   UNL     1      48.357  -3.960 -54.972  1.00  0.00     0.006 C 
BRANCH   6   7
ATOM      7  C   UNL     1      47.319  -3.650 -53.886  1.00  0.00     0.053 C 
BRANCH   7   8
ATOM      8  C   UNL     1      46.173  -4.615 -53.920  1.00  0.00     0.041 C 
ATOM      9  O   UNL     1      45.954  -5.373 -52.940  1.00  0.00    -0.550 OA
ATOM     10  O   UNL     1      45.366  -4.695 -55.048  1.00  0.00    -0.550 OA
ENDBRANCH   7   8
ENDBRANCH   6   7
ENDBRANCH   5   6
ENDBRANCH   4   5
ENDBRANCH   3   4
ENDBRANCH   2   3
ENDBRANCH   1   2
BRANCH   1  11
ATOM     11  C   UNL     1      47.511  -7.773 -55.362  1.00  0.00     0.000 C 
BRANCH  11  12
ATOM     12  C   UNL     1      47.317  -7.155 -56.758  1.00  0.00     0.000 C 
BRANCH  12  13
ATOM     13  C   UNL     1      48.252  -7.765 -57.817  1.00  0.00     0.000 C 
BRANCH  13  14
ATOM     14  C   UNL     1      47.556  -8.675 -58.846  1.00  0.00     0.000 C 
BRANCH  14  15
ATOM     15  C   UNL     1      48.163 -10.086 -58.899  1.00  0.00     0.000 C 
BRANCH  15  16
ATOM     16  C   UNL     1      47.365 -11.109 -58.068  1.00  0.00     0.006 C 
BRANCH  16  17
ATOM     17  C   UNL     1      47.932 -11.353 -56.660  1.00  0.00     0.053 C 
BRANCH  17  18
ATOM     18  C   UNL     1      48.182 -12.806 -56.398  1.00  0.00     0.041 C 
ATOM     19  O   UNL     1      49.343 -13.210 -56.128  1.00  0.00    -0.550 OA
ATOM     20  O   UNL     1      47.127 -13.709 -56.419  1.00  0.00    -0.550 OA
ENDBRANCH  17  18
ENDBRANCH  16  17
ENDBRANCH  15  16
ENDBRANCH  14  15
ENDBRANCH  13  14
ENDBRANCH  12  13
ENDBRANCH  11  12
ENDBRANCH   1  11
TORSDOF 15
ENDMDL
MODEL 6
REMARK VINA RESULT:    -4.433      2.269      3.060
REMARK INTER + INTRA:          -9.585
REMARK INTER:                  -7.987
REMARK INTRA:                  -1.597
REMARK UNBOUND:                -1.264
REMARK SMILES O=C([O-])CCCCCCCCCCCCCCC(=O)[O-]
REMARK SMILES IDX 10 1 9 2 8 3 7 4 6 5 5 6 4 7 2 8 1 9 3 10 11 11 12 12 13 13
REMARK SMILES IDX 14 14 15 15 16 16 17 17 18 18 19 19 20 20
REMARK H PARENT
REMARK Flexibility Score: inf
ROOT
ATOM      1  C   UNL     1      47.478  -7.679 -55.341  1.00  0.00     0.000 C 
ENDROOT
BRANCH   1   2
ATOM      2  C   UNL     1      47.714  -9.079 -55.933  1.00  0.00     0.000 C 
BRANCH   2   3
ATOM      3  C   UNL     1      48.048  -9.045 -57.431  1.00  0.00     0.000 C 
BRANCH   3   4
ATOM      4  C   UNL     1      47.161 -10.024 -58.214  1.00  0.00     0.000 C 
BRANCH   4   5
ATOM      5  C   UNL     1      47.738 -11.448 -58.250  1.00  0.00     0.000 C 
BRANCH   5   6
ATOM      6  C   UNL     1      47.198 -12.336 -57.115  1.00  0.00     0.006 C 
BRANCH   6   7
ATOM      7  C   UNL     1      48.323 -12.911 -56.245  1.00  0.00     0.053 C 
BRANCH   7   8
ATOM      8  C   UNL     1      48.009 -14.299 -55.777  1.00  0.00     0.041 C 
ATOM      9  O   UNL     1      48.524 -15.294 -56.351  1.00  0.00    -0.550 OA
ATOM     10  O   UNL     1      47.125 -14.494 -54.723  1.00  0.00    -0.550 OA
ENDBRANCH   7   8
ENDBRANCH   6   7
ENDBRANCH   5   6
ENDBRANCH   4   5
ENDBRANCH   3   4
ENDBRANCH   2   3
ENDBRANCH   1   2
BRANCH   1  11
ATOM     11  C   UNL     1      48.367  -7.369 -54.116  1.00  0.00     0.000 C 
BRANCH  11  12
ATOM     12  C   UNL     1      49.847  -7.701 -54.375  1.00  0.00     0.000 C 
BRANCH  12  13
ATOM     13  C   UNL     1      50.717  -6.446 -54.566  1.00  0.00     0.000 C 
BRANCH  13  14
ATOM     14  C   UNL     1      51.269  -6.254 -55.991  1.00  0.00     0.000 C 
BRANCH  14  15
ATOM     15  C   UNL     1      50.205  -5.746 -56.978  1.00  0.00     0.000 C 
BRANCH  15  16
ATOM     16  C   UNL     1      49.753  -4.305 -56.676  1.00  0.00     0.006 C 
BRANCH  16  17
ATOM     17  C   UNL     1      48.249  -4.166 -56.389  1.00  0.00     0.053 C 
BRANCH  17  18
ATOM     18  C   UNL     1      47.986  -3.594 -55.031  1.00  0.00     0.041 C 
ATOM     19  O   UNL     1      48.876  -3.639 -54.141  1.00  0.00    -0.550 OA
ATOM     20  O   UNL     1      46.770  -2.980 -54.756  1.00  0.00    -0.550 OA
ENDBRANCH  17  18
ENDBRANCH  16  17
ENDBRANCH  15  16
ENDBRANCH  14  15
ENDBRANCH  13  14
ENDBRANCH  12  13
ENDBRANCH  11  12
ENDBRANCH   1  11
TORSDOF 15
ENDMDL
MODEL 7
REMARK VINA RESULT:    -4.412      1.231      2.262
REMARK INTER + INTRA:          -9.545
REMARK INTER:                  -8.032
REMARK INTRA:                  -1.513
REMARK UNBOUND:                -1.264
REMARK SMILES O=C([O-])CCCCCCCCCCCCCCC(=O)[O-]
REMARK SMILES IDX 10 1 9 2 8 3 7 4 6 5 5 6 4 7 2 8 1 9 3 10 11 11 12 12 13 13
REMARK SMILES IDX 14 14 15 15 16 16 17 17 18 18 19 19 20 20
REMARK H PARENT
REMARK Flexibility Score: inf
ROOT
ATOM      1  C   UNL     1      45.930  -9.001 -56.867  1.00  0.00     0.000 C 
ENDROOT
BRANCH   1   2
ATOM      2  C   UNL     1      45.810 -10.094 -57.944  1.00  0.00     0.000 C 
BRANCH   2   3
ATOM      3  C   UNL     1      47.007 -10.119 -58.905  1.00  0.00     0.000 C 
BRANCH   3   4
ATOM      4  C   UNL     1      47.704 -11.488 -58.881  1.00  0.00     0.000 C 
BRANCH   4   5
ATOM      5  C   UNL     1      47.280 -12.347 -57.679  1.00  0.00     0.000 C 
BRANCH   5   6
ATOM      6  C   UNL     1      48.188 -12.143 -56.454  1.00  0.00     0.006 C 
BRANCH   6   7
ATOM      7  C   UNL     1      48.954 -13.419 -56.082  1.00  0.00     0.053 C 
BRANCH   7   8
ATOM      8  C   UNL     1      48.026 -14.547 -55.747  1.00  0.00     0.041 C 
ATOM      9  O   UNL     1      47.214 -14.436 -54.792  1.00  0.00    -0.550 OA
ATOM     10  O   UNL     1      48.080 -15.730 -56.473  1.00  0.00    -0.550 OA
ENDBRANCH   7   8
ENDBRANCH   6   7
ENDBRANCH   5   6
ENDBRANCH   4   5
ENDBRANCH   3   4
ENDBRANCH   2   3
ENDBRANCH   1   2
BRANCH   1  11
ATOM     11  C   UNL     1      46.545  -7.685 -57.391  1.00  0.00     0.000 C 
BRANCH  11  12
ATOM     12  C   UNL     1      47.767  -7.246 -56.564  1.00  0.00     0.000 C 
BRANCH  12  13
ATOM     13  C   UNL     1      48.241  -8.326 -55.576  1.00  0.00     0.000 C 
BRANCH  13  14
ATOM     14  C   UNL     1      49.337  -7.869 -54.596  1.00  0.00     0.000 C 
BRANCH  14  15
ATOM     15  C   UNL     1      49.189  -6.395 -54.183  1.00  0.00     0.000 C 
BRANCH  15  16
ATOM     16  C   UNL     1      50.452  -5.565 -54.480  1.00  0.00     0.006 C 
BRANCH  16  17
ATOM     17  C   UNL     1      51.417  -6.225 -55.478  1.00  0.00     0.053 C 
BRANCH  17  18
ATOM     18  C   UNL     1      51.245  -5.688 -56.866  1.00  0.00     0.041 C 
ATOM     19  O   UNL     1      51.136  -6.477 -57.841  1.00  0.00    -0.550 OA
ATOM     20  O   UNL     1      51.170  -4.317 -57.079  1.00  0.00    -0.550 OA
ENDBRANCH  17  18
ENDBRANCH  16  17
ENDBRANCH  15  16
ENDBRANCH  14  15
ENDBRANCH  13  14
ENDBRANCH  12  13
ENDBRANCH  11  12
ENDBRANCH   1  11
TORSDOF 15
ENDMDL
MODEL 8
REMARK VINA RESULT:    -4.409      1.316      2.086
REMARK INTER + INTRA:          -9.539
REMARK INTER:                  -8.594
REMARK INTRA:                  -0.945
REMARK UNBOUND:                -1.264
REMARK SMILES O=C([O-])CCCCCCCCCCCCCCC(=O)[O-]
REMARK SMILES IDX 10 1 9 2 8 3 7 4 6 5 5 6 4 7 2 8 1 9 3 10 11 11 12 12 13 13
REMARK SMILES IDX 14 14 15 15 16 16 17 17 18 18 19 19 20 20
REMARK H PARENT
REMARK Flexibility Score: inf
ROOT
ATOM      1  C   UNL     1      47.251  -9.596 -56.479  1.00  0.00     0.000 C 
ENDROOT
BRANCH   1   2
ATOM      2  C   UNL     1      47.514  -9.886 -57.967  1.00  0.00     0.000 C 
BRANCH   2   3
ATOM      3  C   UNL     1      47.942 -11.337 -58.226  1.00  0.00     0.000 C 
BRANCH   3   4
ATOM      4  C   UNL     1      47.276 -12.293 -57.225  1.00  0.00     0.000 C 
BRANCH   4   5
ATOM      5  C   UNL     1      48.298 -13.085 -56.393  1.00  0.00     0.000 C 
BRANCH   5   6
ATOM      6  C   UNL     1      47.642 -14.175 -55.528  1.00  0.00     0.006 C 
BRANCH   6   7
ATOM      7  C   UNL     1      48.104 -15.583 -55.924  1.00  0.00     0.053 C 
BRANCH   7   8
ATOM      8  C   UNL     1      47.173 -16.215 -56.914  1.00  0.00     0.041 C 
ATOM      9  O   UNL     1      47.513 -17.263 -57.524  1.00  0.00    -0.550 OA
ATOM     10  O   UNL     1      45.943 -15.630 -57.182  1.00  0.00    -0.550 OA
ENDBRANCH   7   8
ENDBRANCH   6   7
ENDBRANCH   5   6
ENDBRANCH   4   5
ENDBRANCH   3   4
ENDBRANCH   2   3
ENDBRANCH   1   2
BRANCH   1  11
ATOM     11  C   UNL     1      48.324  -8.697 -55.827  1.00  0.00     0.000 C 
BRANCH  11  12
ATOM     12  C   UNL     1      47.723  -7.741 -54.781  1.00  0.00     0.000 C 
BRANCH  12  13
ATOM     13  C   UNL     1      48.793  -6.952 -54.007  1.00  0.00     0.000 C 
BRANCH  13  14
ATOM     14  C   UNL     1      50.243  -7.394 -54.276  1.00  0.00     0.000 C 
BRANCH  14  15
ATOM     15  C   UNL     1      51.096  -6.283 -54.911  1.00  0.00     0.000 C 
BRANCH  15  16
ATOM     16  C   UNL     1      50.818  -6.106 -56.415  1.00  0.00     0.006 C 
BRANCH  16  17
ATOM     17  C   UNL     1      51.389  -4.809 -57.011  1.00  0.00     0.053 C 
BRANCH  17  18
ATOM     18  C   UNL     1      52.408  -5.079 -58.075  1.00  0.00     0.041 C 
ATOM     19  O   UNL     1      52.892  -6.233 -58.209  1.00  0.00    -0.550 OA
ATOM     20  O   UNL     1      52.797  -4.064 -58.940  1.00  0.00    -0.550 OA
ENDBRANCH  17  18
ENDBRANCH  16  17
ENDBRANCH  15  16
ENDBRANCH  14  15
ENDBRANCH  13  14
ENDBRANCH  12  13
ENDBRANCH  11  12
ENDBRANCH   1  11
TORSDOF 15
ENDMDL
MODEL 9
REMARK VINA RESULT:    -4.365      3.883      7.347
REMARK INTER + INTRA:          -9.456
REMARK INTER:                  -6.857
REMARK INTRA:                  -2.599
REMARK UNBOUND:                -1.264
REMARK SMILES O=C([O-])CCCCCCCCCCCCCCC(=O)[O-]
REMARK SMILES IDX 10 1 9 2 8 3 7 4 6 5 5 6 4 7 2 8 1 9 3 10 11 11 12 12 13 13
REMARK SMILES IDX 14 14 15 15 16 16 17 17 18 18 19 19 20 20
REMARK H PARENT
REMARK Flexibility Score: inf
ROOT
ATOM      1  C   UNL     1      48.314  -8.516 -55.584  1.00  0.00     0.000 C 
ENDROOT
BRANCH   1   2
ATOM      2  C   UNL     1      47.885  -7.607 -54.419  1.00  0.00     0.000 C 
BRANCH   2   3
ATOM      3  C   UNL     1      49.076  -6.989 -53.674  1.00  0.00     0.000 C 
BRANCH   3   4
ATOM      4  C   UNL     1      50.399  -7.316 -54.384  1.00  0.00     0.000 C 
BRANCH   4   5
ATOM      5  C   UNL     1      51.097  -6.066 -54.942  1.00  0.00     0.000 C 
BRANCH   5   6
ATOM      6  C   UNL     1      51.490  -6.215 -56.422  1.00  0.00     0.006 C 
BRANCH   6   7
ATOM      7  C   UNL     1      51.726  -4.858 -57.097  1.00  0.00     0.053 C 
BRANCH   7   8
ATOM      8  C   UNL     1      52.941  -4.878 -57.975  1.00  0.00     0.041 C 
ATOM      9  O   UNL     1      53.194  -5.887 -58.683  1.00  0.00    -0.550 OA
ATOM     10  O   UNL     1      53.807  -3.792 -57.987  1.00  0.00    -0.550 OA
ENDBRANCH   7   8
ENDBRANCH   6   7
ENDBRANCH   5   6
ENDBRANCH   4   5
ENDBRANCH   3   4
ENDBRANCH   2   3
ENDBRANCH   1   2
BRANCH   1  11
ATOM     11  C   UNL     1      47.985  -7.932 -56.975  1.00  0.00     0.000 C 
BRANCH  11  12
ATOM     12  C   UNL     1      47.199  -6.612 -56.880  1.00  0.00     0.000 C 
BRANCH  12  13
ATOM     13  C   UNL     1      47.972  -5.412 -57.457  1.00  0.00     0.000 C 
BRANCH  13  14
ATOM     14  C   UNL     1      47.644  -4.058 -56.803  1.00  0.00     0.000 C 
BRANCH  14  15
ATOM     15  C   UNL     1      48.517  -3.764 -55.572  1.00  0.00     0.000 C 
BRANCH  15  16
ATOM     16  C   UNL     1      47.687  -3.523 -54.298  1.00  0.00     0.006 C 
BRANCH  16  17
ATOM     17  C   UNL     1      46.219  -3.964 -54.412  1.00  0.00     0.053 C 
BRANCH  17  18
ATOM     18  C   UNL     1      45.727  -4.615 -53.156  1.00  0.00     0.041 C 
ATOM     19  O   UNL     1      45.846  -4.027 -52.050  1.00  0.00    -0.550 OA
ATOM     20  O   UNL     1      45.106  -5.857 -53.211  1.00  0.00    -0.550 OA
ENDBRANCH  17  18
ENDBRANCH  16  17
ENDBRANCH  15  16
ENDBRANCH  14  15
ENDBRANCH  13  14
ENDBRANCH  12  13
ENDBRANCH  11  12
ENDBRANCH   1  11
TORSDOF 15
ENDMDL
