MODEL 1
REMARK VINA RESULT:    -5.122      0.000      0.000
REMARK INTER + INTRA:          -5.821
REMARK INTER:                  -5.571
REMARK INTRA:                  -0.250
REMARK UNBOUND:                -0.250
REMARK SMILES O=C([O-])c1ccccc1O
REMARK SMILES IDX 4 1 9 2 5 3 8 4 6 5 7 6 2 7 1 8 3 9 10 10
REMARK H PARENT 10 11
REMARK Flexibility Score: inf
ROOT
ATOM      1  C   UNL     1      30.436   5.623  31.805  1.00  0.00     0.039 A 
ATOM      2  C   UNL     1      29.724   6.726  32.335  1.00  0.00     0.124 A 
ATOM      3  C   UNL     1      29.721   4.466  31.442  1.00  0.00     0.014 A 
ATOM      4  C   UNL     1      28.331   6.652  32.489  1.00  0.00     0.047 A 
ATOM      5  C   UNL     1      28.334   4.406  31.600  1.00  0.00     0.001 A 
ATOM      6  C   UNL     1      27.640   5.497  32.123  1.00  0.00     0.004 A 
ENDROOT
BRANCH   1   7
ATOM      7  C   UNL     1      31.909   5.652  31.623  1.00  0.00     0.075 C 
ATOM      8  O   UNL     1      32.673   6.006  32.561  1.00  0.00    -0.545 OA
ATOM      9  O   UNL     1      32.473   5.287  30.405  1.00  0.00    -0.545 OA
ENDBRANCH   1   7
BRANCH   2  10
ATOM     10  O   UNL     1      30.392   7.894  32.710  1.00  0.00    -0.507 OA
ATOM     11  H   UNL     1      29.965   8.807  32.607  1.00  0.00     0.293 HD
ENDBRANCH   2  10
TORSDOF 2
ENDMDL
MODEL 2
REMARK VINA RESULT:    -5.110      2.654      3.892
REMARK INTER + INTRA:          -5.808
REMARK INTER:                  -5.572
REMARK INTRA:                  -0.236
REMARK UNBOUND:                -0.250
REMARK SMILES O=C([O-])c1ccccc1O
REMARK SMILES IDX 4 1 9 2 5 3 8 4 6 5 7 6 2 7 1 8 3 9 10 10
REMARK H PARENT 10 11
REMARK Flexibility Score: inf
ROOT
ATOM      1  C   UNL     1      27.714   7.444  32.483  1.00  0.00     0.039 A 
ATOM      2  C   UNL     1      28.281   8.496  33.243  1.00  0.00     0.124 A 
ATOM      3  C   UNL     1      26.571   7.709  31.705  1.00  0.00     0.014 A 
ATOM      4  C   UNL     1      27.703   9.774  33.208  1.00  0.00     0.047 A 
ATOM      5  C   UNL     1      26.006   8.986  31.680  1.00  0.00     0.001 A 
ATOM      6  C   UNL     1      26.571  10.017  32.430  1.00  0.00     0.004 A 
ENDROOT
BRANCH   1   7
ATOM      7  C   UNL     1      28.288   6.074  32.486  1.00  0.00     0.075 C 
ATOM      8  O   UNL     1      27.598   5.082  32.841  1.00  0.00    -0.545 OA
ATOM      9  O   UNL     1      29.606   5.865  32.097  1.00  0.00    -0.545 OA
ENDBRANCH   1   7
BRANCH   2  10
ATOM     10  O   UNL     1      29.414   8.279  34.029  1.00  0.00    -0.507 OA
ATOM     11  H   UNL     1      29.566   7.401  34.512  1.00  0.00     0.293 HD
ENDBRANCH   2  10
TORSDOF 2
ENDMDL
MODEL 3
REMARK VINA RESULT:    -5.086      1.626      2.229
REMARK INTER + INTRA:          -5.783
REMARK INTER:                  -5.562
REMARK INTRA:                  -0.220
REMARK UNBOUND:                -0.250
REMARK SMILES O=C([O-])c1ccccc1O
REMARK SMILES IDX 4 1 9 2 5 3 8 4 6 5 7 6 2 7 1 8 3 9 10 10
REMARK H PARENT 10 11
REMARK Flexibility Score: inf
ROOT
ATOM      1  C   UNL     1      29.318   5.342  31.871  1.00  0.00     0.039 A 
ATOM      2  C   UNL     1      30.040   6.526  32.154  1.00  0.00     0.124 A 
ATOM      3  C   UNL     1      27.934   5.313  32.130  1.00  0.00     0.014 A 
ATOM      4  C   UNL     1      29.373   7.643  32.681  1.00  0.00     0.047 A 
ATOM      5  C   UNL     1      27.283   6.433  32.655  1.00  0.00     0.001 A 
ATOM      6  C   UNL     1      28.002   7.596  32.930  1.00  0.00     0.004 A 
ENDROOT
BRANCH   1   7
ATOM      7  C   UNL     1      29.976   4.133  31.313  1.00  0.00     0.075 C 
ATOM      8  O   UNL     1      30.855   3.512  31.968  1.00  0.00    -0.545 OA
ATOM      9  O   UNL     1      29.630   3.667  30.050  1.00  0.00    -0.545 OA
ENDBRANCH   1   7
BRANCH   2  10
ATOM     10  O   UNL     1      31.413   6.600  31.914  1.00  0.00    -0.507 OA
ATOM     11  H   UNL     1      31.782   6.932  31.030  1.00  0.00     0.293 HD
ENDBRANCH   2  10
TORSDOF 2
ENDMDL
MODEL 4
REMARK VINA RESULT:    -5.085      1.495      3.554
REMARK INTER + INTRA:          -5.781
REMARK INTER:                  -5.571
REMARK INTRA:                  -0.210
REMARK UNBOUND:                -0.250
REMARK SMILES O=C([O-])c1ccccc1O
REMARK SMILES IDX 4 1 9 2 5 3 8 4 6 5 7 6 2 7 1 8 3 9 10 10
REMARK H PARENT 10 11
REMARK Flexibility Score: inf
ROOT
ATOM      1  C   UNL     1      28.401   6.552  32.356  1.00  0.00     0.039 A 
ATOM      2  C   UNL     1      29.787   6.464  32.081  1.00  0.00     0.124 A 
ATOM      3  C   UNL     1      27.592   5.423  32.130  1.00  0.00     0.014 A 
ATOM      4  C   UNL     1      30.328   5.264  31.593  1.00  0.00     0.047 A 
ATOM      5  C   UNL     1      28.144   4.235  31.645  1.00  0.00     0.001 A 
ATOM      6  C   UNL     1      29.510   4.156  31.376  1.00  0.00     0.004 A 
ENDROOT
BRANCH   1   7
ATOM      7  C   UNL     1      27.780   7.798  32.872  1.00  0.00     0.075 C 
ATOM      8  O   UNL     1      26.552   8.029  32.708  1.00  0.00    -0.545 OA
ATOM      9  O   UNL     1      28.550   8.738  33.549  1.00  0.00    -0.545 OA
ENDBRANCH   1   7
BRANCH   2  10
ATOM     10  O   UNL     1      30.628   7.559  32.289  1.00  0.00    -0.507 OA
ATOM     11  H   UNL     1      30.411   8.475  31.914  1.00  0.00     0.293 HD
ENDBRANCH   2  10
TORSDOF 2
ENDMDL
MODEL 5
REMARK VINA RESULT:    -5.021      1.484      2.480
REMARK INTER + INTRA:          -5.712
REMARK INTER:                  -5.465
REMARK INTRA:                  -0.247
REMARK UNBOUND:                -0.250
REMARK SMILES O=C([O-])c1ccccc1O
REMARK SMILES IDX 4 1 9 2 5 3 8 4 6 5 7 6 2 7 1 8 3 9 10 10
REMARK H PARENT 10 11
REMARK Flexibility Score: inf
ROOT
ATOM      1  C   UNL     1      29.989   5.996  32.072  1.00  0.00     0.039 A 
ATOM      2  C   UNL     1      28.855   5.148  32.026  1.00  0.00     0.124 A 
ATOM      3  C   UNL     1      29.817   7.338  32.462  1.00  0.00     0.014 A 
ATOM      4  C   UNL     1      27.591   5.653  32.367  1.00  0.00     0.047 A 
ATOM      5  C   UNL     1      28.552   7.826  32.798  1.00  0.00     0.001 A 
ATOM      6  C   UNL     1      27.441   6.985  32.751  1.00  0.00     0.004 A 
ENDROOT
BRANCH   1   7
ATOM      7  C   UNL     1      31.348   5.511  31.721  1.00  0.00     0.075 C 
ATOM      8  O   UNL     1      31.532   4.752  30.733  1.00  0.00    -0.545 OA
ATOM      9  O   UNL     1      32.446   5.890  32.486  1.00  0.00    -0.545 OA
ENDBRANCH   1   7
BRANCH   2  10
ATOM     10  O   UNL     1      28.979   3.811  31.645  1.00  0.00    -0.507 OA
ATOM     11  H   UNL     1      28.338   3.101  31.981  1.00  0.00     0.293 HD
ENDBRANCH   2  10
TORSDOF 2
ENDMDL
MODEL 6
REMARK VINA RESULT:    -4.910      3.648      4.726
REMARK INTER + INTRA:          -5.591
REMARK INTER:                  -5.339
REMARK INTRA:                  -0.252
REMARK UNBOUND:                -0.250
REMARK SMILES O=C([O-])c1ccccc1O
REMARK SMILES IDX 4 1 9 2 5 3 8 4 6 5 7 6 2 7 1 8 3 9 10 10
REMARK H PARENT 10 11
REMARK Flexibility Score: inf
ROOT
ATOM      1  C   UNL     1      27.920   8.956  33.399  1.00  0.00     0.039 A 
ATOM      2  C   UNL     1      27.204   9.894  32.617  1.00  0.00     0.124 A 
ATOM      3  C   UNL     1      27.756   7.583  33.131  1.00  0.00     0.014 A 
ATOM      4  C   UNL     1      26.351   9.447  31.596  1.00  0.00     0.047 A 
ATOM      5  C   UNL     1      26.904   7.153  32.112  1.00  0.00     0.001 A 
ATOM      6  C   UNL     1      26.202   8.083  31.345  1.00  0.00     0.004 A 
ENDROOT
BRANCH   1   7
ATOM      7  C   UNL     1      28.834   9.377  34.491  1.00  0.00     0.075 C 
ATOM      8  O   UNL     1      29.951   8.817  34.656  1.00  0.00    -0.545 OA
ATOM      9  O   UNL     1      28.468  10.403  35.355  1.00  0.00    -0.545 OA
ENDBRANCH   1   7
BRANCH   2  10
ATOM     10  O   UNL     1      27.335  11.264  32.848  1.00  0.00    -0.507 OA
ATOM     11  H   UNL     1      28.181  11.766  32.606  1.00  0.00     0.293 HD
ENDBRANCH   2  10
TORSDOF 2
ENDMDL
MODEL 7
REMARK VINA RESULT:    -4.881      3.867      4.988
REMARK INTER + INTRA:          -5.560
REMARK INTER:                  -5.305
REMARK INTRA:                  -0.255
REMARK UNBOUND:                -0.250
REMARK SMILES O=C([O-])c1ccccc1O
REMARK SMILES IDX 4 1 9 2 5 3 8 4 6 5 7 6 2 7 1 8 3 9 10 10
REMARK H PARENT 10 11
REMARK Flexibility Score: inf
ROOT
ATOM      1  C   UNL     1      27.788   9.238  33.260  1.00  0.00     0.039 A 
ATOM      2  C   UNL     1      27.356   7.974  32.789  1.00  0.00     0.124 A 
ATOM      3  C   UNL     1      27.297  10.399  32.634  1.00  0.00     0.014 A 
ATOM      4  C   UNL     1      26.455   7.899  31.716  1.00  0.00     0.047 A 
ATOM      5  C   UNL     1      26.400  10.309  31.567  1.00  0.00     0.001 A 
ATOM      6  C   UNL     1      25.979   9.061  31.109  1.00  0.00     0.004 A 
ENDROOT
BRANCH   1   7
ATOM      7  C   UNL     1      28.741   9.372  34.392  1.00  0.00     0.075 C 
ATOM      8  O   UNL     1      28.530  10.191  35.325  1.00  0.00    -0.545 OA
ATOM      9  O   UNL     1      29.890   8.590  34.436  1.00  0.00    -0.545 OA
ENDBRANCH   1   7
BRANCH   2  10
ATOM     10  O   UNL     1      27.817   6.796  33.379  1.00  0.00    -0.507 OA
ATOM     11  H   UNL     1      28.765   6.711  33.727  1.00  0.00     0.293 HD
ENDBRANCH   2  10
TORSDOF 2
ENDMDL
MODEL 8
REMARK VINA RESULT:    -4.574      1.606      3.209
REMARK INTER + INTRA:          -5.225
REMARK INTER:                  -4.975
REMARK INTRA:                  -0.250
REMARK UNBOUND:                -0.250
REMARK SMILES O=C([O-])c1ccccc1O
REMARK SMILES IDX 4 1 9 2 5 3 8 4 6 5 7 6 2 7 1 8 3 9 10 10
REMARK H PARENT 10 11
REMARK Flexibility Score: inf
ROOT
ATOM      1  C   UNL     1      30.872   4.849  31.087  1.00  0.00     0.039 A 
ATOM      2  C   UNL     1      31.618   4.369  29.984  1.00  0.00     0.124 A 
ATOM      3  C   UNL     1      29.622   4.264  31.366  1.00  0.00     0.014 A 
ATOM      4  C   UNL     1      31.107   3.329  29.192  1.00  0.00     0.047 A 
ATOM      5  C   UNL     1      29.125   3.229  30.570  1.00  0.00     0.001 A 
ATOM      6  C   UNL     1      29.866   2.762  29.485  1.00  0.00     0.004 A 
ENDROOT
BRANCH   1   7
ATOM      7  C   UNL     1      31.369   5.947  31.955  1.00  0.00     0.075 C 
ATOM      8  O   UNL     1      32.531   5.916  32.441  1.00  0.00    -0.545 OA
ATOM      9  O   UNL     1      30.551   7.033  32.248  1.00  0.00    -0.545 OA
ENDBRANCH   1   7
BRANCH   2  10
ATOM     10  O   UNL     1      32.862   4.920  29.670  1.00  0.00    -0.507 OA
ATOM     11  H   UNL     1      32.970   5.905  29.459  1.00  0.00     0.293 HD
ENDBRANCH   2  10
TORSDOF 2
ENDMDL
MODEL 9
REMARK VINA RESULT:    -4.445      2.480      3.989
REMARK INTER + INTRA:          -5.085
REMARK INTER:                  -4.877
REMARK INTRA:                  -0.208
REMARK UNBOUND:                -0.250
REMARK SMILES O=C([O-])c1ccccc1O
REMARK SMILES IDX 4 1 9 2 5 3 8 4 6 5 7 6 2 7 1 8 3 9 10 10
REMARK H PARENT 10 11
REMARK Flexibility Score: inf
ROOT
ATOM      1  C   UNL     1      29.128   6.239  32.142  1.00  0.00     0.039 A 
ATOM      2  C   UNL     1      28.892   4.889  31.787  1.00  0.00     0.124 A 
ATOM      3  C   UNL     1      30.445   6.735  32.086  1.00  0.00     0.014 A 
ATOM      4  C   UNL     1      29.962   4.073  31.389  1.00  0.00     0.047 A 
ATOM      5  C   UNL     1      31.500   5.911  31.687  1.00  0.00     0.001 A 
ATOM      6  C   UNL     1      31.260   4.582  31.339  1.00  0.00     0.004 A 
ENDROOT
BRANCH   1   7
ATOM      7  C   UNL     1      28.030   7.143  32.570  1.00  0.00     0.075 C 
ATOM      8  O   UNL     1      26.834   6.908  32.254  1.00  0.00    -0.545 OA
ATOM      9  O   UNL     1      28.310   8.273  33.331  1.00  0.00    -0.545 OA
ENDBRANCH   1   7
BRANCH   2  10
ATOM     10  O   UNL     1      27.603   4.354  31.829  1.00  0.00    -0.507 OA
ATOM     11  H   UNL     1      27.306   3.631  31.184  1.00  0.00     0.293 HD
ENDBRANCH   2  10
TORSDOF 2
ENDMDL
