MODEL 1
REMARK VINA RESULT:    -3.246      0.000      0.000
REMARK INTER + INTRA:          -7.866
REMARK INTER:                  -5.617
REMARK INTRA:                  -2.248
REMARK UNBOUND:                -2.248
REMARK SMILES OC[C@@H]1O[C@@H](O[C@H]2[C@@H](O)[C@H](O)[C@H](O[C@H]3[C@H](O)[C@@H](O)[C@@H](O)O[C@@H]3CO)O[C@@H]2CO)[C@@H](O)[C@H](O)[C@H]1O
REMARK SMILES IDX 7 1 26 2 25 3 12 4 10 5 8 6 6 7 5 8 3 9 33 10 4 11 31 12
REMARK SMILES IDX 29 13 2 14 1 15 34 17 32 19 30 21 27 23 28 24 9 26 11 28
REMARK SMILES IDX 13 30 14 31 22 32 15 33 21 34 17 35 19 36 23 37 24 38 16 40
REMARK SMILES IDX 18 42 20 44
REMARK H PARENT 1 16 34 18 32 20 30 22 28 25 9 27 11 29 24 39 16 41 18 43
REMARK H PARENT 20 45
REMARK Flexibility Score: inf
ROOT
ATOM      1  C   UNL     1       7.974  -7.794  -5.791  1.00  0.00     0.184 C 
ATOM      2  C   UNL     1       8.361  -8.829  -4.664  1.00  0.00     0.178 C 
ATOM      3  O   UNL     1       8.124  -8.417  -3.311  1.00  0.00    -0.341 OA
ATOM      4  C   UNL     1       7.225  -7.321  -3.254  1.00  0.00     0.282 C 
ATOM      5  C   UNL     1       7.874  -6.059  -3.897  1.00  0.00     0.202 C 
ATOM      6  C   UNL     1       8.426  -6.384  -5.321  1.00  0.00     0.180 C 
ENDROOT
BRANCH   1   7
ATOM      7  O   UNL     1       6.553  -7.736  -5.985  1.00  0.00    -0.341 OA
BRANCH   7   8
ATOM      8  C   UNL     1       5.900  -8.970  -6.292  1.00  0.00     0.282 C 
ATOM      9  C   UNL     1       5.458  -8.314  -8.538  1.00  0.00     0.178 C 
ATOM     10  C   UNL     1       3.926  -8.375  -8.336  1.00  0.00     0.177 C 
ATOM     11  O   UNL     1       6.094  -9.273  -7.676  1.00  0.00    -0.341 OA
ATOM     12  C   UNL     1       3.642  -7.915  -6.894  1.00  0.00     0.179 C 
ATOM     13  C   UNL     1       4.370  -8.881  -5.943  1.00  0.00     0.202 C 
BRANCH   9  14
ATOM     14  C   UNL     1       5.850  -8.587 -10.018  1.00  0.00     0.191 C 
BRANCH  14  15
ATOM     15  O   UNL     1       6.949  -9.464 -10.091  1.00  0.00    -0.394 OA
ATOM     16  H   UNL     1       7.537  -9.221  -9.325  1.00  0.00     0.210 HD
ENDBRANCH  14  15
ENDBRANCH   9  14
BRANCH  10  17
ATOM     17  O   UNL     1       3.242  -7.527  -9.234  1.00  0.00    -0.387 OA
ATOM     18  H   UNL     1       3.566  -6.588  -9.079  1.00  0.00     0.211 HD
ENDBRANCH  10  17
BRANCH  12  19
ATOM     19  O   UNL     1       2.245  -7.920  -6.650  1.00  0.00    -0.387 OA
ATOM     20  H   UNL     1       2.056  -7.025  -6.262  1.00  0.00     0.211 HD
ENDBRANCH  12  19
BRANCH  13  21
ATOM     21  O   UNL     1       4.198  -8.424  -4.631  1.00  0.00    -0.385 OA
ATOM     22  H   UNL     1       4.296  -9.200  -4.017  1.00  0.00     0.211 HD
ENDBRANCH  13  21
ENDBRANCH   7   8
ENDBRANCH   1   7
BRANCH   2  23
ATOM     23  C   UNL     1       9.844  -9.232  -4.781  1.00  0.00     0.191 C 
BRANCH  23  24
ATOM     24  O   UNL     1      10.122  -9.895  -5.983  1.00  0.00    -0.394 OA
ATOM     25  H   UNL     1      10.641  -9.281  -6.572  1.00  0.00     0.210 HD
ENDBRANCH  23  24
ENDBRANCH   2  23
BRANCH   6  26
ATOM     26  O   UNL     1       7.982  -5.395  -6.221  1.00  0.00    -0.387 OA
ATOM     27  H   UNL     1       7.346  -5.836  -6.833  1.00  0.00     0.211 HD
ENDBRANCH   6  26
BRANCH   5  28
ATOM     28  O   UNL     1       8.922  -5.651  -3.069  1.00  0.00    -0.385 OA
ATOM     29  H   UNL     1       8.582  -5.703  -2.143  1.00  0.00     0.211 HD
ENDBRANCH   5  28
BRANCH   4  30
ATOM     30  O   UNL     1       6.861  -7.053  -1.896  1.00  0.00    -0.341 OA
BRANCH  30  31
ATOM     31  C   UNL     1       7.389  -8.074  -1.043  1.00  0.00     0.184 C 
ATOM     32  C   UNL     1       6.298  -8.926  -0.344  1.00  0.00     0.178 C 
ATOM     33  C   UNL     1       8.296  -7.524   0.066  1.00  0.00     0.180 C 
ATOM     34  O   UNL     1       6.889 -10.064   0.264  1.00  0.00    -0.342 OA
ATOM     35  C   UNL     1       9.014  -8.754   0.665  1.00  0.00     0.201 C 
ATOM     36  C   UNL     1       7.931  -9.749   1.205  1.00  0.00     0.279 C 
BRANCH  32  37
ATOM     37  C   UNL     1       5.276  -9.412  -1.384  1.00  0.00     0.191 C 
BRANCH  37  38
ATOM     38  O   UNL     1       5.918 -10.080  -2.439  1.00  0.00    -0.394 OA
ATOM     39  H   UNL     1       5.314 -10.833  -2.683  1.00  0.00     0.210 HD
ENDBRANCH  37  38
ENDBRANCH  32  37
BRANCH  33  40
ATOM     40  O   UNL     1       9.244  -6.586  -0.388  1.00  0.00    -0.387 OA
ATOM     41  H   UNL     1       9.242  -5.835   0.252  1.00  0.00     0.211 HD
ENDBRANCH  33  40
BRANCH  35  42
ATOM     42  O   UNL     1       9.882  -8.355   1.708  1.00  0.00    -0.385 OA
ATOM     43  H   UNL     1       9.426  -7.617   2.203  1.00  0.00     0.211 HD
ENDBRANCH  35  42
BRANCH  36  44
ATOM     44  O   UNL     1       7.398  -9.253   2.397  1.00  0.00    -0.366 OA
ATOM     45  H   UNL     1       6.401  -9.391   2.384  1.00  0.00     0.213 HD
ENDBRANCH  36  44
ENDBRANCH  30  31
ENDBRANCH   4  30
TORSDOF 18
ENDMDL
MODEL 2
REMARK VINA RESULT:    -3.036      1.980      5.483
REMARK INTER + INTRA:          -7.503
REMARK INTER:                  -6.659
REMARK INTRA:                  -0.843
REMARK UNBOUND:                -2.248
REMARK SMILES OC[C@@H]1O[C@@H](O[C@H]2[C@@H](O)[C@H](O)[C@H](O[C@H]3[C@H](O)[C@@H](O)[C@@H](O)O[C@@H]3CO)O[C@@H]2CO)[C@@H](O)[C@H](O)[C@H]1O
REMARK SMILES IDX 7 1 26 2 25 3 12 4 10 5 8 6 6 7 5 8 3 9 33 10 4 11 31 12
REMARK SMILES IDX 29 13 2 14 1 15 34 17 32 19 30 21 27 23 28 24 9 26 11 28
REMARK SMILES IDX 13 30 14 31 22 32 15 33 21 34 17 35 19 36 23 37 24 38 16 40
REMARK SMILES IDX 18 42 20 44
REMARK H PARENT 1 16 34 18 32 20 30 22 28 25 9 27 11 29 24 39 16 41 18 43
REMARK H PARENT 20 45
REMARK Flexibility Score: inf
ROOT
ATOM      1  C   UNL     1       6.820  -6.597  -6.561  1.00  0.00     0.184 C 
ATOM      2  C   UNL     1       5.498  -7.183  -5.927  1.00  0.00     0.178 C 
ATOM      3  O   UNL     1       5.645  -8.359  -5.120  1.00  0.00    -0.341 OA
ATOM      4  C   UNL     1       6.993  -8.547  -4.720  1.00  0.00     0.282 C 
ATOM      5  C   UNL     1       7.883  -8.859  -5.960  1.00  0.00     0.202 C 
ATOM      6  C   UNL     1       7.671  -7.790  -7.078  1.00  0.00     0.180 C 
ENDROOT
BRANCH   1   7
ATOM      7  O   UNL     1       7.612  -5.909  -5.583  1.00  0.00    -0.341 OA
BRANCH   7   8
ATOM      8  C   UNL     1       9.020  -5.860  -5.823  1.00  0.00     0.282 C 
ATOM      9  C   UNL     1       9.497  -5.174  -3.593  1.00  0.00     0.178 C 
ATOM     10  C   UNL     1      10.091  -3.822  -4.054  1.00  0.00     0.177 C 
ATOM     11  O   UNL     1       9.715  -6.166  -4.611  1.00  0.00    -0.341 OA
ATOM     12  C   UNL     1       9.280  -3.368  -5.281  1.00  0.00     0.179 C 
ATOM     13  C   UNL     1       9.434  -4.445  -6.369  1.00  0.00     0.202 C 
BRANCH   9  14
ATOM     14  C   UNL     1      10.122  -5.644  -2.250  1.00  0.00     0.191 C 
BRANCH  14  15
ATOM     15  O   UNL     1       9.141  -6.208  -1.412  1.00  0.00    -0.394 OA
ATOM     16  H   UNL     1       8.267  -5.985  -1.834  1.00  0.00     0.210 HD
ENDBRANCH  14  15
ENDBRANCH   9  14
BRANCH  10  17
ATOM     17  O   UNL     1       9.999  -2.836  -3.048  1.00  0.00    -0.387 OA
ATOM     18  H   UNL     1      10.628  -3.091  -2.307  1.00  0.00     0.211 HD
ENDBRANCH  10  17
BRANCH  12  19
ATOM     19  O   UNL     1       9.758  -2.113  -5.740  1.00  0.00    -0.387 OA
ATOM     20  H   UNL     1       9.571  -1.487  -4.992  1.00  0.00     0.211 HD
ENDBRANCH  12  19
BRANCH  13  21
ATOM     21  O   UNL     1       8.629  -4.092  -7.459  1.00  0.00    -0.385 OA
ATOM     22  H   UNL     1       7.830  -4.683  -7.457  1.00  0.00     0.211 HD
ENDBRANCH  13  21
ENDBRANCH   7   8
ENDBRANCH   1   7
BRANCH   2  23
ATOM     23  C   UNL     1       4.458  -7.490  -7.022  1.00  0.00     0.191 C 
BRANCH  23  24
ATOM     24  O   UNL     1       3.187  -7.745  -6.492  1.00  0.00    -0.394 OA
ATOM     25  H   UNL     1       2.543  -7.092  -6.882  1.00  0.00     0.210 HD
ENDBRANCH  23  24
ENDBRANCH   2  23
BRANCH   6  26
ATOM     26  O   UNL     1       8.928  -7.343  -7.529  1.00  0.00    -0.387 OA
ATOM     27  H   UNL     1       9.589  -7.631  -6.854  1.00  0.00     0.211 HD
ENDBRANCH   6  26
BRANCH   5  28
ATOM     28  O   UNL     1       7.518 -10.118  -6.440  1.00  0.00    -0.385 OA
ATOM     29  H   UNL     1       6.962  -9.960  -7.242  1.00  0.00     0.211 HD
ENDBRANCH   5  28
BRANCH   4  30
ATOM     30  O   UNL     1       7.080  -9.611  -3.767  1.00  0.00    -0.341 OA
BRANCH  30  31
ATOM     31  C   UNL     1       7.228  -9.071  -2.450  1.00  0.00     0.184 C 
ATOM     32  C   UNL     1       8.326  -9.773  -1.610  1.00  0.00     0.178 C 
ATOM     33  C   UNL     1       5.935  -9.131  -1.625  1.00  0.00     0.180 C 
ATOM     34  O   UNL     1       8.589  -9.023  -0.434  1.00  0.00    -0.342 OA
ATOM     35  C   UNL     1       6.186  -8.235  -0.392  1.00  0.00     0.201 C 
ATOM     36  C   UNL     1       7.428  -8.793   0.384  1.00  0.00     0.279 C 
BRANCH  32  37
ATOM     37  C   UNL     1       9.625  -9.861  -2.425  1.00  0.00     0.191 C 
BRANCH  37  38
ATOM     38  O   UNL     1       9.867  -8.658  -3.108  1.00  0.00    -0.394 OA
ATOM     39  H   UNL     1      10.019  -7.977  -2.399  1.00  0.00     0.210 HD
ENDBRANCH  37  38
ENDBRANCH  32  37
BRANCH  33  40
ATOM     40  O   UNL     1       4.795  -8.684  -2.321  1.00  0.00    -0.387 OA
ATOM     41  H   UNL     1       4.311  -8.065  -1.725  1.00  0.00     0.211 HD
ENDBRANCH  33  40
BRANCH  35  42
ATOM     42  O   UNL     1       5.046  -8.222   0.446  1.00  0.00    -0.385 OA
ATOM     43  H   UNL     1       5.374  -8.161   1.387  1.00  0.00     0.211 HD
ENDBRANCH  35  42
BRANCH  36  44
ATOM     44  O   UNL     1       7.062  -9.951   1.074  1.00  0.00    -0.366 OA
ATOM     45  H   UNL     1       6.179  -9.788   1.528  1.00  0.00     0.213 HD
ENDBRANCH  36  44
ENDBRANCH  30  31
ENDBRANCH   4  30
TORSDOF 18
ENDMDL
MODEL 3
REMARK VINA RESULT:    -2.817      2.376      6.159
REMARK INTER + INTRA:          -7.124
REMARK INTER:                  -5.978
REMARK INTRA:                  -1.146
REMARK UNBOUND:                -2.248
REMARK SMILES OC[C@@H]1O[C@@H](O[C@H]2[C@@H](O)[C@H](O)[C@H](O[C@H]3[C@H](O)[C@@H](O)[C@@H](O)O[C@@H]3CO)O[C@@H]2CO)[C@@H](O)[C@H](O)[C@H]1O
REMARK SMILES IDX 7 1 26 2 25 3 12 4 10 5 8 6 6 7 5 8 3 9 33 10 4 11 31 12
REMARK SMILES IDX 29 13 2 14 1 15 34 17 32 19 30 21 27 23 28 24 9 26 11 28
REMARK SMILES IDX 13 30 14 31 22 32 15 33 21 34 17 35 19 36 23 37 24 38 16 40
REMARK SMILES IDX 18 42 20 44
REMARK H PARENT 1 16 34 18 32 20 30 22 28 25 9 27 11 29 24 39 16 41 18 43
REMARK H PARENT 20 45
REMARK Flexibility Score: inf
ROOT
ATOM      1  C   UNL     1       7.889  -6.078  -8.402  1.00  0.00     0.184 C 
ATOM      2  C   UNL     1       6.330  -6.305  -8.508  1.00  0.00     0.178 C 
ATOM      3  O   UNL     1       5.845  -7.594  -8.111  1.00  0.00    -0.341 OA
ATOM      4  C   UNL     1       6.803  -8.290  -7.329  1.00  0.00     0.282 C 
ATOM      5  C   UNL     1       8.053  -8.635  -8.192  1.00  0.00     0.202 C 
ATOM      6  C   UNL     1       8.594  -7.363  -8.918  1.00  0.00     0.180 C 
ENDROOT
BRANCH   1   7
ATOM      7  O   UNL     1       8.302  -5.891  -7.041  1.00  0.00    -0.341 OA
BRANCH   7   8
ATOM      8  C   UNL     1       9.700  -5.691  -6.821  1.00  0.00     0.282 C 
ATOM      9  C   UNL     1       9.426  -5.530  -4.461  1.00  0.00     0.178 C 
ATOM     10  C   UNL     1       9.936  -4.070  -4.423  1.00  0.00     0.177 C 
ATOM     11  O   UNL     1      10.057  -6.231  -5.546  1.00  0.00    -0.341 OA
ATOM     12  C   UNL     1       9.452  -3.390  -5.717  1.00  0.00     0.179 C 
ATOM     13  C   UNL     1      10.054  -4.161  -6.905  1.00  0.00     0.202 C 
BRANCH   9  14
ATOM     14  C   UNL     1       9.703  -6.266  -3.120  1.00  0.00     0.191 C 
BRANCH  14  15
ATOM     15  O   UNL     1       8.726  -5.941  -2.160  1.00  0.00    -0.394 OA
ATOM     16  H   UNL     1       9.117  -5.203  -1.618  1.00  0.00     0.210 HD
ENDBRANCH  14  15
ENDBRANCH   9  14
BRANCH  10  17
ATOM     17  O   UNL     1       9.428  -3.364  -3.311  1.00  0.00    -0.387 OA
ATOM     18  H   UNL     1      10.178  -3.241  -2.655  1.00  0.00     0.211 HD
ENDBRANCH  10  17
BRANCH  12  19
ATOM     19  O   UNL     1       9.864  -2.032  -5.733  1.00  0.00    -0.387 OA
ATOM     20  H   UNL     1       9.051  -1.528  -6.000  1.00  0.00     0.211 HD
ENDBRANCH  12  19
BRANCH  13  21
ATOM     21  O   UNL     1       9.551  -3.611  -8.090  1.00  0.00    -0.385 OA
ATOM     22  H   UNL     1       8.597  -3.372  -7.939  1.00  0.00     0.211 HD
ENDBRANCH  13  21
ENDBRANCH   7   8
ENDBRANCH   1   7
BRANCH   2  23
ATOM     23  C   UNL     1       5.837  -6.036  -9.943  1.00  0.00     0.191 C 
BRANCH  23  24
ATOM     24  O   UNL     1       4.494  -5.637  -9.978  1.00  0.00    -0.394 OA
ATOM     25  H   UNL     1       4.316  -5.199 -10.855  1.00  0.00     0.210 HD
ENDBRANCH  23  24
ENDBRANCH   2  23
BRANCH   6  26
ATOM     26  O   UNL     1       9.986  -7.279  -8.718  1.00  0.00    -0.387 OA
ATOM     27  H   UNL     1      10.396  -7.972  -9.289  1.00  0.00     0.211 HD
ENDBRANCH   6  26
BRANCH   5  28
ATOM     28  O   UNL     1       7.668  -9.587  -9.138  1.00  0.00    -0.385 OA
ATOM     29  H   UNL     1       7.687  -9.131 -10.016  1.00  0.00     0.211 HD
ENDBRANCH   5  28
BRANCH   4  30
ATOM     30  O   UNL     1       6.227  -9.484  -6.792  1.00  0.00    -0.341 OA
BRANCH  30  31
ATOM     31  C   UNL     1       6.029  -9.335  -5.383  1.00  0.00     0.184 C 
ATOM     32  C   UNL     1       4.961  -8.272  -5.014  1.00  0.00     0.178 C 
ATOM     33  C   UNL     1       7.311  -8.951  -4.631  1.00  0.00     0.180 C 
ATOM     34  O   UNL     1       4.638  -8.369  -3.635  1.00  0.00    -0.342 OA
ATOM     35  C   UNL     1       6.990  -9.150  -3.133  1.00  0.00     0.201 C 
ATOM     36  C   UNL     1       5.771  -8.238  -2.759  1.00  0.00     0.279 C 
BRANCH  32  37
ATOM     37  C   UNL     1       3.681  -8.521  -5.827  1.00  0.00     0.191 C 
BRANCH  37  38
ATOM     38  O   UNL     1       3.338  -7.384  -6.576  1.00  0.00    -0.394 OA
ATOM     39  H   UNL     1       3.531  -6.608  -5.983  1.00  0.00     0.210 HD
ENDBRANCH  37  38
ENDBRANCH  32  37
BRANCH  33  40
ATOM     40  O   UNL     1       8.433  -9.723  -4.990  1.00  0.00    -0.387 OA
ATOM     41  H   UNL     1       9.043  -9.134  -5.495  1.00  0.00     0.211 HD
ENDBRANCH  33  40
BRANCH  35  42
ATOM     42  O   UNL     1       8.115  -8.818  -2.342  1.00  0.00    -0.385 OA
ATOM     43  H   UNL     1       7.809  -8.157  -1.659  1.00  0.00     0.211 HD
ENDBRANCH  35  42
BRANCH  36  44
ATOM     44  O   UNL     1       6.193  -6.910  -2.678  1.00  0.00    -0.366 OA
ATOM     45  H   UNL     1       6.632  -6.766  -1.784  1.00  0.00     0.213 HD
ENDBRANCH  36  44
ENDBRANCH  30  31
ENDBRANCH   4  30
TORSDOF 18
ENDMDL
MODEL 4
REMARK VINA RESULT:    -2.668      2.175      7.858
REMARK INTER + INTRA:          -6.866
REMARK INTER:                  -5.542
REMARK INTRA:                  -1.324
REMARK UNBOUND:                -2.248
REMARK SMILES OC[C@@H]1O[C@@H](O[C@H]2[C@@H](O)[C@H](O)[C@H](O[C@H]3[C@H](O)[C@@H](O)[C@@H](O)O[C@@H]3CO)O[C@@H]2CO)[C@@H](O)[C@H](O)[C@H]1O
REMARK SMILES IDX 7 1 26 2 25 3 12 4 10 5 8 6 6 7 5 8 3 9 33 10 4 11 31 12
REMARK SMILES IDX 29 13 2 14 1 15 34 17 32 19 30 21 27 23 28 24 9 26 11 28
REMARK SMILES IDX 13 30 14 31 22 32 15 33 21 34 17 35 19 36 23 37 24 38 16 40
REMARK SMILES IDX 18 42 20 44
REMARK H PARENT 1 16 34 18 32 20 30 22 28 25 9 27 11 29 24 39 16 41 18 43
REMARK H PARENT 20 45
REMARK Flexibility Score: inf
ROOT
ATOM      1  C   UNL     1       6.981  -7.995  -2.092  1.00  0.00     0.184 C 
ATOM      2  C   UNL     1       6.544  -8.370  -3.562  1.00  0.00     0.178 C 
ATOM      3  O   UNL     1       7.396  -7.908  -4.619  1.00  0.00    -0.341 OA
ATOM      4  C   UNL     1       8.676  -7.539  -4.128  1.00  0.00     0.282 C 
ATOM      5  C   UNL     1       8.556  -6.293  -3.201  1.00  0.00     0.202 C 
ATOM      6  C   UNL     1       7.470  -6.520  -2.102  1.00  0.00     0.180 C 
ENDROOT
BRANCH   1   7
ATOM      7  O   UNL     1       8.083  -8.800  -1.649  1.00  0.00    -0.341 OA
BRANCH   7   8
ATOM      8  C   UNL     1       7.761  -9.929  -0.834  1.00  0.00     0.282 C 
ATOM      9  C   UNL     1       6.396  -8.635   0.626  1.00  0.00     0.178 C 
ATOM     10  C   UNL     1       7.304  -8.911   1.846  1.00  0.00     0.177 C 
ATOM     11  O   UNL     1       6.455  -9.751  -0.279  1.00  0.00    -0.341 OA
ATOM     12  C   UNL     1       8.753  -8.968   1.326  1.00  0.00     0.179 C 
ATOM     13  C   UNL     1       8.836 -10.111   0.299  1.00  0.00     0.202 C 
BRANCH   9  14
ATOM     14  C   UNL     1       4.924  -8.378   1.057  1.00  0.00     0.191 C 
BRANCH  14  15
ATOM     15  O   UNL     1       4.626  -9.061   2.252  1.00  0.00    -0.394 OA
ATOM     16  H   UNL     1       4.291  -9.956   1.973  1.00  0.00     0.210 HD
ENDBRANCH  14  15
ENDBRANCH   9  14
BRANCH  10  17
ATOM     17  O   UNL     1       7.203  -7.892   2.819  1.00  0.00    -0.387 OA
ATOM     18  H   UNL     1       7.537  -7.038   2.407  1.00  0.00     0.211 HD
ENDBRANCH  10  17
BRANCH  12  19
ATOM     19  O   UNL     1       9.646  -9.192   2.405  1.00  0.00    -0.387 OA
ATOM     20  H   UNL     1       9.181  -9.856   2.980  1.00  0.00     0.211 HD
ENDBRANCH  12  19
BRANCH  13  21
ATOM     21  O   UNL     1      10.123 -10.118  -0.251  1.00  0.00    -0.385 OA
ATOM     22  H   UNL     1      10.498  -9.200  -0.173  1.00  0.00     0.211 HD
ENDBRANCH  13  21
ENDBRANCH   7   8
ENDBRANCH   1   7
BRANCH   2  23
ATOM     23  C   UNL     1       5.117  -7.866  -3.852  1.00  0.00     0.191 C 
BRANCH  23  24
ATOM     24  O   UNL     1       4.165  -8.448  -3.005  1.00  0.00    -0.394 OA
ATOM     25  H   UNL     1       3.263  -8.335  -3.415  1.00  0.00     0.210 HD
ENDBRANCH  23  24
ENDBRANCH   2  23
BRANCH   6  26
ATOM     26  O   UNL     1       8.007  -6.168  -0.848  1.00  0.00    -0.387 OA
ATOM     27  H   UNL     1       7.560  -5.332  -0.575  1.00  0.00     0.211 HD
ENDBRANCH   6  26
BRANCH   5  28
ATOM     28  O   UNL     1       8.198  -5.203  -3.996  1.00  0.00    -0.385 OA
ATOM     29  H   UNL     1       7.643  -5.564  -4.730  1.00  0.00     0.211 HD
ENDBRANCH   5  28
BRANCH   4  30
ATOM     30  O   UNL     1       9.560  -7.262  -5.218  1.00  0.00    -0.341 OA
BRANCH  30  31
ATOM     31  C   UNL     1       8.909  -7.564  -6.457  1.00  0.00     0.184 C 
ATOM     32  C   UNL     1       9.669  -8.604  -7.321  1.00  0.00     0.178 C 
ATOM     33  C   UNL     1       8.695  -6.328  -7.342  1.00  0.00     0.180 C 
ATOM     34  O   UNL     1       8.843  -9.039  -8.390  1.00  0.00    -0.342 OA
ATOM     35  C   UNL     1       7.719  -6.775  -8.453  1.00  0.00     0.201 C 
ATOM     36  C   UNL     1       8.363  -7.974  -9.229  1.00  0.00     0.279 C 
BRANCH  32  37
ATOM     37  C   UNL     1      10.028  -9.826  -6.462  1.00  0.00     0.191 C 
BRANCH  37  38
ATOM     38  O   UNL     1       8.993 -10.124  -5.562  1.00  0.00    -0.394 OA
ATOM     39  H   UNL     1       8.814  -9.276  -5.072  1.00  0.00     0.210 HD
ENDBRANCH  37  38
ENDBRANCH  32  37
BRANCH  33  40
ATOM     40  O   UNL     1       8.166  -5.220  -6.652  1.00  0.00    -0.387 OA
ATOM     41  H   UNL     1       7.336  -5.519  -6.210  1.00  0.00     0.211 HD
ENDBRANCH  33  40
BRANCH  35  42
ATOM     42  O   UNL     1       7.454  -5.701  -9.334  1.00  0.00    -0.385 OA
ATOM     43  H   UNL     1       8.126  -4.989  -9.140  1.00  0.00     0.211 HD
ENDBRANCH  35  42
BRANCH  36  44
ATOM     44  O   UNL     1       9.377  -7.495 -10.063  1.00  0.00    -0.366 OA
ATOM     45  H   UNL     1      10.266  -7.731  -9.653  1.00  0.00     0.213 HD
ENDBRANCH  36  44
ENDBRANCH  30  31
ENDBRANCH   4  30
TORSDOF 18
ENDMDL
MODEL 5
REMARK VINA RESULT:    -2.639      1.928      3.289
REMARK INTER + INTRA:          -6.816
REMARK INTER:                  -5.098
REMARK INTRA:                  -1.719
REMARK UNBOUND:                -2.248
REMARK SMILES OC[C@@H]1O[C@@H](O[C@H]2[C@@H](O)[C@H](O)[C@H](O[C@H]3[C@H](O)[C@@H](O)[C@@H](O)O[C@@H]3CO)O[C@@H]2CO)[C@@H](O)[C@H](O)[C@H]1O
REMARK SMILES IDX 7 1 26 2 25 3 12 4 10 5 8 6 6 7 5 8 3 9 33 10 4 11 31 12
REMARK SMILES IDX 29 13 2 14 1 15 34 17 32 19 30 21 27 23 28 24 9 26 11 28
REMARK SMILES IDX 13 30 14 31 22 32 15 33 21 34 17 35 19 36 23 37 24 38 16 40
REMARK SMILES IDX 18 42 20 44
REMARK H PARENT 1 16 34 18 32 20 30 22 28 25 9 27 11 29 24 39 16 41 18 43
REMARK H PARENT 20 45
REMARK Flexibility Score: inf
ROOT
ATOM      1  C   UNL     1       7.426  -6.702  -7.824  1.00  0.00     0.184 C 
ATOM      2  C   UNL     1       8.915  -7.219  -7.733  1.00  0.00     0.178 C 
ATOM      3  O   UNL     1       9.579  -7.030  -6.476  1.00  0.00    -0.341 OA
ATOM      4  C   UNL     1       8.652  -6.772  -5.434  1.00  0.00     0.282 C 
ATOM      5  C   UNL     1       7.947  -5.403  -5.668  1.00  0.00     0.202 C 
ATOM      6  C   UNL     1       7.354  -5.324  -7.111  1.00  0.00     0.180 C 
ENDROOT
BRANCH   1   7
ATOM      7  O   UNL     1       6.522  -7.578  -7.136  1.00  0.00    -0.341 OA
BRANCH   7   8
ATOM      8  C   UNL     1       6.260  -8.839  -7.755  1.00  0.00     0.282 C 
ATOM      9  C   UNL     1       4.248  -8.062  -8.763  1.00  0.00     0.178 C 
ATOM     10  C   UNL     1       3.374  -9.069  -7.979  1.00  0.00     0.177 C 
ATOM     11  O   UNL     1       5.554  -8.625  -8.979  1.00  0.00    -0.341 OA
ATOM     12  C   UNL     1       4.012  -9.230  -6.586  1.00  0.00     0.179 C 
ATOM     13  C   UNL     1       5.440  -9.767  -6.785  1.00  0.00     0.202 C 
BRANCH   9  14
ATOM     14  C   UNL     1       3.600  -7.683 -10.125  1.00  0.00     0.191 C 
BRANCH  14  15
ATOM     15  O   UNL     1       2.512  -6.810  -9.935  1.00  0.00    -0.394 OA
ATOM     16  H   UNL     1       2.158  -6.621 -10.846  1.00  0.00     0.210 HD
ENDBRANCH  14  15
ENDBRANCH   9  14
BRANCH  10  17
ATOM     17  O   UNL     1       2.048  -8.610  -7.830  1.00  0.00    -0.387 OA
ATOM     18  H   UNL     1       1.603  -8.655  -8.730  1.00  0.00     0.211 HD
ENDBRANCH  10  17
BRANCH  12  19
ATOM     19  O   UNL     1       3.239 -10.125  -5.802  1.00  0.00    -0.387 OA
ATOM     20  H   UNL     1       3.038  -9.618  -4.972  1.00  0.00     0.211 HD
ENDBRANCH  12  19
BRANCH  13  21
ATOM     21  O   UNL     1       6.065  -9.832  -5.534  1.00  0.00    -0.385 OA
ATOM     22  H   UNL     1       5.534 -10.442  -4.955  1.00  0.00     0.211 HD
ENDBRANCH  13  21
ENDBRANCH   7   8
ENDBRANCH   1   7
BRANCH   2  23
ATOM     23  C   UNL     1       9.784  -6.572  -8.828  1.00  0.00     0.191 C 
BRANCH  23  24
ATOM     24  O   UNL     1       9.103  -6.453 -10.047  1.00  0.00    -0.394 OA
ATOM     25  H   UNL     1       8.384  -5.769  -9.943  1.00  0.00     0.210 HD
ENDBRANCH  23  24
ENDBRANCH   2  23
BRANCH   6  26
ATOM     26  O   UNL     1       6.022  -4.873  -7.034  1.00  0.00    -0.387 OA
ATOM     27  H   UNL     1       5.547  -5.265  -7.805  1.00  0.00     0.211 HD
ENDBRANCH   6  26
BRANCH   5  28
ATOM     28  O   UNL     1       8.901  -4.398  -5.497  1.00  0.00    -0.385 OA
ATOM     29  H   UNL     1       9.544  -4.495  -6.242  1.00  0.00     0.211 HD
ENDBRANCH   5  28
BRANCH   4  30
ATOM     30  O   UNL     1       9.320  -6.775  -4.169  1.00  0.00    -0.341 OA
BRANCH  30  31
ATOM     31  C   UNL     1       8.697  -7.721  -3.294  1.00  0.00     0.184 C 
ATOM     32  C   UNL     1       8.352  -9.068  -3.980  1.00  0.00     0.178 C 
ATOM     33  C   UNL     1       7.395  -7.199  -2.670  1.00  0.00     0.180 C 
ATOM     34  O   UNL     1       7.987 -10.030  -3.003  1.00  0.00    -0.342 OA
ATOM     35  C   UNL     1       7.048  -8.194  -1.539  1.00  0.00     0.201 C 
ATOM     36  C   UNL     1       6.891  -9.622  -2.164  1.00  0.00     0.279 C 
BRANCH  32  37
ATOM     37  C   UNL     1       9.583  -9.594  -4.735  1.00  0.00     0.191 C 
BRANCH  37  38
ATOM     38  O   UNL     1       9.217 -10.111  -5.988  1.00  0.00    -0.394 OA
ATOM     39  H   UNL     1       9.781 -10.921  -6.116  1.00  0.00     0.210 HD
ENDBRANCH  37  38
ENDBRANCH  32  37
BRANCH  33  40
ATOM     40  O   UNL     1       7.498  -5.895  -2.150  1.00  0.00    -0.387 OA
ATOM     41  H   UNL     1       6.870  -5.327  -2.657  1.00  0.00     0.211 HD
ENDBRANCH  33  40
BRANCH  35  42
ATOM     42  O   UNL     1       5.851  -7.803  -0.894  1.00  0.00    -0.385 OA
ATOM     43  H   UNL     1       5.219  -8.574  -0.957  1.00  0.00     0.211 HD
ENDBRANCH  35  42
BRANCH  36  44
ATOM     44  O   UNL     1       5.677  -9.699  -2.850  1.00  0.00    -0.366 OA
ATOM     45  H   UNL     1       5.467 -10.668  -3.022  1.00  0.00     0.213 HD
ENDBRANCH  36  44
ENDBRANCH  30  31
ENDBRANCH   4  30
TORSDOF 18
ENDMDL
MODEL 6
REMARK VINA RESULT:    -2.206      2.283      5.269
REMARK INTER + INTRA:          -6.066
REMARK INTER:                  -4.576
REMARK INTRA:                  -1.491
REMARK UNBOUND:                -2.248
REMARK SMILES OC[C@@H]1O[C@@H](O[C@H]2[C@@H](O)[C@H](O)[C@H](O[C@H]3[C@H](O)[C@@H](O)[C@@H](O)O[C@@H]3CO)O[C@@H]2CO)[C@@H](O)[C@H](O)[C@H]1O
REMARK SMILES IDX 7 1 26 2 25 3 12 4 10 5 8 6 6 7 5 8 3 9 33 10 4 11 31 12
REMARK SMILES IDX 29 13 2 14 1 15 34 17 32 19 30 21 27 23 28 24 9 26 11 28
REMARK SMILES IDX 13 30 14 31 22 32 15 33 21 34 17 35 19 36 23 37 24 38 16 40
REMARK SMILES IDX 18 42 20 44
REMARK H PARENT 1 16 34 18 32 20 30 22 28 25 9 27 11 29 24 39 16 41 18 43
REMARK H PARENT 20 45
REMARK Flexibility Score: inf
ROOT
ATOM      1  C   UNL     1       9.779  -7.202  -4.411  1.00  0.00     0.184 C 
ATOM      2  C   UNL     1       9.195  -8.556  -3.848  1.00  0.00     0.178 C 
ATOM      3  O   UNL     1       7.870  -8.503  -3.304  1.00  0.00    -0.341 OA
ATOM      4  C   UNL     1       7.183  -7.336  -3.730  1.00  0.00     0.282 C 
ATOM      5  C   UNL     1       7.859  -6.066  -3.132  1.00  0.00     0.202 C 
ATOM      6  C   UNL     1       9.394  -6.068  -3.420  1.00  0.00     0.180 C 
ENDROOT
BRANCH   1   7
ATOM      7  O   UNL     1       9.198  -6.865  -5.679  1.00  0.00    -0.341 OA
BRANCH   7   8
ATOM      8  C   UNL     1      10.095  -6.783  -6.789  1.00  0.00     0.282 C 
ATOM      9  C   UNL     1       8.830  -5.058  -7.835  1.00  0.00     0.178 C 
ATOM     10  C   UNL     1       8.512  -5.933  -9.070  1.00  0.00     0.177 C 
ATOM     11  O   UNL     1      10.103  -5.443  -7.288  1.00  0.00    -0.341 OA
ATOM     12  C   UNL     1       8.346  -7.379  -8.567  1.00  0.00     0.179 C 
ATOM     13  C   UNL     1       9.672  -7.801  -7.911  1.00  0.00     0.202 C 
BRANCH   9  14
ATOM     14  C   UNL     1       8.842  -3.545  -8.195  1.00  0.00     0.191 C 
BRANCH  14  15
ATOM     15  O   UNL     1       9.445  -3.334  -9.450  1.00  0.00    -0.394 OA
ATOM     16  H   UNL     1      10.378  -3.047  -9.255  1.00  0.00     0.210 HD
ENDBRANCH  14  15
ENDBRANCH   9  14
BRANCH  10  17
ATOM     17  O   UNL     1       7.320  -5.526  -9.710  1.00  0.00    -0.387 OA
ATOM     18  H   UNL     1       6.562  -6.052  -9.311  1.00  0.00     0.211 HD
ENDBRANCH  10  17
BRANCH  12  19
ATOM     19  O   UNL     1       8.023  -8.234  -9.652  1.00  0.00    -0.387 OA
ATOM     20  H   UNL     1       8.625  -7.942 -10.387  1.00  0.00     0.211 HD
ENDBRANCH  12  19
BRANCH  13  21
ATOM     21  O   UNL     1       9.509  -9.081  -7.367  1.00  0.00    -0.385 OA
ATOM     22  H   UNL     1       8.545  -9.208  -7.159  1.00  0.00     0.211 HD
ENDBRANCH  13  21
ENDBRANCH   7   8
ENDBRANCH   1   7
BRANCH   2  23
ATOM     23  C   UNL     1      10.125  -9.143  -2.768  1.00  0.00     0.191 C 
BRANCH  23  24
ATOM     24  O   UNL     1       9.721  -8.794  -1.473  1.00  0.00    -0.394 OA
ATOM     25  H   UNL     1      10.515  -8.461  -0.971  1.00  0.00     0.210 HD
ENDBRANCH  23  24
ENDBRANCH   2  23
BRANCH   6  26
ATOM     26  O   UNL     1       9.764  -4.811  -3.937  1.00  0.00    -0.387 OA
ATOM     27  H   UNL     1       9.864  -4.925  -4.912  1.00  0.00     0.211 HD
ENDBRANCH   6  26
BRANCH   5  28
ATOM     28  O   UNL     1       7.641  -6.076  -1.753  1.00  0.00    -0.385 OA
ATOM     29  H   UNL     1       8.530  -6.168  -1.331  1.00  0.00     0.211 HD
ENDBRANCH   5  28
BRANCH   4  30
ATOM     30  O   UNL     1       5.810  -7.400  -3.330  1.00  0.00    -0.341 OA
BRANCH  30  31
ATOM     31  C   UNL     1       5.033  -8.010  -4.366  1.00  0.00     0.184 C 
ATOM     32  C   UNL     1       5.148  -9.556  -4.401  1.00  0.00     0.178 C 
ATOM     33  C   UNL     1       5.399  -7.509  -5.770  1.00  0.00     0.180 C 
ATOM     34  O   UNL     1       4.162 -10.096  -5.267  1.00  0.00    -0.342 OA
ATOM     35  C   UNL     1       4.273  -8.014  -6.699  1.00  0.00     0.201 C 
ATOM     36  C   UNL     1       4.216  -9.578  -6.608  1.00  0.00     0.279 C 
BRANCH  32  37
ATOM     37  C   UNL     1       4.914 -10.124  -2.992  1.00  0.00     0.191 C 
BRANCH  37  38
ATOM     38  O   UNL     1       5.834  -9.586  -2.078  1.00  0.00    -0.394 OA
ATOM     39  H   UNL     1       6.731  -9.752  -2.477  1.00  0.00     0.210 HD
ENDBRANCH  37  38
ENDBRANCH  32  37
BRANCH  33  40
ATOM     40  O   UNL     1       5.510  -6.109  -5.862  1.00  0.00    -0.387 OA
ATOM     41  H   UNL     1       5.852  -5.783  -4.996  1.00  0.00     0.211 HD
ENDBRANCH  33  40
BRANCH  35  42
ATOM     42  O   UNL     1       4.517  -7.606  -8.031  1.00  0.00    -0.385 OA
ATOM     43  H   UNL     1       3.658  -7.241  -8.388  1.00  0.00     0.211 HD
ENDBRANCH  35  42
BRANCH  36  44
ATOM     44  O   UNL     1       5.291 -10.123  -7.314  1.00  0.00    -0.366 OA
ATOM     45  H   UNL     1       5.386  -9.628  -8.185  1.00  0.00     0.213 HD
ENDBRANCH  36  44
ENDBRANCH  30  31
ENDBRANCH   4  30
TORSDOF 18
ENDMDL
MODEL 7
REMARK VINA RESULT:    -1.804      1.959      4.424
REMARK INTER + INTRA:          -5.370
REMARK INTER:                  -5.836
REMARK INTRA:                   0.466
REMARK UNBOUND:                -2.248
REMARK SMILES OC[C@@H]1O[C@@H](O[C@H]2[C@@H](O)[C@H](O)[C@H](O[C@H]3[C@H](O)[C@@H](O)[C@@H](O)O[C@@H]3CO)O[C@@H]2CO)[C@@H](O)[C@H](O)[C@H]1O
REMARK SMILES IDX 7 1 26 2 25 3 12 4 10 5 8 6 6 7 5 8 3 9 33 10 4 11 31 12
REMARK SMILES IDX 29 13 2 14 1 15 34 17 32 19 30 21 27 23 28 24 9 26 11 28
REMARK SMILES IDX 13 30 14 31 22 32 15 33 21 34 17 35 19 36 23 37 24 38 16 40
REMARK SMILES IDX 18 42 20 44
REMARK H PARENT 1 16 34 18 32 20 30 22 28 25 9 27 11 29 24 39 16 41 18 43
REMARK H PARENT 20 45
REMARK Flexibility Score: inf
ROOT
ATOM      1  C   UNL     1       7.535  -7.762  -6.272  1.00  0.00     0.184 C 
ATOM      2  C   UNL     1       6.274  -6.942  -5.793  1.00  0.00     0.178 C 
ATOM      3  O   UNL     1       5.795  -7.223  -4.471  1.00  0.00    -0.341 OA
ATOM      4  C   UNL     1       6.776  -7.897  -3.698  1.00  0.00     0.282 C 
ATOM      5  C   UNL     1       7.041  -9.316  -4.285  1.00  0.00     0.202 C 
ATOM      6  C   UNL     1       7.349  -9.235  -5.814  1.00  0.00     0.180 C 
ENDROOT
BRANCH   1   7
ATOM      7  O   UNL     1       8.739  -7.280  -5.659  1.00  0.00    -0.341 OA
BRANCH   7   8
ATOM      8  C   UNL     1       9.721  -6.721  -6.535  1.00  0.00     0.282 C 
ATOM      9  C   UNL     1       9.052  -4.488  -6.051  1.00  0.00     0.178 C 
ATOM     10  C   UNL     1       8.626  -4.216  -7.513  1.00  0.00     0.177 C 
ATOM     11  O   UNL     1      10.125  -5.445  -6.034  1.00  0.00    -0.341 OA
ATOM     12  C   UNL     1       8.042  -5.531  -8.064  1.00  0.00     0.179 C 
ATOM     13  C   UNL     1       9.148  -6.599  -7.994  1.00  0.00     0.202 C 
BRANCH   9  14
ATOM     14  C   UNL     1       9.492  -3.180  -5.333  1.00  0.00     0.191 C 
BRANCH  14  15
ATOM     15  O   UNL     1       8.847  -3.052  -4.088  1.00  0.00    -0.394 OA
ATOM     16  H   UNL     1       7.996  -3.562  -4.173  1.00  0.00     0.210 HD
ENDBRANCH  14  15
ENDBRANCH   9  14
BRANCH  10  17
ATOM     17  O   UNL     1       7.645  -3.204  -7.597  1.00  0.00    -0.387 OA
ATOM     18  H   UNL     1       7.047  -3.288  -6.794  1.00  0.00     0.211 HD
ENDBRANCH  10  17
BRANCH  12  19
ATOM     19  O   UNL     1       7.604  -5.343  -9.401  1.00  0.00    -0.387 OA
ATOM     20  H   UNL     1       8.124  -4.561  -9.726  1.00  0.00     0.211 HD
ENDBRANCH  12  19
BRANCH  13  21
ATOM     21  O   UNL     1       8.607  -7.823  -8.406  1.00  0.00    -0.385 OA
ATOM     22  H   UNL     1       8.167  -8.246  -7.621  1.00  0.00     0.211 HD
ENDBRANCH  13  21
ENDBRANCH   7   8
ENDBRANCH   1   7
BRANCH   2  23
ATOM     23  C   UNL     1       5.098  -7.130  -6.770  1.00  0.00     0.191 C 
BRANCH  23  24
ATOM     24  O   UNL     1       3.870  -7.254  -6.107  1.00  0.00    -0.394 OA
ATOM     25  H   UNL     1       3.193  -6.699  -6.585  1.00  0.00     0.210 HD
ENDBRANCH  23  24
ENDBRANCH   2  23
BRANCH   6  26
ATOM     26  O   UNL     1       8.507  -9.989  -6.088  1.00  0.00    -0.387 OA
ATOM     27  H   UNL     1       8.273 -10.934  -5.928  1.00  0.00     0.211 HD
ENDBRANCH   6  26
BRANCH   5  28
ATOM     28  O   UNL     1       5.893 -10.084  -4.078  1.00  0.00    -0.385 OA
ATOM     29  H   UNL     1       6.122 -10.744  -3.378  1.00  0.00     0.211 HD
ENDBRANCH   5  28
BRANCH   4  30
ATOM     30  O   UNL     1       6.346  -7.997  -2.337  1.00  0.00    -0.341 OA
BRANCH  30  31
ATOM     31  C   UNL     1       7.485  -8.094  -1.476  1.00  0.00     0.184 C 
ATOM     32  C   UNL     1       7.187  -8.799  -0.127  1.00  0.00     0.178 C 
ATOM     33  C   UNL     1       8.100  -6.730  -1.133  1.00  0.00     0.180 C 
ATOM     34  O   UNL     1       8.403  -9.088   0.547  1.00  0.00    -0.342 OA
ATOM     35  C   UNL     1       9.469  -7.041  -0.487  1.00  0.00     0.201 C 
ATOM     36  C   UNL     1       9.230  -7.934   0.779  1.00  0.00     0.279 C 
BRANCH  32  37
ATOM     37  C   UNL     1       6.455 -10.125  -0.388  1.00  0.00     0.191 C 
BRANCH  37  38
ATOM     38  O   UNL     1       5.256  -9.903  -1.084  1.00  0.00    -0.394 OA
ATOM     39  H   UNL     1       5.514  -9.397  -1.901  1.00  0.00     0.210 HD
ENDBRANCH  37  38
ENDBRANCH  32  37
BRANCH  33  40
ATOM     40  O   UNL     1       8.274  -5.889  -2.249  1.00  0.00    -0.387 OA
ATOM     41  H   UNL     1       8.938  -5.203  -1.998  1.00  0.00     0.211 HD
ENDBRANCH  33  40
BRANCH  35  42
ATOM     42  O   UNL     1      10.125  -5.841  -0.126  1.00  0.00    -0.385 OA
ATOM     43  H   UNL     1      10.969  -5.797  -0.658  1.00  0.00     0.211 HD
ENDBRANCH  35  42
BRANCH  36  44
ATOM     44  O   UNL     1       8.717  -7.147   1.812  1.00  0.00    -0.366 OA
ATOM     45  H   UNL     1       9.387  -7.129   2.563  1.00  0.00     0.213 HD
ENDBRANCH  36  44
ENDBRANCH  30  31
ENDBRANCH   4  30
TORSDOF 18
ENDMDL
MODEL 8
REMARK VINA RESULT:    -1.736      2.321      5.656
REMARK INTER + INTRA:          -5.252
REMARK INTER:                  -5.345
REMARK INTRA:                   0.093
REMARK UNBOUND:                -2.248
REMARK SMILES OC[C@@H]1O[C@@H](O[C@H]2[C@@H](O)[C@H](O)[C@H](O[C@H]3[C@H](O)[C@@H](O)[C@@H](O)O[C@@H]3CO)O[C@@H]2CO)[C@@H](O)[C@H](O)[C@H]1O
REMARK SMILES IDX 7 1 26 2 25 3 12 4 10 5 8 6 6 7 5 8 3 9 33 10 4 11 31 12
REMARK SMILES IDX 29 13 2 14 1 15 34 17 32 19 30 21 27 23 28 24 9 26 11 28
REMARK SMILES IDX 13 30 14 31 22 32 15 33 21 34 17 35 19 36 23 37 24 38 16 40
REMARK SMILES IDX 18 42 20 44
REMARK H PARENT 1 16 34 18 32 20 30 22 28 25 9 27 11 29 24 39 16 41 18 43
REMARK H PARENT 20 45
REMARK Flexibility Score: inf
ROOT
ATOM      1  C   UNL     1       6.804  -6.595  -8.312  1.00  0.00     0.184 C 
ATOM      2  C   UNL     1       5.460  -7.110  -7.664  1.00  0.00     0.178 C 
ATOM      3  O   UNL     1       5.566  -8.243  -6.791  1.00  0.00    -0.341 OA
ATOM      4  C   UNL     1       6.904  -8.444  -6.364  1.00  0.00     0.282 C 
ATOM      5  C   UNL     1       7.799  -8.848  -7.574  1.00  0.00     0.202 C 
ATOM      6  C   UNL     1       7.629  -7.836  -8.752  1.00  0.00     0.180 C 
ENDROOT
BRANCH   1   7
ATOM      7  O   UNL     1       7.604  -5.876  -7.362  1.00  0.00    -0.341 OA
BRANCH   7   8
ATOM      8  C   UNL     1       9.000  -5.772  -7.653  1.00  0.00     0.282 C 
ATOM      9  C   UNL     1       9.442  -4.532  -5.669  1.00  0.00     0.178 C 
ATOM     10  C   UNL     1       9.912  -3.288  -6.458  1.00  0.00     0.177 C 
ATOM     11  O   UNL     1       9.732  -5.720  -6.426  1.00  0.00    -0.341 OA
ATOM     12  C   UNL     1       9.050  -3.210  -7.732  1.00  0.00     0.179 C 
ATOM     13  C   UNL     1       9.283  -4.502  -8.535  1.00  0.00     0.202 C 
BRANCH   9  14
ATOM     14  C   UNL     1      10.122  -4.612  -4.273  1.00  0.00     0.191 C 
BRANCH  14  15
ATOM     15  O   UNL     1       9.456  -3.789  -3.344  1.00  0.00    -0.394 OA
ATOM     16  H   UNL     1       8.491  -3.840  -3.585  1.00  0.00     0.210 HD
ENDBRANCH  14  15
ENDBRANCH   9  14
BRANCH  10  17
ATOM     17  O   UNL     1       9.747  -2.099  -5.715  1.00  0.00    -0.387 OA
ATOM     18  H   UNL     1      10.409  -2.113  -4.960  1.00  0.00     0.211 HD
ENDBRANCH  10  17
BRANCH  12  19
ATOM     19  O   UNL     1       9.412  -2.069  -8.493  1.00  0.00    -0.387 OA
ATOM     20  H   UNL     1      10.159  -1.657  -7.983  1.00  0.00     0.211 HD
ENDBRANCH  12  19
BRANCH  13  21
ATOM     21  O   UNL     1       8.437  -4.488  -9.651  1.00  0.00    -0.385 OA
ATOM     22  H   UNL     1       8.109  -3.558  -9.778  1.00  0.00     0.211 HD
ENDBRANCH  13  21
ENDBRANCH   7   8
ENDBRANCH   1   7
BRANCH   2  23
ATOM     23  C   UNL     1       4.425  -7.449  -8.754  1.00  0.00     0.191 C 
BRANCH  23  24
ATOM     24  O   UNL     1       3.262  -8.022  -8.222  1.00  0.00    -0.394 OA
ATOM     25  H   UNL     1       3.125  -8.914  -8.647  1.00  0.00     0.210 HD
ENDBRANCH  23  24
ENDBRANCH   2  23
BRANCH   6  26
ATOM     26  O   UNL     1       8.903  -7.449  -9.210  1.00  0.00    -0.387 OA
ATOM     27  H   UNL     1       9.443  -8.272  -9.272  1.00  0.00     0.211 HD
ENDBRANCH   6  26
BRANCH   5  28
ATOM     28  O   UNL     1       7.405 -10.121  -7.989  1.00  0.00    -0.385 OA
ATOM     29  H   UNL     1       6.630 -10.370  -7.428  1.00  0.00     0.211 HD
ENDBRANCH   5  28
BRANCH   4  30
ATOM     30  O   UNL     1       6.951  -9.456  -5.354  1.00  0.00    -0.341 OA
BRANCH  30  31
ATOM     31  C   UNL     1       7.178  -8.854  -4.076  1.00  0.00     0.184 C 
ATOM     32  C   UNL     1       5.999  -7.972  -3.586  1.00  0.00     0.178 C 
ATOM     33  C   UNL     1       8.433  -7.971  -4.039  1.00  0.00     0.180 C 
ATOM     34  O   UNL     1       6.185  -7.631  -2.221  1.00  0.00    -0.342 OA
ATOM     35  C   UNL     1       8.693  -7.679  -2.544  1.00  0.00     0.201 C 
ATOM     36  C   UNL     1       7.431  -6.964  -1.950  1.00  0.00     0.279 C 
BRANCH  32  37
ATOM     37  C   UNL     1       4.682  -8.754  -3.712  1.00  0.00     0.191 C 
BRANCH  37  38
ATOM     38  O   UNL     1       4.409  -9.463  -2.531  1.00  0.00    -0.394 OA
ATOM     39  H   UNL     1       3.613  -9.018  -2.133  1.00  0.00     0.210 HD
ENDBRANCH  37  38
ENDBRANCH  32  37
BRANCH  33  40
ATOM     40  O   UNL     1       9.568  -8.572  -4.617  1.00  0.00    -0.387 OA
ATOM     41  H   UNL     1       9.743  -9.406  -4.119  1.00  0.00     0.211 HD
ENDBRANCH  33  40
BRANCH  35  42
ATOM     42  O   UNL     1       9.838  -6.861  -2.396  1.00  0.00    -0.385 OA
ATOM     43  H   UNL     1      10.635  -7.460  -2.452  1.00  0.00     0.211 HD
ENDBRANCH  35  42
BRANCH  36  44
ATOM     44  O   UNL     1       7.398  -5.639  -2.390  1.00  0.00    -0.366 OA
ATOM     45  H   UNL     1       6.909  -5.606  -3.269  1.00  0.00     0.213 HD
ENDBRANCH  36  44
ENDBRANCH  30  31
ENDBRANCH   4  30
TORSDOF 18
ENDMDL
MODEL 9
REMARK VINA RESULT:    -1.648      2.126      5.013
REMARK INTER + INTRA:          -5.100
REMARK INTER:                  -6.309
REMARK INTRA:                   1.209
REMARK UNBOUND:                -2.248
REMARK SMILES OC[C@@H]1O[C@@H](O[C@H]2[C@@H](O)[C@H](O)[C@H](O[C@H]3[C@H](O)[C@@H](O)[C@@H](O)O[C@@H]3CO)O[C@@H]2CO)[C@@H](O)[C@H](O)[C@H]1O
REMARK SMILES IDX 7 1 26 2 25 3 12 4 10 5 8 6 6 7 5 8 3 9 33 10 4 11 31 12
REMARK SMILES IDX 29 13 2 14 1 15 34 17 32 19 30 21 27 23 28 24 9 26 11 28
REMARK SMILES IDX 13 30 14 31 22 32 15 33 21 34 17 35 19 36 23 37 24 38 16 40
REMARK SMILES IDX 18 42 20 44
REMARK H PARENT 1 16 34 18 32 20 30 22 28 25 9 27 11 29 24 39 16 41 18 43
REMARK H PARENT 20 45
REMARK Flexibility Score: inf
ROOT
ATOM      1  C   UNL     1       7.497  -7.511  -6.497  1.00  0.00     0.184 C 
ATOM      2  C   UNL     1       6.036  -6.914  -6.529  1.00  0.00     0.178 C 
ATOM      3  O   UNL     1       5.242  -7.108  -5.351  1.00  0.00    -0.341 OA
ATOM      4  C   UNL     1       6.047  -7.453  -4.235  1.00  0.00     0.282 C 
ATOM      5  C   UNL     1       6.698  -8.852  -4.454  1.00  0.00     0.202 C 
ATOM      6  C   UNL     1       7.424  -8.915  -5.835  1.00  0.00     0.180 C 
ENDROOT
BRANCH   1   7
ATOM      7  O   UNL     1       8.374  -6.712  -5.691  1.00  0.00    -0.341 OA
BRANCH   7   8
ATOM      8  C   UNL     1       9.662  -6.425  -6.242  1.00  0.00     0.282 C 
ATOM      9  C   UNL     1       9.306  -4.073  -6.155  1.00  0.00     0.178 C 
ATOM     10  C   UNL     1       9.403  -3.923  -7.692  1.00  0.00     0.177 C 
ATOM     11  O   UNL     1      10.125  -5.175  -5.728  1.00  0.00    -0.341 OA
ATOM     12  C   UNL     1       8.780  -5.190  -8.308  1.00  0.00     0.179 C 
ATOM     13  C   UNL     1       9.592  -6.399  -7.813  1.00  0.00     0.202 C 
BRANCH   9  14
ATOM     14  C   UNL     1       9.743  -2.771  -5.427  1.00  0.00     0.191 C 
BRANCH  14  15
ATOM     15  O   UNL     1       8.973  -2.564  -4.266  1.00  0.00    -0.394 OA
ATOM     16  H   UNL     1       8.480  -1.713  -4.420  1.00  0.00     0.210 HD
ENDBRANCH  14  15
ENDBRANCH   9  14
BRANCH  10  17
ATOM     17  O   UNL     1       8.700  -2.790  -8.156  1.00  0.00    -0.387 OA
ATOM     18  H   UNL     1       7.742  -2.881  -7.865  1.00  0.00     0.211 HD
ENDBRANCH  10  17
BRANCH  12  19
ATOM     19  O   UNL     1       8.811  -5.104  -9.724  1.00  0.00    -0.387 OA
ATOM     20  H   UNL     1       9.362  -4.299  -9.913  1.00  0.00     0.211 HD
ENDBRANCH  12  19
BRANCH  13  21
ATOM     21  O   UNL     1       8.983  -7.566  -8.291  1.00  0.00    -0.385 OA
ATOM     22  H   UNL     1       9.532  -8.343  -7.999  1.00  0.00     0.211 HD
ENDBRANCH  13  21
ENDBRANCH   7   8
ENDBRANCH   1   7
BRANCH   2  23
ATOM     23  C   UNL     1       5.245  -7.473  -7.728  1.00  0.00     0.191 C 
BRANCH  23  24
ATOM     24  O   UNL     1       3.949  -7.868  -7.371  1.00  0.00    -0.394 OA
ATOM     25  H   UNL     1       3.959  -8.174  -6.423  1.00  0.00     0.210 HD
ENDBRANCH  23  24
ENDBRANCH   2  23
BRANCH   6  26
ATOM     26  O   UNL     1       8.717  -9.443  -5.649  1.00  0.00    -0.387 OA
ATOM     27  H   UNL     1       8.656 -10.411  -5.831  1.00  0.00     0.211 HD
ENDBRANCH   6  26
BRANCH   5  28
ATOM     28  O   UNL     1       5.679  -9.806  -4.415  1.00  0.00    -0.385 OA
ATOM     29  H   UNL     1       4.847  -9.336  -4.668  1.00  0.00     0.211 HD
ENDBRANCH   5  28
BRANCH   4  30
ATOM     30  O   UNL     1       5.259  -7.455  -3.041  1.00  0.00    -0.341 OA
BRANCH  30  31
ATOM     31  C   UNL     1       6.117  -7.418  -1.895  1.00  0.00     0.184 C 
ATOM     32  C   UNL     1       7.555  -6.931  -2.211  1.00  0.00     0.178 C 
ATOM     33  C   UNL     1       6.254  -8.779  -1.200  1.00  0.00     0.180 C 
ATOM     34  O   UNL     1       8.255  -6.673  -1.004  1.00  0.00    -0.342 OA
ATOM     35  C   UNL     1       6.929  -8.486   0.159  1.00  0.00     0.201 C 
ATOM     36  C   UNL     1       8.312  -7.799  -0.109  1.00  0.00     0.279 C 
BRANCH  32  37
ATOM     37  C   UNL     1       7.494  -5.626  -3.020  1.00  0.00     0.191 C 
BRANCH  37  38
ATOM     38  O   UNL     1       8.746  -4.992  -3.038  1.00  0.00    -0.394 OA
ATOM     39  H   UNL     1       9.403  -5.695  -2.783  1.00  0.00     0.210 HD
ENDBRANCH  37  38
ENDBRANCH  32  37
BRANCH  33  40
ATOM     40  O   UNL     1       5.028  -9.440  -0.997  1.00  0.00    -0.387 OA
ATOM     41  H   UNL     1       4.514  -8.910  -0.343  1.00  0.00     0.211 HD
ENDBRANCH  33  40
BRANCH  35  42
ATOM     42  O   UNL     1       7.108  -9.686   0.887  1.00  0.00    -0.385 OA
ATOM     43  H   UNL     1       6.613  -9.583   1.748  1.00  0.00     0.211 HD
ENDBRANCH  35  42
BRANCH  36  44
ATOM     44  O   UNL     1       9.225  -8.754  -0.562  1.00  0.00    -0.366 OA
ATOM     45  H   UNL     1       8.881  -9.142  -1.425  1.00  0.00     0.213 HD
ENDBRANCH  36  44
ENDBRANCH  30  31
ENDBRANCH   4  30
TORSDOF 18
ENDMDL
