MODEL 1
REMARK VINA RESULT:    -5.431      0.000      0.000
REMARK INTER + INTRA:          -6.508
REMARK INTER:                  -6.383
REMARK INTRA:                  -0.125
REMARK UNBOUND:                -0.125
REMARK SMILES O=c1c(O)c(-c2ccc(O)c(O)c2)oc2cc(O)ccc12
REMARK SMILES IDX 5 1 3 2 2 3 1 4 21 5 15 6 14 7 16 8 17 9 19 10 20 11 6 12
REMARK SMILES IDX 7 13 8 14 9 15 13 16 11 17 10 18 12 20 4 22 18 24
REMARK H PARENT 10 19 12 21 4 23 18 25
REMARK Flexibility Score: inf
ROOT
ATOM      1  C   UNL     1      24.810  29.841   6.675  1.00  0.00     0.180 A 
ATOM      2  C   UNL     1      26.003  30.197   7.339  1.00  0.00     0.208 A 
ATOM      3  C   UNL     1      26.990  29.217   7.529  1.00  0.00     0.235 A 
ATOM      4  O   UNL     1      28.061  29.509   8.130  1.00  0.00    -0.285 OA
ATOM      5  C   UNL     1      26.777  27.918   7.041  1.00  0.00     0.069 A 
ATOM      6  C   UNL     1      25.567  27.647   6.367  1.00  0.00     0.142 A 
ATOM      7  O   UNL     1      24.655  28.601   6.214  1.00  0.00    -0.452 OA
ATOM      8  C   UNL     1      25.321  26.368   5.857  1.00  0.00     0.094 A 
ATOM      9  C   UNL     1      26.272  25.351   6.015  1.00  0.00     0.119 A 
ATOM     10  C   UNL     1      27.471  25.616   6.684  1.00  0.00     0.047 A 
ATOM     11  C   UNL     1      27.726  26.893   7.196  1.00  0.00     0.020 A 
ENDROOT
BRANCH   1  12
ATOM     12  C   UNL     1      23.716  30.811   6.450  1.00  0.00     0.025 A 
ATOM     13  C   UNL     1      23.341  31.205   5.153  1.00  0.00     0.016 A 
ATOM     14  C   UNL     1      22.321  32.142   4.967  1.00  0.00     0.051 A 
ATOM     15  C   UNL     1      21.671  32.709   6.067  1.00  0.00     0.157 A 
ATOM     16  C   UNL     1      23.075  31.398   7.554  1.00  0.00     0.062 A 
ATOM     17  C   UNL     1      22.051  32.338   7.368  1.00  0.00     0.158 A 
BRANCH  15  18
ATOM     18  O   UNL     1      20.656  33.639   5.849  1.00  0.00    -0.504 OA
ATOM     19  H   UNL     1      20.051  33.596   5.037  1.00  0.00     0.293 HD
ENDBRANCH  15  18
BRANCH  17  20
ATOM     20  O   UNL     1      21.412  32.905   8.470  1.00  0.00    -0.504 OA
ATOM     21  H   UNL     1      21.802  33.704   8.956  1.00  0.00     0.293 HD
ENDBRANCH  17  20
ENDBRANCH   1  12
BRANCH   2  22
ATOM     22  O   UNL     1      26.208  31.510   7.769  1.00  0.00    -0.502 OA
ATOM     23  H   UNL     1      25.827  31.859   8.642  1.00  0.00     0.293 HD
ENDBRANCH   2  22
BRANCH   9  24
ATOM     24  O   UNL     1      26.036  24.074   5.511  1.00  0.00    -0.508 OA
ATOM     25  H   UNL     1      26.774  23.531   5.078  1.00  0.00     0.293 HD
ENDBRANCH   9  24
TORSDOF 5
ENDMDL
MODEL 2
REMARK VINA RESULT:    -5.429      1.101      1.270
REMARK INTER + INTRA:          -6.506
REMARK INTER:                  -6.212
REMARK INTRA:                  -0.294
REMARK UNBOUND:                -0.125
REMARK SMILES O=c1c(O)c(-c2ccc(O)c(O)c2)oc2cc(O)ccc12
REMARK SMILES IDX 5 1 3 2 2 3 1 4 21 5 15 6 14 7 16 8 17 9 19 10 20 11 6 12
REMARK SMILES IDX 7 13 8 14 9 15 13 16 11 17 10 18 12 20 4 22 18 24
REMARK H PARENT 10 19 12 21 4 23 18 25
REMARK Flexibility Score: inf
ROOT
ATOM      1  C   UNL     1      24.164  29.572   5.977  1.00  0.00     0.180 A 
ATOM      2  C   UNL     1      25.540  29.749   6.232  1.00  0.00     0.208 A 
ATOM      3  C   UNL     1      26.355  28.614   6.366  1.00  0.00     0.235 A 
ATOM      4  O   UNL     1      27.587  28.747   6.605  1.00  0.00    -0.285 OA
ATOM      5  C   UNL     1      25.789  27.337   6.225  1.00  0.00     0.069 A 
ATOM      6  C   UNL     1      24.409  27.245   5.947  1.00  0.00     0.142 A 
ATOM      7  O   UNL     1      23.670  28.344   5.836  1.00  0.00    -0.452 OA
ATOM      8  C   UNL     1      23.809  25.990   5.790  1.00  0.00     0.094 A 
ATOM      9  C   UNL     1      24.574  24.823   5.910  1.00  0.00     0.119 A 
ATOM     10  C   UNL     1      25.942  24.912   6.187  1.00  0.00     0.047 A 
ATOM     11  C   UNL     1      26.551  26.161   6.344  1.00  0.00     0.020 A 
ENDROOT
BRANCH   1  12
ATOM     12  C   UNL     1      23.237  30.717   5.840  1.00  0.00     0.025 A 
ATOM     13  C   UNL     1      22.883  31.226   4.578  1.00  0.00     0.016 A 
ATOM     14  C   UNL     1      22.025  32.324   4.474  1.00  0.00     0.051 A 
ATOM     15  C   UNL     1      21.518  32.938   5.624  1.00  0.00     0.157 A 
ATOM     16  C   UNL     1      22.743  31.349   6.994  1.00  0.00     0.062 A 
ATOM     17  C   UNL     1      21.881  32.451   6.891  1.00  0.00     0.158 A 
BRANCH  15  18
ATOM     18  O   UNL     1      20.663  34.030   5.489  1.00  0.00    -0.504 OA
ATOM     19  H   UNL     1      20.010  34.296   6.217  1.00  0.00     0.293 HD
ENDBRANCH  15  18
BRANCH  17  20
ATOM     20  O   UNL     1      21.387  33.063   8.042  1.00  0.00    -0.504 OA
ATOM     21  H   UNL     1      20.964  33.983   8.015  1.00  0.00     0.293 HD
ENDBRANCH  17  20
ENDBRANCH   1  12
BRANCH   2  22
ATOM     22  O   UNL     1      26.084  31.033   6.318  1.00  0.00    -0.502 OA
ATOM     23  H   UNL     1      26.578  31.358   7.141  1.00  0.00     0.293 HD
ENDBRANCH   2  22
BRANCH   9  24
ATOM     24  O   UNL     1      23.985  23.570   5.755  1.00  0.00    -0.508 OA
ATOM     25  H   UNL     1      22.983  23.443   5.828  1.00  0.00     0.293 HD
ENDBRANCH   9  24
TORSDOF 5
ENDMDL
MODEL 3
REMARK VINA RESULT:    -4.985      1.884      3.229
REMARK INTER + INTRA:          -5.985
REMARK INTER:                  -5.840
REMARK INTRA:                  -0.145
REMARK UNBOUND:                -0.125
REMARK SMILES O=c1c(O)c(-c2ccc(O)c(O)c2)oc2cc(O)ccc12
REMARK SMILES IDX 5 1 3 2 2 3 1 4 21 5 15 6 14 7 16 8 17 9 19 10 20 11 6 12
REMARK SMILES IDX 7 13 8 14 9 15 13 16 11 17 10 18 12 20 4 22 18 24
REMARK H PARENT 10 19 12 21 4 23 18 25
REMARK Flexibility Score: inf
ROOT
ATOM      1  C   UNL     1      23.328  29.353   5.067  1.00  0.00     0.180 A 
ATOM      2  C   UNL     1      22.762  28.266   4.367  1.00  0.00     0.208 A 
ATOM      3  C   UNL     1      23.418  27.026   4.401  1.00  0.00     0.235 A 
ATOM      4  O   UNL     1      22.937  26.041   3.774  1.00  0.00    -0.285 OA
ATOM      5  C   UNL     1      24.602  26.890   5.143  1.00  0.00     0.069 A 
ATOM      6  C   UNL     1      25.090  28.019   5.835  1.00  0.00     0.142 A 
ATOM      7  O   UNL     1      24.445  29.178   5.770  1.00  0.00    -0.452 OA
ATOM      8  C   UNL     1      26.262  27.922   6.593  1.00  0.00     0.094 A 
ATOM      9  C   UNL     1      26.956  26.707   6.667  1.00  0.00     0.119 A 
ATOM     10  C   UNL     1      26.475  25.587   5.980  1.00  0.00     0.047 A 
ATOM     11  C   UNL     1      25.304  25.674   5.221  1.00  0.00     0.020 A 
ENDROOT
BRANCH   1  12
ATOM     12  C   UNL     1      22.707  30.697   5.065  1.00  0.00     0.025 A 
ATOM     13  C   UNL     1      22.529  31.420   3.872  1.00  0.00     0.016 A 
ATOM     14  C   UNL     1      21.963  32.697   3.898  1.00  0.00     0.051 A 
ATOM     15  C   UNL     1      21.580  33.277   5.111  1.00  0.00     0.157 A 
ATOM     16  C   UNL     1      22.341  31.291   6.285  1.00  0.00     0.062 A 
ATOM     17  C   UNL     1      21.772  32.573   6.312  1.00  0.00     0.158 A 
BRANCH  15  18
ATOM     18  O   UNL     1      21.016  34.552   5.105  1.00  0.00    -0.504 OA
ATOM     19  H   UNL     1      21.033  35.145   4.283  1.00  0.00     0.293 HD
ENDBRANCH  15  18
BRANCH  17  20
ATOM     20  O   UNL     1      21.401  33.148   7.526  1.00  0.00    -0.504 OA
ATOM     21  H   UNL     1      20.922  32.614   8.242  1.00  0.00     0.293 HD
ENDBRANCH  17  20
ENDBRANCH   1  12
BRANCH   2  22
ATOM     22  O   UNL     1      21.557  28.419   3.678  1.00  0.00    -0.502 OA
ATOM     23  H   UNL     1      21.313  27.845   2.878  1.00  0.00     0.293 HD
ENDBRANCH   2  22
BRANCH   9  24
ATOM     24  O   UNL     1      28.124  26.601   7.419  1.00  0.00    -0.508 OA
ATOM     25  H   UNL     1      29.038  26.718   6.997  1.00  0.00     0.293 HD
ENDBRANCH   9  24
TORSDOF 5
ENDMDL
MODEL 4
REMARK VINA RESULT:    -4.924      2.681      5.869
REMARK INTER + INTRA:          -5.913
REMARK INTER:                  -5.604
REMARK INTRA:                  -0.309
REMARK UNBOUND:                -0.125
REMARK SMILES O=c1c(O)c(-c2ccc(O)c(O)c2)oc2cc(O)ccc12
REMARK SMILES IDX 5 1 3 2 2 3 1 4 21 5 15 6 14 7 16 8 17 9 19 10 20 11 6 12
REMARK SMILES IDX 7 13 8 14 9 15 13 16 11 17 10 18 12 20 4 22 18 24
REMARK H PARENT 10 19 12 21 4 23 18 25
REMARK Flexibility Score: inf
ROOT
ATOM      1  C   UNL     1      24.495  27.330   5.918  1.00  0.00     0.180 A 
ATOM      2  C   UNL     1      25.854  27.023   6.136  1.00  0.00     0.208 A 
ATOM      3  C   UNL     1      26.667  27.969   6.778  1.00  0.00     0.235 A 
ATOM      4  O   UNL     1      27.889  27.721   6.975  1.00  0.00    -0.285 OA
ATOM      5  C   UNL     1      26.109  29.184   7.205  1.00  0.00     0.069 A 
ATOM      6  C   UNL     1      24.735  29.407   6.971  1.00  0.00     0.142 A 
ATOM      7  O   UNL     1      24.001  28.488   6.352  1.00  0.00    -0.452 OA
ATOM      8  C   UNL     1      24.138  30.601   7.390  1.00  0.00     0.094 A 
ATOM      9  C   UNL     1      24.900  31.581   8.039  1.00  0.00     0.119 A 
ATOM     10  C   UNL     1      26.263  31.363   8.271  1.00  0.00     0.047 A 
ATOM     11  C   UNL     1      26.867  30.172   7.857  1.00  0.00     0.020 A 
ENDROOT
BRANCH   1  12
ATOM     12  C   UNL     1      23.577  26.393   5.233  1.00  0.00     0.025 A 
ATOM     13  C   UNL     1      23.540  26.298   3.831  1.00  0.00     0.016 A 
ATOM     14  C   UNL     1      22.649  25.423   3.205  1.00  0.00     0.051 A 
ATOM     15  C   UNL     1      21.772  24.643   3.965  1.00  0.00     0.157 A 
ATOM     16  C   UNL     1      22.681  25.623   5.993  1.00  0.00     0.062 A 
ATOM     17  C   UNL     1      21.785  24.744   5.366  1.00  0.00     0.158 A 
BRANCH  15  18
ATOM     18  O   UNL     1      20.894  23.778   3.313  1.00  0.00    -0.504 OA
ATOM     19  H   UNL     1      20.379  24.056   2.486  1.00  0.00     0.293 HD
ENDBRANCH  15  18
BRANCH  17  20
ATOM     20  O   UNL     1      20.909  23.975   6.131  1.00  0.00    -0.504 OA
ATOM     21  H   UNL     1      21.231  23.176   6.664  1.00  0.00     0.293 HD
ENDBRANCH  17  20
ENDBRANCH   1  12
BRANCH   2  22
ATOM     22  O   UNL     1      26.371  25.785   5.745  1.00  0.00    -0.502 OA
ATOM     23  H   UNL     1      26.739  25.621   4.815  1.00  0.00     0.293 HD
ENDBRANCH   2  22
BRANCH   9  24
ATOM     24  O   UNL     1      24.315  32.773   8.459  1.00  0.00    -0.508 OA
ATOM     25  H   UNL     1      23.761  32.821   9.306  1.00  0.00     0.293 HD
ENDBRANCH   9  24
TORSDOF 5
ENDMDL
MODEL 5
REMARK VINA RESULT:    -4.890      1.616      6.275
REMARK INTER + INTRA:          -5.872
REMARK INTER:                  -5.548
REMARK INTRA:                  -0.324
REMARK UNBOUND:                -0.125
REMARK SMILES O=c1c(O)c(-c2ccc(O)c(O)c2)oc2cc(O)ccc12
REMARK SMILES IDX 5 1 3 2 2 3 1 4 21 5 15 6 14 7 16 8 17 9 19 10 20 11 6 12
REMARK SMILES IDX 7 13 8 14 9 15 13 16 11 17 10 18 12 20 4 22 18 24
REMARK H PARENT 10 19 12 21 4 23 18 25
REMARK Flexibility Score: inf
ROOT
ATOM      1  C   UNL     1      25.423  28.229   6.107  1.00  0.00     0.180 A 
ATOM      2  C   UNL     1      26.652  28.568   6.713  1.00  0.00     0.208 A 
ATOM      3  C   UNL     1      26.729  29.746   7.472  1.00  0.00     0.235 A 
ATOM      4  O   UNL     1      27.820  30.076   8.015  1.00  0.00    -0.285 OA
ATOM      5  C   UNL     1      25.585  30.545   7.625  1.00  0.00     0.069 A 
ATOM      6  C   UNL     1      24.388  30.125   7.007  1.00  0.00     0.142 A 
ATOM      7  O   UNL     1      24.359  29.007   6.290  1.00  0.00    -0.452 OA
ATOM      8  C   UNL     1      23.224  30.889   7.144  1.00  0.00     0.094 A 
ATOM      9  C   UNL     1      23.241  32.073   7.893  1.00  0.00     0.119 A 
ATOM     10  C   UNL     1      24.427  32.492   8.505  1.00  0.00     0.047 A 
ATOM     11  C   UNL     1      25.595  31.735   8.375  1.00  0.00     0.020 A 
ENDROOT
BRANCH   1  12
ATOM     12  C   UNL     1      25.266  27.013   5.279  1.00  0.00     0.025 A 
ATOM     13  C   UNL     1      25.507  27.034   3.894  1.00  0.00     0.016 A 
ATOM     14  C   UNL     1      25.328  25.879   3.128  1.00  0.00     0.051 A 
ATOM     15  C   UNL     1      24.893  24.693   3.726  1.00  0.00     0.157 A 
ATOM     16  C   UNL     1      24.808  25.825   5.874  1.00  0.00     0.062 A 
ATOM     17  C   UNL     1      24.628  24.665   5.106  1.00  0.00     0.158 A 
BRANCH  15  18
ATOM     18  O   UNL     1      24.724  23.557   2.936  1.00  0.00    -0.504 OA
ATOM     19  H   UNL     1      23.875  23.005   2.960  1.00  0.00     0.293 HD
ENDBRANCH  15  18
BRANCH  17  20
ATOM     20  O   UNL     1      24.186  23.489   5.708  1.00  0.00    -0.504 OA
ATOM     21  H   UNL     1      23.290  23.076   5.475  1.00  0.00     0.293 HD
ENDBRANCH  17  20
ENDBRANCH   1  12
BRANCH   2  22
ATOM     22  O   UNL     1      27.760  27.727   6.584  1.00  0.00    -0.502 OA
ATOM     23  H   UNL     1      28.244  27.601   5.702  1.00  0.00     0.293 HD
ENDBRANCH   2  22
BRANCH   9  24
ATOM     24  O   UNL     1      22.087  32.840   8.035  1.00  0.00    -0.508 OA
ATOM     25  H   UNL     1      21.946  33.689   7.500  1.00  0.00     0.293 HD
ENDBRANCH   9  24
TORSDOF 5
ENDMDL
MODEL 6
REMARK VINA RESULT:    -4.821      2.848      6.334
REMARK INTER + INTRA:          -5.791
REMARK INTER:                  -5.549
REMARK INTRA:                  -0.242
REMARK UNBOUND:                -0.125
REMARK SMILES O=c1c(O)c(-c2ccc(O)c(O)c2)oc2cc(O)ccc12
REMARK SMILES IDX 5 1 3 2 2 3 1 4 21 5 15 6 14 7 16 8 17 9 19 10 20 11 6 12
REMARK SMILES IDX 7 13 8 14 9 15 13 16 11 17 10 18 12 20 4 22 18 24
REMARK H PARENT 10 19 12 21 4 23 18 25
REMARK Flexibility Score: inf
ROOT
ATOM      1  C   UNL     1      23.653  27.334   5.435  1.00  0.00     0.180 A 
ATOM      2  C   UNL     1      22.900  28.480   5.102  1.00  0.00     0.208 A 
ATOM      3  C   UNL     1      23.348  29.735   5.543  1.00  0.00     0.235 A 
ATOM      4  O   UNL     1      22.686  30.774   5.267  1.00  0.00    -0.285 OA
ATOM      5  C   UNL     1      24.537  29.823   6.284  1.00  0.00     0.069 A 
ATOM      6  C   UNL     1      25.245  28.633   6.556  1.00  0.00     0.142 A 
ATOM      7  O   UNL     1      24.783  27.463   6.127  1.00  0.00    -0.452 OA
ATOM      8  C   UNL     1      26.440  28.680   7.283  1.00  0.00     0.094 A 
ATOM      9  C   UNL     1      26.937  29.905   7.745  1.00  0.00     0.119 A 
ATOM     10  C   UNL     1      26.236  31.086   7.479  1.00  0.00     0.047 A 
ATOM     11  C   UNL     1      25.042  31.049   6.752  1.00  0.00     0.020 A 
ENDROOT
BRANCH   1  12
ATOM     12  C   UNL     1      23.238  25.975   5.023  1.00  0.00     0.025 A 
ATOM     13  C   UNL     1      23.882  25.301   3.970  1.00  0.00     0.016 A 
ATOM     14  C   UNL     1      23.457  24.028   3.582  1.00  0.00     0.051 A 
ATOM     15  C   UNL     1      22.378  23.414   4.226  1.00  0.00     0.157 A 
ATOM     16  C   UNL     1      22.141  25.365   5.654  1.00  0.00     0.062 A 
ATOM     17  C   UNL     1      21.713  24.087   5.265  1.00  0.00     0.158 A 
BRANCH  15  18
ATOM     18  O   UNL     1      21.978  22.143   3.818  1.00  0.00    -0.504 OA
ATOM     19  H   UNL     1      21.971  21.351   4.451  1.00  0.00     0.293 HD
ENDBRANCH  15  18
BRANCH  17  20
ATOM     20  O   UNL     1      20.632  23.485   5.907  1.00  0.00    -0.504 OA
ATOM     21  H   UNL     1      19.688  23.570   5.549  1.00  0.00     0.293 HD
ENDBRANCH  17  20
ENDBRANCH   1  12
BRANCH   2  22
ATOM     22  O   UNL     1      21.747  28.367   4.322  1.00  0.00    -0.502 OA
ATOM     23  H   UNL     1      21.590  27.583   3.698  1.00  0.00     0.293 HD
ENDBRANCH   2  22
BRANCH   9  24
ATOM     24  O   UNL     1      28.125  29.961   8.470  1.00  0.00    -0.508 OA
ATOM     25  H   UNL     1      28.130  30.157   9.464  1.00  0.00     0.293 HD
ENDBRANCH   9  24
TORSDOF 5
ENDMDL
MODEL 7
REMARK VINA RESULT:    -4.438      3.121      5.282
REMARK INTER + INTRA:          -5.342
REMARK INTER:                  -5.198
REMARK INTRA:                  -0.144
REMARK UNBOUND:                -0.125
REMARK SMILES O=c1c(O)c(-c2ccc(O)c(O)c2)oc2cc(O)ccc12
REMARK SMILES IDX 5 1 3 2 2 3 1 4 21 5 15 6 14 7 16 8 17 9 19 10 20 11 6 12
REMARK SMILES IDX 7 13 8 14 9 15 13 16 11 17 10 18 12 20 4 22 18 24
REMARK H PARENT 10 19 12 21 4 23 18 25
REMARK Flexibility Score: inf
ROOT
ATOM      1  C   UNL     1      23.768  28.423   5.608  1.00  0.00     0.180 A 
ATOM      2  C   UNL     1      23.114  29.023   4.511  1.00  0.00     0.208 A 
ATOM      3  C   UNL     1      22.089  28.314   3.865  1.00  0.00     0.235 A 
ATOM      4  O   UNL     1      21.497  28.825   2.875  1.00  0.00    -0.285 OA
ATOM      5  C   UNL     1      21.728  27.041   4.334  1.00  0.00     0.069 A 
ATOM      6  C   UNL     1      22.414  26.521   5.452  1.00  0.00     0.142 A 
ATOM      7  O   UNL     1      23.384  27.220   6.030  1.00  0.00    -0.452 OA
ATOM      8  C   UNL     1      22.076  25.260   5.955  1.00  0.00     0.094 A 
ATOM      9  C   UNL     1      21.059  24.508   5.353  1.00  0.00     0.119 A 
ATOM     10  C   UNL     1      20.378  25.022   4.243  1.00  0.00     0.047 A 
ATOM     11  C   UNL     1      20.708  26.282   3.734  1.00  0.00     0.020 A 
ENDROOT
BRANCH   1  12
ATOM     12  C   UNL     1      24.869  29.098   6.331  1.00  0.00     0.025 A 
ATOM     13  C   UNL     1      26.165  28.553   6.366  1.00  0.00     0.016 A 
ATOM     14  C   UNL     1      27.183  29.196   7.075  1.00  0.00     0.051 A 
ATOM     15  C   UNL     1      26.922  30.380   7.771  1.00  0.00     0.157 A 
ATOM     16  C   UNL     1      24.605  30.277   7.049  1.00  0.00     0.062 A 
ATOM     17  C   UNL     1      25.626  30.923   7.761  1.00  0.00     0.158 A 
BRANCH  15  18
ATOM     18  O   UNL     1      27.958  30.999   8.468  1.00  0.00    -0.504 OA
ATOM     19  H   UNL     1      28.931  30.868   8.216  1.00  0.00     0.293 HD
ENDBRANCH  15  18
BRANCH  17  20
ATOM     20  O   UNL     1      25.356  32.100   8.458  1.00  0.00    -0.504 OA
ATOM     21  H   UNL     1      24.690  32.124   9.221  1.00  0.00     0.293 HD
ENDBRANCH  17  20
ENDBRANCH   1  12
BRANCH   2  22
ATOM     22  O   UNL     1      23.462  30.311   4.098  1.00  0.00    -0.502 OA
ATOM     23  H   UNL     1      24.350  30.516   3.654  1.00  0.00     0.293 HD
ENDBRANCH   2  22
BRANCH   9  24
ATOM     24  O   UNL     1      20.716  23.252   5.847  1.00  0.00    -0.508 OA
ATOM     25  H   UNL     1      21.417  22.539   6.012  1.00  0.00     0.293 HD
ENDBRANCH   9  24
TORSDOF 5
ENDMDL
