MODEL 1
REMARK VINA RESULT:    -4.490      0.000      0.000
REMARK INTER + INTRA:          -6.744
REMARK INTER:                  -5.671
REMARK INTRA:                  -1.073
REMARK UNBOUND:                -1.073
REMARK SMILES O=C(C=Cc1ccc(O)cc1)c1ccc(O)cc1O
REMARK SMILES IDX 4 1 3 2 5 3 6 4 7 5 8 6 11 7 10 8 9 9 2 11 1 12 12 13 18 14
REMARK SMILES IDX 13 15 17 16 14 17 15 18 19 19 16 21
REMARK H PARENT 9 10 19 20 16 22
REMARK Flexibility Score: inf
ROOT
ATOM      1  C   UNL     1      -0.913  23.641 -12.633  1.00  0.00     0.012 C 
ATOM      2  C   UNL     1      -1.375  23.400 -13.871  1.00  0.00     0.053 C 
ENDROOT
BRANCH   1   3
ATOM      3  C   UNL     1      -1.746  23.821 -11.428  1.00  0.00    -0.025 A 
ATOM      4  C   UNL     1      -1.876  22.764 -10.517  1.00  0.00     0.012 A 
ATOM      5  C   UNL     1      -2.701  22.895  -9.396  1.00  0.00     0.047 A 
ATOM      6  C   UNL     1      -3.422  24.076  -9.187  1.00  0.00     0.115 A 
ATOM      7  C   UNL     1      -2.494  24.995 -11.232  1.00  0.00     0.012 A 
ATOM      8  C   UNL     1      -3.319  25.125 -10.110  1.00  0.00     0.047 A 
BRANCH   6   9
ATOM      9  O   UNL     1      -4.239  24.195  -8.064  1.00  0.00    -0.508 OA
ATOM     10  H   UNL     1      -4.734  25.054  -7.860  1.00  0.00     0.293 HD
ENDBRANCH   6   9
ENDBRANCH   1   3
BRANCH   2  11
ATOM     11  C   UNL     1      -2.800  23.446 -14.288  1.00  0.00     0.189 C 
ATOM     12  O   UNL     1      -3.325  24.527 -14.667  1.00  0.00    -0.289 OA
BRANCH  11  13
ATOM     13  C   UNL     1      -3.629  22.223 -14.273  1.00  0.00     0.064 A 
ATOM     14  C   UNL     1      -3.872  21.474 -15.444  1.00  0.00     0.130 A 
ATOM     15  C   UNL     1      -4.216  21.816 -13.064  1.00  0.00     0.020 A 
ATOM     16  C   UNL     1      -4.656  20.312 -15.378  1.00  0.00     0.093 A 
ATOM     17  C   UNL     1      -5.000  20.661 -13.009  1.00  0.00     0.047 A 
ATOM     18  C   UNL     1      -5.218  19.903 -14.166  1.00  0.00     0.119 A 
BRANCH  14  19
ATOM     19  O   UNL     1      -3.362  21.894 -16.673  1.00  0.00    -0.507 OA
ATOM     20  H   UNL     1      -3.516  22.833 -17.020  1.00  0.00     0.293 HD
ENDBRANCH  14  19
BRANCH  18  21
ATOM     21  O   UNL     1      -5.995  18.748 -14.123  1.00  0.00    -0.508 OA
ATOM     22  H   UNL     1      -5.716  17.942 -13.576  1.00  0.00     0.293 HD
ENDBRANCH  18  21
ENDBRANCH  11  13
ENDBRANCH   2  11
TORSDOF 6
ENDMDL
MODEL 2
REMARK VINA RESULT:    -4.413     19.260     20.122
REMARK INTER + INTRA:          -6.647
REMARK INTER:                  -6.943
REMARK INTRA:                   0.296
REMARK UNBOUND:                -1.073
REMARK SMILES O=C(C=Cc1ccc(O)cc1)c1ccc(O)cc1O
REMARK SMILES IDX 4 1 3 2 5 3 6 4 7 5 8 6 11 7 10 8 9 9 2 11 1 12 12 13 18 14
REMARK SMILES IDX 13 15 17 16 14 17 15 18 19 19 16 21
REMARK H PARENT 9 10 19 20 16 22
REMARK Flexibility Score: inf
ROOT
ATOM      1  C   UNL     1      12.361  10.547 -15.575  1.00  0.00     0.012 C 
ATOM      2  C   UNL     1      11.971   9.455 -16.253  1.00  0.00     0.053 C 
ENDROOT
BRANCH   1   3
ATOM      3  C   UNL     1      12.677  10.593 -14.134  1.00  0.00    -0.025 A 
ATOM      4  C   UNL     1      11.729  10.140 -13.206  1.00  0.00     0.012 A 
ATOM      5  C   UNL     1      11.988  10.222 -11.834  1.00  0.00     0.047 A 
ATOM      6  C   UNL     1      13.187  10.779 -11.376  1.00  0.00     0.115 A 
ATOM      7  C   UNL     1      13.868  11.180 -13.670  1.00  0.00     0.012 A 
ATOM      8  C   UNL     1      14.125  11.261 -12.298  1.00  0.00     0.047 A 
BRANCH   6   9
ATOM      9  O   UNL     1      13.433  10.854 -10.007  1.00  0.00    -0.508 OA
ATOM     10  H   UNL     1      12.930  10.273  -9.347  1.00  0.00     0.293 HD
ENDBRANCH   6   9
ENDBRANCH   1   3
BRANCH   2  11
ATOM     11  C   UNL     1      11.617   8.144 -15.654  1.00  0.00     0.189 C 
ATOM     12  O   UNL     1      12.420   7.173 -15.708  1.00  0.00    -0.289 OA
BRANCH  11  13
ATOM     13  C   UNL     1      10.319   7.950 -14.976  1.00  0.00     0.064 A 
ATOM     14  C   UNL     1       9.940   6.703 -14.435  1.00  0.00     0.130 A 
ATOM     15  C   UNL     1       9.427   9.032 -14.895  1.00  0.00     0.020 A 
ATOM     16  C   UNL     1       8.702   6.570 -13.788  1.00  0.00     0.093 A 
ATOM     17  C   UNL     1       8.194   8.889 -14.254  1.00  0.00     0.047 A 
ATOM     18  C   UNL     1       7.830   7.658 -13.695  1.00  0.00     0.119 A 
BRANCH  14  19
ATOM     19  O   UNL     1      10.774   5.592 -14.564  1.00  0.00    -0.507 OA
ATOM     20  H   UNL     1      11.611   5.617 -15.134  1.00  0.00     0.293 HD
ENDBRANCH  14  19
BRANCH  18  21
ATOM     21  O   UNL     1       6.605   7.505 -13.050  1.00  0.00    -0.508 OA
ATOM     22  H   UNL     1       6.253   8.206 -12.409  1.00  0.00     0.293 HD
ENDBRANCH  18  21
ENDBRANCH  11  13
ENDBRANCH   2  11
TORSDOF 6
ENDMDL
MODEL 3
REMARK VINA RESULT:    -4.168      4.416      6.396
REMARK INTER + INTRA:          -6.338
REMARK INTER:                  -5.589
REMARK INTRA:                  -0.748
REMARK UNBOUND:                -1.073
REMARK SMILES O=C(C=Cc1ccc(O)cc1)c1ccc(O)cc1O
REMARK SMILES IDX 4 1 3 2 5 3 6 4 7 5 8 6 11 7 10 8 9 9 2 11 1 12 12 13 18 14
REMARK SMILES IDX 13 15 17 16 14 17 15 18 19 19 16 21
REMARK H PARENT 9 10 19 20 16 22
REMARK Flexibility Score: inf
ROOT
ATOM      1  C   UNL     1       2.304  22.488 -15.867  1.00  0.00     0.012 C 
ATOM      2  C   UNL     1       0.991  22.739 -15.740  1.00  0.00     0.053 C 
ENDROOT
BRANCH   1   3
ATOM      3  C   UNL     1       3.382  23.157 -15.113  1.00  0.00    -0.025 A 
ATOM      4  C   UNL     1       4.354  23.892 -15.806  1.00  0.00     0.012 A 
ATOM      5  C   UNL     1       5.412  24.491 -15.116  1.00  0.00     0.047 A 
ATOM      6  C   UNL     1       5.522  24.342 -13.729  1.00  0.00     0.115 A 
ATOM      7  C   UNL     1       3.512  22.983 -13.724  1.00  0.00     0.012 A 
ATOM      8  C   UNL     1       4.570  23.583 -13.035  1.00  0.00     0.047 A 
BRANCH   6   9
ATOM      9  O   UNL     1       6.580  24.946 -13.053  1.00  0.00    -0.508 OA
ATOM     10  H   UNL     1       7.191  24.414 -12.446  1.00  0.00     0.293 HD
ENDBRANCH   6   9
ENDBRANCH   1   3
BRANCH   2  11
ATOM     11  C   UNL     1       0.394  23.850 -14.956  1.00  0.00     0.189 C 
ATOM     12  O   UNL     1       0.721  25.047 -15.183  1.00  0.00    -0.289 OA
BRANCH  11  13
ATOM     13  C   UNL     1      -0.600  23.577 -13.898  1.00  0.00     0.064 A 
ATOM     14  C   UNL     1      -1.985  23.727 -14.121  1.00  0.00     0.130 A 
ATOM     15  C   UNL     1      -0.149  23.186 -12.626  1.00  0.00     0.020 A 
ATOM     16  C   UNL     1      -2.893  23.443 -13.089  1.00  0.00     0.093 A 
ATOM     17  C   UNL     1      -1.059  22.911 -11.603  1.00  0.00     0.047 A 
ATOM     18  C   UNL     1      -2.435  23.035 -11.834  1.00  0.00     0.119 A 
BRANCH  14  19
ATOM     19  O   UNL     1      -2.460  24.183 -15.351  1.00  0.00    -0.507 OA
ATOM     20  H   UNL     1      -2.333  23.649 -16.202  1.00  0.00     0.293 HD
ENDBRANCH  14  19
BRANCH  18  21
ATOM     21  O   UNL     1      -3.352  22.760 -10.822  1.00  0.00    -0.508 OA
ATOM     22  H   UNL     1      -3.055  22.413  -9.917  1.00  0.00     0.293 HD
ENDBRANCH  18  21
ENDBRANCH  11  13
ENDBRANCH   2  11
TORSDOF 6
ENDMDL
MODEL 4
REMARK VINA RESULT:    -3.906     17.229     19.353
REMARK INTER + INTRA:          -6.007
REMARK INTER:                  -4.807
REMARK INTRA:                  -1.199
REMARK UNBOUND:                -1.073
REMARK SMILES O=C(C=Cc1ccc(O)cc1)c1ccc(O)cc1O
REMARK SMILES IDX 4 1 3 2 5 3 6 4 7 5 8 6 11 7 10 8 9 9 2 11 1 12 12 13 18 14
REMARK SMILES IDX 13 15 17 16 14 17 15 18 19 19 16 21
REMARK H PARENT 9 10 19 20 16 22
REMARK Flexibility Score: inf
ROOT
ATOM      1  C   UNL     1      12.379  23.167   0.686  1.00  0.00     0.012 C 
ATOM      2  C   UNL     1      11.717  24.172   0.088  1.00  0.00     0.053 C 
ENDROOT
BRANCH   1   3
ATOM      3  C   UNL     1      12.551  21.808   0.136  1.00  0.00    -0.025 A 
ATOM      4  C   UNL     1      13.645  21.536  -0.697  1.00  0.00     0.012 A 
ATOM      5  C   UNL     1      13.799  20.270  -1.270  1.00  0.00     0.047 A 
ATOM      6  C   UNL     1      12.848  19.271  -1.035  1.00  0.00     0.115 A 
ATOM      7  C   UNL     1      11.581  20.813   0.346  1.00  0.00     0.012 A 
ATOM      8  C   UNL     1      11.736  19.547  -0.228  1.00  0.00     0.047 A 
BRANCH   6   9
ATOM      9  O   UNL     1      13.014  18.013  -1.610  1.00  0.00    -0.508 OA
ATOM     10  H   UNL     1      12.339  17.638  -2.265  1.00  0.00     0.293 HD
ENDBRANCH   6   9
ENDBRANCH   1   3
BRANCH   2  11
ATOM     11  C   UNL     1      10.893  24.056  -1.141  1.00  0.00     0.189 C 
ATOM     12  O   UNL     1       9.640  23.932  -1.066  1.00  0.00    -0.289 OA
BRANCH  11  13
ATOM     13  C   UNL     1      11.522  24.089  -2.477  1.00  0.00     0.064 A 
ATOM     14  C   UNL     1      11.116  23.221  -3.513  1.00  0.00     0.130 A 
ATOM     15  C   UNL     1      12.573  24.992  -2.711  1.00  0.00     0.020 A 
ATOM     16  C   UNL     1      11.734  23.299  -4.770  1.00  0.00     0.093 A 
ATOM     17  C   UNL     1      13.186  25.058  -3.964  1.00  0.00     0.047 A 
ATOM     18  C   UNL     1      12.765  24.214  -4.999  1.00  0.00     0.119 A 
BRANCH  14  19
ATOM     19  O   UNL     1      10.125  22.265  -3.289  1.00  0.00    -0.507 OA
ATOM     20  H   UNL     1       9.281  22.231  -3.849  1.00  0.00     0.293 HD
ENDBRANCH  14  19
BRANCH  18  21
ATOM     21  O   UNL     1      13.367  24.274  -6.254  1.00  0.00    -0.508 OA
ATOM     22  H   UNL     1      13.481  23.445  -6.826  1.00  0.00     0.293 HD
ENDBRANCH  18  21
ENDBRANCH  11  13
ENDBRANCH   2  11
TORSDOF 6
ENDMDL
MODEL 5
REMARK VINA RESULT:    -3.887      1.798      3.537
REMARK INTER + INTRA:          -5.983
REMARK INTER:                  -4.817
REMARK INTRA:                  -1.166
REMARK UNBOUND:                -1.073
REMARK SMILES O=C(C=Cc1ccc(O)cc1)c1ccc(O)cc1O
REMARK SMILES IDX 4 1 3 2 5 3 6 4 7 5 8 6 11 7 10 8 9 9 2 11 1 12 12 13 18 14
REMARK SMILES IDX 13 15 17 16 14 17 15 18 19 19 16 21
REMARK H PARENT 9 10 19 20 16 22
REMARK Flexibility Score: inf
ROOT
ATOM      1  C   UNL     1      -3.322  23.098  -9.833  1.00  0.00     0.012 C 
ATOM      2  C   UNL     1      -4.652  23.150 -10.018  1.00  0.00     0.053 C 
ENDROOT
BRANCH   1   3
ATOM      3  C   UNL     1      -2.303  23.469 -10.835  1.00  0.00    -0.025 A 
ATOM      4  C   UNL     1      -2.294  24.768 -11.359  1.00  0.00     0.012 A 
ATOM      5  C   UNL     1      -1.370  25.125 -12.346  1.00  0.00     0.047 A 
ATOM      6  C   UNL     1      -0.461  24.180 -12.835  1.00  0.00     0.115 A 
ATOM      7  C   UNL     1      -1.410  22.512 -11.349  1.00  0.00     0.012 A 
ATOM      8  C   UNL     1      -0.486  22.871 -12.336  1.00  0.00     0.047 A 
BRANCH   6   9
ATOM      9  O   UNL     1       0.455  24.549 -13.817  1.00  0.00    -0.508 OA
ATOM     10  H   UNL     1       1.089  25.327 -13.683  1.00  0.00     0.293 HD
ENDBRANCH   6   9
ENDBRANCH   1   3
BRANCH   2  11
ATOM     11  C   UNL     1      -5.337  23.418 -11.308  1.00  0.00     0.189 C 
ATOM     12  O   UNL     1      -6.106  24.409 -11.435  1.00  0.00    -0.289 OA
BRANCH  11  13
ATOM     13  C   UNL     1      -5.128  22.532 -12.472  1.00  0.00     0.064 A 
ATOM     14  C   UNL     1      -4.751  23.037 -13.734  1.00  0.00     0.130 A 
ATOM     15  C   UNL     1      -5.340  21.151 -12.320  1.00  0.00     0.020 A 
ATOM     16  C   UNL     1      -4.551  22.155 -14.807  1.00  0.00     0.093 A 
ATOM     17  C   UNL     1      -5.144  20.281 -13.396  1.00  0.00     0.047 A 
ATOM     18  C   UNL     1      -4.745  20.781 -14.641  1.00  0.00     0.119 A 
BRANCH  14  19
ATOM     19  O   UNL     1      -4.604  24.410 -13.933  1.00  0.00    -0.507 OA
ATOM     20  H   UNL     1      -5.112  24.900 -14.659  1.00  0.00     0.293 HD
ENDBRANCH  14  19
BRANCH  18  21
ATOM     21  O   UNL     1      -4.542  19.922 -15.719  1.00  0.00    -0.508 OA
ATOM     22  H   UNL     1      -5.248  19.251 -16.001  1.00  0.00     0.293 HD
ENDBRANCH  18  21
ENDBRANCH  11  13
ENDBRANCH   2  11
TORSDOF 6
ENDMDL
MODEL 6
REMARK VINA RESULT:    -3.863     16.448     18.584
REMARK INTER + INTRA:          -5.952
REMARK INTER:                  -5.203
REMARK INTRA:                  -0.749
REMARK UNBOUND:                -1.073
REMARK SMILES O=C(C=Cc1ccc(O)cc1)c1ccc(O)cc1O
REMARK SMILES IDX 4 1 3 2 5 3 6 4 7 5 8 6 11 7 10 8 9 9 2 11 1 12 12 13 18 14
REMARK SMILES IDX 13 15 17 16 14 17 15 18 19 19 16 21
REMARK H PARENT 9 10 19 20 16 22
REMARK Flexibility Score: inf
ROOT
ATOM      1  C   UNL     1      14.034  23.120  -1.526  1.00  0.00     0.012 C 
ATOM      2  C   UNL     1      13.868  23.906  -2.602  1.00  0.00     0.053 C 
ENDROOT
BRANCH   1   3
ATOM      3  C   UNL     1      13.029  22.183  -0.987  1.00  0.00    -0.025 A 
ATOM      4  C   UNL     1      12.119  22.631  -0.019  1.00  0.00     0.012 A 
ATOM      5  C   UNL     1      11.193  21.748   0.543  1.00  0.00     0.047 A 
ATOM      6  C   UNL     1      11.182  20.402   0.160  1.00  0.00     0.115 A 
ATOM      7  C   UNL     1      13.036  20.824  -1.347  1.00  0.00     0.012 A 
ATOM      8  C   UNL     1      12.109  19.942  -0.785  1.00  0.00     0.047 A 
BRANCH   6   9
ATOM      9  O   UNL     1      10.252  19.532   0.726  1.00  0.00    -0.508 OA
ATOM     10  H   UNL     1       9.307  19.831   0.932  1.00  0.00     0.293 HD
ENDBRANCH   6   9
ENDBRANCH   1   3
BRANCH   2  11
ATOM     11  C   UNL     1      12.595  24.111  -3.337  1.00  0.00     0.189 C 
ATOM     12  O   UNL     1      11.578  24.569  -2.748  1.00  0.00    -0.289 OA
BRANCH  11  13
ATOM     13  C   UNL     1      12.494  23.790  -4.776  1.00  0.00     0.064 A 
ATOM     14  C   UNL     1      11.371  23.126  -5.314  1.00  0.00     0.130 A 
ATOM     15  C   UNL     1      13.560  24.131  -5.624  1.00  0.00     0.020 A 
ATOM     16  C   UNL     1      11.314  22.854  -6.689  1.00  0.00     0.093 A 
ATOM     17  C   UNL     1      13.497  23.851  -6.991  1.00  0.00     0.047 A 
ATOM     18  C   UNL     1      12.371  23.215  -7.528  1.00  0.00     0.119 A 
BRANCH  14  19
ATOM     19  O   UNL     1      10.329  22.711  -4.484  1.00  0.00    -0.507 OA
ATOM     20  H   UNL     1       9.485  22.292  -4.858  1.00  0.00     0.293 HD
ENDBRANCH  14  19
BRANCH  18  21
ATOM     21  O   UNL     1      12.296  22.934  -8.890  1.00  0.00    -0.508 OA
ATOM     22  H   UNL     1      12.707  23.551  -9.582  1.00  0.00     0.293 HD
ENDBRANCH  18  21
ENDBRANCH  11  13
ENDBRANCH   2  11
TORSDOF 6
ENDMDL
MODEL 7
REMARK VINA RESULT:    -3.817      1.320      1.896
REMARK INTER + INTRA:          -5.894
REMARK INTER:                  -5.106
REMARK INTRA:                  -0.787
REMARK UNBOUND:                -1.073
REMARK SMILES O=C(C=Cc1ccc(O)cc1)c1ccc(O)cc1O
REMARK SMILES IDX 4 1 3 2 5 3 6 4 7 5 8 6 11 7 10 8 9 9 2 11 1 12 12 13 18 14
REMARK SMILES IDX 13 15 17 16 14 17 15 18 19 19 16 21
REMARK H PARENT 9 10 19 20 16 22
REMARK Flexibility Score: inf
ROOT
ATOM      1  C   UNL     1      -1.871  23.127 -10.713  1.00  0.00     0.012 C 
ATOM      2  C   UNL     1      -1.917  22.907 -12.037  1.00  0.00     0.053 C 
ENDROOT
BRANCH   1   3
ATOM      3  C   UNL     1      -3.002  23.583  -9.881  1.00  0.00    -0.025 A 
ATOM      4  C   UNL     1      -2.834  24.690  -9.038  1.00  0.00     0.012 A 
ATOM      5  C   UNL     1      -3.875  25.107  -8.204  1.00  0.00     0.047 A 
ATOM      6  C   UNL     1      -5.087  24.408  -8.187  1.00  0.00     0.115 A 
ATOM      7  C   UNL     1      -4.209  22.864  -9.840  1.00  0.00     0.012 A 
ATOM      8  C   UNL     1      -5.250  23.283  -9.006  1.00  0.00     0.047 A 
BRANCH   6   9
ATOM      9  O   UNL     1      -6.118  24.835  -7.353  1.00  0.00    -0.508 OA
ATOM     10  H   UNL     1      -7.089  24.752  -7.627  1.00  0.00     0.293 HD
ENDBRANCH   6   9
ENDBRANCH   1   3
BRANCH   2  11
ATOM     11  C   UNL     1      -3.050  23.249 -12.934  1.00  0.00     0.189 C 
ATOM     12  O   UNL     1      -3.439  24.443 -13.053  1.00  0.00    -0.289 OA
BRANCH  11  13
ATOM     13  C   UNL     1      -3.741  22.200 -13.711  1.00  0.00     0.064 A 
ATOM     14  C   UNL     1      -3.836  22.255 -15.117  1.00  0.00     0.130 A 
ATOM     15  C   UNL     1      -4.345  21.133 -13.023  1.00  0.00     0.020 A 
ATOM     16  C   UNL     1      -4.491  21.228 -15.813  1.00  0.00     0.093 A 
ATOM     17  C   UNL     1      -5.000  20.118 -13.724  1.00  0.00     0.047 A 
ATOM     18  C   UNL     1      -5.071  20.161 -15.122  1.00  0.00     0.119 A 
BRANCH  14  19
ATOM     19  O   UNL     1      -3.309  23.338 -15.821  1.00  0.00    -0.507 OA
ATOM     20  H   UNL     1      -3.873  24.148 -16.053  1.00  0.00     0.293 HD
ENDBRANCH  14  19
BRANCH  18  21
ATOM     21  O   UNL     1      -5.719  19.152 -15.832  1.00  0.00    -0.508 OA
ATOM     22  H   UNL     1      -6.660  18.860 -15.597  1.00  0.00     0.293 HD
ENDBRANCH  18  21
ENDBRANCH  11  13
ENDBRANCH   2  11
TORSDOF 6
ENDMDL
MODEL 8
REMARK VINA RESULT:    -3.801      2.601      4.720
REMARK INTER + INTRA:          -5.874
REMARK INTER:                  -4.980
REMARK INTRA:                  -0.894
REMARK UNBOUND:                -1.073
REMARK SMILES O=C(C=Cc1ccc(O)cc1)c1ccc(O)cc1O
REMARK SMILES IDX 4 1 3 2 5 3 6 4 7 5 8 6 11 7 10 8 9 9 2 11 1 12 12 13 18 14
REMARK SMILES IDX 13 15 17 16 14 17 15 18 19 19 16 21
REMARK H PARENT 9 10 19 20 16 22
REMARK Flexibility Score: inf
ROOT
ATOM      1  C   UNL     1      -3.539  22.132 -13.964  1.00  0.00     0.012 C 
ATOM      2  C   UNL     1      -2.977  22.726 -15.029  1.00  0.00     0.053 C 
ENDROOT
BRANCH   1   3
ATOM      3  C   UNL     1      -3.425  22.595 -12.566  1.00  0.00    -0.025 A 
ATOM      4  C   UNL     1      -2.183  22.532 -11.919  1.00  0.00     0.012 A 
ATOM      5  C   UNL     1      -2.065  22.917 -10.580  1.00  0.00     0.047 A 
ATOM      6  C   UNL     1      -3.190  23.345  -9.868  1.00  0.00     0.115 A 
ATOM      7  C   UNL     1      -4.560  22.997 -11.840  1.00  0.00     0.012 A 
ATOM      8  C   UNL     1      -4.439  23.381 -10.501  1.00  0.00     0.047 A 
BRANCH   6   9
ATOM      9  O   UNL     1      -3.058  23.728  -8.535  1.00  0.00    -0.508 OA
ATOM     10  H   UNL     1      -3.862  23.981  -7.975  1.00  0.00     0.293 HD
ENDBRANCH   6   9
ENDBRANCH   1   3
BRANCH   2  11
ATOM     11  C   UNL     1      -2.000  23.843 -14.984  1.00  0.00     0.189 C 
ATOM     12  O   UNL     1      -2.393  25.040 -14.928  1.00  0.00    -0.289 OA
BRANCH  11  13
ATOM     13  C   UNL     1      -0.547  23.577 -14.996  1.00  0.00     0.064 A 
ATOM     14  C   UNL     1       0.329  24.186 -14.074  1.00  0.00     0.130 A 
ATOM     15  C   UNL     1      -0.024  22.714 -15.973  1.00  0.00     0.020 A 
ATOM     16  C   UNL     1       1.701  23.892 -14.116  1.00  0.00     0.093 A 
ATOM     17  C   UNL     1       1.344  22.431 -16.011  1.00  0.00     0.047 A 
ATOM     18  C   UNL     1       2.209  23.016 -15.079  1.00  0.00     0.119 A 
BRANCH  14  19
ATOM     19  O   UNL     1      -0.151  25.103 -13.138  1.00  0.00    -0.507 OA
ATOM     20  H   UNL     1       0.282  25.213 -12.229  1.00  0.00     0.293 HD
ENDBRANCH  14  19
BRANCH  18  21
ATOM     21  O   UNL     1       3.574  22.739 -15.104  1.00  0.00    -0.508 OA
ATOM     22  H   UNL     1       3.924  21.827 -15.376  1.00  0.00     0.293 HD
ENDBRANCH  18  21
ENDBRANCH  11  13
ENDBRANCH   2  11
TORSDOF 6
ENDMDL
MODEL 9
REMARK VINA RESULT:    -3.702      2.355      4.321
REMARK INTER + INTRA:          -5.749
REMARK INTER:                  -4.350
REMARK INTRA:                  -1.399
REMARK UNBOUND:                -1.073
REMARK SMILES O=C(C=Cc1ccc(O)cc1)c1ccc(O)cc1O
REMARK SMILES IDX 4 1 3 2 5 3 6 4 7 5 8 6 11 7 10 8 9 9 2 11 1 12 12 13 18 14
REMARK SMILES IDX 13 15 17 16 14 17 15 18 19 19 16 21
REMARK H PARENT 9 10 19 20 16 22
REMARK Flexibility Score: inf
ROOT
ATOM      1  C   UNL     1      -3.723  24.083  -9.254  1.00  0.00     0.012 C 
ATOM      2  C   UNL     1      -5.005  23.707  -9.386  1.00  0.00     0.053 C 
ENDROOT
BRANCH   1   3
ATOM      3  C   UNL     1      -2.669  23.906 -10.272  1.00  0.00    -0.025 A 
ATOM      4  C   UNL     1      -2.426  24.932 -11.196  1.00  0.00     0.012 A 
ATOM      5  C   UNL     1      -1.468  24.765 -12.201  1.00  0.00     0.047 A 
ATOM      6  C   UNL     1      -0.761  23.562 -12.307  1.00  0.00     0.115 A 
ATOM      7  C   UNL     1      -1.980  22.688 -10.399  1.00  0.00     0.012 A 
ATOM      8  C   UNL     1      -1.022  22.522 -11.405  1.00  0.00     0.047 A 
BRANCH   6   9
ATOM      9  O   UNL     1       0.192  23.409 -13.311  1.00  0.00    -0.508 OA
ATOM     10  H   UNL     1       0.008  22.849 -14.134  1.00  0.00     0.293 HD
ENDBRANCH   6   9
ENDBRANCH   1   3
BRANCH   2  11
ATOM     11  C   UNL     1      -5.559  22.892 -10.497  1.00  0.00     0.189 C 
ATOM     12  O   UNL     1      -6.098  21.775 -10.270  1.00  0.00    -0.289 OA
BRANCH  11  13
ATOM     13  C   UNL     1      -5.496  23.376 -11.892  1.00  0.00     0.064 A 
ATOM     14  C   UNL     1      -4.885  22.621 -12.915  1.00  0.00     0.130 A 
ATOM     15  C   UNL     1      -6.035  24.637 -12.198  1.00  0.00     0.020 A 
ATOM     16  C   UNL     1      -4.861  23.116 -14.228  1.00  0.00     0.093 A 
ATOM     17  C   UNL     1      -6.002  25.124 -13.507  1.00  0.00     0.047 A 
ATOM     18  C   UNL     1      -5.418  24.362 -14.527  1.00  0.00     0.119 A 
BRANCH  14  19
ATOM     19  O   UNL     1      -4.278  21.398 -12.627  1.00  0.00    -0.507 OA
ATOM     20  H   UNL     1      -4.529  20.550 -13.120  1.00  0.00     0.293 HD
ENDBRANCH  14  19
BRANCH  18  21
ATOM     21  O   UNL     1      -5.382  24.836 -15.836  1.00  0.00    -0.508 OA
ATOM     22  H   UNL     1      -5.601  25.801 -16.056  1.00  0.00     0.293 HD
ENDBRANCH  18  21
ENDBRANCH  11  13
ENDBRANCH   2  11
TORSDOF 6
ENDMDL
