MODEL 1
REMARK VINA RESULT:     5.536      0.000      0.000
REMARK INTER + INTRA:           7.984
REMARK INTER:                   8.449
REMARK INTRA:                  -0.465
REMARK UNBOUND:                -0.465
REMARK SMILES CCCCCCCCCC=CC(=O)[O-]
REMARK SMILES IDX 7 1 8 2 9 3 10 4 11 5 12 6 13 7 14 8 6 9 5 10 4 11 3 12 2 13
REMARK SMILES IDX 1 14
REMARK H PARENT
REMARK Flexibility Score: inf
ROOT
ATOM      1  C   UNL     1     -16.586   6.073  -3.930  1.00  0.00     0.000 C 
ENDROOT
BRANCH   1   2
ATOM      2  C   UNL     1     -15.991   7.490  -4.009  1.00  0.00     0.004 C 
BRANCH   2   3
ATOM      3  C   UNL     1     -15.001   7.819  -2.877  1.00  0.00     0.027 C 
BRANCH   3   4
ATOM      4  C   UNL     1     -13.721   7.037  -2.971  1.00  0.00    -0.025 C 
ATOM      5  C   UNL     1     -12.527   7.638  -2.961  1.00  0.00     0.020 C 
BRANCH   5   6
ATOM      6  C   UNL     1     -11.265   6.888  -3.056  1.00  0.00     0.064 C 
ATOM      7  O   UNL     1     -10.166   7.479  -3.234  1.00  0.00    -0.545 OA
ATOM      8  O   UNL     1     -11.284   5.504  -2.945  1.00  0.00    -0.545 OA
ENDBRANCH   5   6
ENDBRANCH   3   4
ENDBRANCH   2   3
ENDBRANCH   1   2
BRANCH   1   9
ATOM      9  C   UNL     1     -17.741   5.958  -2.924  1.00  0.00     0.000 C 
BRANCH   9  10
ATOM     10  C   UNL     1     -18.831   7.000  -3.215  1.00  0.00     0.000 C 
BRANCH  10  11
ATOM     11  C   UNL     1     -20.243   6.489  -2.884  1.00  0.00    -0.000 C 
BRANCH  11  12
ATOM     12  C   UNL     1     -20.344   4.957  -2.928  1.00  0.00    -0.000 C 
BRANCH  12  13
ATOM     13  C   UNL     1     -21.756   4.512  -3.329  1.00  0.00    -0.003 C 
ATOM     14  C   UNL     1     -21.710   3.293  -4.245  1.00  0.00     0.004 C 
ENDBRANCH  12  13
ENDBRANCH  11  12
ENDBRANCH  10  11
ENDBRANCH   9  10
ENDBRANCH   1   9
TORSDOF 9
ENDMDL
MODEL 2
REMARK VINA RESULT:     6.356     14.628     16.672
REMARK INTER + INTRA:           9.235
REMARK INTER:                  10.029
REMARK INTRA:                  -0.794
REMARK UNBOUND:                -0.465
REMARK SMILES CCCCCCCCCC=CC(=O)[O-]
REMARK SMILES IDX 7 1 8 2 9 3 10 4 11 5 12 6 13 7 14 8 6 9 5 10 4 11 3 12 2 13
REMARK SMILES IDX 1 14
REMARK H PARENT
REMARK Flexibility Score: inf
ROOT
ATOM      1  C   UNL     1     -12.519  17.703 -10.025  1.00  0.00     0.000 C 
ENDROOT
BRANCH   1   2
ATOM      2  C   UNL     1     -13.503  18.639 -10.750  1.00  0.00     0.004 C 
BRANCH   2   3
ATOM      3  C   UNL     1     -12.822  19.744 -11.579  1.00  0.00     0.027 C 
BRANCH   3   4
ATOM      4  C   UNL     1     -12.766  19.426 -13.047  1.00  0.00    -0.025 C 
ATOM      5  C   UNL     1     -11.619  19.477 -13.734  1.00  0.00     0.020 C 
BRANCH   5   6
ATOM      6  C   UNL     1     -11.548  19.172 -15.171  1.00  0.00     0.064 C 
ATOM      7  O   UNL     1     -12.320  18.326 -15.697  1.00  0.00    -0.545 OA
ATOM      8  O   UNL     1     -10.616  19.830 -15.963  1.00  0.00    -0.545 OA
ENDBRANCH   5   6
ENDBRANCH   3   4
ENDBRANCH   2   3
ENDBRANCH   1   2
BRANCH   1   9
ATOM      9  C   UNL     1     -12.472  17.935  -8.507  1.00  0.00     0.000 C 
BRANCH   9  10
ATOM     10  C   UNL     1     -13.510  18.982  -8.077  1.00  0.00     0.000 C 
BRANCH  10  11
ATOM     11  C   UNL     1     -13.163  19.644  -6.733  1.00  0.00    -0.000 C 
BRANCH  11  12
ATOM     12  C   UNL     1     -12.758  21.118  -6.885  1.00  0.00    -0.000 C 
BRANCH  12  13
ATOM     13  C   UNL     1     -12.173  21.385  -8.277  1.00  0.00    -0.003 C 
ATOM     14  C   UNL     1     -10.651  21.482  -8.225  1.00  0.00     0.004 C 
ENDBRANCH  12  13
ENDBRANCH  11  12
ENDBRANCH  10  11
ENDBRANCH   9  10
ENDBRANCH   1   9
TORSDOF 9
ENDMDL
MODEL 3
REMARK VINA RESULT:     6.612     15.022     17.040
REMARK INTER + INTRA:           9.626
REMARK INTER:                  10.173
REMARK INTRA:                  -0.547
REMARK UNBOUND:                -0.465
REMARK SMILES CCCCCCCCCC=CC(=O)[O-]
REMARK SMILES IDX 7 1 8 2 9 3 10 4 11 5 12 6 13 7 14 8 6 9 5 10 4 11 3 12 2 13
REMARK SMILES IDX 1 14
REMARK H PARENT
REMARK Flexibility Score: inf
ROOT
ATOM      1  C   UNL     1     -13.103  18.718 -11.832  1.00  0.00     0.000 C 
ENDROOT
BRANCH   1   2
ATOM      2  C   UNL     1     -12.212  19.678 -12.640  1.00  0.00     0.004 C 
BRANCH   2   3
ATOM      3  C   UNL     1     -12.083  19.310 -14.130  1.00  0.00     0.027 C 
BRANCH   3   4
ATOM      4  C   UNL     1     -13.380  18.851 -14.735  1.00  0.00    -0.025 C 
ATOM      5  C   UNL     1     -13.418  18.184 -15.894  1.00  0.00     0.020 C 
BRANCH   5   6
ATOM      6  C   UNL     1     -14.680  17.731 -16.501  1.00  0.00     0.064 C 
ATOM      7  O   UNL     1     -15.781  18.252 -16.181  1.00  0.00    -0.545 OA
ATOM      8  O   UNL     1     -14.656  16.714 -17.446  1.00  0.00    -0.545 OA
ENDBRANCH   5   6
ENDBRANCH   3   4
ENDBRANCH   2   3
ENDBRANCH   1   2
BRANCH   1   9
ATOM      9  C   UNL     1     -13.295  19.157 -10.372  1.00  0.00     0.000 C 
BRANCH   9  10
ATOM     10  C   UNL     1     -12.735  18.106  -9.402  1.00  0.00     0.000 C 
BRANCH  10  11
ATOM     11  C   UNL     1     -12.830  18.545  -7.932  1.00  0.00    -0.000 C 
BRANCH  11  12
ATOM     12  C   UNL     1     -13.422  19.954  -7.772  1.00  0.00    -0.000 C 
BRANCH  12  13
ATOM     13  C   UNL     1     -12.394  20.914  -7.161  1.00  0.00    -0.003 C 
ATOM     14  C   UNL     1     -11.580  21.614  -8.245  1.00  0.00     0.004 C 
ENDBRANCH  12  13
ENDBRANCH  11  12
ENDBRANCH  10  11
ENDBRANCH   9  10
ENDBRANCH   1   9
TORSDOF 9
ENDMDL
MODEL 4
REMARK VINA RESULT:     6.868     14.716     16.471
REMARK INTER + INTRA:          10.017
REMARK INTER:                  10.487
REMARK INTRA:                  -0.470
REMARK UNBOUND:                -0.465
REMARK SMILES CCCCCCCCCC=CC(=O)[O-]
REMARK SMILES IDX 7 1 8 2 9 3 10 4 11 5 12 6 13 7 14 8 6 9 5 10 4 11 3 12 2 13
REMARK SMILES IDX 1 14
REMARK H PARENT
REMARK Flexibility Score: inf
ROOT
ATOM      1  C   UNL     1     -13.207  19.052 -11.863  1.00  0.00     0.000 C 
ENDROOT
BRANCH   1   2
ATOM      2  C   UNL     1     -12.823  17.804 -11.048  1.00  0.00     0.004 C 
BRANCH   2   3
ATOM      3  C   UNL     1     -13.253  17.862  -9.571  1.00  0.00     0.027 C 
BRANCH   3   4
ATOM      4  C   UNL     1     -12.468  18.863  -8.769  1.00  0.00    -0.025 C 
ATOM      5  C   UNL     1     -12.991  20.040  -8.408  1.00  0.00     0.020 C 
BRANCH   5   6
ATOM      6  C   UNL     1     -12.234  21.031  -7.627  1.00  0.00     0.064 C 
ATOM      7  O   UNL     1     -12.582  21.341  -6.456  1.00  0.00    -0.545 OA
ATOM      8  O   UNL     1     -11.116  21.634  -8.189  1.00  0.00    -0.545 OA
ENDBRANCH   5   6
ENDBRANCH   3   4
ENDBRANCH   2   3
ENDBRANCH   1   2
BRANCH   1   9
ATOM      9  C   UNL     1     -12.009  19.705 -12.570  1.00  0.00     0.000 C 
BRANCH   9  10
ATOM     10  C   UNL     1     -12.042  19.428 -14.080  1.00  0.00     0.000 C 
BRANCH  10  11
ATOM     11  C   UNL     1     -13.417  18.937 -14.563  1.00  0.00    -0.000 C 
BRANCH  11  12
ATOM     12  C   UNL     1     -13.329  18.095 -15.845  1.00  0.00    -0.000 C 
BRANCH  12  13
ATOM     13  C   UNL     1     -14.721  17.860 -16.443  1.00  0.00    -0.003 C 
ATOM     14  C   UNL     1     -14.699  16.725 -17.462  1.00  0.00     0.004 C 
ENDBRANCH  12  13
ENDBRANCH  11  12
ENDBRANCH  10  11
ENDBRANCH   9  10
ENDBRANCH   1   9
TORSDOF 9
ENDMDL
MODEL 5
REMARK VINA RESULT:     6.923     15.256     17.361
REMARK INTER + INTRA:          10.101
REMARK INTER:                  10.455
REMARK INTRA:                  -0.354
REMARK UNBOUND:                -0.465
REMARK SMILES CCCCCCCCCC=CC(=O)[O-]
REMARK SMILES IDX 7 1 8 2 9 3 10 4 11 5 12 6 13 7 14 8 6 9 5 10 4 11 3 12 2 13
REMARK SMILES IDX 1 14
REMARK H PARENT
REMARK Flexibility Score: inf
ROOT
ATOM      1  C   UNL     1     -13.095  19.463 -11.579  1.00  0.00     0.000 C 
ENDROOT
BRANCH   1   2
ATOM      2  C   UNL     1     -13.010  18.015 -11.065  1.00  0.00     0.004 C 
BRANCH   2   3
ATOM      3  C   UNL     1     -13.178  17.880  -9.540  1.00  0.00     0.027 C 
BRANCH   3   4
ATOM      4  C   UNL     1     -12.418  18.924  -8.771  1.00  0.00    -0.025 C 
ATOM      5  C   UNL     1     -13.030  19.986  -8.234  1.00  0.00     0.020 C 
BRANCH   5   6
ATOM      6  C   UNL     1     -12.301  21.019  -7.483  1.00  0.00     0.064 C 
ATOM      7  O   UNL     1     -12.660  21.357  -6.323  1.00  0.00    -0.545 OA
ATOM      8  O   UNL     1     -11.196  21.631  -8.059  1.00  0.00    -0.545 OA
ENDBRANCH   5   6
ENDBRANCH   3   4
ENDBRANCH   2   3
ENDBRANCH   1   2
BRANCH   1   9
ATOM      9  C   UNL     1     -12.363  19.673 -12.914  1.00  0.00     0.000 C 
BRANCH   9  10
ATOM     10  C   UNL     1     -13.101  18.972 -14.064  1.00  0.00     0.000 C 
BRANCH  10  11
ATOM     11  C   UNL     1     -12.168  18.609 -15.231  1.00  0.00    -0.000 C 
BRANCH  11  12
ATOM     12  C   UNL     1     -10.859  19.413 -15.217  1.00  0.00    -0.000 C 
BRANCH  12  13
ATOM     13  C   UNL     1     -10.458  19.832 -16.636  1.00  0.00    -0.003 C 
ATOM     14  C   UNL     1     -10.085  21.310 -16.690  1.00  0.00     0.004 C 
ENDBRANCH  12  13
ENDBRANCH  11  12
ENDBRANCH  10  11
ENDBRANCH   9  10
ENDBRANCH   1   9
TORSDOF 9
ENDMDL
MODEL 6
REMARK VINA RESULT:     6.980     15.530     17.392
REMARK INTER + INTRA:          10.187
REMARK INTER:                  10.644
REMARK INTRA:                  -0.457
REMARK UNBOUND:                -0.465
REMARK SMILES CCCCCCCCCC=CC(=O)[O-]
REMARK SMILES IDX 7 1 8 2 9 3 10 4 11 5 12 6 13 7 14 8 6 9 5 10 4 11 3 12 2 13
REMARK SMILES IDX 1 14
REMARK H PARENT
REMARK Flexibility Score: inf
ROOT
ATOM      1  C   UNL     1     -13.093  19.410 -11.042  1.00  0.00     0.000 C 
ENDROOT
BRANCH   1   2
ATOM      2  C   UNL     1     -13.208  19.322 -12.575  1.00  0.00     0.004 C 
BRANCH   2   3
ATOM      3  C   UNL     1     -11.888  18.964 -13.283  1.00  0.00     0.027 C 
BRANCH   3   4
ATOM      4  C   UNL     1     -11.656  19.766 -14.533  1.00  0.00    -0.025 C 
ATOM      5  C   UNL     1     -10.822  19.350 -15.491  1.00  0.00     0.020 C 
BRANCH   5   6
ATOM      6  C   UNL     1     -10.580  20.125 -16.718  1.00  0.00     0.064 C 
ATOM      7  O   UNL     1     -10.035  21.261 -16.674  1.00  0.00    -0.545 OA
ATOM      8  O   UNL     1     -10.956  19.596 -17.945  1.00  0.00    -0.545 OA
ENDBRANCH   5   6
ENDBRANCH   3   4
ENDBRANCH   2   3
ENDBRANCH   1   2
BRANCH   1   9
ATOM      9  C   UNL     1     -12.803  18.055 -10.379  1.00  0.00     0.000 C 
BRANCH   9  10
ATOM     10  C   UNL     1     -12.801  18.180  -8.848  1.00  0.00     0.000 C 
BRANCH  10  11
ATOM     11  C   UNL     1     -13.520  19.447  -8.356  1.00  0.00    -0.000 C 
BRANCH  11  12
ATOM     12  C   UNL     1     -13.114  19.842  -6.928  1.00  0.00    -0.000 C 
BRANCH  12  13
ATOM     13  C   UNL     1     -12.302  21.143  -6.929  1.00  0.00    -0.003 C 
ATOM     14  C   UNL     1     -11.858  21.514  -8.340  1.00  0.00     0.004 C 
ENDBRANCH  12  13
ENDBRANCH  11  12
ENDBRANCH  10  11
ENDBRANCH   9  10
ENDBRANCH   1   9
TORSDOF 9
ENDMDL
MODEL 7
REMARK VINA RESULT:     8.103     17.777     19.539
REMARK INTER + INTRA:          11.901
REMARK INTER:                  11.602
REMARK INTRA:                   0.299
REMARK UNBOUND:                -0.465
REMARK SMILES CCCCCCCCCC=CC(=O)[O-]
REMARK SMILES IDX 7 1 8 2 9 3 10 4 11 5 12 6 13 7 14 8 6 9 5 10 4 11 3 12 2 13
REMARK SMILES IDX 1 14
REMARK H PARENT
REMARK Flexibility Score: inf
ROOT
ATOM      1  C   UNL     1      -7.482   4.910 -20.651  1.00  0.00     0.000 C 
ENDROOT
BRANCH   1   2
ATOM      2  C   UNL     1      -7.956   5.414 -19.276  1.00  0.00     0.004 C 
BRANCH   2   3
ATOM      3  C   UNL     1      -6.824   5.947 -18.379  1.00  0.00     0.027 C 
BRANCH   3   4
ATOM      4  C   UNL     1      -7.083   7.338 -17.872  1.00  0.00    -0.025 C 
ATOM      5  C   UNL     1      -7.867   8.194 -18.536  1.00  0.00     0.020 C 
BRANCH   5   6
ATOM      6  C   UNL     1      -8.127   9.560 -18.056  1.00  0.00     0.064 C 
ATOM      7  O   UNL     1      -8.101  10.544 -18.844  1.00  0.00    -0.545 OA
ATOM      8  O   UNL     1      -8.410   9.770 -16.713  1.00  0.00    -0.545 OA
ENDBRANCH   5   6
ENDBRANCH   3   4
ENDBRANCH   2   3
ENDBRANCH   1   2
BRANCH   1   9
ATOM      9  C   UNL     1      -6.932   3.476 -20.612  1.00  0.00     0.000 C 
BRANCH   9  10
ATOM     10  C   UNL     1      -6.790   2.901 -22.030  1.00  0.00     0.000 C 
BRANCH  10  11
ATOM     11  C   UNL     1      -7.484   3.769 -23.093  1.00  0.00    -0.000 C 
BRANCH  11  12
ATOM     12  C   UNL     1      -9.007   3.562 -23.125  1.00  0.00    -0.000 C 
BRANCH  12  13
ATOM     13  C   UNL     1      -9.744   4.874 -22.831  1.00  0.00    -0.003 C 
ATOM     14  C   UNL     1      -8.856   6.081 -23.115  1.00  0.00     0.004 C 
ENDBRANCH  12  13
ENDBRANCH  11  12
ENDBRANCH  10  11
ENDBRANCH   9  10
ENDBRANCH   1   9
TORSDOF 9
ENDMDL
MODEL 8
REMARK VINA RESULT:     8.343     17.600     19.498
REMARK INTER + INTRA:          12.268
REMARK INTER:                  12.825
REMARK INTRA:                  -0.558
REMARK UNBOUND:                -0.465
REMARK SMILES CCCCCCCCCC=CC(=O)[O-]
REMARK SMILES IDX 7 1 8 2 9 3 10 4 11 5 12 6 13 7 14 8 6 9 5 10 4 11 3 12 2 13
REMARK SMILES IDX 1 14
REMARK H PARENT
REMARK Flexibility Score: inf
ROOT
ATOM      1  C   UNL     1      -8.790   5.089 -19.468  1.00  0.00     0.000 C 
ENDROOT
BRANCH   1   2
ATOM      2  C   UNL     1      -7.326   5.490 -19.212  1.00  0.00     0.004 C 
BRANCH   2   3
ATOM      3  C   UNL     1      -7.064   7.004 -19.311  1.00  0.00     0.027 C 
BRANCH   3   4
ATOM      4  C   UNL     1      -7.790   7.795 -18.259  1.00  0.00    -0.025 C 
ATOM      5  C   UNL     1      -7.899   9.126 -18.332  1.00  0.00     0.020 C 
BRANCH   5   6
ATOM      6  C   UNL     1      -8.602   9.916 -17.309  1.00  0.00     0.064 C 
ATOM      7  O   UNL     1      -9.771  10.344 -17.505  1.00  0.00    -0.545 OA
ATOM      8  O   UNL     1      -7.968  10.193 -16.105  1.00  0.00    -0.545 OA
ENDBRANCH   5   6
ENDBRANCH   3   4
ENDBRANCH   2   3
ENDBRANCH   1   2
BRANCH   1   9
ATOM      9  C   UNL     1      -8.944   4.044 -20.584  1.00  0.00     0.000 C 
BRANCH   9  10
ATOM     10  C   UNL     1      -9.041   4.719 -21.961  1.00  0.00     0.000 C 
BRANCH  10  11
ATOM     11  C   UNL     1      -8.487   3.839 -23.092  1.00  0.00    -0.000 C 
BRANCH  11  12
ATOM     12  C   UNL     1      -7.302   2.970 -22.642  1.00  0.00    -0.000 C 
BRANCH  12  13
ATOM     13  C   UNL     1      -5.973   3.562 -23.125  1.00  0.00    -0.003 C 
ATOM     14  C   UNL     1      -5.997   5.086 -23.072  1.00  0.00     0.004 C 
ENDBRANCH  12  13
ENDBRANCH  11  12
ENDBRANCH  10  11
ENDBRANCH   9  10
ENDBRANCH   1   9
TORSDOF 9
ENDMDL
