MODEL 1
REMARK VINA RESULT:    -3.932      0.000      0.000
REMARK INTER + INTRA:          -4.554
REMARK INTER:                  -4.506
REMARK INTRA:                  -0.048
REMARK UNBOUND:                -0.048
REMARK SMILES CC(C)[C@H]([NH3+])C(=O)[O-]
REMARK SMILES IDX 4 1 5 2 6 6 7 7 8 8 2 9 1 10 3 11
REMARK H PARENT 5 3 5 4 5 5
REMARK Flexibility Score: inf
ROOT
ATOM      1  C   UNL     1     -18.248  -3.612 -11.582  1.00  0.00     0.230 C 
ENDROOT
BRANCH   1   2
ATOM      2  N   UNL     1     -19.326  -3.335 -10.624  1.00  0.00    -0.350 N 
ATOM      3  H   UNL     1     -19.700  -2.365 -10.735  1.00  0.00     0.345 HD
ATOM      4  H   UNL     1     -18.963  -3.441  -9.648  1.00  0.00     0.345 HD
ATOM      5  H   UNL     1     -20.106  -4.020 -10.755  1.00  0.00     0.345 HD
ENDBRANCH   1   2
BRANCH   1   6
ATOM      6  C   UNL     1     -17.047  -2.740 -11.298  1.00  0.00     0.099 C 
ATOM      7  O   UNL     1     -17.021  -1.550 -11.710  1.00  0.00    -0.544 OA
ATOM      8  O   UNL     1     -15.974  -3.228 -10.561  1.00  0.00    -0.544 OA
ENDBRANCH   1   6
BRANCH   1   9
ATOM      9  C   UNL     1     -18.741  -3.492 -13.057  1.00  0.00     0.047 C 
ATOM     10  C   UNL     1     -20.209  -3.046 -13.121  1.00  0.00     0.014 C 
ATOM     11  C   UNL     1     -18.545  -4.777 -13.878  1.00  0.00     0.014 C 
ENDBRANCH   1   9
TORSDOF 3
ENDMDL
MODEL 2
REMARK VINA RESULT:    -3.769      2.290      3.280
REMARK INTER + INTRA:          -4.368
REMARK INTER:                  -4.301
REMARK INTRA:                  -0.067
REMARK UNBOUND:                -0.048
REMARK SMILES CC(C)[C@H]([NH3+])C(=O)[O-]
REMARK SMILES IDX 4 1 5 2 6 6 7 7 8 8 2 9 1 10 3 11
REMARK H PARENT 5 3 5 4 5 5
REMARK Flexibility Score: inf
ROOT
ATOM      1  C   UNL     1     -20.566  -2.783 -12.079  1.00  0.00     0.230 C 
ENDROOT
BRANCH   1   2
ATOM      2  N   UNL     1     -20.398  -3.232 -10.690  1.00  0.00    -0.350 N 
ATOM      3  H   UNL     1     -21.032  -4.032 -10.466  1.00  0.00     0.345 HD
ATOM      4  H   UNL     1     -20.615  -2.442 -10.038  1.00  0.00     0.345 HD
ATOM      5  H   UNL     1     -19.407  -3.524 -10.526  1.00  0.00     0.345 HD
ENDBRANCH   1   2
BRANCH   1   6
ATOM      6  C   UNL     1     -19.236  -2.765 -12.797  1.00  0.00     0.099 C 
ATOM      7  O   UNL     1     -18.278  -2.094 -12.331  1.00  0.00    -0.544 OA
ATOM      8  O   UNL     1     -19.048  -3.507 -13.957  1.00  0.00    -0.544 OA
ENDBRANCH   1   6
BRANCH   1   9
ATOM      9  C   UNL     1     -21.308  -1.413 -12.157  1.00  0.00     0.047 C 
ATOM     10  C   UNL     1     -22.452  -1.339 -11.135  1.00  0.00     0.014 C 
ATOM     11  C   UNL     1     -21.834  -1.077 -13.563  1.00  0.00     0.014 C 
ENDBRANCH   1   9
TORSDOF 3
ENDMDL
MODEL 3
REMARK VINA RESULT:    -3.602      2.561      3.287
REMARK INTER + INTRA:          -4.176
REMARK INTER:                  -4.133
REMARK INTRA:                  -0.043
REMARK UNBOUND:                -0.048
REMARK SMILES CC(C)[C@H]([NH3+])C(=O)[O-]
REMARK SMILES IDX 4 1 5 2 6 6 7 7 8 8 2 9 1 10 3 11
REMARK H PARENT 5 3 5 4 5 5
REMARK Flexibility Score: inf
ROOT
ATOM      1  C   UNL     1     -18.931  -2.674 -12.900  1.00  0.00     0.230 C 
ENDROOT
BRANCH   1   2
ATOM      2  N   UNL     1     -17.968  -1.900 -12.105  1.00  0.00    -0.350 N 
ATOM      3  H   UNL     1     -18.311  -0.930 -11.925  1.00  0.00     0.345 HD
ATOM      4  H   UNL     1     -17.058  -1.842 -12.618  1.00  0.00     0.345 HD
ATOM      5  H   UNL     1     -17.794  -2.378 -11.190  1.00  0.00     0.345 HD
ENDBRANCH   1   2
BRANCH   1   6
ATOM      6  C   UNL     1     -20.345  -2.381 -12.455  1.00  0.00     0.099 C 
ATOM      7  O   UNL     1     -20.746  -2.776 -11.329  1.00  0.00    -0.544 OA
ATOM      8  O   UNL     1     -21.206  -1.652 -13.268  1.00  0.00    -0.544 OA
ENDBRANCH   1   6
BRANCH   1   9
ATOM      9  C   UNL     1     -18.601  -4.198 -12.884  1.00  0.00     0.047 C 
ATOM     10  C   UNL     1     -17.313  -4.483 -12.098  1.00  0.00     0.014 C 
ATOM     11  C   UNL     1     -18.512  -4.825 -14.285  1.00  0.00     0.014 C 
ENDBRANCH   1   9
TORSDOF 3
ENDMDL
MODEL 4
REMARK VINA RESULT:    -3.581      4.453      5.440
REMARK INTER + INTRA:          -4.152
REMARK INTER:                  -4.101
REMARK INTRA:                  -0.051
REMARK UNBOUND:                -0.048
REMARK SMILES CC(C)[C@H]([NH3+])C(=O)[O-]
REMARK SMILES IDX 4 1 5 2 6 6 7 7 8 8 2 9 1 10 3 11
REMARK H PARENT 5 3 5 4 5 5
REMARK Flexibility Score: inf
ROOT
ATOM      1  C   UNL     1     -22.106  -1.925 -11.047  1.00  0.00     0.230 C 
ENDROOT
BRANCH   1   2
ATOM      2  N   UNL     1     -21.282  -2.902 -10.323  1.00  0.00    -0.350 N 
ATOM      3  H   UNL     1     -21.482  -2.888  -9.298  1.00  0.00     0.345 HD
ATOM      4  H   UNL     1     -20.269  -2.682 -10.468  1.00  0.00     0.345 HD
ATOM      5  H   UNL     1     -21.460  -3.865 -10.694  1.00  0.00     0.345 HD
ENDBRANCH   1   2
BRANCH   1   6
ATOM      6  C   UNL     1     -23.570  -2.125 -10.731  1.00  0.00     0.099 C 
ATOM      7  O   UNL     1     -24.068  -3.281 -10.758  1.00  0.00    -0.544 OA
ATOM      8  O   UNL     1     -24.373  -1.045 -10.382  1.00  0.00    -0.544 OA
ENDBRANCH   1   6
BRANCH   1   9
ATOM      9  C   UNL     1     -21.815  -1.946 -12.579  1.00  0.00     0.047 C 
ATOM     10  C   UNL     1     -20.404  -2.478 -12.873  1.00  0.00     0.014 C 
ATOM     11  C   UNL     1     -22.018  -0.584 -13.265  1.00  0.00     0.014 C 
ENDBRANCH   1   9
TORSDOF 3
ENDMDL
MODEL 5
REMARK VINA RESULT:    -3.578      3.362      4.128
REMARK INTER + INTRA:          -4.148
REMARK INTER:                  -4.095
REMARK INTRA:                  -0.053
REMARK UNBOUND:                -0.048
REMARK SMILES CC(C)[C@H]([NH3+])C(=O)[O-]
REMARK SMILES IDX 4 1 5 2 6 6 7 7 8 8 2 9 1 10 3 11
REMARK H PARENT 5 3 5 4 5 5
REMARK Flexibility Score: inf
ROOT
ATOM      1  C   UNL     1     -20.608  -2.027 -12.083  1.00  0.00     0.230 C 
ENDROOT
BRANCH   1   2
ATOM      2  N   UNL     1     -20.978  -2.896 -10.958  1.00  0.00    -0.350 N 
ATOM      3  H   UNL     1     -22.015  -2.989 -10.870  1.00  0.00     0.345 HD
ATOM      4  H   UNL     1     -20.603  -2.494 -10.068  1.00  0.00     0.345 HD
ATOM      5  H   UNL     1     -20.558  -3.846 -11.087  1.00  0.00     0.345 HD
ENDBRANCH   1   2
BRANCH   1   6
ATOM      6  C   UNL     1     -21.807  -1.757 -12.963  1.00  0.00     0.099 C 
ATOM      7  O   UNL     1     -22.806  -2.522 -12.919  1.00  0.00    -0.544 OA
ATOM      8  O   UNL     1     -21.832  -0.651 -13.806  1.00  0.00    -0.544 OA
ENDBRANCH   1   6
BRANCH   1   9
ATOM      9  C   UNL     1     -19.396  -2.599 -12.881  1.00  0.00     0.047 C 
ATOM     10  C   UNL     1     -19.636  -4.059 -13.291  1.00  0.00     0.014 C 
ATOM     11  C   UNL     1     -18.055  -2.475 -12.138  1.00  0.00     0.014 C 
ENDBRANCH   1   9
TORSDOF 3
ENDMDL
MODEL 6
REMARK VINA RESULT:    -3.569      2.034      2.815
REMARK INTER + INTRA:          -4.138
REMARK INTER:                  -4.085
REMARK INTRA:                  -0.054
REMARK UNBOUND:                -0.048
REMARK SMILES CC(C)[C@H]([NH3+])C(=O)[O-]
REMARK SMILES IDX 4 1 5 2 6 6 7 7 8 8 2 9 1 10 3 11
REMARK H PARENT 5 3 5 4 5 5
REMARK Flexibility Score: inf
ROOT
ATOM      1  C   UNL     1     -19.824  -2.584 -12.911  1.00  0.00     0.230 C 
ENDROOT
BRANCH   1   2
ATOM      2  N   UNL     1     -20.379  -3.930 -13.112  1.00  0.00    -0.350 N 
ATOM      3  H   UNL     1     -19.936  -4.409 -13.928  1.00  0.00     0.345 HD
ATOM      4  H   UNL     1     -21.409  -3.861 -13.284  1.00  0.00     0.345 HD
ATOM      5  H   UNL     1     -20.231  -4.510 -12.253  1.00  0.00     0.345 HD
ENDBRANCH   1   2
BRANCH   1   6
ATOM      6  C   UNL     1     -18.606  -2.638 -12.018  1.00  0.00     0.099 C 
ATOM      7  O   UNL     1     -17.706  -1.764 -12.127  1.00  0.00    -0.544 OA
ATOM      8  O   UNL     1     -18.478  -3.631 -11.053  1.00  0.00    -0.544 OA
ENDBRANCH   1   6
BRANCH   1   9
ATOM      9  C   UNL     1     -20.904  -1.586 -12.393  1.00  0.00     0.047 C 
ATOM     10  C   UNL     1     -21.742  -2.206 -11.265  1.00  0.00     0.014 C 
ATOM     11  C   UNL     1     -21.826  -1.046 -13.499  1.00  0.00     0.014 C 
ENDBRANCH   1   9
TORSDOF 3
ENDMDL
MODEL 7
REMARK VINA RESULT:    -3.565      2.541      3.466
REMARK INTER + INTRA:          -4.134
REMARK INTER:                  -4.079
REMARK INTRA:                  -0.055
REMARK UNBOUND:                -0.048
REMARK SMILES CC(C)[C@H]([NH3+])C(=O)[O-]
REMARK SMILES IDX 4 1 5 2 6 6 7 7 8 8 2 9 1 10 3 11
REMARK H PARENT 5 3 5 4 5 5
REMARK Flexibility Score: inf
ROOT
ATOM      1  C   UNL     1     -18.986  -3.495 -13.088  1.00  0.00     0.230 C 
ENDROOT
BRANCH   1   2
ATOM      2  N   UNL     1     -20.445  -3.661 -13.060  1.00  0.00    -0.350 N 
ATOM      3  H   UNL     1     -20.771  -4.315 -13.807  1.00  0.00     0.345 HD
ATOM      4  H   UNL     1     -20.906  -2.733 -13.207  1.00  0.00     0.345 HD
ATOM      5  H   UNL     1     -20.746  -4.028 -12.128  1.00  0.00     0.345 HD
ENDBRANCH   1   2
BRANCH   1   6
ATOM      6  C   UNL     1     -18.372  -4.356 -14.167  1.00  0.00     0.099 C 
ATOM      7  O   UNL     1     -17.948  -5.508 -13.888  1.00  0.00    -0.544 OA
ATOM      8  O   UNL     1     -18.295  -3.901 -15.479  1.00  0.00    -0.544 OA
ENDBRANCH   1   6
BRANCH   1   9
ATOM      9  C   UNL     1     -18.349  -3.745 -11.686  1.00  0.00     0.047 C 
ATOM     10  C   UNL     1     -19.418  -3.773 -10.584  1.00  0.00     0.014 C 
ATOM     11  C   UNL     1     -17.244  -2.739 -11.322  1.00  0.00     0.014 C 
ENDBRANCH   1   9
TORSDOF 3
ENDMDL
MODEL 8
REMARK VINA RESULT:    -3.562      3.842      4.911
REMARK INTER + INTRA:          -4.131
REMARK INTER:                  -4.079
REMARK INTRA:                  -0.052
REMARK UNBOUND:                -0.048
REMARK SMILES CC(C)[C@H]([NH3+])C(=O)[O-]
REMARK SMILES IDX 4 1 5 2 6 6 7 7 8 8 2 9 1 10 3 11
REMARK H PARENT 5 3 5 4 5 5
REMARK Flexibility Score: inf
ROOT
ATOM      1  C   UNL     1     -21.785  -0.967 -12.333  1.00  0.00     0.230 C 
ENDROOT
BRANCH   1   2
ATOM      2  N   UNL     1     -22.107  -0.126 -13.493  1.00  0.00    -0.350 N 
ATOM      3  H   UNL     1     -21.331   0.539 -13.712  1.00  0.00     0.345 HD
ATOM      4  H   UNL     1     -22.973   0.427 -13.294  1.00  0.00     0.345 HD
ATOM      5  H   UNL     1     -22.292  -0.726 -14.330  1.00  0.00     0.345 HD
ENDBRANCH   1   2
BRANCH   1   6
ATOM      6  C   UNL     1     -20.792  -2.041 -12.714  1.00  0.00     0.099 C 
ATOM      7  O   UNL     1     -21.182  -3.070 -13.328  1.00  0.00    -0.544 OA
ATOM      8  O   UNL     1     -19.442  -1.895 -12.417  1.00  0.00    -0.544 OA
ENDBRANCH   1   6
BRANCH   1   9
ATOM      9  C   UNL     1     -23.069  -1.548 -11.665  1.00  0.00     0.047 C 
ATOM     10  C   UNL     1     -24.303  -0.694 -11.992  1.00  0.00     0.014 C 
ATOM     11  C   UNL     1     -22.944  -1.731 -10.143  1.00  0.00     0.014 C 
ENDBRANCH   1   9
TORSDOF 3
ENDMDL
MODEL 9
REMARK VINA RESULT:    -3.433      4.937      5.845
REMARK INTER + INTRA:          -3.982
REMARK INTER:                  -3.929
REMARK INTRA:                  -0.053
REMARK UNBOUND:                -0.048
REMARK SMILES CC(C)[C@H]([NH3+])C(=O)[O-]
REMARK SMILES IDX 4 1 5 2 6 6 7 7 8 8 2 9 1 10 3 11
REMARK H PARENT 5 3 5 4 5 5
REMARK Flexibility Score: inf
ROOT
ATOM      1  C   UNL     1     -23.532  -2.316 -12.139  1.00  0.00     0.230 C 
ENDROOT
BRANCH   1   2
ATOM      2  N   UNL     1     -24.604  -1.405 -12.563  1.00  0.00    -0.350 N 
ATOM      3  H   UNL     1     -24.805  -0.683 -11.834  1.00  0.00     0.345 HD
ATOM      4  H   UNL     1     -25.478  -1.952 -12.740  1.00  0.00     0.345 HD
ATOM      5  H   UNL     1     -24.336  -0.927 -13.454  1.00  0.00     0.345 HD
ENDBRANCH   1   2
BRANCH   1   6
ATOM      6  C   UNL     1     -23.815  -2.866 -10.761  1.00  0.00     0.099 C 
ATOM      7  O   UNL     1     -22.920  -2.838  -9.875  1.00  0.00    -0.544 OA
ATOM      8  O   UNL     1     -25.068  -3.381 -10.447  1.00  0.00    -0.544 OA
ENDBRANCH   1   6
BRANCH   1   9
ATOM      9  C   UNL     1     -22.129  -1.642 -12.239  1.00  0.00     0.047 C 
ATOM     10  C   UNL     1     -22.203  -0.306 -12.993  1.00  0.00     0.014 C 
ATOM     11  C   UNL     1     -21.056  -2.544 -12.871  1.00  0.00     0.014 C 
ENDBRANCH   1   9
TORSDOF 3
ENDMDL
