MODEL 1
REMARK VINA RESULT:    -4.191      0.000      0.000
REMARK INTER + INTRA:          -9.554
REMARK INTER:                  -7.865
REMARK INTRA:                  -1.689
REMARK UNBOUND:                -1.689
REMARK SMILES O=C([O-])CCCCCCCCCCCCCCC(=O)[O-]
REMARK SMILES IDX 10 1 9 2 8 3 7 4 6 5 5 6 4 7 2 8 1 9 3 10 11 11 12 12 13 13
REMARK SMILES IDX 14 14 15 15 16 16 17 17 18 18 19 19 20 20
REMARK H PARENT
REMARK Flexibility Score: inf
ROOT
ATOM      1  C   UNL     1      28.738 -23.549  24.288  1.00  0.00     0.000 C 
ENDROOT
BRANCH   1   2
ATOM      2  C   UNL     1      29.460 -22.938  23.076  1.00  0.00     0.000 C 
BRANCH   2   3
ATOM      3  C   UNL     1      28.850 -21.598  22.625  1.00  0.00     0.000 C 
BRANCH   3   4
ATOM      4  C   UNL     1      29.670 -20.345  22.982  1.00  0.00     0.000 C 
BRANCH   4   5
ATOM      5  C   UNL     1      29.540 -19.223  21.938  1.00  0.00     0.000 C 
BRANCH   5   6
ATOM      6  C   UNL     1      29.656 -17.822  22.561  1.00  0.00     0.006 C 
BRANCH   6   7
ATOM      7  C   UNL     1      28.831 -16.770  21.806  1.00  0.00     0.053 C 
BRANCH   7   8
ATOM      8  C   UNL     1      28.334 -15.722  22.751  1.00  0.00     0.041 C 
ATOM      9  O   UNL     1      28.534 -15.837  23.989  1.00  0.00    -0.550 OA
ATOM     10  O   UNL     1      27.691 -14.593  22.260  1.00  0.00    -0.550 OA
ENDBRANCH   7   8
ENDBRANCH   6   7
ENDBRANCH   5   6
ENDBRANCH   4   5
ENDBRANCH   3   4
ENDBRANCH   2   3
ENDBRANCH   1   2
BRANCH   1  11
ATOM     11  C   UNL     1      28.841 -22.676  25.553  1.00  0.00     0.000 C 
BRANCH  11  12
ATOM     12  C   UNL     1      27.498 -22.196  26.136  1.00  0.00     0.000 C 
BRANCH  12  13
ATOM     13  C   UNL     1      27.039 -20.846  25.560  1.00  0.00     0.000 C 
BRANCH  13  14
ATOM     14  C   UNL     1      27.320 -19.673  26.513  1.00  0.00     0.000 C 
BRANCH  14  15
ATOM     15  C   UNL     1      28.536 -18.834  26.079  1.00  0.00     0.000 C 
BRANCH  15  16
ATOM     16  C   UNL     1      29.600 -18.722  27.183  1.00  0.00     0.006 C 
BRANCH  16  17
ATOM     17  C   UNL     1      30.294 -20.061  27.469  1.00  0.00     0.053 C 
BRANCH  17  18
ATOM     18  C   UNL     1      29.987 -20.521  28.860  1.00  0.00     0.041 C 
ATOM     19  O   UNL     1      29.423 -19.743  29.673  1.00  0.00    -0.550 OA
ATOM     20  O   UNL     1      30.279 -21.824  29.242  1.00  0.00    -0.550 OA
ENDBRANCH  17  18
ENDBRANCH  16  17
ENDBRANCH  15  16
ENDBRANCH  14  15
ENDBRANCH  13  14
ENDBRANCH  12  13
ENDBRANCH  11  12
ENDBRANCH   1  11
TORSDOF 15
ENDMDL
MODEL 2
REMARK VINA RESULT:    -4.101      7.561     12.223
REMARK INTER + INTRA:          -9.386
REMARK INTER:                  -7.777
REMARK INTRA:                  -1.609
REMARK UNBOUND:                -1.689
REMARK SMILES O=C([O-])CCCCCCCCCCCCCCC(=O)[O-]
REMARK SMILES IDX 10 1 9 2 8 3 7 4 6 5 5 6 4 7 2 8 1 9 3 10 11 11 12 12 13 13
REMARK SMILES IDX 14 14 15 15 16 16 17 17 18 18 19 19 20 20
REMARK H PARENT
REMARK Flexibility Score: inf
ROOT
ATOM      1  C   UNL     1      32.436  -9.641  16.874  1.00  0.00     0.000 C 
ENDROOT
BRANCH   1   2
ATOM      2  C   UNL     1      32.895  -9.881  18.322  1.00  0.00     0.000 C 
BRANCH   2   3
ATOM      3  C   UNL     1      32.161 -11.053  18.999  1.00  0.00     0.000 C 
BRANCH   3   4
ATOM      4  C   UNL     1      31.966 -10.921  20.520  1.00  0.00     0.000 C 
BRANCH   4   5
ATOM      5  C   UNL     1      30.651 -11.548  21.015  1.00  0.00     0.000 C 
BRANCH   5   6
ATOM      6  C   UNL     1      30.388 -12.931  20.397  1.00  0.00     0.006 C 
BRANCH   6   7
ATOM      7  C   UNL     1      30.299 -14.041  21.454  1.00  0.00     0.053 C 
BRANCH   7   8
ATOM      8  C   UNL     1      28.875 -14.269  21.850  1.00  0.00     0.041 C 
ATOM      9  O   UNL     1      27.939 -13.784  21.161  1.00  0.00    -0.550 OA
ATOM     10  O   UNL     1      28.578 -15.059  22.954  1.00  0.00    -0.550 OA
ENDBRANCH   7   8
ENDBRANCH   6   7
ENDBRANCH   5   6
ENDBRANCH   4   5
ENDBRANCH   3   4
ENDBRANCH   2   3
ENDBRANCH   1   2
BRANCH   1  11
ATOM     11  C   UNL     1      32.158  -8.156  16.569  1.00  0.00     0.000 C 
BRANCH  11  12
ATOM     12  C   UNL     1      31.390  -7.389  17.663  1.00  0.00     0.000 C 
BRANCH  12  13
ATOM     13  C   UNL     1      32.196  -6.222  18.257  1.00  0.00     0.000 C 
BRANCH  13  14
ATOM     14  C   UNL     1      32.324  -6.312  19.786  1.00  0.00     0.000 C 
BRANCH  14  15
ATOM     15  C   UNL     1      31.373  -7.356  20.401  1.00  0.00     0.000 C 
BRANCH  15  16
ATOM     16  C   UNL     1      31.024  -7.045  21.866  1.00  0.00     0.006 C 
BRANCH  16  17
ATOM     17  C   UNL     1      29.920  -7.959  22.414  1.00  0.00     0.053 C 
BRANCH  17  18
ATOM     18  C   UNL     1      30.372  -8.623  23.677  1.00  0.00     0.041 C 
ATOM     19  O   UNL     1      29.661  -8.560  24.714  1.00  0.00    -0.550 OA
ATOM     20  O   UNL     1      31.553  -9.353  23.694  1.00  0.00    -0.550 OA
ENDBRANCH  17  18
ENDBRANCH  16  17
ENDBRANCH  15  16
ENDBRANCH  14  15
ENDBRANCH  13  14
ENDBRANCH  12  13
ENDBRANCH  11  12
ENDBRANCH   1  11
TORSDOF 15
ENDMDL
MODEL 3
REMARK VINA RESULT:    -4.101      1.256      6.284
REMARK INTER + INTRA:          -9.385
REMARK INTER:                  -7.711
REMARK INTRA:                  -1.675
REMARK UNBOUND:                -1.689
REMARK SMILES O=C([O-])CCCCCCCCCCCCCCC(=O)[O-]
REMARK SMILES IDX 10 1 9 2 8 3 7 4 6 5 5 6 4 7 2 8 1 9 3 10 11 11 12 12 13 13
REMARK SMILES IDX 14 14 15 15 16 16 17 17 18 18 19 19 20 20
REMARK H PARENT
REMARK Flexibility Score: inf
ROOT
ATOM      1  C   UNL     1      30.676 -22.378  23.248  1.00  0.00     0.000 C 
ENDROOT
BRANCH   1   2
ATOM      2  C   UNL     1      30.040 -23.774  23.348  1.00  0.00     0.000 C 
BRANCH   2   3
ATOM      3  C   UNL     1      28.695 -23.770  24.100  1.00  0.00     0.000 C 
BRANCH   3   4
ATOM      4  C   UNL     1      28.757 -23.289  25.561  1.00  0.00     0.000 C 
BRANCH   4   5
ATOM      5  C   UNL     1      27.577 -22.380  25.945  1.00  0.00     0.000 C 
BRANCH   5   6
ATOM      6  C   UNL     1      27.956 -20.891  25.949  1.00  0.00     0.006 C 
BRANCH   6   7
ATOM      7  C   UNL     1      29.410 -20.653  26.383  1.00  0.00     0.053 C 
BRANCH   7   8
ATOM      8  C   UNL     1      29.490 -20.490  27.868  1.00  0.00     0.041 C 
ATOM      9  O   UNL     1      29.237 -19.376  28.398  1.00  0.00    -0.550 OA
ATOM     10  O   UNL     1      29.795 -21.581  28.672  1.00  0.00    -0.550 OA
ENDBRANCH   7   8
ENDBRANCH   6   7
ENDBRANCH   5   6
ENDBRANCH   4   5
ENDBRANCH   3   4
ENDBRANCH   2   3
ENDBRANCH   1   2
BRANCH   1  11
ATOM     11  C   UNL     1      30.060 -21.515  22.130  1.00  0.00     0.000 C 
BRANCH  11  12
ATOM     12  C   UNL     1      29.116 -20.394  22.604  1.00  0.00     0.000 C 
BRANCH  12  13
ATOM     13  C   UNL     1      29.677 -18.985  22.345  1.00  0.00     0.000 C 
BRANCH  13  14
ATOM     14  C   UNL     1      29.689 -18.113  23.611  1.00  0.00     0.000 C 
BRANCH  14  15
ATOM     15  C   UNL     1      29.307 -16.649  23.326  1.00  0.00     0.000 C 
BRANCH  15  16
ATOM     16  C   UNL     1      29.157 -16.360  21.824  1.00  0.00     0.006 C 
BRANCH  16  17
ATOM     17  C   UNL     1      27.884 -15.565  21.501  1.00  0.00     0.053 C 
BRANCH  17  18
ATOM     18  C   UNL     1      28.017 -14.153  21.978  1.00  0.00     0.041 C 
ATOM     19  O   UNL     1      27.241 -13.709  22.864  1.00  0.00    -0.550 OA
ATOM     20  O   UNL     1      29.029 -13.343  21.479  1.00  0.00    -0.550 OA
ENDBRANCH  17  18
ENDBRANCH  16  17
ENDBRANCH  15  16
ENDBRANCH  14  15
ENDBRANCH  13  14
ENDBRANCH  12  13
ENDBRANCH  11  12
ENDBRANCH   1  11
TORSDOF 15
ENDMDL
MODEL 4
REMARK VINA RESULT:    -4.050      2.576      3.501
REMARK INTER + INTRA:          -9.291
REMARK INTER:                  -7.410
REMARK INTRA:                  -1.880
REMARK UNBOUND:                -1.689
REMARK SMILES O=C([O-])CCCCCCCCCCCCCCC(=O)[O-]
REMARK SMILES IDX 10 1 9 2 8 3 7 4 6 5 5 6 4 7 2 8 1 9 3 10 11 11 12 12 13 13
REMARK SMILES IDX 14 14 15 15 16 16 17 17 18 18 19 19 20 20
REMARK H PARENT
REMARK Flexibility Score: inf
ROOT
ATOM      1  C   UNL     1      27.401 -22.002  26.244  1.00  0.00     0.000 C 
ENDROOT
BRANCH   1   2
ATOM      2  C   UNL     1      28.181 -23.108  25.513  1.00  0.00     0.000 C 
BRANCH   2   3
ATOM      3  C   UNL     1      29.320 -22.559  24.633  1.00  0.00     0.000 C 
BRANCH   3   4
ATOM      4  C   UNL     1      29.209 -22.882  23.132  1.00  0.00     0.000 C 
BRANCH   4   5
ATOM      5  C   UNL     1      28.740 -21.681  22.292  1.00  0.00     0.000 C 
BRANCH   5   6
ATOM      6  C   UNL     1      29.509 -20.393  22.624  1.00  0.00     0.006 C 
BRANCH   6   7
ATOM      7  C   UNL     1      30.670 -20.132  21.654  1.00  0.00     0.053 C 
BRANCH   7   8
ATOM      8  C   UNL     1      31.974 -20.148  22.387  1.00  0.00     0.041 C 
ATOM      9  O   UNL     1      32.599 -21.229  22.547  1.00  0.00    -0.550 OA
ATOM     10  O   UNL     1      32.524 -18.960  22.852  1.00  0.00    -0.550 OA
ENDBRANCH   7   8
ENDBRANCH   6   7
ENDBRANCH   5   6
ENDBRANCH   4   5
ENDBRANCH   3   4
ENDBRANCH   2   3
ENDBRANCH   1   2
BRANCH   1  11
ATOM     11  C   UNL     1      27.356 -20.677  25.458  1.00  0.00     0.000 C 
BRANCH  11  12
ATOM     12  C   UNL     1      27.354 -19.399  26.318  1.00  0.00     0.000 C 
BRANCH  12  13
ATOM     13  C   UNL     1      28.685 -18.630  26.255  1.00  0.00     0.000 C 
BRANCH  13  14
ATOM     14  C   UNL     1      29.797 -19.310  27.071  1.00  0.00     0.000 C 
BRANCH  14  15
ATOM     15  C   UNL     1      29.815 -18.857  28.542  1.00  0.00     0.000 C 
BRANCH  15  16
ATOM     16  C   UNL     1      29.702 -20.036  29.523  1.00  0.00     0.006 C 
BRANCH  16  17
ATOM     17  C   UNL     1      29.905 -21.394  28.837  1.00  0.00     0.053 C 
BRANCH  17  18
ATOM     18  C   UNL     1      30.897 -22.218  29.596  1.00  0.00     0.041 C 
ATOM     19  O   UNL     1      32.038 -21.754  29.856  1.00  0.00    -0.550 OA
ATOM     20  O   UNL     1      30.545 -23.480  30.057  1.00  0.00    -0.550 OA
ENDBRANCH  17  18
ENDBRANCH  16  17
ENDBRANCH  15  16
ENDBRANCH  14  15
ENDBRANCH  13  14
ENDBRANCH  12  13
ENDBRANCH  11  12
ENDBRANCH   1  11
TORSDOF 15
ENDMDL
MODEL 5
REMARK VINA RESULT:    -4.050      7.450     11.793
REMARK INTER + INTRA:          -9.290
REMARK INTER:                  -7.981
REMARK INTRA:                  -1.309
REMARK UNBOUND:                -1.689
REMARK SMILES O=C([O-])CCCCCCCCCCCCCCC(=O)[O-]
REMARK SMILES IDX 10 1 9 2 8 3 7 4 6 5 5 6 4 7 2 8 1 9 3 10 11 11 12 12 13 13
REMARK SMILES IDX 14 14 15 15 16 16 17 17 18 18 19 19 20 20
REMARK H PARENT
REMARK Flexibility Score: inf
ROOT
ATOM      1  C   UNL     1      32.355  -9.540  17.410  1.00  0.00     0.000 C 
ENDROOT
BRANCH   1   2
ATOM      2  C   UNL     1      32.172  -8.380  16.418  1.00  0.00     0.000 C 
BRANCH   2   3
ATOM      3  C   UNL     1      31.852  -7.042  17.110  1.00  0.00     0.000 C 
BRANCH   3   4
ATOM      4  C   UNL     1      31.345  -7.152  18.559  1.00  0.00     0.000 C 
BRANCH   4   5
ATOM      5  C   UNL     1      32.358  -6.627  19.592  1.00  0.00     0.000 C 
BRANCH   5   6
ATOM      6  C   UNL     1      31.837  -6.732  21.034  1.00  0.00     0.006 C 
BRANCH   6   7
ATOM      7  C   UNL     1      30.668  -7.719  21.169  1.00  0.00     0.053 C 
BRANCH   7   8
ATOM      8  C   UNL     1      30.852  -8.581  22.377  1.00  0.00     0.041 C 
ATOM      9  O   UNL     1      29.890  -8.784  23.164  1.00  0.00    -0.550 OA
ATOM     10  O   UNL     1      32.072  -9.203  22.609  1.00  0.00    -0.550 OA
ENDBRANCH   7   8
ENDBRANCH   6   7
ENDBRANCH   5   6
ENDBRANCH   4   5
ENDBRANCH   3   4
ENDBRANCH   2   3
ENDBRANCH   1   2
BRANCH   1  11
ATOM     11  C   UNL     1      32.816 -10.845  16.733  1.00  0.00     0.000 C 
BRANCH  11  12
ATOM     12  C   UNL     1      33.261 -11.966  17.691  1.00  0.00     0.000 C 
BRANCH  12  13
ATOM     13  C   UNL     1      32.220 -13.088  17.831  1.00  0.00     0.000 C 
BRANCH  13  14
ATOM     14  C   UNL     1      31.804 -13.328  19.292  1.00  0.00     0.000 C 
BRANCH  14  15
ATOM     15  C   UNL     1      31.470 -12.022  20.036  1.00  0.00     0.000 C 
BRANCH  15  16
ATOM     16  C   UNL     1      30.225 -12.155  20.929  1.00  0.00     0.006 C 
BRANCH  16  17
ATOM     17  C   UNL     1      29.220 -13.181  20.390  1.00  0.00     0.053 C 
BRANCH  17  18
ATOM     18  C   UNL     1      28.750 -14.079  21.490  1.00  0.00     0.041 C 
ATOM     19  O   UNL     1      27.543 -14.066  21.846  1.00  0.00    -0.550 OA
ATOM     20  O   UNL     1      29.635 -14.966  22.090  1.00  0.00    -0.550 OA
ENDBRANCH  17  18
ENDBRANCH  16  17
ENDBRANCH  15  16
ENDBRANCH  14  15
ENDBRANCH  13  14
ENDBRANCH  12  13
ENDBRANCH  11  12
ENDBRANCH   1  11
TORSDOF 15
ENDMDL
MODEL 6
REMARK VINA RESULT:    -4.026      1.403      6.573
REMARK INTER + INTRA:          -9.245
REMARK INTER:                  -7.367
REMARK INTRA:                  -1.877
REMARK UNBOUND:                -1.689
REMARK SMILES O=C([O-])CCCCCCCCCCCCCCC(=O)[O-]
REMARK SMILES IDX 10 1 9 2 8 3 7 4 6 5 5 6 4 7 2 8 1 9 3 10 11 11 12 12 13 13
REMARK SMILES IDX 14 14 15 15 16 16 17 17 18 18 19 19 20 20
REMARK H PARENT
REMARK Flexibility Score: inf
ROOT
ATOM      1  C   UNL     1      27.444 -22.659  25.978  1.00  0.00     0.000 C 
ENDROOT
BRANCH   1   2
ATOM      2  C   UNL     1      27.277 -21.131  25.943  1.00  0.00     0.000 C 
BRANCH   2   3
ATOM      3  C   UNL     1      28.618 -20.382  25.828  1.00  0.00     0.000 C 
BRANCH   3   4
ATOM      4  C   UNL     1      28.734 -19.101  26.674  1.00  0.00     0.000 C 
BRANCH   4   5
ATOM      5  C   UNL     1      29.596 -19.288  27.934  1.00  0.00     0.000 C 
BRANCH   5   6
ATOM      6  C   UNL     1      30.353 -20.626  27.937  1.00  0.00     0.006 C 
BRANCH   6   7
ATOM      7  C   UNL     1      29.867 -21.576  29.041  1.00  0.00     0.053 C 
BRANCH   7   8
ATOM      8  C   UNL     1      31.032 -22.222  29.721  1.00  0.00     0.041 C 
ATOM      9  O   UNL     1      32.122 -21.602  29.839  1.00  0.00    -0.550 OA
ATOM     10  O   UNL     1      30.900 -23.492  30.270  1.00  0.00    -0.550 OA
ENDBRANCH   7   8
ENDBRANCH   6   7
ENDBRANCH   5   6
ENDBRANCH   4   5
ENDBRANCH   3   4
ENDBRANCH   2   3
ENDBRANCH   1   2
BRANCH   1  11
ATOM     11  C   UNL     1      28.863 -23.118  25.594  1.00  0.00     0.000 C 
BRANCH  11  12
ATOM     12  C   UNL     1      28.969 -23.907  24.275  1.00  0.00     0.000 C 
BRANCH  12  13
ATOM     13  C   UNL     1      29.820 -23.192  23.213  1.00  0.00     0.000 C 
BRANCH  13  14
ATOM     14  C   UNL     1      29.071 -22.028  22.543  1.00  0.00     0.000 C 
BRANCH  14  15
ATOM     15  C   UNL     1      29.951 -20.775  22.373  1.00  0.00     0.000 C 
BRANCH  15  16
ATOM     16  C   UNL     1      29.123 -19.488  22.232  1.00  0.00     0.006 C 
BRANCH  16  17
ATOM     17  C   UNL     1      29.728 -18.310  23.008  1.00  0.00     0.053 C 
BRANCH  17  18
ATOM     18  C   UNL     1      29.529 -17.032  22.256  1.00  0.00     0.041 C 
ATOM     19  O   UNL     1      30.357 -16.092  22.376  1.00  0.00    -0.550 OA
ATOM     20  O   UNL     1      28.456 -16.898  21.384  1.00  0.00    -0.550 OA
ENDBRANCH  17  18
ENDBRANCH  16  17
ENDBRANCH  15  16
ENDBRANCH  14  15
ENDBRANCH  13  14
ENDBRANCH  12  13
ENDBRANCH  11  12
ENDBRANCH   1  11
TORSDOF 15
ENDMDL
MODEL 7
REMARK VINA RESULT:    -4.012      7.032     10.999
REMARK INTER + INTRA:          -9.219
REMARK INTER:                  -7.900
REMARK INTRA:                  -1.319
REMARK UNBOUND:                -1.689
REMARK SMILES O=C([O-])CCCCCCCCCCCCCCC(=O)[O-]
REMARK SMILES IDX 10 1 9 2 8 3 7 4 6 5 5 6 4 7 2 8 1 9 3 10 11 11 12 12 13 13
REMARK SMILES IDX 14 14 15 15 16 16 17 17 18 18 19 19 20 20
REMARK H PARENT
REMARK Flexibility Score: inf
ROOT
ATOM      1  C   UNL     1      33.091  -9.990  18.246  1.00  0.00     0.000 C 
ENDROOT
BRANCH   1   2
ATOM      2  C   UNL     1      32.267  -9.362  17.110  1.00  0.00     0.000 C 
BRANCH   2   3
ATOM      3  C   UNL     1      32.132  -7.833  17.239  1.00  0.00     0.000 C 
BRANCH   3   4
ATOM      4  C   UNL     1      31.403  -7.339  18.502  1.00  0.00     0.000 C 
BRANCH   4   5
ATOM      5  C   UNL     1      32.325  -6.575  19.468  1.00  0.00     0.000 C 
BRANCH   5   6
ATOM      6  C   UNL     1      31.861  -6.677  20.930  1.00  0.00     0.006 C 
BRANCH   6   7
ATOM      7  C   UNL     1      30.757  -7.726  21.127  1.00  0.00     0.053 C 
BRANCH   7   8
ATOM      8  C   UNL     1      30.259  -7.699  22.537  1.00  0.00     0.041 C 
ATOM      9  O   UNL     1      29.711  -8.718  23.036  1.00  0.00    -0.550 OA
ATOM     10  O   UNL     1      30.444  -6.566  23.318  1.00  0.00    -0.550 OA
ENDBRANCH   7   8
ENDBRANCH   6   7
ENDBRANCH   5   6
ENDBRANCH   4   5
ENDBRANCH   3   4
ENDBRANCH   2   3
ENDBRANCH   1   2
BRANCH   1  11
ATOM     11  C   UNL     1      32.359 -11.149  18.950  1.00  0.00     0.000 C 
BRANCH  11  12
ATOM     12  C   UNL     1      32.072 -10.936  20.449  1.00  0.00     0.000 C 
BRANCH  12  13
ATOM     13  C   UNL     1      30.753 -11.582  20.906  1.00  0.00     0.000 C 
BRANCH  13  14
ATOM     14  C   UNL     1      30.750 -13.108  20.722  1.00  0.00     0.000 C 
BRANCH  14  15
ATOM     15  C   UNL     1      29.427 -13.631  20.133  1.00  0.00     0.000 C 
BRANCH  15  16
ATOM     16  C   UNL     1      28.381 -13.941  21.217  1.00  0.00     0.006 C 
BRANCH  16  17
ATOM     17  C   UNL     1      28.609 -15.305  21.882  1.00  0.00     0.053 C 
BRANCH  17  18
ATOM     18  C   UNL     1      28.406 -15.205  23.361  1.00  0.00     0.041 C 
ATOM     19  O   UNL     1      27.977 -14.136  23.869  1.00  0.00    -0.550 OA
ATOM     20  O   UNL     1      28.643 -16.307  24.172  1.00  0.00    -0.550 OA
ENDBRANCH  17  18
ENDBRANCH  16  17
ENDBRANCH  15  16
ENDBRANCH  14  15
ENDBRANCH  13  14
ENDBRANCH  12  13
ENDBRANCH  11  12
ENDBRANCH   1  11
TORSDOF 15
ENDMDL
MODEL 8
REMARK VINA RESULT:    -3.991      7.561     12.605
REMARK INTER + INTRA:          -9.180
REMARK INTER:                  -7.559
REMARK INTRA:                  -1.621
REMARK UNBOUND:                -1.689
REMARK SMILES O=C([O-])CCCCCCCCCCCCCCC(=O)[O-]
REMARK SMILES IDX 10 1 9 2 8 3 7 4 6 5 5 6 4 7 2 8 1 9 3 10 11 11 12 12 13 13
REMARK SMILES IDX 14 14 15 15 16 16 17 17 18 18 19 19 20 20
REMARK H PARENT
REMARK Flexibility Score: inf
ROOT
ATOM      1  C   UNL     1      30.549  -8.952  22.398  1.00  0.00     0.000 C 
ENDROOT
BRANCH   1   2
ATOM      2  C   UNL     1      31.570  -9.984  21.891  1.00  0.00     0.000 C 
BRANCH   2   3
ATOM      3  C   UNL     1      31.046 -10.817  20.707  1.00  0.00     0.000 C 
BRANCH   3   4
ATOM      4  C   UNL     1      31.790 -12.140  20.449  1.00  0.00     0.000 C 
BRANCH   4   5
ATOM      5  C   UNL     1      30.866 -13.262  19.946  1.00  0.00     0.000 C 
BRANCH   5   6
ATOM      6  C   UNL     1      29.401 -13.050  20.362  1.00  0.00     0.006 C 
BRANCH   6   7
ATOM      7  C   UNL     1      28.870 -14.183  21.252  1.00  0.00     0.053 C 
BRANCH   7   8
ATOM      8  C   UNL     1      28.581 -13.672  22.628  1.00  0.00     0.041 C 
ATOM      9  O   UNL     1      27.652 -14.178  23.310  1.00  0.00    -0.550 OA
ATOM     10  O   UNL     1      29.370 -12.669  23.177  1.00  0.00    -0.550 OA
ENDBRANCH   7   8
ENDBRANCH   6   7
ENDBRANCH   5   6
ENDBRANCH   4   5
ENDBRANCH   3   4
ENDBRANCH   2   3
ENDBRANCH   1   2
BRANCH   1  11
ATOM     11  C   UNL     1      30.507  -7.674  21.538  1.00  0.00     0.000 C 
BRANCH  11  12
ATOM     12  C   UNL     1      31.867  -6.990  21.304  1.00  0.00     0.000 C 
BRANCH  12  13
ATOM     13  C   UNL     1      32.091  -6.581  19.839  1.00  0.00     0.000 C 
BRANCH  13  14
ATOM     14  C   UNL     1      31.409  -7.539  18.849  1.00  0.00     0.000 C 
BRANCH  14  15
ATOM     15  C   UNL     1      31.686  -7.170  17.380  1.00  0.00     0.000 C 
BRANCH  15  16
ATOM     16  C   UNL     1      32.138  -8.378  16.544  1.00  0.00     0.006 C 
BRANCH  16  17
ATOM     17  C   UNL     1      32.340  -9.640  17.394  1.00  0.00     0.053 C 
BRANCH  17  18
ATOM     18  C   UNL     1      33.757 -10.113  17.296  1.00  0.00     0.041 C 
ATOM     19  O   UNL     1      34.174 -11.022  18.061  1.00  0.00    -0.550 OA
ATOM     20  O   UNL     1      34.601  -9.585  16.328  1.00  0.00    -0.550 OA
ENDBRANCH  17  18
ENDBRANCH  16  17
ENDBRANCH  15  16
ENDBRANCH  14  15
ENDBRANCH  13  14
ENDBRANCH  12  13
ENDBRANCH  11  12
ENDBRANCH   1  11
TORSDOF 15
ENDMDL
MODEL 9
REMARK VINA RESULT:    -3.945      1.457      6.401
REMARK INTER + INTRA:          -9.094
REMARK INTER:                  -7.272
REMARK INTRA:                  -1.822
REMARK UNBOUND:                -1.689
REMARK SMILES O=C([O-])CCCCCCCCCCCCCCC(=O)[O-]
REMARK SMILES IDX 10 1 9 2 8 3 7 4 6 5 5 6 4 7 2 8 1 9 3 10 11 11 12 12 13 13
REMARK SMILES IDX 14 14 15 15 16 16 17 17 18 18 19 19 20 20
REMARK H PARENT
REMARK Flexibility Score: inf
ROOT
ATOM      1  C   UNL     1      29.838 -20.200  22.031  1.00  0.00     0.000 C 
ENDROOT
BRANCH   1   2
ATOM      2  C   UNL     1      28.736 -21.206  22.402  1.00  0.00     0.000 C 
BRANCH   2   3
ATOM      3  C   UNL     1      29.246 -22.358  23.287  1.00  0.00     0.000 C 
BRANCH   3   4
ATOM      4  C   UNL     1      28.687 -22.387  24.721  1.00  0.00     0.000 C 
BRANCH   4   5
ATOM      5  C   UNL     1      28.217 -21.007  25.212  1.00  0.00     0.000 C 
BRANCH   5   6
ATOM      6  C   UNL     1      29.320 -20.239  25.959  1.00  0.00     0.006 C 
BRANCH   6   7
ATOM      7  C   UNL     1      28.828 -19.639  27.283  1.00  0.00     0.053 C 
BRANCH   7   8
ATOM      8  C   UNL     1      29.532 -20.279  28.438  1.00  0.00     0.041 C 
ATOM      9  O   UNL     1      30.325 -21.238  28.245  1.00  0.00    -0.550 OA
ATOM     10  O   UNL     1      29.350 -19.785  29.723  1.00  0.00    -0.550 OA
ENDBRANCH   7   8
ENDBRANCH   6   7
ENDBRANCH   5   6
ENDBRANCH   4   5
ENDBRANCH   3   4
ENDBRANCH   2   3
ENDBRANCH   1   2
BRANCH   1  11
ATOM     11  C   UNL     1      29.518 -18.762  22.482  1.00  0.00     0.000 C 
BRANCH  11  12
ATOM     12  C   UNL     1      30.740 -17.852  22.706  1.00  0.00     0.000 C 
BRANCH  12  13
ATOM     13  C   UNL     1      30.492 -16.758  23.758  1.00  0.00     0.000 C 
BRANCH  13  14
ATOM     14  C   UNL     1      29.189 -16.981  24.543  1.00  0.00     0.000 C 
BRANCH  14  15
ATOM     15  C   UNL     1      28.315 -15.715  24.613  1.00  0.00     0.000 C 
BRANCH  15  16
ATOM     16  C   UNL     1      28.679 -14.686  23.530  1.00  0.00     0.006 C 
BRANCH  16  17
ATOM     17  C   UNL     1      27.698 -14.700  22.350  1.00  0.00     0.053 C 
BRANCH  17  18
ATOM     18  C   UNL     1      28.373 -15.211  21.116  1.00  0.00     0.041 C 
ATOM     19  O   UNL     1      29.374 -14.607  20.647  1.00  0.00    -0.550 OA
ATOM     20  O   UNL     1      27.928 -16.380  20.513  1.00  0.00    -0.550 OA
ENDBRANCH  17  18
ENDBRANCH  16  17
ENDBRANCH  15  16
ENDBRANCH  14  15
ENDBRANCH  13  14
ENDBRANCH  12  13
ENDBRANCH  11  12
ENDBRANCH   1  11
TORSDOF 15
ENDMDL
