MODEL 1
REMARK VINA RESULT:    -0.046      0.000      0.000
REMARK INTER + INTRA:          -1.352
REMARK INTER:                  -0.070
REMARK INTRA:                  -1.282
REMARK UNBOUND:                -1.282
REMARK SMILES O=C([O-])CCCCCCCCC(=O)[O-]
REMARK SMILES IDX 7 1 6 2 5 3 4 4 2 5 1 6 3 7 8 8 9 9 10 10 11 11 12 12 13 13
REMARK SMILES IDX 14 14
REMARK H PARENT
REMARK Flexibility Score: inf
ROOT
ATOM      1  C   UNL     1     174.543 195.650 183.566  1.00  0.00     0.000 C 
ENDROOT
BRANCH   1   2
ATOM      2  C   UNL     1     175.743 195.501 184.512  1.00  0.00     0.000 C 
BRANCH   2   3
ATOM      3  C   UNL     1     175.444 196.123 185.881  1.00  0.00     0.006 C 
BRANCH   3   4
ATOM      4  C   UNL     1     176.394 197.287 186.176  1.00  0.00     0.053 C 
BRANCH   4   5
ATOM      5  C   UNL     1     175.623 198.503 186.581  1.00  0.00     0.041 C 
ATOM      6  O   UNL     1     174.410 198.405 186.902  1.00  0.00    -0.550 OA
ATOM      7  O   UNL     1     176.256 199.738 186.650  1.00  0.00    -0.550 OA
ENDBRANCH   4   5
ENDBRANCH   3   4
ENDBRANCH   2   3
ENDBRANCH   1   2
BRANCH   1   8
ATOM      8  C   UNL     1     173.343 196.339 184.236  1.00  0.00     0.000 C 
BRANCH   8   9
ATOM      9  C   UNL     1     173.036 197.718 183.625  1.00  0.00     0.000 C 
BRANCH   9  10
ATOM     10  C   UNL     1     174.083 198.147 182.586  1.00  0.00     0.006 C 
BRANCH  10  11
ATOM     11  C   UNL     1     174.925 199.340 183.056  1.00  0.00     0.053 C 
BRANCH  11  12
ATOM     12  C   UNL     1     176.383 199.043 182.902  1.00  0.00     0.041 C 
ATOM     13  O   UNL     1     176.760 198.061 182.211  1.00  0.00    -0.550 OA
ATOM     14  O   UNL     1     177.328 199.880 183.482  1.00  0.00    -0.550 OA
ENDBRANCH  11  12
ENDBRANCH  10  11
ENDBRANCH   9  10
ENDBRANCH   8   9
ENDBRANCH   1   8
TORSDOF 9
ENDMDL
MODEL 2
REMARK VINA RESULT:    -0.011     14.313     15.919
REMARK INTER + INTRA:          -1.299
REMARK INTER:                   0.000
REMARK INTRA:                  -1.299
REMARK UNBOUND:                -1.282
REMARK SMILES O=C([O-])CCCCCCCCC(=O)[O-]
REMARK SMILES IDX 7 1 6 2 5 3 4 4 2 5 1 6 3 7 8 8 9 9 10 10 11 11 12 12 13 13
REMARK SMILES IDX 14 14
REMARK H PARENT
REMARK Flexibility Score: inf
ROOT
ATOM      1  C   UNL     1     171.450 185.803 190.519  1.00  0.00     0.000 C 
ENDROOT
BRANCH   1   2
ATOM      2  C   UNL     1     172.778 186.156 189.833  1.00  0.00     0.000 C 
BRANCH   2   3
ATOM      3  C   UNL     1     173.968 185.585 190.613  1.00  0.00     0.006 C 
BRANCH   3   4
ATOM      4  C   UNL     1     173.596 185.332 192.077  1.00  0.00     0.053 C 
BRANCH   4   5
ATOM      5  C   UNL     1     174.100 183.996 192.522  1.00  0.00     0.041 C 
ATOM      6  O   UNL     1     173.345 183.214 193.158  1.00  0.00    -0.550 OA
ATOM      7  O   UNL     1     175.388 183.593 192.194  1.00  0.00    -0.550 OA
ENDBRANCH   4   5
ENDBRANCH   3   4
ENDBRANCH   2   3
ENDBRANCH   1   2
BRANCH   1   8
ATOM      8  C   UNL     1     170.747 184.602 189.865  1.00  0.00     0.000 C 
BRANCH   8   9
ATOM      9  C   UNL     1     170.564 183.423 190.838  1.00  0.00     0.000 C 
BRANCH   9  10
ATOM     10  C   UNL     1     171.370 182.183 190.419  1.00  0.00     0.006 C 
BRANCH  10  11
ATOM     11  C   UNL     1     172.252 182.442 189.191  1.00  0.00     0.053 C 
BRANCH  11  12
ATOM     12  C   UNL     1     173.661 182.016 189.461  1.00  0.00     0.041 C 
ATOM     13  O   UNL     1     174.615 182.556 188.844  1.00  0.00    -0.550 OA
ATOM     14  O   UNL     1     173.923 181.056 190.431  1.00  0.00    -0.550 OA
ENDBRANCH  11  12
ENDBRANCH  10  11
ENDBRANCH   9  10
ENDBRANCH   8   9
ENDBRANCH   1   8
TORSDOF 9
ENDMDL
MODEL 3
REMARK VINA RESULT:    -0.011     17.961     19.540
REMARK INTER + INTRA:          -1.299
REMARK INTER:                   0.000
REMARK INTRA:                  -1.299
REMARK UNBOUND:                -1.282
REMARK SMILES O=C([O-])CCCCCCCCC(=O)[O-]
REMARK SMILES IDX 7 1 6 2 5 3 4 4 2 5 1 6 3 7 8 8 9 9 10 10 11 11 12 12 13 13
REMARK SMILES IDX 14 14
REMARK H PARENT
REMARK Flexibility Score: inf
ROOT
ATOM      1  C   UNL     1     165.837 185.108 192.556  1.00  0.00     0.000 C 
ENDROOT
BRANCH   1   2
ATOM      2  C   UNL     1     166.437 184.620 193.883  1.00  0.00     0.000 C 
BRANCH   2   3
ATOM      3  C   UNL     1     166.112 183.141 194.122  1.00  0.00     0.006 C 
BRANCH   3   4
ATOM      4  C   UNL     1     164.761 182.768 193.504  1.00  0.00     0.053 C 
BRANCH   4   5
ATOM      5  C   UNL     1     164.851 181.448 192.806  1.00  0.00     0.041 C 
ATOM      6  O   UNL     1     164.471 181.338 191.610  1.00  0.00    -0.550 OA
ATOM      7  O   UNL     1     165.399 180.351 193.458  1.00  0.00    -0.550 OA
ENDBRANCH   4   5
ENDBRANCH   3   4
ENDBRANCH   2   3
ENDBRANCH   1   2
BRANCH   1   8
ATOM      8  C   UNL     1     166.826 184.996 191.384  1.00  0.00     0.000 C 
BRANCH   8   9
ATOM      9  C   UNL     1     166.306 184.085 190.257  1.00  0.00     0.000 C 
BRANCH   9  10
ATOM     10  C   UNL     1     167.220 182.874 190.011  1.00  0.00     0.006 C 
BRANCH  10  11
ATOM     11  C   UNL     1     168.314 182.735 191.077  1.00  0.00     0.053 C 
BRANCH  11  12
ATOM     12  C   UNL     1     168.315 181.352 191.647  1.00  0.00     0.041 C 
ATOM     13  O   UNL     1     168.781 181.141 192.797  1.00  0.00    -0.550 OA
ATOM     14  O   UNL     1     167.757 180.303 190.928  1.00  0.00    -0.550 OA
ENDBRANCH  11  12
ENDBRANCH  10  11
ENDBRANCH   9  10
ENDBRANCH   8   9
ENDBRANCH   1   8
TORSDOF 9
ENDMDL
MODEL 4
REMARK VINA RESULT:    -0.010     10.370     11.951
REMARK INTER + INTRA:          -1.297
REMARK INTER:                   0.000
REMARK INTRA:                  -1.297
REMARK UNBOUND:                -1.282
REMARK SMILES O=C([O-])CCCCCCCCC(=O)[O-]
REMARK SMILES IDX 7 1 6 2 5 3 4 4 2 5 1 6 3 7 8 8 9 9 10 10 11 11 12 12 13 13
REMARK SMILES IDX 14 14
REMARK H PARENT
REMARK Flexibility Score: inf
ROOT
ATOM      1  C   UNL     1     166.725 186.634 183.038  1.00  0.00     0.000 C 
ENDROOT
BRANCH   1   2
ATOM      2  C   UNL     1     166.414 187.787 182.073  1.00  0.00     0.000 C 
BRANCH   2   3
ATOM      3  C   UNL     1     166.654 189.144 182.745  1.00  0.00     0.006 C 
BRANCH   3   4
ATOM      4  C   UNL     1     166.775 188.992 184.264  1.00  0.00     0.053 C 
BRANCH   4   5
ATOM      5  C   UNL     1     167.989 189.709 184.767  1.00  0.00     0.041 C 
ATOM      6  O   UNL     1     168.742 189.160 185.613  1.00  0.00    -0.550 OA
ATOM      7  O   UNL     1     168.314 190.962 184.265  1.00  0.00    -0.550 OA
ENDBRANCH   4   5
ENDBRANCH   3   4
ENDBRANCH   2   3
ENDBRANCH   1   2
BRANCH   1   8
ATOM      8  C   UNL     1     168.048 185.923 182.705  1.00  0.00     0.000 C 
BRANCH   8   9
ATOM      9  C   UNL     1     169.084 186.044 183.836  1.00  0.00     0.000 C 
BRANCH   9  10
ATOM     10  C   UNL     1     170.318 186.861 183.420  1.00  0.00     0.006 C 
BRANCH  10  11
ATOM     11  C   UNL     1     170.166 187.489 182.028  1.00  0.00     0.053 C 
BRANCH  11  12
ATOM     12  C   UNL     1     170.382 188.968 182.096  1.00  0.00     0.041 C 
ATOM     13  O   UNL     1     169.817 189.729 181.268  1.00  0.00    -0.550 OA
ATOM     14  O   UNL     1     171.168 189.510 183.105  1.00  0.00    -0.550 OA
ENDBRANCH  11  12
ENDBRANCH  10  11
ENDBRANCH   9  10
ENDBRANCH   8   9
ENDBRANCH   1   8
TORSDOF 9
ENDMDL
MODEL 5
REMARK VINA RESULT:    -0.009     10.000     11.717
REMARK INTER + INTRA:          -1.296
REMARK INTER:                   0.000
REMARK INTRA:                  -1.296
REMARK UNBOUND:                -1.282
REMARK SMILES O=C([O-])CCCCCCCCC(=O)[O-]
REMARK SMILES IDX 7 1 6 2 5 3 4 4 2 5 1 6 3 7 8 8 9 9 10 10 11 11 12 12 13 13
REMARK SMILES IDX 14 14
REMARK H PARENT
REMARK Flexibility Score: inf
ROOT
ATOM      1  C   UNL     1     171.194 191.234 193.233  1.00  0.00     0.000 C 
ENDROOT
BRANCH   1   2
ATOM      2  C   UNL     1     170.191 190.072 193.287  1.00  0.00     0.000 C 
BRANCH   2   3
ATOM      3  C   UNL     1     168.770 190.584 193.544  1.00  0.00     0.006 C 
BRANCH   3   4
ATOM      4  C   UNL     1     168.771 192.088 193.833  1.00  0.00     0.053 C 
BRANCH   4   5
ATOM      5  C   UNL     1     167.739 192.783 193.002  1.00  0.00     0.041 C 
ATOM      6  O   UNL     1     167.954 193.944 192.566  1.00  0.00    -0.550 OA
ATOM      7  O   UNL     1     166.560 192.129 192.668  1.00  0.00    -0.550 OA
ENDBRANCH   4   5
ENDBRANCH   3   4
ENDBRANCH   2   3
ENDBRANCH   1   2
BRANCH   1   8
ATOM      8  C   UNL     1     171.765 191.459 191.824  1.00  0.00     0.000 C 
BRANCH   8   9
ATOM      9  C   UNL     1     171.430 192.854 191.267  1.00  0.00     0.000 C 
BRANCH   9  10
ATOM     10  C   UNL     1     170.317 192.815 190.208  1.00  0.00     0.006 C 
BRANCH  10  11
ATOM     11  C   UNL     1     169.979 191.386 189.762  1.00  0.00     0.053 C 
BRANCH  11  12
ATOM     12  C   UNL     1     168.499 191.169 189.784  1.00  0.00     0.041 C 
ATOM     13  O   UNL     1     168.028 190.057 190.139  1.00  0.00    -0.550 OA
ATOM     14  O   UNL     1     167.639 192.210 189.460  1.00  0.00    -0.550 OA
ENDBRANCH  11  12
ENDBRANCH  10  11
ENDBRANCH   9  10
ENDBRANCH   8   9
ENDBRANCH   1   8
TORSDOF 9
ENDMDL
MODEL 6
REMARK VINA RESULT:    -0.009     10.152     11.724
REMARK INTER + INTRA:          -1.295
REMARK INTER:                   0.000
REMARK INTRA:                  -1.295
REMARK UNBOUND:                -1.282
REMARK SMILES O=C([O-])CCCCCCCCC(=O)[O-]
REMARK SMILES IDX 7 1 6 2 5 3 4 4 2 5 1 6 3 7 8 8 9 9 10 10 11 11 12 12 13 13
REMARK SMILES IDX 14 14
REMARK H PARENT
REMARK Flexibility Score: inf
ROOT
ATOM      1  C   UNL     1     167.750 187.786 182.959  1.00  0.00     0.000 C 
ENDROOT
BRANCH   1   2
ATOM      2  C   UNL     1     168.247 189.209 182.662  1.00  0.00     0.000 C 
BRANCH   2   3
ATOM      3  C   UNL     1     169.580 189.483 183.368  1.00  0.00     0.006 C 
BRANCH   3   4
ATOM      4  C   UNL     1     170.360 188.185 183.593  1.00  0.00     0.053 C 
BRANCH   4   5
ATOM      5  C   UNL     1     170.909 188.138 184.985  1.00  0.00     0.041 C 
ATOM      6  O   UNL     1     170.744 187.113 185.696  1.00  0.00    -0.550 OA
ATOM      7  O   UNL     1     171.644 189.209 185.479  1.00  0.00    -0.550 OA
ENDBRANCH   4   5
ENDBRANCH   3   4
ENDBRANCH   2   3
ENDBRANCH   1   2
BRANCH   1   8
ATOM      8  C   UNL     1     166.727 187.743 184.105  1.00  0.00     0.000 C 
BRANCH   8   9
ATOM      9  C   UNL     1     167.211 186.901 185.299  1.00  0.00     0.000 C 
BRANCH   9  10
ATOM     10  C   UNL     1     167.340 187.727 186.588  1.00  0.00     0.006 C 
BRANCH  10  11
ATOM     11  C   UNL     1     167.238 189.236 186.334  1.00  0.00     0.053 C 
BRANCH  11  12
ATOM     12  C   UNL     1     168.419 189.946 186.918  1.00  0.00     0.041 C 
ATOM     13  O   UNL     1     169.089 189.409 187.839  1.00  0.00    -0.550 OA
ATOM     14  O   UNL     1     168.810 191.178 186.411  1.00  0.00    -0.550 OA
ENDBRANCH  11  12
ENDBRANCH  10  11
ENDBRANCH   9  10
ENDBRANCH   8   9
ENDBRANCH   1   8
TORSDOF 9
ENDMDL
MODEL 7
REMARK VINA RESULT:    -0.008     16.109     17.828
REMARK INTER + INTRA:          -1.295
REMARK INTER:                   0.000
REMARK INTRA:                  -1.295
REMARK UNBOUND:                -1.282
REMARK SMILES O=C([O-])CCCCCCCCC(=O)[O-]
REMARK SMILES IDX 7 1 6 2 5 3 4 4 2 5 1 6 3 7 8 8 9 9 10 10 11 11 12 12 13 13
REMARK SMILES IDX 14 14
REMARK H PARENT
REMARK Flexibility Score: inf
ROOT
ATOM      1  C   UNL     1     165.599 189.014 192.755  1.00  0.00     0.000 C 
ENDROOT
BRANCH   1   2
ATOM      2  C   UNL     1     164.938 188.970 194.140  1.00  0.00     0.000 C 
BRANCH   2   3
ATOM      3  C   UNL     1     165.594 187.906 195.028  1.00  0.00     0.006 C 
BRANCH   3   4
ATOM      4  C   UNL     1     167.072 187.725 194.669  1.00  0.00     0.053 C 
BRANCH   4   5
ATOM      5  C   UNL     1     167.426 186.272 194.622  1.00  0.00     0.041 C 
ATOM      6  O   UNL     1     168.043 185.803 193.630  1.00  0.00    -0.550 OA
ATOM      7  O   UNL     1     167.116 185.446 195.694  1.00  0.00    -0.550 OA
ENDBRANCH   4   5
ENDBRANCH   3   4
ENDBRANCH   2   3
ENDBRANCH   1   2
BRANCH   1   8
ATOM      8  C   UNL     1     164.874 188.132 191.725  1.00  0.00     0.000 C 
BRANCH   8   9
ATOM      9  C   UNL     1     165.780 187.028 191.150  1.00  0.00     0.000 C 
BRANCH   9  10
ATOM     10  C   UNL     1     165.245 185.617 191.440  1.00  0.00     0.006 C 
BRANCH  10  11
ATOM     11  C   UNL     1     164.074 185.623 192.431  1.00  0.00     0.053 C 
BRANCH  11  12
ATOM     12  C   UNL     1     164.338 184.674 193.557  1.00  0.00     0.041 C 
ATOM     13  O   UNL     1     165.159 183.732 193.411  1.00  0.00    -0.550 OA
ATOM     14  O   UNL     1     163.713 184.860 194.783  1.00  0.00    -0.550 OA
ENDBRANCH  11  12
ENDBRANCH  10  11
ENDBRANCH   9  10
ENDBRANCH   8   9
ENDBRANCH   1   8
TORSDOF 9
ENDMDL
MODEL 8
REMARK VINA RESULT:    -0.007     13.774     15.452
REMARK INTER + INTRA:          -1.293
REMARK INTER:                   0.000
REMARK INTRA:                  -1.293
REMARK UNBOUND:                -1.282
REMARK SMILES O=C([O-])CCCCCCCCC(=O)[O-]
REMARK SMILES IDX 7 1 6 2 5 3 4 4 2 5 1 6 3 7 8 8 9 9 10 10 11 11 12 12 13 13
REMARK SMILES IDX 14 14
REMARK H PARENT
REMARK Flexibility Score: inf
ROOT
ATOM      1  C   UNL     1     170.498 187.395 188.958  1.00  0.00     0.000 C 
ENDROOT
BRANCH   1   2
ATOM      2  C   UNL     1     170.890 187.330 190.442  1.00  0.00     0.000 C 
BRANCH   2   3
ATOM      3  C   UNL     1     171.254 185.898 190.851  1.00  0.00     0.006 C 
BRANCH   3   4
ATOM      4  C   UNL     1     171.704 185.077 189.639  1.00  0.00     0.053 C 
BRANCH   4   5
ATOM      5  C   UNL     1     171.038 183.738 189.637  1.00  0.00     0.041 C 
ATOM      6  O   UNL     1     170.520 183.290 188.581  1.00  0.00    -0.550 OA
ATOM      7  O   UNL     1     171.030 182.963 190.790  1.00  0.00    -0.550 OA
ENDBRANCH   4   5
ENDBRANCH   3   4
ENDBRANCH   2   3
ENDBRANCH   1   2
BRANCH   1   8
ATOM      8  C   UNL     1     168.975 187.390 188.747  1.00  0.00     0.000 C 
BRANCH   8   9
ATOM      9  C   UNL     1     168.494 186.165 187.948  1.00  0.00     0.000 C 
BRANCH   9  10
ATOM     10  C   UNL     1     167.544 185.270 188.759  1.00  0.00     0.006 C 
BRANCH  10  11
ATOM     11  C   UNL     1     167.497 185.653 190.244  1.00  0.00     0.053 C 
BRANCH  11  12
ATOM     12  C   UNL     1     167.785 184.460 191.100  1.00  0.00     0.041 C 
ATOM     13  O   UNL     1     167.606 183.299 190.649  1.00  0.00    -0.550 OA
ATOM     14  O   UNL     1     168.297 184.631 192.380  1.00  0.00    -0.550 OA
ENDBRANCH  11  12
ENDBRANCH  10  11
ENDBRANCH   9  10
ENDBRANCH   8   9
ENDBRANCH   1   8
TORSDOF 9
ENDMDL
MODEL 9
REMARK VINA RESULT:    -0.006     11.849     13.680
REMARK INTER + INTRA:          -1.291
REMARK INTER:                   0.000
REMARK INTRA:                  -1.291
REMARK UNBOUND:                -1.282
REMARK SMILES O=C([O-])CCCCCCCCC(=O)[O-]
REMARK SMILES IDX 7 1 6 2 5 3 4 4 2 5 1 6 3 7 8 8 9 9 10 10 11 11 12 12 13 13
REMARK SMILES IDX 14 14
REMARK H PARENT
REMARK Flexibility Score: inf
ROOT
ATOM      1  C   UNL     1     166.430 191.005 191.294  1.00  0.00     0.000 C 
ENDROOT
BRANCH   1   2
ATOM      2  C   UNL     1     165.993 189.715 192.003  1.00  0.00     0.000 C 
BRANCH   2   3
ATOM      3  C   UNL     1     167.070 188.630 191.879  1.00  0.00     0.006 C 
BRANCH   3   4
ATOM      4  C   UNL     1     167.974 188.887 190.671  1.00  0.00     0.053 C 
BRANCH   4   5
ATOM      5  C   UNL     1     169.411 188.707 191.044  1.00  0.00     0.041 C 
ATOM      6  O   UNL     1     170.262 189.580 190.729  1.00  0.00    -0.550 OA
ATOM      7  O   UNL     1     169.804 187.598 191.783  1.00  0.00    -0.550 OA
ENDBRANCH   4   5
ENDBRANCH   3   4
ENDBRANCH   2   3
ENDBRANCH   1   2
BRANCH   1   8
ATOM      8  C   UNL     1     166.984 192.057 192.267  1.00  0.00     0.000 C 
BRANCH   8   9
ATOM      9  C   UNL     1     168.455 192.411 191.981  1.00  0.00     0.000 C 
BRANCH   9  10
ATOM     10  C   UNL     1     169.387 192.041 193.145  1.00  0.00     0.006 C 
BRANCH  10  11
ATOM     11  C   UNL     1     168.683 191.205 194.221  1.00  0.00     0.053 C 
BRANCH  11  12
ATOM     12  C   UNL     1     169.436 189.938 194.474  1.00  0.00     0.041 C 
ATOM     13  O   UNL     1     170.673 189.880 194.247  1.00  0.00    -0.550 OA
ATOM     14  O   UNL     1     168.781 188.835 195.007  1.00  0.00    -0.550 OA
ENDBRANCH  11  12
ENDBRANCH  10  11
ENDBRANCH   9  10
ENDBRANCH   8   9
ENDBRANCH   1   8
TORSDOF 9
ENDMDL
