MODEL 1
REMARK VINA RESULT:    -5.238      0.000      0.000
REMARK INTER + INTRA:          -8.559
REMARK INTER:                  -7.994
REMARK INTRA:                  -0.565
REMARK UNBOUND:                -0.565
REMARK SMILES CCCCCCCCCCC(=O)[O-]
REMARK SMILES IDX 7 1 8 2 9 3 10 4 11 5 12 6 13 7 6 8 5 9 4 10 3 11 2 12 1 13
REMARK H PARENT
REMARK Flexibility Score: inf
ROOT
ATOM      1  C   UNL     1       8.371  54.982  21.835  1.00  0.00     0.000 C 
ENDROOT
BRANCH   1   2
ATOM      2  C   UNL     1       9.503  53.993  21.507  1.00  0.00     0.000 C 
BRANCH   2   3
ATOM      3  C   UNL     1      10.138  53.367  22.762  1.00  0.00     0.006 C 
BRANCH   3   4
ATOM      4  C   UNL     1      10.289  54.344  23.942  1.00  0.00     0.053 C 
BRANCH   4   5
ATOM      5  C   UNL     1       9.401  53.997  25.098  1.00  0.00     0.041 C 
ATOM      6  O   UNL     1       8.297  53.424  24.903  1.00  0.00    -0.550 OA
ATOM      7  O   UNL     1       9.810  54.277  26.397  1.00  0.00    -0.550 OA
ENDBRANCH   4   5
ENDBRANCH   3   4
ENDBRANCH   2   3
ENDBRANCH   1   2
BRANCH   1   8
ATOM      8  C   UNL     1       6.979  54.338  21.731  1.00  0.00     0.000 C 
BRANCH   8   9
ATOM      9  C   UNL     1       6.077  55.049  20.706  1.00  0.00    -0.000 C 
BRANCH   9  10
ATOM     10  C   UNL     1       6.665  56.387  20.231  1.00  0.00    -0.000 C 
BRANCH  10  11
ATOM     11  C   UNL     1       7.267  56.305  18.820  1.00  0.00    -0.000 C 
BRANCH  11  12
ATOM     12  C   UNL     1       7.128  54.889  18.248  1.00  0.00    -0.003 C 
ATOM     13  C   UNL     1       6.732  54.926  16.774  1.00  0.00     0.004 C 
ENDBRANCH  11  12
ENDBRANCH  10  11
ENDBRANCH   9  10
ENDBRANCH   8   9
ENDBRANCH   1   8
TORSDOF 9
ENDMDL
MODEL 2
REMARK VINA RESULT:    -5.221      1.978      2.485
REMARK INTER + INTRA:          -8.533
REMARK INTER:                  -7.874
REMARK INTRA:                  -0.660
REMARK UNBOUND:                -0.565
REMARK SMILES CCCCCCCCCCC(=O)[O-]
REMARK SMILES IDX 7 1 8 2 9 3 10 4 11 5 12 6 13 7 6 8 5 9 4 10 3 11 2 12 1 13
REMARK H PARENT
REMARK Flexibility Score: inf
ROOT
ATOM      1  C   UNL     1       6.763  54.274  22.181  1.00  0.00     0.000 C 
ENDROOT
BRANCH   1   2
ATOM      2  C   UNL     1       7.678  53.531  23.169  1.00  0.00     0.000 C 
BRANCH   2   3
ATOM      3  C   UNL     1       8.898  54.363  23.604  1.00  0.00     0.006 C 
BRANCH   3   4
ATOM      4  C   UNL     1      10.251  53.687  23.319  1.00  0.00     0.053 C 
BRANCH   4   5
ATOM      5  C   UNL     1      10.222  52.826  22.093  1.00  0.00     0.041 C 
ATOM      6  O   UNL     1      10.240  53.349  20.948  1.00  0.00    -0.550 OA
ATOM      7  O   UNL     1      10.208  51.442  22.215  1.00  0.00    -0.550 OA
ENDBRANCH   4   5
ENDBRANCH   3   4
ENDBRANCH   2   3
ENDBRANCH   1   2
BRANCH   1   8
ATOM      8  C   UNL     1       7.406  55.561  21.637  1.00  0.00     0.000 C 
BRANCH   8   9
ATOM      9  C   UNL     1       6.674  56.106  20.398  1.00  0.00    -0.000 C 
BRANCH   9  10
ATOM     10  C   UNL     1       7.484  55.922  19.105  1.00  0.00    -0.000 C 
BRANCH  10  11
ATOM     11  C   UNL     1       7.607  54.450  18.685  1.00  0.00    -0.000 C 
BRANCH  11  12
ATOM     12  C   UNL     1       6.471  54.056  17.733  1.00  0.00    -0.003 C 
ATOM     13  C   UNL     1       6.505  54.894  16.457  1.00  0.00     0.004 C 
ENDBRANCH  11  12
ENDBRANCH  10  11
ENDBRANCH   9  10
ENDBRANCH   8   9
ENDBRANCH   1   8
TORSDOF 9
ENDMDL
MODEL 3
REMARK VINA RESULT:    -5.178      3.305      6.279
REMARK INTER + INTRA:          -8.467
REMARK INTER:                  -7.690
REMARK INTRA:                  -0.776
REMARK UNBOUND:                -0.565
REMARK SMILES CCCCCCCCCCC(=O)[O-]
REMARK SMILES IDX 7 1 8 2 9 3 10 4 11 5 12 6 13 7 6 8 5 9 4 10 3 11 2 12 1 13
REMARK H PARENT
REMARK Flexibility Score: inf
ROOT
ATOM      1  C   UNL     1       7.918  53.995  21.117  1.00  0.00     0.000 C 
ENDROOT
BRANCH   1   2
ATOM      2  C   UNL     1       7.186  55.342  21.242  1.00  0.00     0.000 C 
BRANCH   2   3
ATOM      3  C   UNL     1       6.440  55.744  19.957  1.00  0.00     0.006 C 
BRANCH   3   4
ATOM      4  C   UNL     1       7.328  55.774  18.700  1.00  0.00     0.053 C 
BRANCH   4   5
ATOM      5  C   UNL     1       6.842  54.850  17.625  1.00  0.00     0.041 C 
ATOM      6  O   UNL     1       6.622  55.284  16.464  1.00  0.00    -0.550 OA
ATOM      7  O   UNL     1       6.665  53.499  17.898  1.00  0.00    -0.550 OA
ENDBRANCH   4   5
ENDBRANCH   3   4
ENDBRANCH   2   3
ENDBRANCH   1   2
BRANCH   1   8
ATOM      8  C   UNL     1       9.435  54.165  20.928  1.00  0.00     0.000 C 
BRANCH   8   9
ATOM      9  C   UNL     1      10.234  52.977  21.493  1.00  0.00    -0.000 C 
BRANCH   9  10
ATOM     10  C   UNL     1       9.943  52.724  22.981  1.00  0.00    -0.000 C 
BRANCH  10  11
ATOM     11  C   UNL     1      10.333  53.911  23.872  1.00  0.00    -0.000 C 
BRANCH  11  12
ATOM     12  C   UNL     1       9.175  54.304  24.798  1.00  0.00    -0.003 C 
ATOM     13  C   UNL     1       7.995  53.348  24.643  1.00  0.00     0.004 C 
ENDBRANCH  11  12
ENDBRANCH  10  11
ENDBRANCH   9  10
ENDBRANCH   8   9
ENDBRANCH   1   8
TORSDOF 9
ENDMDL
MODEL 4
REMARK VINA RESULT:    -5.177      0.947      1.648
REMARK INTER + INTRA:          -8.466
REMARK INTER:                  -7.854
REMARK INTRA:                  -0.612
REMARK UNBOUND:                -0.565
REMARK SMILES CCCCCCCCCCC(=O)[O-]
REMARK SMILES IDX 7 1 8 2 9 3 10 4 11 5 12 6 13 7 6 8 5 9 4 10 3 11 2 12 1 13
REMARK H PARENT
REMARK Flexibility Score: inf
ROOT
ATOM      1  C   UNL     1       6.767  54.356  21.959  1.00  0.00     0.000 C 
ENDROOT
BRANCH   1   2
ATOM      2  C   UNL     1       8.185  54.840  22.305  1.00  0.00     0.000 C 
BRANCH   2   3
ATOM      3  C   UNL     1       9.282  53.848  21.876  1.00  0.00     0.006 C 
BRANCH   3   4
ATOM      4  C   UNL     1       9.908  53.064  23.043  1.00  0.00     0.053 C 
BRANCH   4   5
ATOM      5  C   UNL     1      10.200  53.929  24.232  1.00  0.00     0.041 C 
ATOM      6  O   UNL     1      11.219  54.668  24.246  1.00  0.00    -0.550 OA
ATOM      7  O   UNL     1       9.326  53.944  25.312  1.00  0.00    -0.550 OA
ENDBRANCH   4   5
ENDBRANCH   3   4
ENDBRANCH   2   3
ENDBRANCH   1   2
BRANCH   1   8
ATOM      8  C   UNL     1       6.017  55.336  21.043  1.00  0.00     0.000 C 
BRANCH   8   9
ATOM      9  C   UNL     1       6.949  56.395  20.426  1.00  0.00    -0.000 C 
BRANCH   9  10
ATOM     10  C   UNL     1       7.227  56.140  18.936  1.00  0.00    -0.000 C 
BRANCH  10  11
ATOM     11  C   UNL     1       7.574  54.674  18.638  1.00  0.00    -0.000 C 
BRANCH  11  12
ATOM     12  C   UNL     1       6.574  54.065  17.649  1.00  0.00    -0.003 C 
ATOM     13  C   UNL     1       6.504  54.881  16.361  1.00  0.00     0.004 C 
ENDBRANCH  11  12
ENDBRANCH  10  11
ENDBRANCH   9  10
ENDBRANCH   8   9
ENDBRANCH   1   8
TORSDOF 9
ENDMDL
MODEL 5
REMARK VINA RESULT:    -5.156      3.506      6.185
REMARK INTER + INTRA:          -8.433
REMARK INTER:                  -7.685
REMARK INTRA:                  -0.748
REMARK UNBOUND:                -0.565
REMARK SMILES CCCCCCCCCCC(=O)[O-]
REMARK SMILES IDX 7 1 8 2 9 3 10 4 11 5 12 6 13 7 6 8 5 9 4 10 3 11 2 12 1 13
REMARK H PARENT
REMARK Flexibility Score: inf
ROOT
ATOM      1  C   UNL     1       6.303  54.825  21.354  1.00  0.00     0.000 C 
ENDROOT
BRANCH   1   2
ATOM      2  C   UNL     1       6.918  56.175  20.949  1.00  0.00     0.000 C 
BRANCH   2   3
ATOM      3  C   UNL     1       7.264  56.253  19.450  1.00  0.00     0.006 C 
BRANCH   3   4
ATOM      4  C   UNL     1       7.620  54.896  18.818  1.00  0.00     0.053 C 
BRANCH   4   5
ATOM      5  C   UNL     1       6.834  54.613  17.574  1.00  0.00     0.041 C 
ATOM      6  O   UNL     1       6.098  53.593  17.505  1.00  0.00    -0.550 OA
ATOM      7  O   UNL     1       6.888  55.494  16.501  1.00  0.00    -0.550 OA
ENDBRANCH   4   5
ENDBRANCH   3   4
ENDBRANCH   2   3
ENDBRANCH   1   2
BRANCH   1   8
ATOM      8  C   UNL     1       7.081  54.141  22.490  1.00  0.00     0.000 C 
BRANCH   8   9
ATOM      9  C   UNL     1       8.089  53.101  21.969  1.00  0.00    -0.000 C 
BRANCH   9  10
ATOM     10  C   UNL     1       9.503  53.680  21.805  1.00  0.00    -0.000 C 
BRANCH  10  11
ATOM     11  C   UNL     1      10.375  53.484  23.053  1.00  0.00    -0.000 C 
BRANCH  11  12
ATOM     12  C   UNL     1      10.205  54.654  24.029  1.00  0.00    -0.003 C 
ATOM     13  C   UNL     1       9.594  54.189  25.348  1.00  0.00     0.004 C 
ENDBRANCH  11  12
ENDBRANCH  10  11
ENDBRANCH   9  10
ENDBRANCH   8   9
ENDBRANCH   1   8
TORSDOF 9
ENDMDL
MODEL 6
REMARK VINA RESULT:    -5.098      2.579      5.625
REMARK INTER + INTRA:          -8.346
REMARK INTER:                  -7.575
REMARK INTRA:                  -0.771
REMARK UNBOUND:                -0.565
REMARK SMILES CCCCCCCCCCC(=O)[O-]
REMARK SMILES IDX 7 1 8 2 9 3 10 4 11 5 12 6 13 7 6 8 5 9 4 10 3 11 2 12 1 13
REMARK H PARENT
REMARK Flexibility Score: inf
ROOT
ATOM      1  C   UNL     1       8.731  54.736  20.799  1.00  0.00     0.000 C 
ENDROOT
BRANCH   1   2
ATOM      2  C   UNL     1       8.020  54.405  19.476  1.00  0.00     0.000 C 
BRANCH   2   3
ATOM      3  C   UNL     1       6.963  55.452  19.082  1.00  0.00     0.006 C 
BRANCH   3   4
ATOM      4  C   UNL     1       6.780  56.578  20.115  1.00  0.00     0.053 C 
BRANCH   4   5
ATOM      5  C   UNL     1       5.536  56.416  20.934  1.00  0.00     0.041 C 
ATOM      6  O   UNL     1       5.339  55.359  21.590  1.00  0.00    -0.550 OA
ATOM      7  O   UNL     1       4.608  57.448  21.001  1.00  0.00    -0.550 OA
ENDBRANCH   4   5
ENDBRANCH   3   4
ENDBRANCH   2   3
ENDBRANCH   1   2
BRANCH   1   8
ATOM      8  C   UNL     1       9.551  53.553  21.339  1.00  0.00     0.000 C 
BRANCH   8   9
ATOM      9  C   UNL     1       8.703  52.588  22.188  1.00  0.00    -0.000 C 
BRANCH   9  10
ATOM     10  C   UNL     1       7.747  53.325  23.140  1.00  0.00    -0.000 C 
BRANCH  10  11
ATOM     11  C   UNL     1       8.188  53.241  24.608  1.00  0.00    -0.000 C 
BRANCH  11  12
ATOM     12  C   UNL     1       9.019  54.469  25.000  1.00  0.00    -0.003 C 
ATOM     13  C   UNL     1      10.514  54.173  24.915  1.00  0.00     0.004 C 
ENDBRANCH  11  12
ENDBRANCH  10  11
ENDBRANCH   9  10
ENDBRANCH   8   9
ENDBRANCH   1   8
TORSDOF 9
ENDMDL
MODEL 7
REMARK VINA RESULT:    -5.072      1.993      2.499
REMARK INTER + INTRA:          -8.305
REMARK INTER:                  -7.543
REMARK INTRA:                  -0.762
REMARK UNBOUND:                -0.565
REMARK SMILES CCCCCCCCCCC(=O)[O-]
REMARK SMILES IDX 7 1 8 2 9 3 10 4 11 5 12 6 13 7 6 8 5 9 4 10 3 11 2 12 1 13
REMARK H PARENT
REMARK Flexibility Score: inf
ROOT
ATOM      1  C   UNL     1       6.598  53.848  23.104  1.00  0.00     0.000 C 
ENDROOT
BRANCH   1   2
ATOM      2  C   UNL     1       7.895  53.506  23.856  1.00  0.00     0.000 C 
BRANCH   2   3
ATOM      3  C   UNL     1       9.054  54.463  23.523  1.00  0.00     0.006 C 
BRANCH   3   4
ATOM      4  C   UNL     1      10.378  53.751  23.190  1.00  0.00     0.053 C 
BRANCH   4   5
ATOM      5  C   UNL     1      10.238  52.759  22.076  1.00  0.00     0.041 C 
ATOM      6  O   UNL     1      10.327  51.524  22.307  1.00  0.00    -0.550 OA
ATOM      7  O   UNL     1       9.975  53.198  20.784  1.00  0.00    -0.550 OA
ENDBRANCH   4   5
ENDBRANCH   3   4
ENDBRANCH   2   3
ENDBRANCH   1   2
BRANCH   1   8
ATOM      8  C   UNL     1       6.860  54.335  21.669  1.00  0.00     0.000 C 
BRANCH   8   9
ATOM      9  C   UNL     1       5.908  55.470  21.251  1.00  0.00    -0.000 C 
BRANCH   9  10
ATOM     10  C   UNL     1       6.522  56.392  20.185  1.00  0.00    -0.000 C 
BRANCH  10  11
ATOM     11  C   UNL     1       7.637  55.710  19.380  1.00  0.00    -0.000 C 
BRANCH  11  12
ATOM     12  C   UNL     1       7.125  55.260  18.007  1.00  0.00    -0.003 C 
ATOM     13  C   UNL     1       6.629  53.818  18.047  1.00  0.00     0.004 C 
ENDBRANCH  11  12
ENDBRANCH  10  11
ENDBRANCH   9  10
ENDBRANCH   8   9
ENDBRANCH   1   8
TORSDOF 9
ENDMDL
MODEL 8
REMARK VINA RESULT:    -5.052      3.180      5.753
REMARK INTER + INTRA:          -8.275
REMARK INTER:                  -7.583
REMARK INTRA:                  -0.691
REMARK UNBOUND:                -0.565
REMARK SMILES CCCCCCCCCCC(=O)[O-]
REMARK SMILES IDX 7 1 8 2 9 3 10 4 11 5 12 6 13 7 6 8 5 9 4 10 3 11 2 12 1 13
REMARK H PARENT
REMARK Flexibility Score: inf
ROOT
ATOM      1  C   UNL     1       7.124  54.364  21.790  1.00  0.00     0.000 C 
ENDROOT
BRANCH   1   2
ATOM      2  C   UNL     1       6.070  55.362  21.284  1.00  0.00     0.000 C 
BRANCH   2   3
ATOM      3  C   UNL     1       6.586  56.255  20.140  1.00  0.00     0.006 C 
BRANCH   3   4
ATOM      4  C   UNL     1       7.618  55.570  19.227  1.00  0.00     0.053 C 
BRANCH   4   5
ATOM      5  C   UNL     1       6.982  54.802  18.108  1.00  0.00     0.041 C 
ATOM      6  O   UNL     1       6.522  53.647  18.310  1.00  0.00    -0.550 OA
ATOM      7  O   UNL     1       6.868  55.376  16.848  1.00  0.00    -0.550 OA
ENDBRANCH   4   5
ENDBRANCH   3   4
ENDBRANCH   2   3
ENDBRANCH   1   2
BRANCH   1   8
ATOM      8  C   UNL     1       6.699  53.671  23.095  1.00  0.00     0.000 C 
BRANCH   8   9
ATOM      9  C   UNL     1       7.904  53.219  23.940  1.00  0.00    -0.000 C 
BRANCH   9  10
ATOM     10  C   UNL     1       8.896  54.362  24.211  1.00  0.00    -0.000 C 
BRANCH  10  11
ATOM     11  C   UNL     1      10.305  54.064  23.680  1.00  0.00    -0.000 C 
BRANCH  11  12
ATOM     12  C   UNL     1      10.286  52.872  22.715  1.00  0.00    -0.003 C 
ATOM     13  C   UNL     1      10.446  53.330  21.268  1.00  0.00     0.004 C 
ENDBRANCH  11  12
ENDBRANCH  10  11
ENDBRANCH   9  10
ENDBRANCH   8   9
ENDBRANCH   1   8
TORSDOF 9
ENDMDL
MODEL 9
REMARK VINA RESULT:    -4.637      1.297      2.081
REMARK INTER + INTRA:          -7.641
REMARK INTER:                  -7.097
REMARK INTRA:                  -0.544
REMARK UNBOUND:                -0.565
REMARK SMILES CCCCCCCCCCC(=O)[O-]
REMARK SMILES IDX 7 1 8 2 9 3 10 4 11 5 12 6 13 7 6 8 5 9 4 10 3 11 2 12 1 13
REMARK H PARENT
REMARK Flexibility Score: inf
ROOT
ATOM      1  C   UNL     1       8.788  52.892  21.396  1.00  0.00     0.000 C 
ENDROOT
BRANCH   1   2
ATOM      2  C   UNL     1      10.045  53.762  21.569  1.00  0.00     0.000 C 
BRANCH   2   3
ATOM      3  C   UNL     1      10.620  53.712  22.997  1.00  0.00     0.006 C 
BRANCH   3   4
ATOM      4  C   UNL     1      10.002  54.743  23.958  1.00  0.00     0.053 C 
BRANCH   4   5
ATOM      5  C   UNL     1       9.224  54.105  25.069  1.00  0.00     0.041 C 
ATOM      6  O   UNL     1       8.200  53.417  24.815  1.00  0.00    -0.550 OA
ATOM      7  O   UNL     1       9.650  54.244  26.384  1.00  0.00    -0.550 OA
ENDBRANCH   4   5
ENDBRANCH   3   4
ENDBRANCH   2   3
ENDBRANCH   1   2
BRANCH   1   8
ATOM      8  C   UNL     1       7.506  53.730  21.265  1.00  0.00     0.000 C 
BRANCH   8   9
ATOM      9  C   UNL     1       7.327  54.315  19.852  1.00  0.00    -0.000 C 
BRANCH   9  10
ATOM     10  C   UNL     1       7.490  55.843  19.821  1.00  0.00    -0.000 C 
BRANCH  10  11
ATOM     11  C   UNL     1       6.882  56.531  21.051  1.00  0.00    -0.000 C 
BRANCH  11  12
ATOM     12  C   UNL     1       5.376  56.256  21.143  1.00  0.00    -0.003 C 
ATOM     13  C   UNL     1       4.564  57.490  20.760  1.00  0.00     0.004 C 
ENDBRANCH  11  12
ENDBRANCH  10  11
ENDBRANCH   9  10
ENDBRANCH   8   9
ENDBRANCH   1   8
TORSDOF 9
ENDMDL
