MODEL 1
REMARK VINA RESULT:    -7.179      0.000      0.000
REMARK INTER + INTRA:          -9.035
REMARK INTER:                  -8.438
REMARK INTRA:                  -0.597
REMARK UNBOUND:                -0.597
REMARK SMILES C=C(C)[C@@H]1CC[C@@]2(CO)CC[C@@]3(C)[C@@H](CC[C@@H]4[C@@]5(C)CC[C@@H](O)C(C)(C)[C@@H]5CC[C@]43C)[C@@H]12
REMARK SMILES IDX 4 1 5 2 6 3 7 4 32 5 14 6 15 7 16 8 17 9 18 10 20 11 21 12
REMARK SMILES IDX 22 13 24 14 27 15 28 16 29 17 30 18 12 19 11 20 10 21 13 22
REMARK SMILES IDX 31 23 25 24 26 25 19 26 2 27 3 28 1 29 8 30 9 31 23 33
REMARK H PARENT 9 32 23 34
REMARK Flexibility Score: inf
ROOT
ATOM      1  C   UNL     1     114.972 115.057 113.457  1.00  0.00     0.018 C 
ATOM      2  C   UNL     1     114.270 116.007 112.475  1.00  0.00     0.009 C 
ATOM      3  C   UNL     1     113.206 116.767 113.261  1.00  0.00     0.010 C 
ATOM      4  C   UNL     1     112.928 115.971 114.551  1.00  0.00    -0.003 C 
ATOM      5  C   UNL     1     114.267 115.239 114.827  1.00  0.00     0.008 C 
ATOM      6  C   UNL     1     114.146 113.992 115.772  1.00  0.00    -0.000 C 
ATOM      7  C   UNL     1     115.466 113.169 115.869  1.00  0.00     0.005 C 
ATOM      8  C   UNL     1     115.350 111.896 116.752  1.00  0.00     0.005 C 
ATOM      9  C   UNL     1     114.182 112.028 117.752  1.00  0.00     0.002 C 
ATOM     10  C   UNL     1     114.246 111.165 119.086  1.00  0.00    -0.026 C 
ATOM     11  C   UNL     1     115.642 111.342 119.772  1.00  0.00     0.010 C 
ATOM     12  C   UNL     1     115.705 110.821 121.221  1.00  0.00     0.033 C 
ATOM     13  C   UNL     1     114.636 111.454 122.120  1.00  0.00     0.120 C 
ATOM     14  C   UNL     1     113.189 111.280 121.551  1.00  0.00    -0.006 C 
ATOM     15  C   UNL     1     113.160 111.789 120.056  1.00  0.00     0.003 C 
ATOM     16  C   UNL     1     111.754 111.881 119.402  1.00  0.00     0.005 C 
ATOM     17  C   UNL     1     111.779 112.661 118.060  1.00  0.00     0.008 C 
ATOM     18  C   UNL     1     112.776 112.102 116.990  1.00  0.00    -0.024 C 
ATOM     19  C   UNL     1     112.895 113.048 115.639  1.00  0.00    -0.024 C 
ATOM     20  C   UNL     1     111.625 113.933 115.433  1.00  0.00     0.008 C 
ATOM     21  C   UNL     1     111.772 114.964 114.299  1.00  0.00     0.010 C 
ATOM     22  C   UNL     1     113.052 112.180 114.334  1.00  0.00     0.012 C 
ATOM     23  C   UNL     1     112.217 110.703 116.569  1.00  0.00     0.012 C 
ATOM     24  C   UNL     1     112.229 112.130 122.428  1.00  0.00     0.014 C 
ATOM     25  C   UNL     1     112.732 109.809 121.706  1.00  0.00     0.014 C 
ATOM     26  C   UNL     1     114.055 109.648 118.783  1.00  0.00     0.012 C 
ENDROOT
BRANCH   1  27
ATOM     27  C   UNL     1     116.479 115.323 113.508  1.00  0.00    -0.077 C 
ATOM     28  C   UNL     1     117.463 114.408 112.823  1.00  0.00     0.039 C 
ATOM     29  C   UNL     1     116.957 116.352 114.238  1.00  0.00     0.008 C 
ENDBRANCH   1  27
BRANCH   4  30
ATOM     30  C   UNL     1     112.577 116.952 115.716  1.00  0.00     0.163 C 
BRANCH  30  31
ATOM     31  O   UNL     1     111.814 118.046 115.269  1.00  0.00    -0.396 OA
ATOM     32  H   UNL     1     111.415 117.791 114.408  1.00  0.00     0.210 HD
ENDBRANCH  30  31
ENDBRANCH   4  30
BRANCH  13  33
ATOM     33  O   UNL     1     114.952 112.819 122.279  1.00  0.00    -0.393 OA
ATOM     34  H   UNL     1     114.205 113.245 122.781  1.00  0.00     0.210 HD
ENDBRANCH  13  33
TORSDOF 4
ENDMDL
MODEL 2
REMARK VINA RESULT:    -7.076      7.765     11.558
REMARK INTER + INTRA:          -8.913
REMARK INTER:                  -8.316
REMARK INTRA:                  -0.597
REMARK UNBOUND:                -0.597
REMARK SMILES C=C(C)[C@@H]1CC[C@@]2(CO)CC[C@@]3(C)[C@@H](CC[C@@H]4[C@@]5(C)CC[C@@H](O)C(C)(C)[C@@H]5CC[C@]43C)[C@@H]12
REMARK SMILES IDX 4 1 5 2 6 3 7 4 32 5 14 6 15 7 16 8 17 9 18 10 20 11 21 12
REMARK SMILES IDX 22 13 24 14 27 15 28 16 29 17 30 18 12 19 11 20 10 21 13 22
REMARK SMILES IDX 31 23 25 24 26 25 19 26 2 27 3 28 1 29 8 30 9 31 23 33
REMARK H PARENT 9 32 23 34
REMARK Flexibility Score: inf
ROOT
ATOM      1  C   UNL     1     107.223 107.995 117.189  1.00  0.00     0.018 C 
ATOM      2  C   UNL     1     108.617 107.889 117.825  1.00  0.00     0.009 C 
ATOM      3  C   UNL     1     108.997 109.280 118.322  1.00  0.00     0.010 C 
ATOM      4  C   UNL     1     108.099 110.294 117.587  1.00  0.00    -0.003 C 
ATOM      5  C   UNL     1     106.811 109.488 117.278  1.00  0.00     0.008 C 
ATOM      6  C   UNL     1     105.927 110.086 116.127  1.00  0.00    -0.000 C 
ATOM      7  C   UNL     1     104.751 109.151 115.713  1.00  0.00     0.005 C 
ATOM      8  C   UNL     1     103.900 109.697 114.533  1.00  0.00     0.005 C 
ATOM      9  C   UNL     1     104.045 111.228 114.416  1.00  0.00     0.002 C 
ATOM     10  C   UNL     1     102.866 112.034 113.715  1.00  0.00    -0.026 C 
ATOM     11  C   UNL     1     101.488 111.609 114.326  1.00  0.00     0.010 C 
ATOM     12  C   UNL     1     100.319 112.544 113.962  1.00  0.00     0.033 C 
ATOM     13  C   UNL     1     100.593 114.004 114.344  1.00  0.00     0.120 C 
ATOM     14  C   UNL     1     101.926 114.548 113.731  1.00  0.00    -0.006 C 
ATOM     15  C   UNL     1     103.100 113.555 114.090  1.00  0.00     0.003 C 
ATOM     16  C   UNL     1     104.530 114.046 113.736  1.00  0.00     0.005 C 
ATOM     17  C   UNL     1     105.633 113.164 114.382  1.00  0.00     0.008 C 
ATOM     18  C   UNL     1     105.544 111.639 114.036  1.00  0.00    -0.024 C 
ATOM     19  C   UNL     1     106.630 110.710 114.866  1.00  0.00    -0.024 C 
ATOM     20  C   UNL     1     107.863 111.540 115.346  1.00  0.00     0.008 C 
ATOM     21  C   UNL     1     108.803 110.759 116.282  1.00  0.00     0.010 C 
ATOM     22  C   UNL     1     107.197 109.542 113.973  1.00  0.00     0.012 C 
ATOM     23  C   UNL     1     105.858 111.524 112.509  1.00  0.00     0.012 C 
ATOM     24  C   UNL     1     102.196 115.947 114.350  1.00  0.00     0.014 C 
ATOM     25  C   UNL     1     101.756 114.771 112.209  1.00  0.00     0.014 C 
ATOM     26  C   UNL     1     102.818 111.740 112.185  1.00  0.00     0.012 C 
ENDROOT
BRANCH   1  27
ATOM     27  C   UNL     1     106.228 107.048 117.865  1.00  0.00    -0.077 C 
ATOM     28  C   UNL     1     105.814 105.750 117.218  1.00  0.00     0.039 C 
ATOM     29  C   UNL     1     105.646 107.400 119.030  1.00  0.00     0.008 C 
ENDBRANCH   1  27
BRANCH   4  30
ATOM     30  C   UNL     1     107.789 111.507 118.523  1.00  0.00     0.163 C 
BRANCH  30  31
ATOM     31  O   UNL     1     108.919 111.900 119.263  1.00  0.00    -0.396 OA
ATOM     32  H   UNL     1     108.643 111.969 120.202  1.00  0.00     0.210 HD
ENDBRANCH  30  31
ENDBRANCH   4  30
BRANCH  13  33
ATOM     33  O   UNL     1     100.616 114.089 115.751  1.00  0.00    -0.393 OA
ATOM     34  H   UNL     1     100.474 115.043 115.998  1.00  0.00     0.210 HD
ENDBRANCH  13  33
TORSDOF 4
ENDMDL
MODEL 3
REMARK VINA RESULT:    -7.053      4.364      7.653
REMARK INTER + INTRA:          -8.887
REMARK INTER:                  -8.363
REMARK INTRA:                  -0.524
REMARK UNBOUND:                -0.597
REMARK SMILES C=C(C)[C@@H]1CC[C@@]2(CO)CC[C@@]3(C)[C@@H](CC[C@@H]4[C@@]5(C)CC[C@@H](O)C(C)(C)[C@@H]5CC[C@]43C)[C@@H]12
REMARK SMILES IDX 4 1 5 2 6 3 7 4 32 5 14 6 15 7 16 8 17 9 18 10 20 11 21 12
REMARK SMILES IDX 22 13 24 14 27 15 28 16 29 17 30 18 12 19 11 20 10 21 13 22
REMARK SMILES IDX 31 23 25 24 26 25 19 26 2 27 3 28 1 29 8 30 9 31 23 33
REMARK H PARENT 9 32 23 34
REMARK Flexibility Score: inf
ROOT
ATOM      1  C   UNL     1     114.191 111.137 118.930  1.00  0.00     0.018 C 
ATOM      2  C   UNL     1     114.818 111.912 120.099  1.00  0.00     0.009 C 
ATOM      3  C   UNL     1     113.916 111.712 121.313  1.00  0.00     0.010 C 
ATOM      4  C   UNL     1     112.542 111.247 120.795  1.00  0.00    -0.003 C 
ATOM      5  C   UNL     1     112.875 110.516 119.470  1.00  0.00     0.008 C 
ATOM      6  C   UNL     1     111.664 110.367 118.483  1.00  0.00    -0.000 C 
ATOM      7  C   UNL     1     112.077 109.807 117.089  1.00  0.00     0.005 C 
ATOM      8  C   UNL     1     110.902 109.710 116.077  1.00  0.00     0.005 C 
ATOM      9  C   UNL     1     109.548 109.649 116.814  1.00  0.00     0.002 C 
ATOM     10  C   UNL     1     108.322 108.973 116.060  1.00  0.00    -0.026 C 
ATOM     11  C   UNL     1     108.750 107.582 115.480  1.00  0.00     0.010 C 
ATOM     12  C   UNL     1     107.574 106.701 115.018  1.00  0.00     0.033 C 
ATOM     13  C   UNL     1     106.541 106.470 116.128  1.00  0.00     0.120 C 
ATOM     14  C   UNL     1     106.002 107.806 116.738  1.00  0.00    -0.006 C 
ATOM     15  C   UNL     1     107.227 108.704 117.172  1.00  0.00     0.003 C 
ATOM     16  C   UNL     1     106.873 109.979 117.986  1.00  0.00     0.005 C 
ATOM     17  C   UNL     1     108.125 110.637 118.623  1.00  0.00     0.008 C 
ATOM     18  C   UNL     1     109.263 111.007 117.611  1.00  0.00    -0.024 C 
ATOM     19  C   UNL     1     110.642 111.555 118.340  1.00  0.00    -0.024 C 
ATOM     20  C   UNL     1     110.360 112.140 119.760  1.00  0.00     0.008 C 
ATOM     21  C   UNL     1     111.637 112.486 120.548  1.00  0.00     0.010 C 
ATOM     22  C   UNL     1     111.320 112.708 117.508  1.00  0.00     0.012 C 
ATOM     23  C   UNL     1     108.687 112.151 116.715  1.00  0.00     0.012 C 
ATOM     24  C   UNL     1     105.133 107.445 117.975  1.00  0.00     0.014 C 
ATOM     25  C   UNL     1     105.056 108.504 115.731  1.00  0.00     0.014 C 
ATOM     26  C   UNL     1     107.840 109.856 114.869  1.00  0.00     0.012 C 
ENDROOT
BRANCH   1  27
ATOM     27  C   UNL     1     115.165 110.101 118.362  1.00  0.00    -0.077 C 
ATOM     28  C   UNL     1     114.975 108.625 118.609  1.00  0.00     0.039 C 
ATOM     29  C   UNL     1     116.259 110.505 117.686  1.00  0.00     0.008 C 
ENDBRANCH   1  27
BRANCH   4  30
ATOM     30  C   UNL     1     111.888 110.269 121.825  1.00  0.00     0.163 C 
BRANCH  30  31
ATOM     31  O   UNL     1     112.646 109.096 121.988  1.00  0.00    -0.396 OA
ATOM     32  H   UNL     1     112.686 108.904 122.949  1.00  0.00     0.210 HD
ENDBRANCH  30  31
ENDBRANCH   4  30
BRANCH  13  33
ATOM     33  O   UNL     1     107.141 105.670 117.122  1.00  0.00    -0.393 OA
ATOM     34  H   UNL     1     106.414 105.304 117.696  1.00  0.00     0.210 HD
ENDBRANCH  13  33
TORSDOF 4
ENDMDL
MODEL 4
REMARK VINA RESULT:    -6.731      4.841      8.165
REMARK INTER + INTRA:          -8.508
REMARK INTER:                  -8.169
REMARK INTRA:                  -0.339
REMARK UNBOUND:                -0.597
REMARK SMILES C=C(C)[C@@H]1CC[C@@]2(CO)CC[C@@]3(C)[C@@H](CC[C@@H]4[C@@]5(C)CC[C@@H](O)C(C)(C)[C@@H]5CC[C@]43C)[C@@H]12
REMARK SMILES IDX 4 1 5 2 6 3 7 4 32 5 14 6 15 7 16 8 17 9 18 10 20 11 21 12
REMARK SMILES IDX 22 13 24 14 27 15 28 16 29 17 30 18 12 19 11 20 10 21 13 22
REMARK SMILES IDX 31 23 25 24 26 25 19 26 2 27 3 28 1 29 8 30 9 31 23 33
REMARK H PARENT 9 32 23 34
REMARK Flexibility Score: inf
ROOT
ATOM      1  C   UNL     1     106.215 107.967 116.343  1.00  0.00     0.018 C 
ATOM      2  C   UNL     1     105.759 107.153 115.122  1.00  0.00     0.009 C 
ATOM      3  C   UNL     1     106.938 106.287 114.688  1.00  0.00     0.010 C 
ATOM      4  C   UNL     1     108.211 106.900 115.302  1.00  0.00    -0.003 C 
ATOM      5  C   UNL     1     107.701 107.598 116.589  1.00  0.00     0.008 C 
ATOM      6  C   UNL     1     108.659 108.705 117.154  1.00  0.00    -0.000 C 
ATOM      7  C   UNL     1     108.029 109.516 118.326  1.00  0.00     0.005 C 
ATOM      8  C   UNL     1     108.938 110.658 118.860  1.00  0.00     0.005 C 
ATOM      9  C   UNL     1     110.418 110.385 118.519  1.00  0.00     0.002 C 
ATOM     10  C   UNL     1     111.527 111.061 119.435  1.00  0.00    -0.026 C 
ATOM     11  C   UNL     1     111.205 110.803 120.946  1.00  0.00     0.010 C 
ATOM     12  C   UNL     1     112.368 111.125 121.905  1.00  0.00     0.033 C 
ATOM     13  C   UNL     1     113.653 110.369 121.544  1.00  0.00     0.120 C 
ATOM     14  C   UNL     1     114.098 110.608 120.063  1.00  0.00    -0.006 C 
ATOM     15  C   UNL     1     112.879 110.304 119.105  1.00  0.00     0.003 C 
ATOM     16  C   UNL     1     113.203 110.292 117.586  1.00  0.00     0.005 C 
ATOM     17  C   UNL     1     112.043 109.700 116.742  1.00  0.00     0.008 C 
ATOM     18  C   UNL     1     110.658 110.405 116.937  1.00  0.00    -0.024 C 
ATOM     19  C   UNL     1     109.416 109.650 116.149  1.00  0.00    -0.024 C 
ATOM     20  C   UNL     1     109.922 108.791 114.947  1.00  0.00     0.008 C 
ATOM     21  C   UNL     1     108.824 107.923 114.306  1.00  0.00     0.010 C 
ATOM     22  C   UNL     1     108.388 110.686 115.557  1.00  0.00     0.012 C 
ATOM     23  C   UNL     1     110.820 111.843 116.345  1.00  0.00     0.012 C 
ATOM     24  C   UNL     1     115.275 109.641 119.760  1.00  0.00     0.014 C 
ATOM     25  C   UNL     1     114.660 112.041 119.904  1.00  0.00     0.014 C 
ATOM     26  C   UNL     1     111.573 112.604 119.217  1.00  0.00     0.012 C 
ENDROOT
BRANCH   1  27
ATOM     27  C   UNL     1     105.315 107.707 117.554  1.00  0.00    -0.077 C 
ATOM     28  C   UNL     1     105.845 107.041 118.799  1.00  0.00     0.039 C 
ATOM     29  C   UNL     1     104.001 108.007 117.494  1.00  0.00     0.008 C 
ENDBRANCH   1  27
BRANCH   4  30
ATOM     30  C   UNL     1     109.234 105.768 115.646  1.00  0.00     0.163 C 
BRANCH  30  31
ATOM     31  O   UNL     1     108.996 104.601 114.898  1.00  0.00    -0.396 OA
ATOM     32  H   UNL     1     108.084 104.664 114.541  1.00  0.00     0.210 HD
ENDBRANCH  30  31
ENDBRANCH   4  30
BRANCH  13  33
ATOM     33  O   UNL     1     113.435 108.998 121.788  1.00  0.00    -0.393 OA
ATOM     34  H   UNL     1     113.486 108.524 120.913  1.00  0.00     0.210 HD
ENDBRANCH  13  33
TORSDOF 4
ENDMDL
MODEL 5
REMARK VINA RESULT:    -6.534      1.934      2.837
REMARK INTER + INTRA:          -8.277
REMARK INTER:                  -7.785
REMARK INTRA:                  -0.491
REMARK UNBOUND:                -0.597
REMARK SMILES C=C(C)[C@@H]1CC[C@@]2(CO)CC[C@@]3(C)[C@@H](CC[C@@H]4[C@@]5(C)CC[C@@H](O)C(C)(C)[C@@H]5CC[C@]43C)[C@@H]12
REMARK SMILES IDX 4 1 5 2 6 3 7 4 32 5 14 6 15 7 16 8 17 9 18 10 20 11 21 12
REMARK SMILES IDX 22 13 24 14 27 15 28 16 29 17 30 18 12 19 11 20 10 21 13 22
REMARK SMILES IDX 31 23 25 24 26 25 19 26 2 27 3 28 1 29 8 30 9 31 23 33
REMARK H PARENT 9 32 23 34
REMARK Flexibility Score: inf
ROOT
ATOM      1  C   UNL     1     112.101 115.281 113.740  1.00  0.00     0.018 C 
ATOM      2  C   UNL     1     111.117 115.260 112.561  1.00  0.00     0.009 C 
ATOM      3  C   UNL     1     109.875 114.501 113.020  1.00  0.00     0.010 C 
ATOM      4  C   UNL     1     110.274 113.666 114.252  1.00  0.00    -0.003 C 
ATOM      5  C   UNL     1     111.433 114.477 114.886  1.00  0.00     0.008 C 
ATOM      6  C   UNL     1     112.355 113.651 115.851  1.00  0.00    -0.000 C 
ATOM      7  C   UNL     1     113.617 114.440 116.313  1.00  0.00     0.005 C 
ATOM      8  C   UNL     1     114.575 113.619 117.220  1.00  0.00     0.005 C 
ATOM      9  C   UNL     1     113.822 112.456 117.900  1.00  0.00     0.002 C 
ATOM     10  C   UNL     1     114.413 111.884 119.261  1.00  0.00    -0.026 C 
ATOM     11  C   UNL     1     114.713 113.061 120.251  1.00  0.00     0.010 C 
ATOM     12  C   UNL     1     114.976 112.614 121.702  1.00  0.00     0.033 C 
ATOM     13  C   UNL     1     113.829 111.774 122.276  1.00  0.00     0.120 C 
ATOM     14  C   UNL     1     113.488 110.532 121.388  1.00  0.00    -0.006 C 
ATOM     15  C   UNL     1     113.255 111.013 119.901  1.00  0.00     0.003 C 
ATOM     16  C   UNL     1     112.705 109.938 118.924  1.00  0.00     0.005 C 
ATOM     17  C   UNL     1     112.226 110.553 117.582  1.00  0.00     0.008 C 
ATOM     18  C   UNL     1     113.305 111.394 116.820  1.00  0.00    -0.024 C 
ATOM     19  C   UNL     1     112.717 112.166 115.481  1.00  0.00    -0.024 C 
ATOM     20  C   UNL     1     111.436 111.469 114.920  1.00  0.00     0.008 C 
ATOM     21  C   UNL     1     110.749 112.260 113.793  1.00  0.00     0.010 C 
ATOM     22  C   UNL     1     113.769 112.178 114.308  1.00  0.00     0.012 C 
ATOM     23  C   UNL     1     114.402 110.377 116.364  1.00  0.00     0.012 C 
ATOM     24  C   UNL     1     112.193 109.886 121.954  1.00  0.00     0.014 C 
ATOM     25  C   UNL     1     114.600 109.464 121.520  1.00  0.00     0.014 C 
ATOM     26  C   UNL     1     115.748 111.118 119.017  1.00  0.00     0.012 C 
ENDROOT
BRANCH   1  27
ATOM     27  C   UNL     1     112.467 116.715 114.136  1.00  0.00    -0.077 C 
ATOM     28  C   UNL     1     111.405 117.735 114.462  1.00  0.00     0.039 C 
ATOM     29  C   UNL     1     113.756 117.108 114.126  1.00  0.00     0.008 C 
ENDBRANCH   1  27
BRANCH   4  30
ATOM     30  C   UNL     1     109.063 113.559 115.235  1.00  0.00     0.163 C 
BRANCH  30  31
ATOM     31  O   UNL     1     108.311 114.746 115.273  1.00  0.00    -0.396 OA
ATOM     32  H   UNL     1     108.860 115.453 114.871  1.00  0.00     0.210 HD
ENDBRANCH  30  31
ENDBRANCH   4  30
BRANCH  13  33
ATOM     33  O   UNL     1     112.705 112.612 122.421  1.00  0.00    -0.393 OA
ATOM     34  H   UNL     1     112.048 112.361 121.716  1.00  0.00     0.210 HD
ENDBRANCH  13  33
TORSDOF 4
ENDMDL
MODEL 6
REMARK VINA RESULT:    -6.481      8.435     12.099
REMARK INTER + INTRA:          -8.214
REMARK INTER:                  -7.629
REMARK INTRA:                  -0.585
REMARK UNBOUND:                -0.597
REMARK SMILES C=C(C)[C@@H]1CC[C@@]2(CO)CC[C@@]3(C)[C@@H](CC[C@@H]4[C@@]5(C)CC[C@@H](O)C(C)(C)[C@@H]5CC[C@]43C)[C@@H]12
REMARK SMILES IDX 4 1 5 2 6 3 7 4 32 5 14 6 15 7 16 8 17 9 18 10 20 11 21 12
REMARK SMILES IDX 22 13 24 14 27 15 28 16 29 17 30 18 12 19 11 20 10 21 13 22
REMARK SMILES IDX 31 23 25 24 26 25 19 26 2 27 3 28 1 29 8 30 9 31 23 33
REMARK H PARENT 9 32 23 34
REMARK Flexibility Score: inf
ROOT
ATOM      1  C   UNL     1     107.445 106.388 114.159  1.00  0.00     0.018 C 
ATOM      2  C   UNL     1     108.295 105.618 115.182  1.00  0.00     0.009 C 
ATOM      3  C   UNL     1     107.680 105.861 116.557  1.00  0.00     0.010 C 
ATOM      4  C   UNL     1     106.794 107.117 116.451  1.00  0.00    -0.003 C 
ATOM      5  C   UNL     1     106.346 107.128 114.967  1.00  0.00     0.008 C 
ATOM      6  C   UNL     1     105.851 108.522 114.444  1.00  0.00    -0.000 C 
ATOM      7  C   UNL     1     105.598 108.543 112.907  1.00  0.00     0.005 C 
ATOM      8  C   UNL     1     105.166 109.932 112.360  1.00  0.00     0.005 C 
ATOM      9  C   UNL     1     104.556 110.797 113.482  1.00  0.00     0.002 C 
ATOM     10  C   UNL     1     103.548 111.953 113.063  1.00  0.00    -0.026 C 
ATOM     11  C   UNL     1     102.460 111.388 112.087  1.00  0.00     0.010 C 
ATOM     12  C   UNL     1     101.254 112.322 111.875  1.00  0.00     0.033 C 
ATOM     13  C   UNL     1     100.572 112.711 113.193  1.00  0.00     0.120 C 
ATOM     14  C   UNL     1     101.565 113.344 114.222  1.00  0.00    -0.006 C 
ATOM     15  C   UNL     1     102.807 112.383 114.396  1.00  0.00     0.003 C 
ATOM     16  C   UNL     1     103.794 112.757 115.535  1.00  0.00     0.005 C 
ATOM     17  C   UNL     1     104.807 111.619 115.834  1.00  0.00     0.008 C 
ATOM     18  C   UNL     1     105.647 111.143 114.601  1.00  0.00    -0.024 C 
ATOM     19  C   UNL     1     106.595 109.826 114.916  1.00  0.00    -0.024 C 
ATOM     20  C   UNL     1     106.917 109.689 116.438  1.00  0.00     0.008 C 
ATOM     21  C   UNL     1     107.636 108.376 116.799  1.00  0.00     0.010 C 
ATOM     22  C   UNL     1     107.981 109.916 114.172  1.00  0.00     0.012 C 
ATOM     23  C   UNL     1     106.575 112.343 114.222  1.00  0.00     0.012 C 
ATOM     24  C   UNL     1     100.813 113.500 115.572  1.00  0.00     0.014 C 
ATOM     25  C   UNL     1     101.954 114.773 113.773  1.00  0.00     0.014 C 
ATOM     26  C   UNL     1     104.291 113.108 112.327  1.00  0.00     0.012 C 
ENDROOT
BRANCH   1  27
ATOM     27  C   UNL     1     106.884 105.452 113.084  1.00  0.00    -0.077 C 
ATOM     28  C   UNL     1     105.625 104.656 113.315  1.00  0.00     0.039 C 
ATOM     29  C   UNL     1     107.558 105.271 111.931  1.00  0.00     0.008 C 
ENDBRANCH   1  27
BRANCH   4  30
ATOM     30  C   UNL     1     105.563 106.981 117.405  1.00  0.00     0.163 C 
BRANCH  30  31
ATOM     31  O   UNL     1     105.871 106.233 118.556  1.00  0.00    -0.396 OA
ATOM     32  H   UNL     1     105.162 106.402 119.213  1.00  0.00     0.210 HD
ENDBRANCH  30  31
ENDBRANCH   4  30
BRANCH  13  33
ATOM     33  O   UNL     1      99.965 111.556 113.726  1.00  0.00    -0.393 OA
ATOM     34  H   UNL     1      99.037 111.798 113.994  1.00  0.00     0.210 HD
ENDBRANCH  13  33
TORSDOF 4
ENDMDL
MODEL 7
REMARK VINA RESULT:    -6.426      1.303      7.706
REMARK INTER + INTRA:          -8.150
REMARK INTER:                  -7.498
REMARK INTRA:                  -0.652
REMARK UNBOUND:                -0.597
REMARK SMILES C=C(C)[C@@H]1CC[C@@]2(CO)CC[C@@]3(C)[C@@H](CC[C@@H]4[C@@]5(C)CC[C@@H](O)C(C)(C)[C@@H]5CC[C@]43C)[C@@H]12
REMARK SMILES IDX 4 1 5 2 6 3 7 4 32 5 14 6 15 7 16 8 17 9 18 10 20 11 21 12
REMARK SMILES IDX 22 13 24 14 27 15 28 16 29 17 30 18 12 19 11 20 10 21 13 22
REMARK SMILES IDX 31 23 25 24 26 25 19 26 2 27 3 28 1 29 8 30 9 31 23 33
REMARK H PARENT 9 32 23 34
REMARK Flexibility Score: inf
ROOT
ATOM      1  C   UNL     1     113.857 110.142 121.042  1.00  0.00     0.018 C 
ATOM      2  C   UNL     1     114.927 109.593 121.998  1.00  0.00     0.009 C 
ATOM      3  C   UNL     1     116.167 110.468 121.842  1.00  0.00     0.010 C 
ATOM      4  C   UNL     1     116.040 111.213 120.499  1.00  0.00    -0.003 C 
ATOM      5  C   UNL     1     114.509 111.329 120.285  1.00  0.00     0.008 C 
ATOM      6  C   UNL     1     114.076 111.592 118.800  1.00  0.00    -0.000 C 
ATOM      7  C   UNL     1     112.534 111.507 118.590  1.00  0.00     0.005 C 
ATOM      8  C   UNL     1     112.089 111.704 117.114  1.00  0.00     0.005 C 
ATOM      9  C   UNL     1     113.163 112.474 116.317  1.00  0.00     0.002 C 
ATOM     10  C   UNL     1     112.695 113.278 115.027  1.00  0.00    -0.026 C 
ATOM     11  C   UNL     1     111.454 114.169 115.372  1.00  0.00     0.010 C 
ATOM     12  C   UNL     1     111.119 115.228 114.304  1.00  0.00     0.033 C 
ATOM     13  C   UNL     1     112.307 116.146 113.992  1.00  0.00     0.120 C 
ATOM     14  C   UNL     1     113.589 115.352 113.576  1.00  0.00    -0.006 C 
ATOM     15  C   UNL     1     113.891 114.253 114.670  1.00  0.00     0.003 C 
ATOM     16  C   UNL     1     115.247 113.509 114.521  1.00  0.00     0.005 C 
ATOM     17  C   UNL     1     115.601 112.674 115.781  1.00  0.00     0.008 C 
ATOM     18  C   UNL     1     114.516 111.626 116.204  1.00  0.00    -0.024 C 
ATOM     19  C   UNL     1     114.850 110.871 117.636  1.00  0.00    -0.024 C 
ATOM     20  C   UNL     1     116.377 110.895 117.967  1.00  0.00     0.008 C 
ATOM     21  C   UNL     1     116.709 110.373 119.377  1.00  0.00     0.010 C 
ATOM     22  C   UNL     1     114.423 109.355 117.607  1.00  0.00     0.012 C 
ATOM     23  C   UNL     1     114.489 110.550 115.070  1.00  0.00     0.012 C 
ATOM     24  C   UNL     1     114.765 116.363 113.489  1.00  0.00     0.014 C 
ATOM     25  C   UNL     1     113.412 114.768 112.153  1.00  0.00     0.014 C 
ATOM     26  C   UNL     1     112.278 112.308 113.880  1.00  0.00     0.012 C 
ENDROOT
BRANCH   1  27
ATOM     27  C   UNL     1     112.581 110.527 121.796  1.00  0.00    -0.077 C 
ATOM     28  C   UNL     1     112.398 111.907 122.376  1.00  0.00     0.039 C 
ATOM     29  C   UNL     1     111.624 109.604 122.017  1.00  0.00     0.008 C 
ENDBRANCH   1  27
BRANCH   4  30
ATOM     30  C   UNL     1     116.698 112.627 120.612  1.00  0.00     0.163 C 
BRANCH  30  31
ATOM     31  O   UNL     1     115.823 113.568 121.185  1.00  0.00    -0.396 OA
ATOM     32  H   UNL     1     116.162 114.460 120.954  1.00  0.00     0.210 HD
ENDBRANCH  30  31
ENDBRANCH   4  30
BRANCH  13  33
ATOM     33  O   UNL     1     112.555 116.939 115.130  1.00  0.00    -0.393 OA
ATOM     34  H   UNL     1     111.680 117.111 115.575  1.00  0.00     0.210 HD
ENDBRANCH  13  33
TORSDOF 4
ENDMDL
MODEL 8
REMARK VINA RESULT:    -6.383      6.959     10.362
REMARK INTER + INTRA:          -8.099
REMARK INTER:                  -7.557
REMARK INTRA:                  -0.542
REMARK UNBOUND:                -0.597
REMARK SMILES C=C(C)[C@@H]1CC[C@@]2(CO)CC[C@@]3(C)[C@@H](CC[C@@H]4[C@@]5(C)CC[C@@H](O)C(C)(C)[C@@H]5CC[C@]43C)[C@@H]12
REMARK SMILES IDX 4 1 5 2 6 3 7 4 32 5 14 6 15 7 16 8 17 9 18 10 20 11 21 12
REMARK SMILES IDX 22 13 24 14 27 15 28 16 29 17 30 18 12 19 11 20 10 21 13 22
REMARK SMILES IDX 31 23 25 24 26 25 19 26 2 27 3 28 1 29 8 30 9 31 23 33
REMARK H PARENT 9 32 23 34
REMARK Flexibility Score: inf
ROOT
ATOM      1  C   UNL     1     104.337 108.585 115.617  1.00  0.00     0.018 C 
ATOM      2  C   UNL     1     103.285 108.211 116.671  1.00  0.00     0.009 C 
ATOM      3  C   UNL     1     104.034 107.756 117.920  1.00  0.00     0.010 C 
ATOM      4  C   UNL     1     105.469 107.395 117.491  1.00  0.00    -0.003 C 
ATOM      5  C   UNL     1     105.722 108.295 116.254  1.00  0.00     0.008 C 
ATOM      6  C   UNL     1     106.884 107.809 115.319  1.00  0.00    -0.000 C 
ATOM      7  C   UNL     1     106.980 108.621 113.992  1.00  0.00     0.005 C 
ATOM      8  C   UNL     1     108.086 108.115 113.025  1.00  0.00     0.005 C 
ATOM      9  C   UNL     1     109.169 107.330 113.793  1.00  0.00     0.002 C 
ATOM     10  C   UNL     1     110.621 107.246 113.151  1.00  0.00    -0.026 C 
ATOM     11  C   UNL     1     111.105 108.676 112.731  1.00  0.00     0.010 C 
ATOM     12  C   UNL     1     112.608 108.763 112.402  1.00  0.00     0.033 C 
ATOM     13  C   UNL     1     113.491 108.269 113.554  1.00  0.00     0.120 C 
ATOM     14  C   UNL     1     113.127 106.818 114.013  1.00  0.00    -0.006 C 
ATOM     15  C   UNL     1     111.578 106.747 114.311  1.00  0.00     0.003 C 
ATOM     16  C   UNL     1     111.079 105.434 114.975  1.00  0.00     0.005 C 
ATOM     17  C   UNL     1     109.624 105.557 115.502  1.00  0.00     0.008 C 
ATOM     18  C   UNL     1     108.568 105.990 114.430  1.00  0.00    -0.024 C 
ATOM     19  C   UNL     1     107.064 106.268 115.058  1.00  0.00    -0.024 C 
ATOM     20  C   UNL     1     106.844 105.508 116.405  1.00  0.00     0.008 C 
ATOM     21  C   UNL     1     105.534 105.888 117.118  1.00  0.00     0.010 C 
ATOM     22  C   UNL     1     105.928 105.784 114.081  1.00  0.00     0.012 C 
ATOM     23  C   UNL     1     108.471 104.804 113.417  1.00  0.00     0.012 C 
ATOM     24  C   UNL     1     113.938 106.511 115.303  1.00  0.00     0.014 C 
ATOM     25  C   UNL     1     113.595 105.794 112.952  1.00  0.00     0.014 C 
ATOM     26  C   UNL     1     110.621 106.351 111.875  1.00  0.00     0.012 C 
ENDROOT
BRANCH   1  27
ATOM     27  C   UNL     1     104.172 110.035 115.154  1.00  0.00    -0.077 C 
ATOM     28  C   UNL     1     104.331 111.189 116.112  1.00  0.00     0.039 C 
ATOM     29  C   UNL     1     103.804 110.299 113.884  1.00  0.00     0.008 C 
ENDBRANCH   1  27
BRANCH   4  30
ATOM     30  C   UNL     1     106.470 107.733 118.643  1.00  0.00     0.163 C 
BRANCH  30  31
ATOM     31  O   UNL     1     105.838 107.746 119.900  1.00  0.00    -0.396 OA
ATOM     32  H   UNL     1     105.401 108.620 119.998  1.00  0.00     0.210 HD
ENDBRANCH  30  31
ENDBRANCH   4  30
BRANCH  13  33
ATOM     33  O   UNL     1     113.365 109.180 114.622  1.00  0.00    -0.393 OA
ATOM     34  H   UNL     1     112.446 109.083 114.995  1.00  0.00     0.210 HD
ENDBRANCH  13  33
TORSDOF 4
ENDMDL
MODEL 9
REMARK VINA RESULT:    -6.349      7.477     11.287
REMARK INTER + INTRA:          -8.059
REMARK INTER:                  -7.394
REMARK INTRA:                  -0.665
REMARK UNBOUND:                -0.597
REMARK SMILES C=C(C)[C@@H]1CC[C@@]2(CO)CC[C@@]3(C)[C@@H](CC[C@@H]4[C@@]5(C)CC[C@@H](O)C(C)(C)[C@@H]5CC[C@]43C)[C@@H]12
REMARK SMILES IDX 4 1 5 2 6 3 7 4 32 5 14 6 15 7 16 8 17 9 18 10 20 11 21 12
REMARK SMILES IDX 22 13 24 14 27 15 28 16 29 17 30 18 12 19 11 20 10 21 13 22
REMARK SMILES IDX 31 23 25 24 26 25 19 26 2 27 3 28 1 29 8 30 9 31 23 33
REMARK H PARENT 9 32 23 34
REMARK Flexibility Score: inf
ROOT
ATOM      1  C   UNL     1     107.587 106.593 115.415  1.00  0.00     0.018 C 
ATOM      2  C   UNL     1     108.920 106.119 116.015  1.00  0.00     0.009 C 
ATOM      3  C   UNL     1     109.320 107.131 117.085  1.00  0.00     0.010 C 
ATOM      4  C   UNL     1     108.530 108.426 116.814  1.00  0.00    -0.003 C 
ATOM      5  C   UNL     1     107.236 107.929 116.120  1.00  0.00     0.008 C 
ATOM      6  C   UNL     1     106.475 109.027 115.296  1.00  0.00    -0.000 C 
ATOM      7  C   UNL     1     105.296 108.452 114.456  1.00  0.00     0.005 C 
ATOM      8  C   UNL     1     104.568 109.513 113.585  1.00  0.00     0.005 C 
ATOM      9  C   UNL     1     104.789 110.931 114.151  1.00  0.00     0.002 C 
ATOM     10  C   UNL     1     103.708 112.045 113.806  1.00  0.00    -0.026 C 
ATOM     11  C   UNL     1     102.268 111.504 114.099  1.00  0.00     0.010 C 
ATOM     12  C   UNL     1     101.175 112.590 114.115  1.00  0.00     0.033 C 
ATOM     13  C   UNL     1     101.482 113.720 115.105  1.00  0.00     0.120 C 
ATOM     14  C   UNL     1     102.883 114.372 114.860  1.00  0.00    -0.006 C 
ATOM     15  C   UNL     1     103.979 113.236 114.816  1.00  0.00     0.003 C 
ATOM     16  C   UNL     1     105.454 113.723 114.786  1.00  0.00     0.005 C 
ATOM     17  C   UNL     1     106.460 112.570 115.043  1.00  0.00     0.008 C 
ATOM     18  C   UNL     1     106.331 111.351 114.067  1.00  0.00    -0.024 C 
ATOM     19  C   UNL     1     107.305 110.077 114.469  1.00  0.00    -0.024 C 
ATOM     20  C   UNL     1     108.531 110.526 115.325  1.00  0.00     0.008 C 
ATOM     21  C   UNL     1     109.357 109.351 115.880  1.00  0.00     0.010 C 
ATOM     22  C   UNL     1     107.889 109.367 113.190  1.00  0.00     0.012 C 
ATOM     23  C   UNL     1     106.761 111.880 112.659  1.00  0.00     0.012 C 
ATOM     24  C   UNL     1     103.165 115.346 116.037  1.00  0.00     0.014 C 
ATOM     25  C   UNL     1     102.846 115.239 113.578  1.00  0.00     0.014 C 
ATOM     26  C   UNL     1     103.770 112.440 112.300  1.00  0.00     0.012 C 
ENDROOT
BRANCH   1  27
ATOM     27  C   UNL     1     106.500 105.524 115.560  1.00  0.00    -0.077 C 
ATOM     28  C   UNL     1     105.891 105.200 116.901  1.00  0.00     0.039 C 
ATOM     29  C   UNL     1     106.120 104.800 114.488  1.00  0.00     0.008 C 
ENDBRANCH   1  27
BRANCH   4  30
ATOM     30  C   UNL     1     108.201 109.140 118.166  1.00  0.00     0.163 C 
BRANCH  30  31
ATOM     31  O   UNL     1     107.165 108.492 118.862  1.00  0.00    -0.396 OA
ATOM     32  H   UNL     1     107.018 108.989 119.696  1.00  0.00     0.210 HD
ENDBRANCH  30  31
ENDBRANCH   4  30
BRANCH  13  33
ATOM     33  O   UNL     1     101.396 113.191 116.409  1.00  0.00    -0.393 OA
ATOM     34  H   UNL     1     101.988 113.736 116.996  1.00  0.00     0.210 HD
ENDBRANCH  13  33
TORSDOF 4
ENDMDL
