MODEL 1
REMARK VINA RESULT:    -3.792      0.000      0.000
REMARK INTER + INTRA:          -3.792
REMARK INTER:                  -3.792
REMARK INTRA:                   0.000
REMARK UNBOUND:                 0.000
REMARK SMILES CC1(C)[C@@H]2CC[C@@]1(C)C(=O)C2
REMARK SMILES IDX 1 1 2 2 4 3 5 4 6 5 7 6 9 7 10 8 11 9 8 10 3 11
REMARK H PARENT
REMARK Flexibility Score: inf
ROOT
ATOM      1  C   UNL     1     119.994 124.635 105.262  1.00  0.00     0.012 C 
ATOM      2  C   UNL     1     119.654 125.363 106.597  1.00  0.00    -0.020 C 
ATOM      3  C   UNL     1     120.257 126.786 106.704  1.00  0.00     0.003 C 
ATOM      4  C   UNL     1     121.786 126.509 106.708  1.00  0.00     0.005 C 
ATOM      5  C   UNL     1     121.897 125.183 107.501  1.00  0.00     0.015 C 
ATOM      6  C   UNL     1     120.421 124.865 107.840  1.00  0.00     0.032 C 
ATOM      7  C   UNL     1     120.025 125.912 108.851  1.00  0.00     0.139 C 
ATOM      8  O   UNL     1     119.915 125.742 110.055  1.00  0.00    -0.299 OA
ATOM      9  C   UNL     1     119.888 127.228 108.148  1.00  0.00     0.080 C 
ATOM     10  C   UNL     1     120.158 123.417 108.270  1.00  0.00     0.020 C 
ATOM     11  C   UNL     1     118.101 125.332 106.733  1.00  0.00     0.012 C 
ENDROOT
TORSDOF 0
ENDMDL
MODEL 2
REMARK VINA RESULT:    -3.745      1.689      2.515
REMARK INTER + INTRA:          -3.745
REMARK INTER:                  -3.745
REMARK INTRA:                   0.000
REMARK UNBOUND:                 0.000
REMARK SMILES CC1(C)[C@@H]2CC[C@@]1(C)C(=O)C2
REMARK SMILES IDX 1 1 2 2 4 3 5 4 6 5 7 6 9 7 10 8 11 9 8 10 3 11
REMARK H PARENT
REMARK Flexibility Score: inf
ROOT
ATOM      1  C   UNL     1     116.477 125.748 107.510  1.00  0.00     0.012 C 
ATOM      2  C   UNL     1     117.816 126.034 108.254  1.00  0.00    -0.020 C 
ATOM      3  C   UNL     1     118.962 126.499 107.322  1.00  0.00     0.003 C 
ATOM      4  C   UNL     1     119.194 125.255 106.420  1.00  0.00     0.005 C 
ATOM      5  C   UNL     1     118.949 124.072 107.389  1.00  0.00     0.015 C 
ATOM      6  C   UNL     1     118.600 124.787 108.716  1.00  0.00     0.032 C 
ATOM      7  C   UNL     1     119.893 125.420 109.165  1.00  0.00     0.139 C 
ATOM      8  O   UNL     1     120.625 125.006 110.051  1.00  0.00    -0.299 OA
ATOM      9  C   UNL     1     120.190 126.585 108.272  1.00  0.00     0.080 C 
ATOM     10  C   UNL     1     117.915 123.899 109.763  1.00  0.00     0.020 C 
ATOM     11  C   UNL     1     117.482 127.051 109.388  1.00  0.00     0.012 C 
ENDROOT
TORSDOF 0
ENDMDL
MODEL 3
REMARK VINA RESULT:    -3.744     11.439     12.709
REMARK INTER + INTRA:          -3.744
REMARK INTER:                  -3.744
REMARK INTRA:                   0.000
REMARK UNBOUND:                 0.000
REMARK SMILES CC1(C)[C@@H]2CC[C@@]1(C)C(=O)C2
REMARK SMILES IDX 1 1 2 2 4 3 5 4 6 5 7 6 9 7 10 8 11 9 8 10 3 11
REMARK H PARENT
REMARK Flexibility Score: inf
ROOT
ATOM      1  C   UNL     1     131.662 122.427  98.510  1.00  0.00     0.012 C 
ATOM      2  C   UNL     1     130.364 122.296  99.362  1.00  0.00    -0.020 C 
ATOM      3  C   UNL     1     129.059 122.442  98.542  1.00  0.00     0.003 C 
ATOM      4  C   UNL     1     129.134 123.912  98.042  1.00  0.00     0.005 C 
ATOM      5  C   UNL     1     129.798 124.649  99.230  1.00  0.00     0.015 C 
ATOM      6  C   UNL     1     130.027 123.510 100.253  1.00  0.00     0.032 C 
ATOM      7  C   UNL     1     128.646 123.135 100.727  1.00  0.00     0.139 C 
ATOM      8  O   UNL     1     128.145 123.445 101.797  1.00  0.00    -0.299 OA
ATOM      9  C   UNL     1     127.944 122.404  99.624  1.00  0.00     0.080 C 
ATOM     10  C   UNL     1     131.028 123.839 101.367  1.00  0.00     0.020 C 
ATOM     11  C   UNL     1     130.473 120.939 100.125  1.00  0.00     0.012 C 
ENDROOT
TORSDOF 0
ENDMDL
MODEL 4
REMARK VINA RESULT:    -3.740      1.561      2.849
REMARK INTER + INTRA:          -3.740
REMARK INTER:                  -3.740
REMARK INTRA:                   0.000
REMARK UNBOUND:                 0.000
REMARK SMILES CC1(C)[C@@H]2CC[C@@]1(C)C(=O)C2
REMARK SMILES IDX 1 1 2 2 4 3 5 4 6 5 7 6 9 7 10 8 11 9 8 10 3 11
REMARK H PARENT
REMARK Flexibility Score: inf
ROOT
ATOM      1  C   UNL     1     120.629 127.564 107.523  1.00  0.00     0.012 C 
ATOM      2  C   UNL     1     120.049 126.145 107.241  1.00  0.00    -0.020 C 
ATOM      3  C   UNL     1     118.505 126.113 107.122  1.00  0.00     0.003 C 
ATOM      4  C   UNL     1     118.045 126.523 108.549  1.00  0.00     0.005 C 
ATOM      5  C   UNL     1     119.111 125.866 109.460  1.00  0.00     0.015 C 
ATOM      6  C   UNL     1     120.049 125.175 108.441  1.00  0.00     0.032 C 
ATOM      7  C   UNL     1     119.236 124.036 107.880  1.00  0.00     0.139 C 
ATOM      8  O   UNL     1     119.353 122.856 108.176  1.00  0.00    -0.299 OA
ATOM      9  C   UNL     1     118.184 124.599 106.976  1.00  0.00     0.080 C 
ATOM     10  C   UNL     1     121.422 124.779 108.998  1.00  0.00     0.020 C 
ATOM     11  C   UNL     1     120.783 125.613 105.972  1.00  0.00     0.012 C 
ENDROOT
TORSDOF 0
ENDMDL
MODEL 5
REMARK VINA RESULT:    -3.711      1.736      3.180
REMARK INTER + INTRA:          -3.711
REMARK INTER:                  -3.711
REMARK INTRA:                   0.000
REMARK UNBOUND:                 0.000
REMARK SMILES CC1(C)[C@@H]2CC[C@@]1(C)C(=O)C2
REMARK SMILES IDX 1 1 2 2 4 3 5 4 6 5 7 6 9 7 10 8 11 9 8 10 3 11
REMARK H PARENT
REMARK Flexibility Score: inf
ROOT
ATOM      1  C   UNL     1     120.260 125.064 110.164  1.00  0.00     0.012 C 
ATOM      2  C   UNL     1     120.560 125.388 108.670  1.00  0.00    -0.020 C 
ATOM      3  C   UNL     1     120.197 126.837 108.259  1.00  0.00     0.003 C 
ATOM      4  C   UNL     1     118.653 126.864 108.434  1.00  0.00     0.005 C 
ATOM      5  C   UNL     1     118.230 125.438 108.003  1.00  0.00     0.015 C 
ATOM      6  C   UNL     1     119.582 124.775 107.646  1.00  0.00     0.032 C 
ATOM      7  C   UNL     1     120.028 125.467 106.383  1.00  0.00     0.139 C 
ATOM      8  O   UNL     1     119.967 125.007 105.253  1.00  0.00    -0.299 OA
ATOM      9  C   UNL     1     120.464 126.857 106.728  1.00  0.00     0.080 C 
ATOM     10  C   UNL     1     119.546 123.244 107.569  1.00  0.00     0.020 C 
ATOM     11  C   UNL     1     122.060 125.030 108.434  1.00  0.00     0.012 C 
ENDROOT
TORSDOF 0
ENDMDL
MODEL 6
REMARK VINA RESULT:    -3.703      1.507      2.576
REMARK INTER + INTRA:          -3.703
REMARK INTER:                  -3.703
REMARK INTRA:                   0.000
REMARK UNBOUND:                 0.000
REMARK SMILES CC1(C)[C@@H]2CC[C@@]1(C)C(=O)C2
REMARK SMILES IDX 1 1 2 2 4 3 5 4 6 5 7 6 9 7 10 8 11 9 8 10 3 11
REMARK H PARENT
REMARK Flexibility Score: inf
ROOT
ATOM      1  C   UNL     1     117.706 125.978 107.263  1.00  0.00     0.012 C 
ATOM      2  C   UNL     1     119.040 125.287 107.675  1.00  0.00    -0.020 C 
ATOM      3  C   UNL     1     119.854 126.076 108.729  1.00  0.00     0.003 C 
ATOM      4  C   UNL     1     120.227 127.378 107.967  1.00  0.00     0.005 C 
ATOM      5  C   UNL     1     120.457 126.879 106.519  1.00  0.00     0.015 C 
ATOM      6  C   UNL     1     120.177 125.361 106.634  1.00  0.00     0.032 C 
ATOM      7  C   UNL     1     121.330 124.817 107.440  1.00  0.00     0.139 C 
ATOM      8  O   UNL     1     122.285 124.196 106.998  1.00  0.00    -0.299 OA
ATOM      9  C   UNL     1     121.167 125.255 108.863  1.00  0.00     0.080 C 
ATOM     10  C   UNL     1     119.928 124.651 105.298  1.00  0.00     0.020 C 
ATOM     11  C   UNL     1     118.666 123.842 108.129  1.00  0.00     0.012 C 
ENDROOT
TORSDOF 0
ENDMDL
MODEL 7
REMARK VINA RESULT:    -3.698     14.004     15.274
REMARK INTER + INTRA:          -3.698
REMARK INTER:                  -3.698
REMARK INTRA:                   0.000
REMARK UNBOUND:                 0.000
REMARK SMILES CC1(C)[C@@H]2CC[C@@]1(C)C(=O)C2
REMARK SMILES IDX 1 1 2 2 4 3 5 4 6 5 7 6 9 7 10 8 11 9 8 10 3 11
REMARK H PARENT
REMARK Flexibility Score: inf
ROOT
ATOM      1  C   UNL     1     131.576 120.887 100.683  1.00  0.00     0.012 C 
ATOM      2  C   UNL     1     131.546 119.331 100.758  1.00  0.00    -0.020 C 
ATOM      3  C   UNL     1     132.658 118.644  99.927  1.00  0.00     0.003 C 
ATOM      4  C   UNL     1     132.288 119.040  98.470  1.00  0.00     0.005 C 
ATOM      5  C   UNL     1     130.739 119.034  98.491  1.00  0.00     0.015 C 
ATOM      6  C   UNL     1     130.420 118.647  99.955  1.00  0.00     0.032 C 
ATOM      7  C   UNL     1     130.834 117.201 100.069  1.00  0.00     0.139 C 
ATOM      8  O   UNL     1     130.084 116.238 100.077  1.00  0.00    -0.299 OA
ATOM      9  C   UNL     1     132.331 117.131 100.065  1.00  0.00     0.080 C 
ATOM     10  C   UNL     1     128.984 118.946 100.401  1.00  0.00     0.020 C 
ATOM     11  C   UNL     1     131.583 118.963 102.274  1.00  0.00     0.012 C 
ENDROOT
TORSDOF 0
ENDMDL
MODEL 8
REMARK VINA RESULT:    -3.690     14.043     15.283
REMARK INTER + INTRA:          -3.690
REMARK INTER:                  -3.690
REMARK INTRA:                   0.000
REMARK UNBOUND:                 0.000
REMARK SMILES CC1(C)[C@@H]2CC[C@@]1(C)C(=O)C2
REMARK SMILES IDX 1 1 2 2 4 3 5 4 6 5 7 6 9 7 10 8 11 9 8 10 3 11
REMARK H PARENT
REMARK Flexibility Score: inf
ROOT
ATOM      1  C   UNL     1     133.849 118.948 100.126  1.00  0.00     0.012 C 
ATOM      2  C   UNL     1     132.366 118.632  99.767  1.00  0.00    -0.020 C 
ATOM      3  C   UNL     1     131.943 119.131  98.363  1.00  0.00     0.003 C 
ATOM      4  C   UNL     1     132.064 120.674  98.500  1.00  0.00     0.005 C 
ATOM      5  C   UNL     1     131.617 120.930  99.960  1.00  0.00     0.015 C 
ATOM      6  C   UNL     1     131.309 119.504 100.476  1.00  0.00     0.032 C 
ATOM      7  C   UNL     1     130.062 119.088  99.737  1.00  0.00     0.139 C 
ATOM      8  O   UNL     1     128.930 119.061 100.196  1.00  0.00    -0.299 OA
ATOM      9  C   UNL     1     130.422 118.813  98.309  1.00  0.00     0.080 C 
ATOM     10  C   UNL     1     131.230 119.376 102.002  1.00  0.00     0.020 C 
ATOM     11  C   UNL     1     132.183 117.095  99.965  1.00  0.00     0.012 C 
ENDROOT
TORSDOF 0
ENDMDL
MODEL 9
REMARK VINA RESULT:    -3.630      1.627      2.500
REMARK INTER + INTRA:          -3.630
REMARK INTER:                  -3.630
REMARK INTRA:                   0.000
REMARK UNBOUND:                 0.000
REMARK SMILES CC1(C)[C@@H]2CC[C@@]1(C)C(=O)C2
REMARK SMILES IDX 1 1 2 2 4 3 5 4 6 5 7 6 9 7 10 8 11 9 8 10 3 11
REMARK H PARENT
REMARK Flexibility Score: inf
ROOT
ATOM      1  C   UNL     1     120.307 123.776 107.685  1.00  0.00     0.012 C 
ATOM      2  C   UNL     1     118.994 124.518 108.078  1.00  0.00    -0.020 C 
ATOM      3  C   UNL     1     118.422 125.415 106.953  1.00  0.00     0.003 C 
ATOM      4  C   UNL     1     119.527 126.495 106.785  1.00  0.00     0.005 C 
ATOM      5  C   UNL     1     120.034 126.702 108.233  1.00  0.00     0.015 C 
ATOM      6  C   UNL     1     119.165 125.710 109.043  1.00  0.00     0.032 C 
ATOM      7  C   UNL     1     117.777 126.298 109.009  1.00  0.00     0.139 C 
ATOM      8  O   UNL     1     117.228 126.895 109.923  1.00  0.00    -0.299 OA
ATOM      9  C   UNL     1     117.217 126.124 107.631  1.00  0.00     0.080 C 
ATOM     10  C   UNL     1     119.697 125.384 110.443  1.00  0.00     0.020 C 
ATOM     11  C   UNL     1     117.998 123.421 108.567  1.00  0.00     0.012 C 
ENDROOT
TORSDOF 0
ENDMDL
