MODEL 1
REMARK VINA RESULT:    -6.639      0.000      0.000
REMARK INTER + INTRA:          -9.770
REMARK INTER:                  -8.967
REMARK INTRA:                  -0.803
REMARK UNBOUND:                -0.803
REMARK SMILES O=c1c(-c2ccc(O)cc2)coc2c([C@H]3O[C@@H](CO)[C@@H](O)[C@@H](O)[C@H]3O)c(O)ccc12
REMARK SMILES IDX 3 1 11 2 12 3 13 4 30 5 2 6 1 7 29 8 28 9 26 10 14 11 4 12
REMARK SMILES IDX 5 13 6 14 7 15 10 16 9 17 8 18 15 20 24 21 16 22 22 23 17 24
REMARK SMILES IDX 20 25 25 26 23 28 18 30 19 31 21 33 27 35
REMARK H PARENT 8 19 25 27 23 29 19 32 21 34 27 36
REMARK Flexibility Score: inf
ROOT
ATOM      1  C   UNL     1      -9.918 -19.995  -6.833  1.00  0.00     0.065 A 
ATOM      2  C   UNL     1      -9.228 -21.037  -6.195  1.00  0.00     0.208 A 
ATOM      3  O   UNL     1      -7.902 -21.057  -6.165  1.00  0.00    -0.463 OA
ATOM      4  C   UNL     1      -7.145 -20.116  -6.724  1.00  0.00     0.147 A 
ATOM      5  C   UNL     1      -7.759 -19.028  -7.389  1.00  0.00     0.066 A 
ATOM      6  C   UNL     1      -9.164 -18.980  -7.446  1.00  0.00     0.200 A 
ATOM      7  O   UNL     1      -9.743 -18.041  -8.060  1.00  0.00    -0.288 OA
ATOM      8  C   UNL     1      -6.960 -18.030  -7.968  1.00  0.00     0.020 A 
ATOM      9  C   UNL     1      -5.573 -18.103  -7.878  1.00  0.00     0.047 A 
ATOM     10  C   UNL     1      -4.953 -19.170  -7.219  1.00  0.00     0.125 A 
ATOM     11  C   UNL     1      -5.734 -20.206  -6.651  1.00  0.00     0.069 A 
ENDROOT
BRANCH   1  12
ATOM     12  C   UNL     1     -11.402 -19.992  -6.847  1.00  0.00    -0.011 A 
ATOM     13  C   UNL     1     -12.124 -19.940  -5.642  1.00  0.00     0.013 A 
ATOM     14  C   UNL     1     -13.522 -19.929  -5.653  1.00  0.00     0.047 A 
ATOM     15  C   UNL     1     -14.216 -19.962  -6.867  1.00  0.00     0.115 A 
ATOM     16  C   UNL     1     -12.107 -20.019  -8.065  1.00  0.00     0.013 A 
ATOM     17  C   UNL     1     -13.505 -20.006  -8.073  1.00  0.00     0.047 A 
BRANCH  15  18
ATOM     18  O   UNL     1     -15.609 -19.950  -6.863  1.00  0.00    -0.508 OA
ATOM     19  H   UNL     1     -16.133 -19.174  -7.251  1.00  0.00     0.293 HD
ENDBRANCH  15  18
ENDBRANCH   1  12
BRANCH  11  20
ATOM     20  C   UNL     1      -5.099 -21.374  -5.902  1.00  0.00     0.188 C 
ATOM     21  C   UNL     1      -4.839 -21.000  -4.420  1.00  0.00     0.179 C 
ATOM     22  O   UNL     1      -3.902 -21.793  -6.540  1.00  0.00    -0.362 OA
ATOM     23  C   UNL     1      -4.149 -22.168  -3.684  1.00  0.00     0.177 C 
ATOM     24  C   UNL     1      -3.418 -22.992  -5.957  1.00  0.00     0.176 C 
ATOM     25  C   UNL     1      -2.972 -22.749  -4.495  1.00  0.00     0.177 C 
BRANCH  21  26
ATOM     26  O   UNL     1      -4.106 -19.804  -4.293  1.00  0.00    -0.387 OA
ATOM     27  H   UNL     1      -3.307 -19.866  -4.874  1.00  0.00     0.211 HD
ENDBRANCH  21  26
BRANCH  23  28
ATOM     28  O   UNL     1      -3.716 -21.744  -2.416  1.00  0.00    -0.387 OA
ATOM     29  H   UNL     1      -3.519 -20.774  -2.491  1.00  0.00     0.211 HD
ENDBRANCH  23  28
BRANCH  24  30
ATOM     30  C   UNL     1      -2.263 -23.533  -6.812  1.00  0.00     0.191 C 
BRANCH  30  31
ATOM     31  O   UNL     1      -2.329 -23.009  -8.111  1.00  0.00    -0.394 OA
ATOM     32  H   UNL     1      -1.669 -22.269  -8.155  1.00  0.00     0.210 HD
ENDBRANCH  30  31
ENDBRANCH  24  30
BRANCH  25  33
ATOM     33  O   UNL     1      -1.875 -21.868  -4.449  1.00  0.00    -0.388 OA
ATOM     34  H   UNL     1      -2.193 -21.025  -4.029  1.00  0.00     0.211 HD
ENDBRANCH  25  33
ENDBRANCH  11  20
BRANCH  10  35
ATOM     35  O   UNL     1      -3.560 -19.195  -7.128  1.00  0.00    -0.507 OA
ATOM     36  H   UNL     1      -3.060 -20.020  -6.818  1.00  0.00     0.293 HD
ENDBRANCH  10  35
TORSDOF 9
ENDMDL
MODEL 2
REMARK VINA RESULT:    -6.431     11.509     15.547
REMARK INTER + INTRA:          -9.490
REMARK INTER:                  -9.454
REMARK INTRA:                  -0.036
REMARK UNBOUND:                -0.803
REMARK SMILES O=c1c(-c2ccc(O)cc2)coc2c([C@H]3O[C@@H](CO)[C@@H](O)[C@@H](O)[C@H]3O)c(O)ccc12
REMARK SMILES IDX 3 1 11 2 12 3 13 4 30 5 2 6 1 7 29 8 28 9 26 10 14 11 4 12
REMARK SMILES IDX 5 13 6 14 7 15 10 16 9 17 8 18 15 20 24 21 16 22 22 23 17 24
REMARK SMILES IDX 20 25 25 26 23 28 18 30 19 31 21 33 27 35
REMARK H PARENT 8 19 25 27 23 29 19 32 21 34 27 36
REMARK Flexibility Score: inf
ROOT
ATOM      1  C   UNL     1      -9.568 -13.307 -16.372  1.00  0.00     0.065 A 
ATOM      2  C   UNL     1     -10.821 -12.883 -15.903  1.00  0.00     0.208 A 
ATOM      3  O   UNL     1     -11.262 -11.657 -16.154  1.00  0.00    -0.463 OA
ATOM      4  C   UNL     1     -10.569 -10.760 -16.851  1.00  0.00     0.147 A 
ATOM      5  C   UNL     1      -9.295 -11.104 -17.362  1.00  0.00     0.066 A 
ATOM      6  C   UNL     1      -8.792 -12.394 -17.107  1.00  0.00     0.200 A 
ATOM      7  O   UNL     1      -7.646 -12.722 -17.519  1.00  0.00    -0.288 OA
ATOM      8  C   UNL     1      -8.569 -10.162 -18.105  1.00  0.00     0.020 A 
ATOM      9  C   UNL     1      -9.104  -8.901 -18.351  1.00  0.00     0.047 A 
ATOM     10  C   UNL     1     -10.366  -8.549 -17.856  1.00  0.00     0.125 A 
ATOM     11  C   UNL     1     -11.107  -9.471 -17.078  1.00  0.00     0.069 A 
ENDROOT
BRANCH   1  12
ATOM     12  C   UNL     1      -9.099 -14.686 -16.083  1.00  0.00    -0.011 A 
ATOM     13  C   UNL     1      -9.348 -15.272 -14.829  1.00  0.00     0.013 A 
ATOM     14  C   UNL     1      -8.913 -16.573 -14.558  1.00  0.00     0.047 A 
ATOM     15  C   UNL     1      -8.232 -17.305 -15.534  1.00  0.00     0.115 A 
ATOM     16  C   UNL     1      -8.419 -15.431 -17.063  1.00  0.00     0.013 A 
ATOM     17  C   UNL     1      -7.987 -16.732 -16.789  1.00  0.00     0.047 A 
BRANCH  15  18
ATOM     18  O   UNL     1      -7.806 -18.601 -15.249  1.00  0.00    -0.508 OA
ATOM     19  H   UNL     1      -8.451 -19.311 -14.923  1.00  0.00     0.293 HD
ENDBRANCH  15  18
ENDBRANCH   1  12
BRANCH  11  20
ATOM     20  C   UNL     1     -12.495  -9.137 -16.541  1.00  0.00     0.188 C 
ATOM     21  C   UNL     1     -12.432  -8.794 -15.029  1.00  0.00     0.179 C 
ATOM     22  O   UNL     1     -13.402 -10.201 -16.785  1.00  0.00    -0.362 OA
ATOM     23  C   UNL     1     -13.847  -8.508 -14.483  1.00  0.00     0.177 C 
ATOM     24  C   UNL     1     -14.727  -9.815 -16.458  1.00  0.00     0.176 C 
ATOM     25  C   UNL     1     -14.868  -9.574 -14.936  1.00  0.00     0.177 C 
BRANCH  21  26
ATOM     26  O   UNL     1     -11.781  -9.796 -14.283  1.00  0.00    -0.387 OA
ATOM     27  H   UNL     1     -12.422 -10.153 -13.619  1.00  0.00     0.211 HD
ENDBRANCH  21  26
BRANCH  23  28
ATOM     28  O   UNL     1     -13.809  -8.422 -13.081  1.00  0.00    -0.387 OA
ATOM     29  H   UNL     1     -12.966  -7.953 -12.847  1.00  0.00     0.211 HD
ENDBRANCH  23  28
BRANCH  24  30
ATOM     30  C   UNL     1     -15.699 -10.899 -16.946  1.00  0.00     0.191 C 
BRANCH  30  31
ATOM     31  O   UNL     1     -16.872 -10.886 -16.178  1.00  0.00    -0.394 OA
ATOM     32  H   UNL     1     -17.501 -10.262 -16.626  1.00  0.00     0.210 HD
ENDBRANCH  30  31
ENDBRANCH  24  30
BRANCH  25  33
ATOM     33  O   UNL     1     -14.664 -10.768 -14.221  1.00  0.00    -0.388 OA
ATOM     34  H   UNL     1     -15.474 -11.329 -14.348  1.00  0.00     0.211 HD
ENDBRANCH  25  33
ENDBRANCH  11  20
BRANCH  10  35
ATOM     35  O   UNL     1     -10.879  -7.283 -18.145  1.00  0.00    -0.507 OA
ATOM     36  H   UNL     1     -10.953  -6.942 -19.096  1.00  0.00     0.293 HD
ENDBRANCH  10  35
TORSDOF 9
ENDMDL
MODEL 3
REMARK VINA RESULT:    -6.182     11.524     15.831
REMARK INTER + INTRA:          -9.153
REMARK INTER:                  -8.428
REMARK INTRA:                  -0.725
REMARK UNBOUND:                -0.803
REMARK SMILES O=c1c(-c2ccc(O)cc2)coc2c([C@H]3O[C@@H](CO)[C@@H](O)[C@@H](O)[C@H]3O)c(O)ccc12
REMARK SMILES IDX 3 1 11 2 12 3 13 4 30 5 2 6 1 7 29 8 28 9 26 10 14 11 4 12
REMARK SMILES IDX 5 13 6 14 7 15 10 16 9 17 8 18 15 20 24 21 16 22 22 23 17 24
REMARK SMILES IDX 20 25 25 26 23 28 18 30 19 31 21 33 27 35
REMARK H PARENT 8 19 25 27 23 29 19 32 21 34 27 36
REMARK Flexibility Score: inf
ROOT
ATOM      1  C   UNL     1      -9.055 -13.453 -16.551  1.00  0.00     0.065 A 
ATOM      2  C   UNL     1      -9.915 -13.202 -15.471  1.00  0.00     0.208 A 
ATOM      3  O   UNL     1     -10.793 -12.208 -15.516  1.00  0.00    -0.463 OA
ATOM      4  C   UNL     1     -10.920 -11.394 -16.561  1.00  0.00     0.147 A 
ATOM      5  C   UNL     1     -10.091 -11.574 -17.693  1.00  0.00     0.066 A 
ATOM      6  C   UNL     1      -9.143 -12.614 -17.676  1.00  0.00     0.200 A 
ATOM      7  O   UNL     1      -8.366 -12.782 -18.656  1.00  0.00    -0.288 OA
ATOM      8  C   UNL     1     -10.233 -10.722 -18.799  1.00  0.00     0.020 A 
ATOM      9  C   UNL     1     -11.192  -9.713 -18.787  1.00  0.00     0.047 A 
ATOM     10  C   UNL     1     -12.022  -9.527 -17.675  1.00  0.00     0.125 A 
ATOM     11  C   UNL     1     -11.880 -10.354 -16.534  1.00  0.00     0.069 A 
ENDROOT
BRANCH   1  12
ATOM     12  C   UNL     1      -8.086 -14.575 -16.479  1.00  0.00    -0.011 A 
ATOM     13  C   UNL     1      -8.539 -15.893 -16.297  1.00  0.00     0.013 A 
ATOM     14  C   UNL     1      -7.628 -16.953 -16.237  1.00  0.00     0.047 A 
ATOM     15  C   UNL     1      -6.257 -16.710 -16.365  1.00  0.00     0.115 A 
ATOM     16  C   UNL     1      -6.706 -14.339 -16.613  1.00  0.00     0.013 A 
ATOM     17  C   UNL     1      -5.798 -15.401 -16.554  1.00  0.00     0.047 A 
BRANCH  15  18
ATOM     18  O   UNL     1      -5.362 -17.776 -16.304  1.00  0.00    -0.508 OA
ATOM     19  H   UNL     1      -5.682 -18.731 -16.193  1.00  0.00     0.293 HD
ENDBRANCH  15  18
ENDBRANCH   1  12
BRANCH  11  20
ATOM     20  C   UNL     1     -12.781 -10.201 -15.312  1.00  0.00     0.188 C 
ATOM     21  C   UNL     1     -14.064 -11.058 -15.465  1.00  0.00     0.179 C 
ATOM     22  O   UNL     1     -13.103  -8.837 -15.089  1.00  0.00    -0.362 OA
ATOM     23  C   UNL     1     -14.993 -10.857 -14.249  1.00  0.00     0.177 C 
ATOM     24  C   UNL     1     -13.779  -8.678 -13.852  1.00  0.00     0.176 C 
ATOM     25  C   UNL     1     -15.164  -9.365 -13.893  1.00  0.00     0.177 C 
BRANCH  21  26
ATOM     26  O   UNL     1     -14.734 -10.803 -16.677  1.00  0.00    -0.387 OA
ATOM     27  H   UNL     1     -14.371 -11.413 -17.367  1.00  0.00     0.211 HD
ENDBRANCH  21  26
BRANCH  23  28
ATOM     28  O   UNL     1     -16.240 -11.454 -14.497  1.00  0.00    -0.387 OA
ATOM     29  H   UNL     1     -16.916 -10.728 -14.468  1.00  0.00     0.211 HD
ENDBRANCH  23  28
BRANCH  24  30
ATOM     30  C   UNL     1     -13.905  -7.179 -13.540  1.00  0.00     0.191 C 
BRANCH  30  31
ATOM     31  O   UNL     1     -13.262  -6.875 -12.333  1.00  0.00    -0.394 OA
ATOM     32  H   UNL     1     -13.928  -6.408 -11.763  1.00  0.00     0.210 HD
ENDBRANCH  30  31
ENDBRANCH  24  30
BRANCH  25  33
ATOM     33  O   UNL     1     -16.003  -8.740 -14.834  1.00  0.00    -0.388 OA
ATOM     34  H   UNL     1     -15.879  -9.213 -15.699  1.00  0.00     0.211 HD
ENDBRANCH  25  33
ENDBRANCH  11  20
BRANCH  10  35
ATOM     35  O   UNL     1     -12.988  -8.520 -17.711  1.00  0.00    -0.507 OA
ATOM     36  H   UNL     1     -12.957  -7.776 -18.398  1.00  0.00     0.293 HD
ENDBRANCH  10  35
TORSDOF 9
ENDMDL
MODEL 4
REMARK VINA RESULT:    -6.033      1.246      2.662
REMARK INTER + INTRA:          -8.953
REMARK INTER:                  -8.786
REMARK INTRA:                  -0.167
REMARK UNBOUND:                -0.803
REMARK SMILES O=c1c(-c2ccc(O)cc2)coc2c([C@H]3O[C@@H](CO)[C@@H](O)[C@@H](O)[C@H]3O)c(O)ccc12
REMARK SMILES IDX 3 1 11 2 12 3 13 4 30 5 2 6 1 7 29 8 28 9 26 10 14 11 4 12
REMARK SMILES IDX 5 13 6 14 7 15 10 16 9 17 8 18 15 20 24 21 16 22 22 23 17 24
REMARK SMILES IDX 20 25 25 26 23 28 18 30 19 31 21 33 27 35
REMARK H PARENT 8 19 25 27 23 29 19 32 21 34 27 36
REMARK Flexibility Score: inf
ROOT
ATOM      1  C   UNL     1      -8.659 -19.990  -6.723  1.00  0.00     0.065 A 
ATOM      2  C   UNL     1      -7.811 -21.006  -6.257  1.00  0.00     0.208 A 
ATOM      3  O   UNL     1      -6.496 -20.831  -6.217  1.00  0.00    -0.463 OA
ATOM      4  C   UNL     1      -5.897 -19.708  -6.608  1.00  0.00     0.147 A 
ATOM      5  C   UNL     1      -6.677 -18.632  -7.093  1.00  0.00     0.066 A 
ATOM      6  C   UNL     1      -8.074 -18.787  -7.156  1.00  0.00     0.200 A 
ATOM      7  O   UNL     1      -8.796 -17.859  -7.614  1.00  0.00    -0.288 OA
ATOM      8  C   UNL     1      -6.046 -17.445  -7.494  1.00  0.00     0.020 A 
ATOM      9  C   UNL     1      -4.663 -17.322  -7.403  1.00  0.00     0.047 A 
ATOM     10  C   UNL     1      -3.879 -18.377  -6.920  1.00  0.00     0.125 A 
ATOM     11  C   UNL     1      -4.488 -19.597  -6.536  1.00  0.00     0.069 A 
ENDROOT
BRANCH   1  12
ATOM     12  C   UNL     1     -10.127 -20.207  -6.752  1.00  0.00    -0.011 A 
ATOM     13  C   UNL     1     -10.815 -20.242  -7.977  1.00  0.00     0.013 A 
ATOM     14  C   UNL     1     -12.197 -20.454  -8.007  1.00  0.00     0.047 A 
ATOM     15  C   UNL     1     -12.906 -20.641  -6.817  1.00  0.00     0.115 A 
ATOM     16  C   UNL     1     -10.846 -20.402  -5.559  1.00  0.00     0.013 A 
ATOM     17  C   UNL     1     -12.227 -20.615  -5.592  1.00  0.00     0.047 A 
BRANCH  15  18
ATOM     18  O   UNL     1     -14.282 -20.852  -6.863  1.00  0.00    -0.508 OA
ATOM     19  H   UNL     1     -14.737 -21.203  -7.698  1.00  0.00     0.293 HD
ENDBRANCH  15  18
ENDBRANCH   1  12
BRANCH  11  20
ATOM     20  C   UNL     1      -3.674 -20.762  -5.982  1.00  0.00     0.188 C 
ATOM     21  C   UNL     1      -3.456 -21.846  -7.070  1.00  0.00     0.179 C 
ATOM     22  O   UNL     1      -4.298 -21.312  -4.832  1.00  0.00    -0.362 OA
ATOM     23  C   UNL     1      -2.676 -23.044  -6.486  1.00  0.00     0.177 C 
ATOM     24  C   UNL     1      -3.449 -22.265  -4.210  1.00  0.00     0.176 C 
ATOM     25  C   UNL     1      -3.247 -23.496  -5.125  1.00  0.00     0.177 C 
BRANCH  21  26
ATOM     26  O   UNL     1      -4.664 -22.255  -7.665  1.00  0.00    -0.387 OA
ATOM     27  H   UNL     1      -4.863 -21.642  -8.417  1.00  0.00     0.211 HD
ENDBRANCH  21  26
BRANCH  23  28
ATOM     28  O   UNL     1      -2.679 -24.108  -7.404  1.00  0.00    -0.387 OA
ATOM     29  H   UNL     1      -1.996 -23.893  -8.092  1.00  0.00     0.211 HD
ENDBRANCH  23  28
BRANCH  24  30
ATOM     30  C   UNL     1      -4.055 -22.666  -2.857  1.00  0.00     0.191 C 
BRANCH  30  31
ATOM     31  O   UNL     1      -3.756 -21.703  -1.883  1.00  0.00    -0.394 OA
ATOM     32  H   UNL     1      -3.096 -21.081  -2.289  1.00  0.00     0.210 HD
ENDBRANCH  30  31
ENDBRANCH  24  30
BRANCH  25  33
ATOM     33  O   UNL     1      -4.461 -24.181  -5.317  1.00  0.00    -0.388 OA
ATOM     34  H   UNL     1      -4.269 -25.151  -5.232  1.00  0.00     0.211 HD
ENDBRANCH  25  33
ENDBRANCH  11  20
BRANCH  10  35
ATOM     35  O   UNL     1      -2.498 -18.206  -6.821  1.00  0.00    -0.507 OA
ATOM     36  H   UNL     1      -1.854 -18.699  -7.429  1.00  0.00     0.293 HD
ENDBRANCH  10  35
TORSDOF 9
ENDMDL
MODEL 5
REMARK VINA RESULT:    -5.828     11.220     13.827
REMARK INTER + INTRA:          -8.675
REMARK INTER:                  -8.154
REMARK INTRA:                  -0.522
REMARK UNBOUND:                -0.803
REMARK SMILES O=c1c(-c2ccc(O)cc2)coc2c([C@H]3O[C@@H](CO)[C@@H](O)[C@@H](O)[C@H]3O)c(O)ccc12
REMARK SMILES IDX 3 1 11 2 12 3 13 4 30 5 2 6 1 7 29 8 28 9 26 10 14 11 4 12
REMARK SMILES IDX 5 13 6 14 7 15 10 16 9 17 8 18 15 20 24 21 16 22 22 23 17 24
REMARK SMILES IDX 20 25 25 26 23 28 18 30 19 31 21 33 27 35
REMARK H PARENT 8 19 25 27 23 29 19 32 21 34 27 36
REMARK Flexibility Score: inf
ROOT
ATOM      1  C   UNL     1     -11.499 -11.024 -16.223  1.00  0.00     0.065 A 
ATOM      2  C   UNL     1     -11.327 -12.401 -16.021  1.00  0.00     0.208 A 
ATOM      3  O   UNL     1     -10.299 -13.045 -16.558  1.00  0.00    -0.463 OA
ATOM      4  C   UNL     1      -9.377 -12.449 -17.310  1.00  0.00     0.147 A 
ATOM      5  C   UNL     1      -9.473 -11.061 -17.566  1.00  0.00     0.066 A 
ATOM      6  C   UNL     1     -10.556 -10.349 -17.018  1.00  0.00     0.200 A 
ATOM      7  O   UNL     1     -10.690  -9.116 -17.253  1.00  0.00    -0.288 OA
ATOM      8  C   UNL     1      -8.495 -10.431 -18.350  1.00  0.00     0.020 A 
ATOM      9  C   UNL     1      -7.429 -11.165 -18.862  1.00  0.00     0.047 A 
ATOM     10  C   UNL     1      -7.319 -12.538 -18.614  1.00  0.00     0.125 A 
ATOM     11  C   UNL     1      -8.308 -13.204 -17.850  1.00  0.00     0.069 A 
ENDROOT
BRANCH   1  12
ATOM     12  C   UNL     1     -12.654 -10.324 -15.606  1.00  0.00    -0.011 A 
ATOM     13  C   UNL     1     -13.956 -10.539 -16.092  1.00  0.00     0.013 A 
ATOM     14  C   UNL     1     -15.046  -9.887 -15.508  1.00  0.00     0.047 A 
ATOM     15  C   UNL     1     -14.851  -9.019 -14.429  1.00  0.00     0.115 A 
ATOM     16  C   UNL     1     -12.466  -9.454 -14.517  1.00  0.00     0.013 A 
ATOM     17  C   UNL     1     -13.559  -8.805 -13.934  1.00  0.00     0.047 A 
BRANCH  15  18
ATOM     18  O   UNL     1     -15.947  -8.377 -13.857  1.00  0.00    -0.508 OA
ATOM     19  H   UNL     1     -16.296  -8.639 -12.942  1.00  0.00     0.293 HD
ENDBRANCH  15  18
ENDBRANCH   1  12
BRANCH  11  20
ATOM     20  C   UNL     1      -8.213 -14.694 -17.534  1.00  0.00     0.188 C 
ATOM     21  C   UNL     1      -8.937 -15.533 -18.620  1.00  0.00     0.179 C 
ATOM     22  O   UNL     1      -8.734 -14.972 -16.243  1.00  0.00    -0.362 OA
ATOM     23  C   UNL     1      -8.880 -17.034 -18.265  1.00  0.00     0.177 C 
ATOM     24  C   UNL     1      -8.473 -16.318 -15.877  1.00  0.00     0.176 C 
ATOM     25  C   UNL     1      -9.251 -17.295 -16.790  1.00  0.00     0.177 C 
BRANCH  21  26
ATOM     26  O   UNL     1     -10.260 -15.101 -18.833  1.00  0.00    -0.387 OA
ATOM     27  H   UNL     1     -10.656 -15.656 -19.550  1.00  0.00     0.211 HD
ENDBRANCH  21  26
BRANCH  23  28
ATOM     28  O   UNL     1      -9.723 -17.759 -19.125  1.00  0.00    -0.387 OA
ATOM     29  H   UNL     1      -9.159 -18.449 -19.563  1.00  0.00     0.211 HD
ENDBRANCH  23  28
BRANCH  24  30
ATOM     30  C   UNL     1      -8.843 -16.515 -14.400  1.00  0.00     0.191 C 
BRANCH  30  31
ATOM     31  O   UNL     1     -10.125 -16.008 -14.146  1.00  0.00    -0.394 OA
ATOM     32  H   UNL     1     -10.003 -15.099 -13.765  1.00  0.00     0.210 HD
ENDBRANCH  30  31
ENDBRANCH  24  30
BRANCH  25  33
ATOM     33  O   UNL     1     -10.639 -17.145 -16.611  1.00  0.00    -0.388 OA
ATOM     34  H   UNL     1     -10.883 -16.240 -16.939  1.00  0.00     0.211 HD
ENDBRANCH  25  33
ENDBRANCH  11  20
BRANCH  10  35
ATOM     35  O   UNL     1      -6.222 -13.235 -19.125  1.00  0.00    -0.507 OA
ATOM     36  H   UNL     1      -5.397 -12.755 -19.463  1.00  0.00     0.293 HD
ENDBRANCH  10  35
TORSDOF 9
ENDMDL
MODEL 6
REMARK VINA RESULT:    -5.349      1.765      2.819
REMARK INTER + INTRA:          -8.028
REMARK INTER:                  -7.436
REMARK INTRA:                  -0.592
REMARK UNBOUND:                -0.803
REMARK SMILES O=c1c(-c2ccc(O)cc2)coc2c([C@H]3O[C@@H](CO)[C@@H](O)[C@@H](O)[C@H]3O)c(O)ccc12
REMARK SMILES IDX 3 1 11 2 12 3 13 4 30 5 2 6 1 7 29 8 28 9 26 10 14 11 4 12
REMARK SMILES IDX 5 13 6 14 7 15 10 16 9 17 8 18 15 20 24 21 16 22 22 23 17 24
REMARK SMILES IDX 20 25 25 26 23 28 18 30 19 31 21 33 27 35
REMARK H PARENT 8 19 25 27 23 29 19 32 21 34 27 36
REMARK Flexibility Score: inf
ROOT
ATOM      1  C   UNL     1      -9.399 -19.784  -7.087  1.00  0.00     0.065 A 
ATOM      2  C   UNL     1      -8.664 -20.979  -7.100  1.00  0.00     0.208 A 
ATOM      3  O   UNL     1      -7.337 -20.963  -7.123  1.00  0.00    -0.463 OA
ATOM      4  C   UNL     1      -6.621 -19.841  -7.135  1.00  0.00     0.147 A 
ATOM      5  C   UNL     1      -7.282 -18.589  -7.124  1.00  0.00     0.066 A 
ATOM      6  C   UNL     1      -8.689 -18.570  -7.108  1.00  0.00     0.200 A 
ATOM      7  O   UNL     1      -9.310 -17.472  -7.131  1.00  0.00    -0.288 OA
ATOM      8  C   UNL     1      -6.526 -17.407  -7.127  1.00  0.00     0.020 A 
ATOM      9  C   UNL     1      -5.136 -17.465  -7.126  1.00  0.00     0.047 A 
ATOM     10  C   UNL     1      -4.469 -18.696  -7.133  1.00  0.00     0.125 A 
ATOM     11  C   UNL     1      -5.208 -19.904  -7.160  1.00  0.00     0.069 A 
ENDROOT
BRANCH   1  12
ATOM     12  C   UNL     1     -10.882 -19.828  -7.055  1.00  0.00    -0.011 A 
ATOM     13  C   UNL     1     -11.568 -19.759  -5.830  1.00  0.00     0.013 A 
ATOM     14  C   UNL     1     -12.965 -19.792  -5.798  1.00  0.00     0.047 A 
ATOM     15  C   UNL     1     -13.694 -19.888  -6.987  1.00  0.00     0.115 A 
ATOM     16  C   UNL     1     -11.621 -19.918  -8.248  1.00  0.00     0.013 A 
ATOM     17  C   UNL     1     -13.019 -19.950  -8.213  1.00  0.00     0.047 A 
BRANCH  15  18
ATOM     18  O   UNL     1     -15.086 -19.920  -6.940  1.00  0.00    -0.508 OA
ATOM     19  H   UNL     1     -15.602 -19.458  -6.200  1.00  0.00     0.293 HD
ENDBRANCH  15  18
ENDBRANCH   1  12
BRANCH  11  20
ATOM     20  C   UNL     1      -4.521 -21.267  -7.142  1.00  0.00     0.188 C 
ATOM     21  C   UNL     1      -4.259 -21.768  -8.586  1.00  0.00     0.179 C 
ATOM     22  O   UNL     1      -5.286 -22.209  -6.406  1.00  0.00    -0.362 OA
ATOM     23  C   UNL     1      -3.612 -23.170  -8.559  1.00  0.00     0.177 C 
ATOM     24  C   UNL     1      -4.560 -23.415  -6.230  1.00  0.00     0.176 C 
ATOM     25  C   UNL     1      -4.339 -24.124  -7.588  1.00  0.00     0.177 C 
BRANCH  21  26
ATOM     26  O   UNL     1      -5.425 -21.751  -9.376  1.00  0.00    -0.387 OA
ATOM     27  H   UNL     1      -5.408 -22.543  -9.971  1.00  0.00     0.211 HD
ENDBRANCH  21  26
BRANCH  23  28
ATOM     28  O   UNL     1      -3.585 -23.708  -9.857  1.00  0.00    -0.387 OA
ATOM     29  H   UNL     1      -4.387 -24.287  -9.942  1.00  0.00     0.211 HD
ENDBRANCH  23  28
BRANCH  24  30
ATOM     30  C   UNL     1      -5.318 -24.316  -5.245  1.00  0.00     0.191 C 
BRANCH  30  31
ATOM     31  O   UNL     1      -6.667 -24.416  -5.612  1.00  0.00    -0.394 OA
ATOM     32  H   UNL     1      -6.942 -23.519  -5.939  1.00  0.00     0.210 HD
ENDBRANCH  30  31
ENDBRANCH  24  30
BRANCH  25  33
ATOM     33  O   UNL     1      -5.566 -24.530  -8.144  1.00  0.00    -0.388 OA
ATOM     34  H   UNL     1      -6.276 -24.302  -7.488  1.00  0.00     0.211 HD
ENDBRANCH  25  33
ENDBRANCH  11  20
BRANCH  10  35
ATOM     35  O   UNL     1      -3.074 -18.712  -7.108  1.00  0.00    -0.507 OA
ATOM     36  H   UNL     1      -2.550 -18.308  -6.340  1.00  0.00     0.293 HD
ENDBRANCH  10  35
TORSDOF 9
ENDMDL
MODEL 7
REMARK VINA RESULT:    -5.194      2.305      3.807
REMARK INTER + INTRA:          -7.819
REMARK INTER:                  -7.813
REMARK INTRA:                  -0.006
REMARK UNBOUND:                -0.803
REMARK SMILES O=c1c(-c2ccc(O)cc2)coc2c([C@H]3O[C@@H](CO)[C@@H](O)[C@@H](O)[C@H]3O)c(O)ccc12
REMARK SMILES IDX 3 1 11 2 12 3 13 4 30 5 2 6 1 7 29 8 28 9 26 10 14 11 4 12
REMARK SMILES IDX 5 13 6 14 7 15 10 16 9 17 8 18 15 20 24 21 16 22 22 23 17 24
REMARK SMILES IDX 20 25 25 26 23 28 18 30 19 31 21 33 27 35
REMARK H PARENT 8 19 25 27 23 29 19 32 21 34 27 36
REMARK Flexibility Score: inf
ROOT
ATOM      1  C   UNL     1      -7.476 -20.590  -7.126  1.00  0.00     0.065 A 
ATOM      2  C   UNL     1      -6.999 -21.331  -6.035  1.00  0.00     0.208 A 
ATOM      3  O   UNL     1      -5.874 -22.028  -6.124  1.00  0.00    -0.463 OA
ATOM      4  C   UNL     1      -5.132 -22.077  -7.228  1.00  0.00     0.147 A 
ATOM      5  C   UNL     1      -5.539 -21.359  -8.377  1.00  0.00     0.066 A 
ATOM      6  C   UNL     1      -6.732 -20.615  -8.319  1.00  0.00     0.200 A 
ATOM      7  O   UNL     1      -7.141 -19.990  -9.336  1.00  0.00    -0.288 OA
ATOM      8  C   UNL     1      -4.750 -21.402  -9.536  1.00  0.00     0.020 A 
ATOM      9  C   UNL     1      -3.567 -22.135  -9.552  1.00  0.00     0.047 A 
ATOM     10  C   UNL     1      -3.150 -22.847  -8.421  1.00  0.00     0.125 A 
ATOM     11  C   UNL     1      -3.942 -22.844  -7.247  1.00  0.00     0.069 A 
ENDROOT
BRANCH   1  12
ATOM     12  C   UNL     1      -8.735 -19.813  -7.000  1.00  0.00    -0.011 A 
ATOM     13  C   UNL     1      -9.869 -20.391  -6.402  1.00  0.00     0.013 A 
ATOM     14  C   UNL     1     -11.053 -19.659  -6.275  1.00  0.00     0.047 A 
ATOM     15  C   UNL     1     -11.118 -18.341  -6.735  1.00  0.00     0.115 A 
ATOM     16  C   UNL     1      -8.805 -18.484  -7.455  1.00  0.00     0.013 A 
ATOM     17  C   UNL     1      -9.990 -17.754  -7.325  1.00  0.00     0.047 A 
BRANCH  15  18
ATOM     18  O   UNL     1     -12.304 -17.623  -6.601  1.00  0.00    -0.508 OA
ATOM     19  H   UNL     1     -12.319 -16.611  -6.649  1.00  0.00     0.293 HD
ENDBRANCH  15  18
ENDBRANCH   1  12
BRANCH  11  20
ATOM     20  C   UNL     1      -3.512 -23.585  -5.984  1.00  0.00     0.188 C 
ATOM     21  C   UNL     1      -4.011 -25.053  -6.012  1.00  0.00     0.179 C 
ATOM     22  O   UNL     1      -3.970 -22.912  -4.822  1.00  0.00    -0.362 OA
ATOM     23  C   UNL     1      -3.616 -25.780  -4.708  1.00  0.00     0.177 C 
ATOM     24  C   UNL     1      -3.411 -23.493  -3.654  1.00  0.00     0.176 C 
ATOM     25  C   UNL     1      -3.935 -24.936  -3.456  1.00  0.00     0.177 C 
BRANCH  21  26
ATOM     26  O   UNL     1      -5.396 -25.140  -6.254  1.00  0.00    -0.387 OA
ATOM     27  H   UNL     1      -5.734 -25.967  -5.828  1.00  0.00     0.211 HD
ENDBRANCH  21  26
BRANCH  23  28
ATOM     28  O   UNL     1      -4.260 -27.027  -4.644  1.00  0.00    -0.387 OA
ATOM     29  H   UNL     1      -3.895 -27.496  -3.848  1.00  0.00     0.211 HD
ENDBRANCH  23  28
BRANCH  24  30
ATOM     30  C   UNL     1      -3.744 -22.606  -2.446  1.00  0.00     0.191 C 
BRANCH  30  31
ATOM     31  O   UNL     1      -4.110 -21.321  -2.869  1.00  0.00    -0.394 OA
ATOM     32  H   UNL     1      -4.957 -21.418  -3.379  1.00  0.00     0.210 HD
ENDBRANCH  30  31
ENDBRANCH  24  30
BRANCH  25  33
ATOM     33  O   UNL     1      -5.322 -24.935  -3.219  1.00  0.00    -0.388 OA
ATOM     34  H   UNL     1      -5.452 -24.910  -2.234  1.00  0.00     0.211 HD
ENDBRANCH  25  33
ENDBRANCH  11  20
BRANCH  10  35
ATOM     35  O   UNL     1      -1.945 -23.550  -8.468  1.00  0.00    -0.507 OA
ATOM     36  H   UNL     1      -1.476 -23.745  -9.344  1.00  0.00     0.293 HD
ENDBRANCH  10  35
TORSDOF 9
ENDMDL
MODEL 8
REMARK VINA RESULT:    -5.109     11.385     13.635
REMARK INTER + INTRA:          -7.704
REMARK INTER:                  -7.584
REMARK INTRA:                  -0.121
REMARK UNBOUND:                -0.803
REMARK SMILES O=c1c(-c2ccc(O)cc2)coc2c([C@H]3O[C@@H](CO)[C@@H](O)[C@@H](O)[C@H]3O)c(O)ccc12
REMARK SMILES IDX 3 1 11 2 12 3 13 4 30 5 2 6 1 7 29 8 28 9 26 10 14 11 4 12
REMARK SMILES IDX 5 13 6 14 7 15 10 16 9 17 8 18 15 20 24 21 16 22 22 23 17 24
REMARK SMILES IDX 20 25 25 26 23 28 18 30 19 31 21 33 27 35
REMARK H PARENT 8 19 25 27 23 29 19 32 21 34 27 36
REMARK Flexibility Score: inf
ROOT
ATOM      1  C   UNL     1     -11.469 -10.656 -16.416  1.00  0.00     0.065 A 
ATOM      2  C   UNL     1     -11.569 -12.045 -16.242  1.00  0.00     0.208 A 
ATOM      3  O   UNL     1     -10.653 -12.862 -16.748  1.00  0.00    -0.463 OA
ATOM      4  C   UNL     1      -9.599 -12.437 -17.440  1.00  0.00     0.147 A 
ATOM      5  C   UNL     1      -9.421 -11.051 -17.664  1.00  0.00     0.066 A 
ATOM      6  C   UNL     1     -10.378 -10.157 -17.149  1.00  0.00     0.200 A 
ATOM      7  O   UNL     1     -10.267  -8.918 -17.358  1.00  0.00    -0.288 OA
ATOM      8  C   UNL     1      -8.304 -10.603 -18.385  1.00  0.00     0.020 A 
ATOM      9  C   UNL     1      -7.369 -11.516 -18.866  1.00  0.00     0.047 A 
ATOM     10  C   UNL     1      -7.530 -12.889 -18.648  1.00  0.00     0.125 A 
ATOM     11  C   UNL     1      -8.664 -13.370 -17.949  1.00  0.00     0.069 A 
ENDROOT
BRANCH   1  12
ATOM     12  C   UNL     1     -12.503  -9.763 -15.836  1.00  0.00    -0.011 A 
ATOM     13  C   UNL     1     -13.503  -9.209 -16.655  1.00  0.00     0.013 A 
ATOM     14  C   UNL     1     -14.482  -8.373 -16.110  1.00  0.00     0.047 A 
ATOM     15  C   UNL     1     -14.479  -8.086 -14.742  1.00  0.00     0.115 A 
ATOM     16  C   UNL     1     -12.510  -9.474 -14.460  1.00  0.00     0.013 A 
ATOM     17  C   UNL     1     -13.492  -8.639 -13.917  1.00  0.00     0.047 A 
BRANCH  15  18
ATOM     18  O   UNL     1     -15.462  -7.251 -14.213  1.00  0.00    -0.508 OA
ATOM     19  H   UNL     1     -15.879  -6.509 -14.762  1.00  0.00     0.293 HD
ENDBRANCH  15  18
ENDBRANCH   1  12
BRANCH  11  20
ATOM     20  C   UNL     1      -8.865 -14.856 -17.668  1.00  0.00     0.188 C 
ATOM     21  C   UNL     1      -9.414 -15.075 -16.233  1.00  0.00     0.179 C 
ATOM     22  O   UNL     1      -7.658 -15.576 -17.867  1.00  0.00    -0.362 OA
ATOM     23  C   UNL     1      -9.565 -16.583 -15.939  1.00  0.00     0.177 C 
ATOM     24  C   UNL     1      -7.891 -16.974 -17.790  1.00  0.00     0.176 C 
ATOM     25  C   UNL     1      -8.312 -17.381 -16.359  1.00  0.00     0.177 C 
BRANCH  21  26
ATOM     26  O   UNL     1      -8.627 -14.433 -15.258  1.00  0.00    -0.387 OA
ATOM     27  H   UNL     1      -9.232 -13.996 -14.608  1.00  0.00     0.211 HD
ENDBRANCH  21  26
BRANCH  23  28
ATOM     28  O   UNL     1      -9.844 -16.777 -14.576  1.00  0.00    -0.387 OA
ATOM     29  H   UNL     1      -9.081 -17.287 -14.198  1.00  0.00     0.211 HD
ENDBRANCH  23  28
BRANCH  24  30
ATOM     30  C   UNL     1      -6.622 -17.717 -18.233  1.00  0.00     0.191 C 
BRANCH  30  31
ATOM     31  O   UNL     1      -5.481 -17.090 -17.712  1.00  0.00    -0.394 OA
ATOM     32  H   UNL     1      -5.459 -16.174 -18.093  1.00  0.00     0.210 HD
ENDBRANCH  30  31
ENDBRANCH  24  30
BRANCH  25  33
ATOM     33  O   UNL     1      -7.267 -17.149 -15.445  1.00  0.00    -0.388 OA
ATOM     34  H   UNL     1      -7.673 -16.766 -14.624  1.00  0.00     0.211 HD
ENDBRANCH  25  33
ENDBRANCH  11  20
BRANCH  10  35
ATOM     35  O   UNL     1      -6.559 -13.770 -19.125  1.00  0.00    -0.507 OA
ATOM     36  H   UNL     1      -6.806 -14.633 -19.596  1.00  0.00     0.293 HD
ENDBRANCH  10  35
TORSDOF 9
ENDMDL
