MODEL 1
REMARK VINA RESULT:    -5.252      0.000      0.000
REMARK INTER + INTRA:         -11.387
REMARK INTER:                  -9.550
REMARK INTRA:                  -1.836
REMARK UNBOUND:                -1.836
REMARK SMILES CCCCCCCCCCCCCCCC(=O)[O-]
REMARK SMILES IDX 9 1 10 2 11 3 12 4 13 5 14 6 15 7 16 8 17 9 18 10 8 11 7 12
REMARK SMILES IDX 6 13 5 14 4 15 3 16 2 17 1 18
REMARK H PARENT
REMARK Flexibility Score: inf
ROOT
ATOM      1  C   UNL     1       4.868   7.448   9.619  1.00  0.00     0.000 C 
ENDROOT
BRANCH   1   2
ATOM      2  C   UNL     1       3.979   6.856  10.727  1.00  0.00     0.000 C 
BRANCH   2   3
ATOM      3  C   UNL     1       3.349   7.939  11.619  1.00  0.00     0.000 C 
BRANCH   3   4
ATOM      4  C   UNL     1       3.700   7.764  13.104  1.00  0.00     0.000 C 
BRANCH   4   5
ATOM      5  C   UNL     1       5.220   7.672  13.302  1.00  0.00     0.000 C 
BRANCH   5   6
ATOM      6  C   UNL     1       5.674   6.291  13.809  1.00  0.00     0.006 C 
BRANCH   6   7
ATOM      7  C   UNL     1       6.177   6.283  15.262  1.00  0.00     0.053 C 
BRANCH   7   8
ATOM      8  C   UNL     1       5.052   6.353  16.248  1.00  0.00     0.041 C 
ATOM      9  O   UNL     1       4.483   5.298  16.636  1.00  0.00    -0.550 OA
ATOM     10  O   UNL     1       4.655   7.579  16.765  1.00  0.00    -0.550 OA
ENDBRANCH   7   8
ENDBRANCH   6   7
ENDBRANCH   5   6
ENDBRANCH   4   5
ENDBRANCH   3   4
ENDBRANCH   2   3
ENDBRANCH   1   2
BRANCH   1  11
ATOM     11  C   UNL     1       4.444   8.872   9.223  1.00  0.00     0.000 C 
BRANCH  11  12
ATOM     12  C   UNL     1       5.624   9.861   9.208  1.00  0.00    -0.000 C 
BRANCH  12  13
ATOM     13  C   UNL     1       6.330   9.953  10.570  1.00  0.00    -0.000 C 
BRANCH  13  14
ATOM     14  C   UNL     1       7.837   9.652  10.473  1.00  0.00    -0.000 C 
BRANCH  14  15
ATOM     15  C   UNL     1       8.285   8.531  11.427  1.00  0.00    -0.000 C 
BRANCH  15  16
ATOM     16  C   UNL     1       7.920   7.107  10.969  1.00  0.00    -0.000 C 
BRANCH  16  17
ATOM     17  C   UNL     1       9.074   6.109  11.140  1.00  0.00    -0.003 C 
ATOM     18  C   UNL     1       9.616   5.658   9.787  1.00  0.00     0.004 C 
ENDBRANCH  16  17
ENDBRANCH  15  16
ENDBRANCH  14  15
ENDBRANCH  13  14
ENDBRANCH  12  13
ENDBRANCH  11  12
ENDBRANCH   1  11
TORSDOF 14
ENDMDL
MODEL 2
REMARK VINA RESULT:    -5.252      1.257      1.575
REMARK INTER + INTRA:         -11.386
REMARK INTER:                  -9.286
REMARK INTRA:                  -2.100
REMARK UNBOUND:                -1.836
REMARK SMILES CCCCCCCCCCCCCCCC(=O)[O-]
REMARK SMILES IDX 9 1 10 2 11 3 12 4 13 5 14 6 15 7 16 8 17 9 18 10 8 11 7 12
REMARK SMILES IDX 6 13 5 14 4 15 3 16 2 17 1 18
REMARK H PARENT
REMARK Flexibility Score: inf
ROOT
ATOM      1  C   UNL     1       4.481   7.315   9.998  1.00  0.00     0.000 C 
ENDROOT
BRANCH   1   2
ATOM      2  C   UNL     1       3.219   6.932  10.790  1.00  0.00     0.000 C 
BRANCH   2   3
ATOM      3  C   UNL     1       2.387   8.158  11.203  1.00  0.00     0.000 C 
BRANCH   3   4
ATOM      4  C   UNL     1       2.946   8.864  12.448  1.00  0.00     0.000 C 
BRANCH   4   5
ATOM      5  C   UNL     1       3.354   7.843  13.520  1.00  0.00     0.000 C 
BRANCH   5   6
ATOM      6  C   UNL     1       4.862   7.868  13.826  1.00  0.00     0.006 C 
BRANCH   6   7
ATOM      7  C   UNL     1       5.577   6.526  13.597  1.00  0.00     0.053 C 
BRANCH   7   8
ATOM      8  C   UNL     1       6.604   6.248  14.651  1.00  0.00     0.041 C 
ATOM      9  O   UNL     1       6.308   6.359  15.870  1.00  0.00    -0.550 OA
ATOM     10  O   UNL     1       7.879   5.833  14.287  1.00  0.00    -0.550 OA
ENDBRANCH   7   8
ENDBRANCH   6   7
ENDBRANCH   5   6
ENDBRANCH   4   5
ENDBRANCH   3   4
ENDBRANCH   2   3
ENDBRANCH   1   2
BRANCH   1  11
ATOM     11  C   UNL     1       4.305   8.620   9.205  1.00  0.00     0.000 C 
BRANCH  11  12
ATOM     12  C   UNL     1       5.526   9.552   9.315  1.00  0.00    -0.000 C 
BRANCH  12  13
ATOM     13  C   UNL     1       6.091   9.613  10.743  1.00  0.00    -0.000 C 
BRANCH  13  14
ATOM     14  C   UNL     1       7.626   9.497  10.773  1.00  0.00    -0.000 C 
BRANCH  14  15
ATOM     15  C   UNL     1       8.116   8.249  11.528  1.00  0.00    -0.000 C 
BRANCH  15  16
ATOM     16  C   UNL     1       8.003   6.930  10.742  1.00  0.00    -0.000 C 
BRANCH  16  17
ATOM     17  C   UNL     1       9.213   6.008  10.944  1.00  0.00    -0.003 C 
ATOM     18  C   UNL     1       9.747   5.499   9.608  1.00  0.00     0.004 C 
ENDBRANCH  16  17
ENDBRANCH  15  16
ENDBRANCH  14  15
ENDBRANCH  13  14
ENDBRANCH  12  13
ENDBRANCH  11  12
ENDBRANCH   1  11
TORSDOF 14
ENDMDL
MODEL 3
REMARK VINA RESULT:    -5.200      2.831      5.002
REMARK INTER + INTRA:         -11.293
REMARK INTER:                  -9.230
REMARK INTRA:                  -2.063
REMARK UNBOUND:                -1.836
REMARK SMILES CCCCCCCCCCCCCCCC(=O)[O-]
REMARK SMILES IDX 9 1 10 2 11 3 12 4 13 5 14 6 15 7 16 8 17 9 18 10 8 11 7 12
REMARK SMILES IDX 6 13 5 14 4 15 3 16 2 17 1 18
REMARK H PARENT
REMARK Flexibility Score: inf
ROOT
ATOM      1  C   UNL     1       4.635   7.713   9.409  1.00  0.00     0.000 C 
ENDROOT
BRANCH   1   2
ATOM      2  C   UNL     1       4.843   9.227   9.226  1.00  0.00     0.000 C 
BRANCH   2   3
ATOM      3  C   UNL     1       5.735   9.836  10.321  1.00  0.00     0.000 C 
BRANCH   3   4
ATOM      4  C   UNL     1       7.231   9.747   9.986  1.00  0.00     0.000 C 
BRANCH   4   5
ATOM      5  C   UNL     1       8.026   9.179  11.171  1.00  0.00     0.000 C 
BRANCH   5   6
ATOM      6  C   UNL     1       7.664   7.717  11.488  1.00  0.00     0.006 C 
BRANCH   6   7
ATOM      7  C   UNL     1       7.908   6.738  10.327  1.00  0.00     0.053 C 
BRANCH   7   8
ATOM      8  C   UNL     1       9.149   5.925  10.527  1.00  0.00     0.041 C 
ATOM      9  O   UNL     1       9.442   5.485  11.671  1.00  0.00    -0.550 OA
ATOM     10  O   UNL     1       9.965   5.623   9.444  1.00  0.00    -0.550 OA
ENDBRANCH   7   8
ENDBRANCH   6   7
ENDBRANCH   5   6
ENDBRANCH   4   5
ENDBRANCH   3   4
ENDBRANCH   2   3
ENDBRANCH   1   2
BRANCH   1  11
ATOM     11  C   UNL     1       3.424   7.388  10.299  1.00  0.00     0.000 C 
BRANCH  11  12
ATOM     12  C   UNL     1       3.831   6.864  11.688  1.00  0.00    -0.000 C 
BRANCH  12  13
ATOM     13  C   UNL     1       3.586   7.896  12.800  1.00  0.00    -0.000 C 
BRANCH  13  14
ATOM     14  C   UNL     1       4.764   7.989  13.787  1.00  0.00    -0.000 C 
BRANCH  14  15
ATOM     15  C   UNL     1       4.465   7.316  15.139  1.00  0.00    -0.000 C 
BRANCH  15  16
ATOM     16  C   UNL     1       5.307   6.063  15.439  1.00  0.00    -0.000 C 
BRANCH  16  17
ATOM     17  C   UNL     1       6.272   5.704  14.301  1.00  0.00    -0.003 C 
ATOM     18  C   UNL     1       7.720   5.980  14.699  1.00  0.00     0.004 C 
ENDBRANCH  16  17
ENDBRANCH  15  16
ENDBRANCH  14  15
ENDBRANCH  13  14
ENDBRANCH  12  13
ENDBRANCH  11  12
ENDBRANCH   1  11
TORSDOF 14
ENDMDL
MODEL 4
REMARK VINA RESULT:    -5.158      2.741      5.476
REMARK INTER + INTRA:         -11.215
REMARK INTER:                  -9.413
REMARK INTRA:                  -1.802
REMARK UNBOUND:                -1.836
REMARK SMILES CCCCCCCCCCCCCCCC(=O)[O-]
REMARK SMILES IDX 9 1 10 2 11 3 12 4 13 5 14 6 15 7 16 8 17 9 18 10 8 11 7 12
REMARK SMILES IDX 6 13 5 14 4 15 3 16 2 17 1 18
REMARK H PARENT
REMARK Flexibility Score: inf
ROOT
ATOM      1  C   UNL     1       4.689   7.437  10.011  1.00  0.00     0.000 C 
ENDROOT
BRANCH   1   2
ATOM      2  C   UNL     1       4.204   8.874   9.754  1.00  0.00     0.000 C 
BRANCH   2   3
ATOM      3  C   UNL     1       5.329   9.912   9.903  1.00  0.00     0.000 C 
BRANCH   3   4
ATOM      4  C   UNL     1       6.716   9.334   9.582  1.00  0.00     0.000 C 
BRANCH   4   5
ATOM      5  C   UNL     1       7.693   9.579  10.741  1.00  0.00     0.000 C 
BRANCH   5   6
ATOM      6  C   UNL     1       8.214   8.274  11.370  1.00  0.00     0.006 C 
BRANCH   6   7
ATOM      7  C   UNL     1       7.961   7.016  10.522  1.00  0.00     0.053 C 
BRANCH   7   8
ATOM      8  C   UNL     1       9.087   6.035  10.621  1.00  0.00     0.041 C 
ATOM      9  O   UNL     1       9.802   5.786   9.614  1.00  0.00    -0.550 OA
ATOM     10  O   UNL     1       9.370   5.420  11.835  1.00  0.00    -0.550 OA
ENDBRANCH   7   8
ENDBRANCH   6   7
ENDBRANCH   5   6
ENDBRANCH   4   5
ENDBRANCH   3   4
ENDBRANCH   2   3
ENDBRANCH   1   2
BRANCH   1  11
ATOM     11  C   UNL     1       3.934   6.758  11.165  1.00  0.00     0.000 C 
BRANCH  11  12
ATOM     12  C   UNL     1       3.750   7.684  12.381  1.00  0.00    -0.000 C 
BRANCH  12  13
ATOM     13  C   UNL     1       5.005   7.750  13.265  1.00  0.00    -0.000 C 
BRANCH  13  14
ATOM     14  C   UNL     1       5.695   6.381  13.409  1.00  0.00    -0.000 C 
BRANCH  14  15
ATOM     15  C   UNL     1       5.783   5.907  14.871  1.00  0.00    -0.000 C 
BRANCH  15  16
ATOM     16  C   UNL     1       5.118   6.844  15.896  1.00  0.00    -0.000 C 
BRANCH  16  17
ATOM     17  C   UNL     1       3.816   6.272  16.472  1.00  0.00    -0.003 C 
ATOM     18  C   UNL     1       4.064   4.943  17.179  1.00  0.00     0.004 C 
ENDBRANCH  16  17
ENDBRANCH  15  16
ENDBRANCH  14  15
ENDBRANCH  13  14
ENDBRANCH  12  13
ENDBRANCH  11  12
ENDBRANCH   1  11
TORSDOF 14
ENDMDL
MODEL 5
REMARK VINA RESULT:    -5.115      1.345      3.647
REMARK INTER + INTRA:         -11.138
REMARK INTER:                  -9.082
REMARK INTRA:                  -2.056
REMARK UNBOUND:                -1.836
REMARK SMILES CCCCCCCCCCCCCCCC(=O)[O-]
REMARK SMILES IDX 9 1 10 2 11 3 12 4 13 5 14 6 15 7 16 8 17 9 18 10 8 11 7 12
REMARK SMILES IDX 6 13 5 14 4 15 3 16 2 17 1 18
REMARK H PARENT
REMARK Flexibility Score: inf
ROOT
ATOM      1  C   UNL     1       8.307   7.730  10.725  1.00  0.00     0.000 C 
ENDROOT
BRANCH   1   2
ATOM      2  C   UNL     1       7.811   6.678  11.732  1.00  0.00     0.000 C 
BRANCH   2   3
ATOM      3  C   UNL     1       7.377   7.302  13.070  1.00  0.00     0.000 C 
BRANCH   3   4
ATOM      4  C   UNL     1       7.508   6.327  14.250  1.00  0.00     0.000 C 
BRANCH   4   5
ATOM      5  C   UNL     1       6.131   5.809  14.689  1.00  0.00     0.000 C 
BRANCH   5   6
ATOM      6  C   UNL     1       5.692   6.361  16.057  1.00  0.00     0.006 C 
BRANCH   6   7
ATOM      7  C   UNL     1       4.186   6.653  16.171  1.00  0.00     0.053 C 
BRANCH   7   8
ATOM      8  C   UNL     1       3.916   7.972  16.825  1.00  0.00     0.041 C 
ATOM      9  O   UNL     1       3.132   8.042  17.809  1.00  0.00    -0.550 OA
ATOM     10  O   UNL     1       4.557   9.118  16.372  1.00  0.00    -0.550 OA
ENDBRANCH   7   8
ENDBRANCH   6   7
ENDBRANCH   5   6
ENDBRANCH   4   5
ENDBRANCH   3   4
ENDBRANCH   2   3
ENDBRANCH   1   2
BRANCH   1  11
ATOM     11  C   UNL     1       8.190   9.165  11.265  1.00  0.00     0.000 C 
BRANCH  11  12
ATOM     12  C   UNL     1       7.385  10.087  10.332  1.00  0.00    -0.000 C 
BRANCH  12  13
ATOM     13  C   UNL     1       5.867   9.914  10.502  1.00  0.00    -0.000 C 
BRANCH  13  14
ATOM     14  C   UNL     1       5.200   9.310   9.253  1.00  0.00    -0.000 C 
BRANCH  14  15
ATOM     15  C   UNL     1       4.939   7.799   9.387  1.00  0.00    -0.000 C 
BRANCH  15  16
ATOM     16  C   UNL     1       3.694   7.428  10.213  1.00  0.00    -0.000 C 
BRANCH  16  17
ATOM     17  C   UNL     1       4.042   6.847  11.591  1.00  0.00    -0.003 C 
ATOM     18  C   UNL     1       3.703   7.833  12.705  1.00  0.00     0.004 C 
ENDBRANCH  16  17
ENDBRANCH  15  16
ENDBRANCH  14  15
ENDBRANCH  13  14
ENDBRANCH  12  13
ENDBRANCH  11  12
ENDBRANCH   1  11
TORSDOF 14
ENDMDL
MODEL 6
REMARK VINA RESULT:    -5.097      1.130      2.036
REMARK INTER + INTRA:         -11.106
REMARK INTER:                  -9.247
REMARK INTRA:                  -1.858
REMARK UNBOUND:                -1.836
REMARK SMILES CCCCCCCCCCCCCCCC(=O)[O-]
REMARK SMILES IDX 9 1 10 2 11 3 12 4 13 5 14 6 15 7 16 8 17 9 18 10 8 11 7 12
REMARK SMILES IDX 6 13 5 14 4 15 3 16 2 17 1 18
REMARK H PARENT
REMARK Flexibility Score: inf
ROOT
ATOM      1  C   UNL     1       3.940   6.750  11.270  1.00  0.00     0.000 C 
ENDROOT
BRANCH   1   2
ATOM      2  C   UNL     1       3.726   7.553  12.565  1.00  0.00     0.000 C 
BRANCH   2   3
ATOM      3  C   UNL     1       5.009   7.672  13.404  1.00  0.00     0.000 C 
BRANCH   3   4
ATOM      4  C   UNL     1       5.621   6.306  13.751  1.00  0.00     0.000 C 
BRANCH   4   5
ATOM      5  C   UNL     1       6.403   6.375  15.070  1.00  0.00     0.000 C 
BRANCH   5   6
ATOM      6  C   UNL     1       5.491   6.545  16.299  1.00  0.00     0.006 C 
BRANCH   6   7
ATOM      7  C   UNL     1       4.500   5.389  16.518  1.00  0.00     0.053 C 
BRANCH   7   8
ATOM      8  C   UNL     1       3.164   5.875  16.986  1.00  0.00     0.041 C 
ATOM      9  O   UNL     1       2.540   6.749  16.327  1.00  0.00    -0.550 OA
ATOM     10  O   UNL     1       2.591   5.337  18.132  1.00  0.00    -0.550 OA
ENDBRANCH   7   8
ENDBRANCH   6   7
ENDBRANCH   5   6
ENDBRANCH   4   5
ENDBRANCH   3   4
ENDBRANCH   2   3
ENDBRANCH   1   2
BRANCH   1  11
ATOM     11  C   UNL     1       3.711   7.597  10.007  1.00  0.00     0.000 C 
BRANCH  11  12
ATOM     12  C   UNL     1       5.022   7.946   9.280  1.00  0.00    -0.000 C 
BRANCH  12  13
ATOM     13  C   UNL     1       5.438   9.410   9.489  1.00  0.00    -0.000 C 
BRANCH  13  14
ATOM     14  C   UNL     1       6.527   9.564  10.567  1.00  0.00    -0.000 C 
BRANCH  14  15
ATOM     15  C   UNL     1       7.699   8.585  10.375  1.00  0.00    -0.000 C 
BRANCH  15  16
ATOM     16  C   UNL     1       8.250   7.972  11.675  1.00  0.00    -0.000 C 
BRANCH  16  17
ATOM     17  C   UNL     1       8.376   6.444  11.609  1.00  0.00    -0.003 C 
ATOM     18  C   UNL     1       9.000   6.000  10.288  1.00  0.00     0.004 C 
ENDBRANCH  16  17
ENDBRANCH  15  16
ENDBRANCH  14  15
ENDBRANCH  13  14
ENDBRANCH  12  13
ENDBRANCH  11  12
ENDBRANCH   1  11
TORSDOF 14
ENDMDL
MODEL 7
REMARK VINA RESULT:    -5.007      1.765      4.173
REMARK INTER + INTRA:         -10.941
REMARK INTER:                  -9.120
REMARK INTRA:                  -1.821
REMARK UNBOUND:                -1.836
REMARK SMILES CCCCCCCCCCCCCCCC(=O)[O-]
REMARK SMILES IDX 9 1 10 2 11 3 12 4 13 5 14 6 15 7 16 8 17 9 18 10 8 11 7 12
REMARK SMILES IDX 6 13 5 14 4 15 3 16 2 17 1 18
REMARK H PARENT
REMARK Flexibility Score: inf
ROOT
ATOM      1  C   UNL     1       7.963   6.382  13.075  1.00  0.00     0.000 C 
ENDROOT
BRANCH   1   2
ATOM      2  C   UNL     1       6.719   7.107  13.619  1.00  0.00     0.000 C 
BRANCH   2   3
ATOM      3  C   UNL     1       5.705   6.142  14.255  1.00  0.00     0.000 C 
BRANCH   3   4
ATOM      4  C   UNL     1       4.806   6.826  15.297  1.00  0.00     0.000 C 
BRANCH   4   5
ATOM      5  C   UNL     1       5.034   6.231  16.694  1.00  0.00     0.000 C 
BRANCH   5   6
ATOM      6  C   UNL     1       4.070   5.075  17.016  1.00  0.00     0.006 C 
BRANCH   6   7
ATOM      7  C   UNL     1       2.590   5.486  17.090  1.00  0.00     0.053 C 
BRANCH   7   8
ATOM      8  C   UNL     1       2.375   6.655  17.999  1.00  0.00     0.041 C 
ATOM      9  O   UNL     1       1.923   7.739  17.542  1.00  0.00    -0.550 OA
ATOM     10  O   UNL     1       2.640   6.538  19.358  1.00  0.00    -0.550 OA
ENDBRANCH   7   8
ENDBRANCH   6   7
ENDBRANCH   5   6
ENDBRANCH   4   5
ENDBRANCH   3   4
ENDBRANCH   2   3
ENDBRANCH   1   2
BRANCH   1  11
ATOM     11  C   UNL     1       8.255   6.735  11.608  1.00  0.00     0.000 C 
BRANCH  11  12
ATOM     12  C   UNL     1       8.116   8.240  11.319  1.00  0.00    -0.000 C 
BRANCH  12  13
ATOM     13  C   UNL     1       7.012   8.543  10.293  1.00  0.00    -0.000 C 
BRANCH  13  14
ATOM     14  C   UNL     1       6.229   7.283   9.884  1.00  0.00    -0.000 C 
BRANCH  14  15
ATOM     15  C   UNL     1       4.704   7.487   9.927  1.00  0.00    -0.000 C 
BRANCH  15  16
ATOM     16  C   UNL     1       3.978   6.716  11.045  1.00  0.00    -0.000 C 
BRANCH  16  17
ATOM     17  C   UNL     1       3.028   7.601  11.863  1.00  0.00    -0.003 C 
ATOM     18  C   UNL     1       3.722   8.883  12.315  1.00  0.00     0.004 C 
ENDBRANCH  16  17
ENDBRANCH  15  16
ENDBRANCH  14  15
ENDBRANCH  13  14
ENDBRANCH  12  13
ENDBRANCH  11  12
ENDBRANCH   1  11
TORSDOF 14
ENDMDL
MODEL 8
REMARK VINA RESULT:    -4.883      1.342      3.930
REMARK INTER + INTRA:         -10.716
REMARK INTER:                  -8.571
REMARK INTRA:                  -2.145
REMARK UNBOUND:                -1.836
REMARK SMILES CCCCCCCCCCCCCCCC(=O)[O-]
REMARK SMILES IDX 9 1 10 2 11 3 12 4 13 5 14 6 15 7 16 8 17 9 18 10 8 11 7 12
REMARK SMILES IDX 6 13 5 14 4 15 3 16 2 17 1 18
REMARK H PARENT
REMARK Flexibility Score: inf
ROOT
ATOM      1  C   UNL     1       7.730   7.128  13.311  1.00  0.00     0.000 C 
ENDROOT
BRANCH   1   2
ATOM      2  C   UNL     1       6.737   6.229  14.069  1.00  0.00     0.000 C 
BRANCH   2   3
ATOM      3  C   UNL     1       5.283   6.447  13.619  1.00  0.00     0.000 C 
BRANCH   3   4
ATOM      4  C   UNL     1       4.837   7.912  13.738  1.00  0.00     0.000 C 
BRANCH   4   5
ATOM      5  C   UNL     1       3.659   8.051  14.713  1.00  0.00     0.000 C 
BRANCH   5   6
ATOM      6  C   UNL     1       4.109   8.349  16.155  1.00  0.00     0.006 C 
BRANCH   6   7
ATOM      7  C   UNL     1       3.620   7.327  17.196  1.00  0.00     0.053 C 
BRANCH   7   8
ATOM      8  C   UNL     1       4.408   6.055  17.148  1.00  0.00     0.041 C 
ATOM      9  O   UNL     1       5.634   6.057  17.439  1.00  0.00    -0.550 OA
ATOM     10  O   UNL     1       3.781   4.860  16.817  1.00  0.00    -0.550 OA
ENDBRANCH   7   8
ENDBRANCH   6   7
ENDBRANCH   5   6
ENDBRANCH   4   5
ENDBRANCH   3   4
ENDBRANCH   2   3
ENDBRANCH   1   2
BRANCH   1  11
ATOM     11  C   UNL     1       8.500   6.366  12.220  1.00  0.00     0.000 C 
BRANCH  11  12
ATOM     12  C   UNL     1       8.085   6.784  10.798  1.00  0.00    -0.000 C 
BRANCH  12  13
ATOM     13  C   UNL     1       7.831   8.295  10.681  1.00  0.00    -0.000 C 
BRANCH  13  14
ATOM     14  C   UNL     1       6.460   8.615  10.059  1.00  0.00    -0.000 C 
BRANCH  14  15
ATOM     15  C   UNL     1       5.544   7.381   9.967  1.00  0.00    -0.000 C 
BRANCH  15  16
ATOM     16  C   UNL     1       4.038   7.695   9.923  1.00  0.00    -0.000 C 
BRANCH  16  17
ATOM     17  C   UNL     1       3.195   6.697  10.730  1.00  0.00    -0.003 C 
ATOM     18  C   UNL     1       1.877   7.324  11.176  1.00  0.00     0.004 C 
ENDBRANCH  16  17
ENDBRANCH  15  16
ENDBRANCH  14  15
ENDBRANCH  13  14
ENDBRANCH  12  13
ENDBRANCH  11  12
ENDBRANCH   1  11
TORSDOF 14
ENDMDL
MODEL 9
REMARK VINA RESULT:    -4.854      2.637      6.685
REMARK INTER + INTRA:         -10.664
REMARK INTER:                  -9.213
REMARK INTRA:                  -1.451
REMARK UNBOUND:                -1.836
REMARK SMILES CCCCCCCCCCCCCCCC(=O)[O-]
REMARK SMILES IDX 9 1 10 2 11 3 12 4 13 5 14 6 15 7 16 8 17 9 18 10 8 11 7 12
REMARK SMILES IDX 6 13 5 14 4 15 3 16 2 17 1 18
REMARK H PARENT
REMARK Flexibility Score: inf
ROOT
ATOM      1  C   UNL     1       7.755   6.133  14.132  1.00  0.00     0.000 C 
ENDROOT
BRANCH   1   2
ATOM      2  C   UNL     1       7.718   7.072  12.913  1.00  0.00     0.000 C 
BRANCH   2   3
ATOM      3  C   UNL     1       8.365   6.445  11.667  1.00  0.00     0.000 C 
BRANCH   3   4
ATOM      4  C   UNL     1       7.588   6.749  10.377  1.00  0.00     0.000 C 
BRANCH   4   5
ATOM      5  C   UNL     1       6.461   7.759  10.640  1.00  0.00     0.000 C 
BRANCH   5   6
ATOM      6  C   UNL     1       5.135   7.367   9.964  1.00  0.00     0.006 C 
BRANCH   6   7
ATOM      7  C   UNL     1       4.105   6.727  10.910  1.00  0.00     0.053 C 
BRANCH   7   8
ATOM      8  C   UNL     1       2.982   7.662  11.234  1.00  0.00     0.041 C 
ATOM      9  O   UNL     1       1.875   7.553  10.643  1.00  0.00    -0.550 OA
ATOM     10  O   UNL     1       3.146   8.633  12.215  1.00  0.00    -0.550 OA
ENDBRANCH   7   8
ENDBRANCH   6   7
ENDBRANCH   5   6
ENDBRANCH   4   5
ENDBRANCH   3   4
ENDBRANCH   2   3
ENDBRANCH   1   2
BRANCH   1  11
ATOM     11  C   UNL     1       6.364   5.591  14.500  1.00  0.00     0.000 C 
BRANCH  11  12
ATOM     12  C   UNL     1       5.250   6.636  14.311  1.00  0.00    -0.000 C 
BRANCH  12  13
ATOM     13  C   UNL     1       4.559   7.004  15.634  1.00  0.00    -0.000 C 
BRANCH  13  14
ATOM     14  C   UNL     1       4.936   6.049  16.780  1.00  0.00    -0.000 C 
BRANCH  14  15
ATOM     15  C   UNL     1       3.841   5.009  17.076  1.00  0.00    -0.000 C 
BRANCH  15  16
ATOM     16  C   UNL     1       2.498   5.599  17.546  1.00  0.00    -0.000 C 
BRANCH  16  17
ATOM     17  C   UNL     1       2.613   6.372  18.866  1.00  0.00    -0.003 C 
ATOM     18  C   UNL     1       2.437   7.871  18.643  1.00  0.00     0.004 C 
ENDBRANCH  16  17
ENDBRANCH  15  16
ENDBRANCH  14  15
ENDBRANCH  13  14
ENDBRANCH  12  13
ENDBRANCH  11  12
ENDBRANCH   1  11
TORSDOF 14
ENDMDL
