MODEL 1
REMARK VINA RESULT:    -5.562      0.000      0.000
REMARK INTER + INTRA:          -9.396
REMARK INTER:                  -8.814
REMARK INTRA:                  -0.582
REMARK UNBOUND:                -0.582
REMARK SMILES CCCCCCCCCCCC(=O)[O-]
REMARK SMILES IDX 7 1 8 2 9 3 10 4 11 5 12 6 13 7 14 8 6 9 5 10 4 11 3 12 2 13
REMARK SMILES IDX 1 14
REMARK H PARENT
REMARK Flexibility Score: inf
ROOT
ATOM      1  C   UNL     1       5.389 -29.762  24.729  1.00  0.00     0.000 C 
ENDROOT
BRANCH   1   2
ATOM      2  C   UNL     1       6.663 -30.379  25.317  1.00  0.00     0.000 C 
BRANCH   2   3
ATOM      3  C   UNL     1       7.535 -30.995  24.216  1.00  0.00     0.000 C 
BRANCH   3   4
ATOM      4  C   UNL     1       6.701 -31.312  22.966  1.00  0.00     0.006 C 
BRANCH   4   5
ATOM      5  C   UNL     1       7.563 -31.836  21.809  1.00  0.00     0.053 C 
BRANCH   5   6
ATOM      6  C   UNL     1       8.434 -30.763  21.233  1.00  0.00     0.041 C 
ATOM      7  O   UNL     1       9.600 -31.035  20.844  1.00  0.00    -0.550 OA
ATOM      8  O   UNL     1       7.947 -29.469  21.096  1.00  0.00    -0.550 OA
ENDBRANCH   5   6
ENDBRANCH   4   5
ENDBRANCH   3   4
ENDBRANCH   2   3
ENDBRANCH   1   2
BRANCH   1   9
ATOM      9  C   UNL     1       4.556 -29.075  25.821  1.00  0.00     0.000 C 
BRANCH   9  10
ATOM     10  C   UNL     1       3.071 -28.931  25.439  1.00  0.00    -0.000 C 
BRANCH  10  11
ATOM     11  C   UNL     1       2.709 -29.420  24.022  1.00  0.00    -0.000 C 
BRANCH  11  12
ATOM     12  C   UNL     1       1.731 -28.516  23.250  1.00  0.00    -0.000 C 
BRANCH  12  13
ATOM     13  C   UNL     1       0.480 -29.267  22.769  1.00  0.00    -0.003 C 
ATOM     14  C   UNL     1       0.548 -30.744  23.146  1.00  0.00     0.004 C 
ENDBRANCH  12  13
ENDBRANCH  11  12
ENDBRANCH  10  11
ENDBRANCH   9  10
ENDBRANCH   1   9
TORSDOF 10
ENDMDL
MODEL 2
REMARK VINA RESULT:    -5.340     12.592     15.834
REMARK INTER + INTRA:          -9.043
REMARK INTER:                  -8.109
REMARK INTRA:                  -0.935
REMARK UNBOUND:                -0.582
REMARK SMILES CCCCCCCCCCCC(=O)[O-]
REMARK SMILES IDX 7 1 8 2 9 3 10 4 11 5 12 6 13 7 14 8 6 9 5 10 4 11 3 12 2 13
REMARK SMILES IDX 1 14
REMARK H PARENT
REMARK Flexibility Score: inf
ROOT
ATOM      1  C   UNL     1       8.872 -26.489   9.275  1.00  0.00     0.000 C 
ENDROOT
BRANCH   1   2
ATOM      2  C   UNL     1       9.144 -25.131   9.932  1.00  0.00     0.000 C 
BRANCH   2   3
ATOM      3  C   UNL     1       9.149 -25.248  11.460  1.00  0.00     0.000 C 
BRANCH   3   4
ATOM      4  C   UNL     1      10.558 -25.565  11.983  1.00  0.00     0.006 C 
BRANCH   4   5
ATOM      5  C   UNL     1      10.546 -26.656  13.063  1.00  0.00     0.053 C 
BRANCH   5   6
ATOM      6  C   UNL     1      10.299 -28.013  12.480  1.00  0.00     0.041 C 
ATOM      7  O   UNL     1       9.597 -28.852  13.105  1.00  0.00    -0.550 OA
ATOM      8  O   UNL     1      10.815 -28.341  11.233  1.00  0.00    -0.550 OA
ENDBRANCH   5   6
ENDBRANCH   4   5
ENDBRANCH   3   4
ENDBRANCH   2   3
ENDBRANCH   1   2
BRANCH   1   9
ATOM      9  C   UNL     1       8.749 -26.349   7.751  1.00  0.00     0.000 C 
BRANCH   9  10
ATOM     10  C   UNL     1       9.860 -27.096   6.990  1.00  0.00    -0.000 C 
BRANCH  10  11
ATOM     11  C   UNL     1      10.814 -26.197   6.177  1.00  0.00    -0.000 C 
BRANCH  11  12
ATOM     12  C   UNL     1      11.747 -25.307   7.018  1.00  0.00    -0.000 C 
BRANCH  12  13
ATOM     13  C   UNL     1      12.264 -26.012   8.281  1.00  0.00    -0.003 C 
ATOM     14  C   UNL     1      12.675 -25.000   9.345  1.00  0.00     0.004 C 
ENDBRANCH  12  13
ENDBRANCH  11  12
ENDBRANCH  10  11
ENDBRANCH   9  10
ENDBRANCH   1   9
TORSDOF 10
ENDMDL
MODEL 3
REMARK VINA RESULT:    -5.293      1.175      1.495
REMARK INTER + INTRA:          -8.969
REMARK INTER:                  -8.390
REMARK INTRA:                  -0.579
REMARK UNBOUND:                -0.582
REMARK SMILES CCCCCCCCCCCC(=O)[O-]
REMARK SMILES IDX 7 1 8 2 9 3 10 4 11 5 12 6 13 7 14 8 6 9 5 10 4 11 3 12 2 13
REMARK SMILES IDX 1 14
REMARK H PARENT
REMARK Flexibility Score: inf
ROOT
ATOM      1  C   UNL     1       6.345 -29.704  25.896  1.00  0.00     0.000 C 
ENDROOT
BRANCH   1   2
ATOM      2  C   UNL     1       7.520 -30.014  24.961  1.00  0.00     0.000 C 
BRANCH   2   3
ATOM      3  C   UNL     1       7.052 -30.116  23.505  1.00  0.00     0.000 C 
BRANCH   3   4
ATOM      4  C   UNL     1       7.961 -29.297  22.576  1.00  0.00     0.006 C 
BRANCH   4   5
ATOM      5  C   UNL     1       8.158 -29.970  21.211  1.00  0.00     0.053 C 
BRANCH   5   6
ATOM      6  C   UNL     1       8.841 -31.297  21.339  1.00  0.00     0.041 C 
ATOM      7  O   UNL     1      10.005 -31.367  21.813  1.00  0.00    -0.550 OA
ATOM      8  O   UNL     1       8.179 -32.461  20.965  1.00  0.00    -0.550 OA
ENDBRANCH   5   6
ENDBRANCH   4   5
ENDBRANCH   3   4
ENDBRANCH   2   3
ENDBRANCH   1   2
BRANCH   1   9
ATOM      9  C   UNL     1       5.037 -29.552  25.105  1.00  0.00     0.000 C 
BRANCH   9  10
ATOM     10  C   UNL     1       3.877 -29.017  25.964  1.00  0.00    -0.000 C 
BRANCH  10  11
ATOM     11  C   UNL     1       2.518 -28.918  25.241  1.00  0.00    -0.000 C 
BRANCH  11  12
ATOM     12  C   UNL     1       2.548 -29.279  23.745  1.00  0.00    -0.000 C 
BRANCH  12  13
ATOM     13  C   UNL     1       1.148 -29.318  23.114  1.00  0.00    -0.003 C 
ATOM     14  C   UNL     1       0.469 -30.661  23.366  1.00  0.00     0.004 C 
ENDBRANCH  12  13
ENDBRANCH  11  12
ENDBRANCH  10  11
ENDBRANCH   9  10
ENDBRANCH   1   9
TORSDOF 10
ENDMDL
MODEL 4
REMARK VINA RESULT:    -5.251     12.860     15.906
REMARK INTER + INTRA:          -8.902
REMARK INTER:                  -8.060
REMARK INTRA:                  -0.843
REMARK UNBOUND:                -0.582
REMARK SMILES CCCCCCCCCCCC(=O)[O-]
REMARK SMILES IDX 7 1 8 2 9 3 10 4 11 5 12 6 13 7 14 8 6 9 5 10 4 11 3 12 2 13
REMARK SMILES IDX 1 14
REMARK H PARENT
REMARK Flexibility Score: inf
ROOT
ATOM      1  C   UNL     1      11.791 -25.273   9.780  1.00  0.00     0.000 C 
ENDROOT
BRANCH   1   2
ATOM      2  C   UNL     1      10.326 -24.847   9.937  1.00  0.00     0.000 C 
BRANCH   2   3
ATOM      3  C   UNL     1       9.768 -25.283  11.297  1.00  0.00     0.000 C 
BRANCH   3   4
ATOM      4  C   UNL     1      10.900 -25.694  12.250  1.00  0.00     0.006 C 
BRANCH   4   5
ATOM      5  C   UNL     1      10.465 -26.791  13.231  1.00  0.00     0.053 C 
BRANCH   5   6
ATOM      6  C   UNL     1      10.226 -28.096  12.536  1.00  0.00     0.041 C 
ATOM      7  O   UNL     1       9.546 -28.996  13.095  1.00  0.00    -0.550 OA
ATOM      8  O   UNL     1      10.726 -28.307  11.257  1.00  0.00    -0.550 OA
ENDBRANCH   5   6
ENDBRANCH   4   5
ENDBRANCH   3   4
ENDBRANCH   2   3
ENDBRANCH   1   2
BRANCH   1   9
ATOM      9  C   UNL     1      12.038 -25.896   8.398  1.00  0.00     0.000 C 
BRANCH   9  10
ATOM     10  C   UNL     1      11.752 -24.919   7.243  1.00  0.00    -0.000 C 
BRANCH  10  11
ATOM     11  C   UNL     1      11.299 -25.579   5.924  1.00  0.00    -0.000 C 
BRANCH  11  12
ATOM     12  C   UNL     1      10.374 -26.799   6.090  1.00  0.00    -0.000 C 
BRANCH  12  13
ATOM     13  C   UNL     1       8.911 -26.406   6.344  1.00  0.00    -0.003 C 
ATOM     14  C   UNL     1       8.480 -26.784   7.758  1.00  0.00     0.004 C 
ENDBRANCH  12  13
ENDBRANCH  11  12
ENDBRANCH  10  11
ENDBRANCH   9  10
ENDBRANCH   1   9
TORSDOF 10
ENDMDL
MODEL 5
REMARK VINA RESULT:    -5.217      3.391      6.390
REMARK INTER + INTRA:          -8.849
REMARK INTER:                  -8.144
REMARK INTRA:                  -0.706
REMARK UNBOUND:                -0.582
REMARK SMILES CCCCCCCCCCCC(=O)[O-]
REMARK SMILES IDX 7 1 8 2 9 3 10 4 11 5 12 6 13 7 14 8 6 9 5 10 4 11 3 12 2 13
REMARK SMILES IDX 1 14
REMARK H PARENT
REMARK Flexibility Score: inf
ROOT
ATOM      1  C   UNL     1       5.648 -30.073  24.405  1.00  0.00     0.000 C 
ENDROOT
BRANCH   1   2
ATOM      2  C   UNL     1       4.989 -29.300  25.553  1.00  0.00     0.000 C 
BRANCH   2   3
ATOM      3  C   UNL     1       3.530 -28.963  25.225  1.00  0.00     0.000 C 
BRANCH   3   4
ATOM      4  C   UNL     1       3.151 -29.467  23.824  1.00  0.00     0.006 C 
BRANCH   4   5
ATOM      5  C   UNL     1       1.752 -29.003  23.397  1.00  0.00     0.053 C 
BRANCH   5   6
ATOM      6  C   UNL     1       0.700 -30.009  23.751  1.00  0.00     0.041 C 
ATOM      7  O   UNL     1       0.417 -30.938  22.950  1.00  0.00    -0.550 OA
ATOM      8  O   UNL     1       0.055 -29.940  24.980  1.00  0.00    -0.550 OA
ENDBRANCH   5   6
ENDBRANCH   4   5
ENDBRANCH   3   4
ENDBRANCH   2   3
ENDBRANCH   1   2
BRANCH   1   9
ATOM      9  C   UNL     1       7.081 -30.485  24.771  1.00  0.00     0.000 C 
BRANCH   9  10
ATOM     10  C   UNL     1       8.137 -29.883  23.825  1.00  0.00    -0.000 C 
BRANCH  10  11
ATOM     11  C   UNL     1       7.583 -29.317  22.501  1.00  0.00    -0.000 C 
BRANCH  11  12
ATOM     12  C   UNL     1       8.007 -30.085  21.236  1.00  0.00    -0.000 C 
BRANCH  12  13
ATOM     13  C   UNL     1       7.815 -31.603  21.368  1.00  0.00    -0.003 C 
ATOM     14  C   UNL     1       9.064 -32.355  20.917  1.00  0.00     0.004 C 
ENDBRANCH  12  13
ENDBRANCH  11  12
ENDBRANCH  10  11
ENDBRANCH   9  10
ENDBRANCH   1   9
TORSDOF 10
ENDMDL
MODEL 6
REMARK VINA RESULT:    -5.147     12.614     15.700
REMARK INTER + INTRA:          -8.738
REMARK INTER:                  -7.864
REMARK INTRA:                  -0.875
REMARK UNBOUND:                -0.582
REMARK SMILES CCCCCCCCCCCC(=O)[O-]
REMARK SMILES IDX 7 1 8 2 9 3 10 4 11 5 12 6 13 7 14 8 6 9 5 10 4 11 3 12 2 13
REMARK SMILES IDX 1 14
REMARK H PARENT
REMARK Flexibility Score: inf
ROOT
ATOM      1  C   UNL     1      11.002 -24.498   9.478  1.00  0.00     0.000 C 
ENDROOT
BRANCH   1   2
ATOM      2  C   UNL     1      11.397 -25.623  10.442  1.00  0.00     0.000 C 
BRANCH   2   3
ATOM      3  C   UNL     1      11.136 -25.219  11.897  1.00  0.00     0.000 C 
BRANCH   3   4
ATOM      4  C   UNL     1       9.829 -25.840  12.415  1.00  0.00     0.006 C 
BRANCH   4   5
ATOM      5  C   UNL     1      10.081 -26.987  13.402  1.00  0.00     0.053 C 
BRANCH   5   6
ATOM      6  C   UNL     1       9.970 -28.326  12.740  1.00  0.00     0.041 C 
ATOM      7  O   UNL     1      10.446 -28.504  11.589  1.00  0.00    -0.550 OA
ATOM      8  O   UNL     1       9.369 -29.386  13.408  1.00  0.00    -0.550 OA
ENDBRANCH   5   6
ENDBRANCH   4   5
ENDBRANCH   3   4
ENDBRANCH   2   3
ENDBRANCH   1   2
BRANCH   1   9
ATOM      9  C   UNL     1       9.655 -24.798   8.804  1.00  0.00     0.000 C 
BRANCH   9  10
ATOM     10  C   UNL     1       9.273 -26.288   8.869  1.00  0.00    -0.000 C 
BRANCH  10  11
ATOM     11  C   UNL     1       9.687 -27.124   7.640  1.00  0.00    -0.000 C 
BRANCH  11  12
ATOM     12  C   UNL     1       9.962 -26.312   6.361  1.00  0.00    -0.000 C 
BRANCH  12  13
ATOM     13  C   UNL     1      11.448 -26.302   5.971  1.00  0.00    -0.003 C 
ATOM     14  C   UNL     1      11.980 -24.876   5.875  1.00  0.00     0.004 C 
ENDBRANCH  12  13
ENDBRANCH  11  12
ENDBRANCH  10  11
ENDBRANCH   9  10
ENDBRANCH   1   9
TORSDOF 10
ENDMDL
MODEL 7
REMARK VINA RESULT:    -5.078      3.698      7.642
REMARK INTER + INTRA:          -8.629
REMARK INTER:                  -7.782
REMARK INTRA:                  -0.846
REMARK UNBOUND:                -0.582
REMARK SMILES CCCCCCCCCCCC(=O)[O-]
REMARK SMILES IDX 7 1 8 2 9 3 10 4 11 5 12 6 13 7 14 8 6 9 5 10 4 11 3 12 2 13
REMARK SMILES IDX 1 14
REMARK H PARENT
REMARK Flexibility Score: inf
ROOT
ATOM      1  C   UNL     1       9.359 -29.493  21.961  1.00  0.00     0.000 C 
ENDROOT
BRANCH   1   2
ATOM      2  C   UNL     1       7.971 -29.926  21.475  1.00  0.00     0.000 C 
BRANCH   2   3
ATOM      3  C   UNL     1       7.610 -31.318  22.005  1.00  0.00     0.000 C 
BRANCH   3   4
ATOM      4  C   UNL     1       6.480 -31.236  23.043  1.00  0.00     0.006 C 
BRANCH   4   5
ATOM      5  C   UNL     1       7.014 -31.069  24.472  1.00  0.00     0.053 C 
BRANCH   5   6
ATOM      6  C   UNL     1       6.640 -29.740  25.055  1.00  0.00     0.041 C 
ATOM      7  O   UNL     1       5.435 -29.477  25.308  1.00  0.00    -0.550 OA
ATOM      8  O   UNL     1       7.625 -28.806  25.349  1.00  0.00    -0.550 OA
ENDBRANCH   5   6
ENDBRANCH   4   5
ENDBRANCH   3   4
ENDBRANCH   2   3
ENDBRANCH   1   2
BRANCH   1   9
ATOM      9  C   UNL     1      10.245 -30.714  22.251  1.00  0.00     0.000 C 
BRANCH   9  10
ATOM     10  C   UNL     1      10.705 -30.784  23.719  1.00  0.00    -0.000 C 
BRANCH  10  11
ATOM     11  C   UNL     1      12.215 -31.030  23.920  1.00  0.00    -0.000 C 
BRANCH  11  12
ATOM     12  C   UNL     1      12.795 -30.482  25.237  1.00  0.00    -0.000 C 
BRANCH  12  13
ATOM     13  C   UNL     1      13.402 -29.080  25.083  1.00  0.00    -0.003 C 
ATOM     14  C   UNL     1      13.786 -28.805  23.632  1.00  0.00     0.004 C 
ENDBRANCH  12  13
ENDBRANCH  11  12
ENDBRANCH  10  11
ENDBRANCH   9  10
ENDBRANCH   1   9
TORSDOF 10
ENDMDL
MODEL 8
REMARK VINA RESULT:    -5.010      4.077      7.932
REMARK INTER + INTRA:          -8.520
REMARK INTER:                  -7.259
REMARK INTRA:                  -1.262
REMARK UNBOUND:                -0.582
REMARK SMILES CCCCCCCCCCCC(=O)[O-]
REMARK SMILES IDX 7 1 8 2 9 3 10 4 11 5 12 6 13 7 14 8 6 9 5 10 4 11 3 12 2 13
REMARK SMILES IDX 1 14
REMARK H PARENT
REMARK Flexibility Score: inf
ROOT
ATOM      1  C   UNL     1      10.458 -33.158  21.275  1.00  0.00     0.000 C 
ENDROOT
BRANCH   1   2
ATOM      2  C   UNL     1       9.164 -32.338  21.209  1.00  0.00     0.000 C 
BRANCH   2   3
ATOM      3  C   UNL     1       9.451 -30.887  20.809  1.00  0.00     0.000 C 
BRANCH   3   4
ATOM      4  C   UNL     1       8.575 -29.912  21.610  1.00  0.00     0.006 C 
BRANCH   4   5
ATOM      5  C   UNL     1       8.718 -30.110  23.125  1.00  0.00     0.053 C 
BRANCH   5   6
ATOM      6  C   UNL     1       7.408 -29.955  23.833  1.00  0.00     0.041 C 
ATOM      7  O   UNL     1       6.398 -30.599  23.444  1.00  0.00    -0.550 OA
ATOM      8  O   UNL     1       7.309 -29.126  24.943  1.00  0.00    -0.550 OA
ENDBRANCH   5   6
ENDBRANCH   4   5
ENDBRANCH   3   4
ENDBRANCH   2   3
ENDBRANCH   1   2
BRANCH   1   9
ATOM      9  C   UNL     1      11.688 -32.259  21.079  1.00  0.00     0.000 C 
BRANCH   9  10
ATOM     10  C   UNL     1      12.658 -32.305  22.275  1.00  0.00    -0.000 C 
BRANCH  10  11
ATOM     11  C   UNL     1      11.999 -32.129  23.659  1.00  0.00    -0.000 C 
BRANCH  11  12
ATOM     12  C   UNL     1      12.289 -30.786  24.354  1.00  0.00    -0.000 C 
BRANCH  12  13
ATOM     13  C   UNL     1      12.565 -29.649  23.360  1.00  0.00    -0.003 C 
ATOM     14  C   UNL     1      13.827 -28.881  23.741  1.00  0.00     0.004 C 
ENDBRANCH  12  13
ENDBRANCH  11  12
ENDBRANCH  10  11
ENDBRANCH   9  10
ENDBRANCH   1   9
TORSDOF 10
ENDMDL
MODEL 9
REMARK VINA RESULT:    -4.997      3.564      6.081
REMARK INTER + INTRA:          -8.500
REMARK INTER:                  -7.058
REMARK INTRA:                  -1.442
REMARK UNBOUND:                -0.582
REMARK SMILES CCCCCCCCCCCC(=O)[O-]
REMARK SMILES IDX 7 1 8 2 9 3 10 4 11 5 12 6 13 7 14 8 6 9 5 10 4 11 3 12 2 13
REMARK SMILES IDX 1 14
REMARK H PARENT
REMARK Flexibility Score: inf
ROOT
ATOM      1  C   UNL     1       6.533 -30.206  23.452  1.00  0.00     0.000 C 
ENDROOT
BRANCH   1   2
ATOM      2  C   UNL     1       6.708 -30.300  24.972  1.00  0.00     0.000 C 
BRANCH   2   3
ATOM      3  C   UNL     1       7.849 -31.255  25.338  1.00  0.00     0.000 C 
BRANCH   3   4
ATOM      4  C   UNL     1       9.215 -30.630  25.013  1.00  0.00     0.006 C 
BRANCH   4   5
ATOM      5  C   UNL     1      10.309 -31.689  24.825  1.00  0.00     0.053 C 
BRANCH   5   6
ATOM      6  C   UNL     1      11.665 -31.069  24.679  1.00  0.00     0.041 C 
ATOM      7  O   UNL     1      12.615 -31.444  25.415  1.00  0.00    -0.550 OA
ATOM      8  O   UNL     1      11.888 -30.101  23.709  1.00  0.00    -0.550 OA
ENDBRANCH   5   6
ENDBRANCH   4   5
ENDBRANCH   3   4
ENDBRANCH   2   3
ENDBRANCH   1   2
BRANCH   1   9
ATOM      9  C   UNL     1       6.407 -31.603  22.826  1.00  0.00     0.000 C 
BRANCH   9  10
ATOM     10  C   UNL     1       7.394 -31.829  21.665  1.00  0.00    -0.000 C 
BRANCH  10  11
ATOM     11  C   UNL     1       8.327 -30.640  21.358  1.00  0.00    -0.000 C 
BRANCH  11  12
ATOM     12  C   UNL     1       9.779 -31.022  21.015  1.00  0.00    -0.000 C 
BRANCH  12  13
ATOM     13  C   UNL     1      10.063 -32.518  21.210  1.00  0.00    -0.003 C 
ATOM     14  C   UNL     1      11.563 -32.784  21.302  1.00  0.00     0.004 C 
ENDBRANCH  12  13
ENDBRANCH  11  12
ENDBRANCH  10  11
ENDBRANCH   9  10
ENDBRANCH   1   9
TORSDOF 10
ENDMDL
