MODEL 1
REMARK VINA RESULT:   106.597      0.000      0.000
REMARK INTER + INTRA:         116.350
REMARK INTER:                 115.945
REMARK INTRA:                   0.406
REMARK UNBOUND:                 0.406
REMARK SMILES C=C(C)[C@H]1CC[C@@]2(C)CC[C@]3(C)[C@@H](CC[C@@H]4[C@]5(C)CC[C@H](O)C(C)(C)[C@H]5CC[C@]43C)[C@@H]12
REMARK SMILES IDX 4 1 5 2 6 3 7 4 31 5 13 6 14 7 15 8 16 9 17 10 19 11 20 12
REMARK SMILES IDX 21 13 23 14 26 15 27 16 28 17 29 18 11 19 10 20 9 21 12 22
REMARK SMILES IDX 30 23 24 24 25 25 18 26 8 27 2 28 3 29 1 30 22 31
REMARK H PARENT 22 32
REMARK Flexibility Score: inf
ROOT
ATOM      1  C   UNL     1      78.617  20.102 105.089  1.00  0.00     0.018 C 
ATOM      2  C   UNL     1      78.208  21.216 104.126  1.00  0.00     0.009 C 
ATOM      3  C   UNL     1      79.249  21.240 103.011  1.00  0.00     0.008 C 
ATOM      4  C   UNL     1      79.946  19.843 102.976  1.00  0.00    -0.029 C 
ATOM      5  C   UNL     1      79.308  19.053 104.156  1.00  0.00     0.006 C 
ATOM      6  C   UNL     1      80.107  17.798 104.705  1.00  0.00    -0.000 C 
ATOM      7  C   UNL     1      79.467  17.264 106.032  1.00  0.00     0.005 C 
ATOM      8  C   UNL     1      80.229  16.167 106.817  1.00  0.00     0.005 C 
ATOM      9  C   UNL     1      81.639  15.896 106.265  1.00  0.00     0.002 C 
ATOM     10  C   UNL     1      82.529  14.755 106.977  1.00  0.00    -0.026 C 
ATOM     11  C   UNL     1      81.644  13.856 107.895  1.00  0.00     0.010 C 
ATOM     12  C   UNL     1      82.390  12.748 108.663  1.00  0.00     0.033 C 
ATOM     13  C   UNL     1      83.919  12.943 108.761  1.00  0.00     0.120 C 
ATOM     14  C   UNL     1      84.373  14.435 108.920  1.00  0.00    -0.006 C 
ATOM     15  C   UNL     1      83.629  15.409 107.878  1.00  0.00     0.003 C 
ATOM     16  C   UNL     1      84.548  16.374 107.059  1.00  0.00     0.005 C 
ATOM     17  C   UNL     1      83.892  16.994 105.804  1.00  0.00     0.008 C 
ATOM     18  C   UNL     1      82.367  17.273 105.956  1.00  0.00    -0.024 C 
ATOM     19  C   UNL     1      81.702  17.877 104.619  1.00  0.00    -0.024 C 
ATOM     20  C   UNL     1      82.134  19.351 104.358  1.00  0.00     0.008 C 
ATOM     21  C   UNL     1      81.508  19.974 103.094  1.00  0.00     0.007 C 
ATOM     22  C   UNL     1      82.209  17.070 103.365  1.00  0.00     0.012 C 
ATOM     23  C   UNL     1      82.221  18.322 107.123  1.00  0.00     0.012 C 
ATOM     24  C   UNL     1      84.062  14.919 110.366  1.00  0.00     0.014 C 
ATOM     25  C   UNL     1      85.918  14.460 108.776  1.00  0.00     0.014 C 
ATOM     26  C   UNL     1      83.195  13.857 105.869  1.00  0.00     0.012 C 
ATOM     27  C   UNL     1      79.577  19.174 101.622  1.00  0.00     0.011 C 
ENDROOT
BRANCH   1  28
ATOM     28  C   UNL     1      79.348  20.687 106.317  1.00  0.00    -0.077 C 
ATOM     29  C   UNL     1      79.504  22.169 106.567  1.00  0.00     0.039 C 
ATOM     30  C   UNL     1      79.637  19.881 107.356  1.00  0.00     0.008 C 
ENDBRANCH   1  28
BRANCH  13  31
ATOM     31  O   UNL     1      84.469  12.113 109.760  1.00  0.00    -0.393 OA
ATOM     32  H   UNL     1      84.260  11.168 109.543  1.00  0.00     0.210 HD
ENDBRANCH  13  31
TORSDOF 2
ENDMDL
MODEL 2
REMARK VINA RESULT:   109.144     14.344     16.878
REMARK INTER + INTRA:         119.120
REMARK INTER:                 118.326
REMARK INTRA:                   0.794
REMARK UNBOUND:                 0.406
REMARK SMILES C=C(C)[C@H]1CC[C@@]2(C)CC[C@]3(C)[C@@H](CC[C@@H]4[C@]5(C)CC[C@H](O)C(C)(C)[C@H]5CC[C@]43C)[C@@H]12
REMARK SMILES IDX 4 1 5 2 6 3 7 4 31 5 13 6 14 7 15 8 16 9 17 10 19 11 20 12
REMARK SMILES IDX 21 13 23 14 26 15 27 16 28 17 29 18 11 19 10 20 9 21 12 22
REMARK SMILES IDX 30 23 24 24 25 25 18 26 8 27 2 28 3 29 1 30 22 31
REMARK H PARENT 22 32
REMARK Flexibility Score: inf
ROOT
ATOM      1  C   UNL     1      87.461  19.824 120.258  1.00  0.00     0.018 C 
ATOM      2  C   UNL     1      85.937  19.846 120.143  1.00  0.00     0.009 C 
ATOM      3  C   UNL     1      85.509  18.454 119.686  1.00  0.00     0.008 C 
ATOM      4  C   UNL     1      86.654  17.457 120.052  1.00  0.00    -0.029 C 
ATOM      5  C   UNL     1      87.771  18.347 120.671  1.00  0.00     0.006 C 
ATOM      6  C   UNL     1      89.239  17.747 120.707  1.00  0.00    -0.000 C 
ATOM      7  C   UNL     1      90.281  18.842 121.125  1.00  0.00     0.005 C 
ATOM      8  C   UNL     1      91.786  18.491 121.023  1.00  0.00     0.005 C 
ATOM      9  C   UNL     1      92.048  17.148 120.318  1.00  0.00     0.002 C 
ATOM     10  C   UNL     1      93.576  16.651 120.171  1.00  0.00    -0.026 C 
ATOM     11  C   UNL     1      94.516  17.467 121.111  1.00  0.00     0.010 C 
ATOM     12  C   UNL     1      96.012  17.109 121.033  1.00  0.00     0.033 C 
ATOM     13  C   UNL     1      96.427  16.328 119.766  1.00  0.00     0.120 C 
ATOM     14  C   UNL     1      95.663  16.752 118.465  1.00  0.00    -0.006 C 
ATOM     15  C   UNL     1      94.076  16.867 118.704  1.00  0.00     0.003 C 
ATOM     16  C   UNL     1      93.167  16.125 117.669  1.00  0.00     0.005 C 
ATOM     17  C   UNL     1      91.707  15.899 118.123  1.00  0.00     0.008 C 
ATOM     18  C   UNL     1      91.138  17.038 119.022  1.00  0.00    -0.024 C 
ATOM     19  C   UNL     1      89.632  16.754 119.517  1.00  0.00    -0.024 C 
ATOM     20  C   UNL     1      88.595  16.894 118.363  1.00  0.00     0.008 C 
ATOM     21  C   UNL     1      87.136  16.645 118.796  1.00  0.00     0.007 C 
ATOM     22  C   UNL     1      89.508  15.262 120.004  1.00  0.00     0.012 C 
ATOM     23  C   UNL     1      91.155  18.346 118.145  1.00  0.00     0.012 C 
ATOM     24  C   UNL     1      96.196  18.131 117.978  1.00  0.00     0.014 C 
ATOM     25  C   UNL     1      96.037  15.727 117.361  1.00  0.00     0.014 C 
ATOM     26  C   UNL     1      93.660  15.128 120.558  1.00  0.00     0.012 C 
ATOM     27  C   UNL     1      86.094  16.480 121.125  1.00  0.00     0.011 C 
ENDROOT
BRANCH   1  28
ATOM     28  C   UNL     1      88.109  20.461 119.011  1.00  0.00    -0.077 C 
ATOM     29  C   UNL     1      88.578  19.664 117.815  1.00  0.00     0.039 C 
ATOM     30  C   UNL     1      88.028  21.794 118.834  1.00  0.00     0.008 C 
ENDBRANCH   1  28
BRANCH  13  31
ATOM     31  O   UNL     1      97.827  16.359 119.592  1.00  0.00    -0.393 OA
ATOM     32  H   UNL     1      98.040  16.080 118.665  1.00  0.00     0.210 HD
ENDBRANCH  13  31
TORSDOF 2
ENDMDL
