MODEL 1
REMARK VINA RESULT:    -2.557      0.000      0.000
REMARK INTER + INTRA:          -3.357
REMARK INTER:                  -3.229
REMARK INTRA:                  -0.127
REMARK UNBOUND:                -0.127
REMARK SMILES CCCCCCO
REMARK SMILES IDX 4 1 3 2 2 3 1 4 5 5 6 6 7 7
REMARK H PARENT 7 8
REMARK Flexibility Score: inf
ROOT
ATOM      1  C   UNL     1     136.097 142.106 141.946  1.00  0.00     0.002 C 
ENDROOT
BRANCH   1   2
ATOM      2  C   UNL     1     136.964 141.456 143.036  1.00  0.00    -0.000 C 
BRANCH   2   3
ATOM      3  C   UNL     1     136.357 141.601 144.439  1.00  0.00    -0.003 C 
ATOM      4  C   UNL     1     136.856 142.870 145.125  1.00  0.00     0.004 C 
ENDBRANCH   2   3
ENDBRANCH   1   2
BRANCH   1   5
ATOM      5  C   UNL     1     134.594 141.893 142.183  1.00  0.00     0.028 C 
BRANCH   5   6
ATOM      6  C   UNL     1     133.782 143.081 141.660  1.00  0.00     0.156 C 
BRANCH   6   7
ATOM      7  O   UNL     1     134.625 144.004 141.026  1.00  0.00    -0.396 OA
ATOM      8  H   UNL     1     134.997 143.547 140.227  1.00  0.00     0.210 HD
ENDBRANCH   6   7
ENDBRANCH   5   6
ENDBRANCH   1   5
TORSDOF 5
ENDMDL
MODEL 2
REMARK VINA RESULT:    -2.505     10.063     11.239
REMARK INTER + INTRA:          -3.292
REMARK INTER:                  -3.187
REMARK INTRA:                  -0.105
REMARK UNBOUND:                -0.127
REMARK SMILES CCCCCCO
REMARK SMILES IDX 4 1 3 2 2 3 1 4 5 5 6 6 7 7
REMARK H PARENT 7 8
REMARK Flexibility Score: inf
ROOT
ATOM      1  C   UNL     1     145.515 139.508 142.219  1.00  0.00     0.002 C 
ENDROOT
BRANCH   1   2
ATOM      2  C   UNL     1     144.664 140.344 143.188  1.00  0.00    -0.000 C 
BRANCH   2   3
ATOM      3  C   UNL     1     145.079 140.152 144.655  1.00  0.00    -0.003 C 
ATOM      4  C   UNL     1     144.790 138.729 145.125  1.00  0.00     0.004 C 
ENDBRANCH   2   3
ENDBRANCH   1   2
BRANCH   1   5
ATOM      5  C   UNL     1     147.016 139.807 142.343  1.00  0.00     0.028 C 
BRANCH   5   6
ATOM      6  C   UNL     1     147.853 138.691 141.712  1.00  0.00     0.156 C 
BRANCH   6   7
ATOM      7  O   UNL     1     147.020 137.657 141.261  1.00  0.00    -0.396 OA
ATOM      8  H   UNL     1     147.246 137.506 140.306  1.00  0.00     0.210 HD
ENDBRANCH   6   7
ENDBRANCH   5   6
ENDBRANCH   1   5
TORSDOF 5
ENDMDL
MODEL 3
REMARK VINA RESULT:    -2.499      7.022      7.908
REMARK INTER + INTRA:          -3.283
REMARK INTER:                  -3.126
REMARK INTRA:                  -0.157
REMARK UNBOUND:                -0.127
REMARK SMILES CCCCCCO
REMARK SMILES IDX 4 1 3 2 2 3 1 4 5 5 6 6 7 7
REMARK H PARENT 7 8
REMARK Flexibility Score: inf
ROOT
ATOM      1  C   UNL     1     139.670 136.141 141.604  1.00  0.00     0.002 C 
ENDROOT
BRANCH   1   2
ATOM      2  C   UNL     1     139.516 137.157 142.746  1.00  0.00    -0.000 C 
BRANCH   2   3
ATOM      3  C   UNL     1     139.883 136.567 144.116  1.00  0.00    -0.003 C 
ATOM      4  C   UNL     1     138.759 136.783 145.125  1.00  0.00     0.004 C 
ENDBRANCH   2   3
ENDBRANCH   1   2
BRANCH   1   5
ATOM      5  C   UNL     1     139.854 134.704 142.113  1.00  0.00     0.028 C 
BRANCH   5   6
ATOM      6  C   UNL     1     138.651 133.832 141.745  1.00  0.00     0.156 C 
BRANCH   6   7
ATOM      7  O   UNL     1     137.620 134.624 141.219  1.00  0.00    -0.396 OA
ATOM      8  H   UNL     1     136.793 134.376 141.709  1.00  0.00     0.210 HD
ENDBRANCH   6   7
ENDBRANCH   5   6
ENDBRANCH   1   5
TORSDOF 5
ENDMDL
MODEL 4
REMARK VINA RESULT:    -2.497      2.208      2.417
REMARK INTER + INTRA:          -3.282
REMARK INTER:                  -3.240
REMARK INTRA:                  -0.042
REMARK UNBOUND:                -0.127
REMARK SMILES CCCCCCO
REMARK SMILES IDX 4 1 3 2 2 3 1 4 5 5 6 6 7 7
REMARK H PARENT 7 8
REMARK Flexibility Score: inf
ROOT
ATOM      1  C   UNL     1     134.607 141.588 142.463  1.00  0.00     0.002 C 
ENDROOT
BRANCH   1   2
ATOM      2  C   UNL     1     135.982 142.104 142.913  1.00  0.00    -0.000 C 
BRANCH   2   3
ATOM      3  C   UNL     1     136.168 142.039 144.437  1.00  0.00    -0.003 C 
ATOM      4  C   UNL     1     137.492 142.671 144.856  1.00  0.00     0.004 C 
ENDBRANCH   2   3
ENDBRANCH   1   2
BRANCH   1   5
ATOM      5  C   UNL     1     134.693 140.673 141.233  1.00  0.00     0.028 C 
BRANCH   5   6
ATOM      6  C   UNL     1     133.367 139.945 140.994  1.00  0.00     0.156 C 
BRANCH   6   7
ATOM      7  O   UNL     1     132.690 139.761 142.208  1.00  0.00    -0.396 OA
ATOM      8  H   UNL     1     133.175 140.297 142.888  1.00  0.00     0.210 HD
ENDBRANCH   6   7
ENDBRANCH   5   6
ENDBRANCH   1   5
TORSDOF 5
ENDMDL
MODEL 5
REMARK VINA RESULT:    -2.482      8.505      9.476
REMARK INTER + INTRA:          -3.262
REMARK INTER:                  -3.220
REMARK INTRA:                  -0.042
REMARK UNBOUND:                -0.127
REMARK SMILES CCCCCCO
REMARK SMILES IDX 4 1 3 2 2 3 1 4 5 5 6 6 7 7
REMARK H PARENT 7 8
REMARK Flexibility Score: inf
ROOT
ATOM      1  C   UNL     1     139.987 134.781 142.436  1.00  0.00     0.002 C 
ENDROOT
BRANCH   1   2
ATOM      2  C   UNL     1     140.112 136.187 143.043  1.00  0.00    -0.000 C 
BRANCH   2   3
ATOM      3  C   UNL     1     140.100 136.170 144.579  1.00  0.00    -0.003 C 
ATOM      4  C   UNL     1     138.800 136.753 145.125  1.00  0.00     0.004 C 
ENDBRANCH   2   3
ENDBRANCH   1   2
BRANCH   1   5
ATOM      5  C   UNL     1     140.942 134.561 141.254  1.00  0.00     0.028 C 
BRANCH   5   6
ATOM      6  C   UNL     1     141.287 133.078 141.094  1.00  0.00     0.156 C 
BRANCH   6   7
ATOM      7  O   UNL     1     142.023 132.630 142.200  1.00  0.00    -0.396 OA
ATOM      8  H   UNL     1     141.372 132.220 142.827  1.00  0.00     0.210 HD
ENDBRANCH   6   7
ENDBRANCH   5   6
ENDBRANCH   1   5
TORSDOF 5
ENDMDL
MODEL 6
REMARK VINA RESULT:    -2.465     11.701     12.948
REMARK INTER + INTRA:          -3.241
REMARK INTER:                  -3.074
REMARK INTRA:                  -0.167
REMARK UNBOUND:                -0.127
REMARK SMILES CCCCCCO
REMARK SMILES IDX 4 1 3 2 2 3 1 4 5 5 6 6 7 7
REMARK H PARENT 7 8
REMARK Flexibility Score: inf
ROOT
ATOM      1  C   UNL     1     146.683 140.705 141.439  1.00  0.00     0.002 C 
ENDROOT
BRANCH   1   2
ATOM      2  C   UNL     1     147.984 141.411 141.029  1.00  0.00    -0.000 C 
BRANCH   2   3
ATOM      3  C   UNL     1     148.229 141.367 139.513  1.00  0.00    -0.003 C 
ATOM      4  C   UNL     1     149.432 140.492 139.177  1.00  0.00     0.004 C 
ENDBRANCH   2   3
ENDBRANCH   1   2
BRANCH   1   5
ATOM      5  C   UNL     1     146.913 139.603 142.484  1.00  0.00     0.028 C 
BRANCH   5   6
ATOM      6  C   UNL     1     147.796 138.486 141.920  1.00  0.00     0.156 C 
BRANCH   6   7
ATOM      7  O   UNL     1     147.038 137.634 141.104  1.00  0.00    -0.396 OA
ATOM      8  H   UNL     1     147.173 136.714 141.449  1.00  0.00     0.210 HD
ENDBRANCH   6   7
ENDBRANCH   5   6
ENDBRANCH   1   5
TORSDOF 5
ENDMDL
MODEL 7
REMARK VINA RESULT:    -2.464      2.359      4.281
REMARK INTER + INTRA:          -3.240
REMARK INTER:                  -3.083
REMARK INTRA:                  -0.157
REMARK UNBOUND:                -0.127
REMARK SMILES CCCCCCO
REMARK SMILES IDX 4 1 3 2 2 3 1 4 5 5 6 6 7 7
REMARK H PARENT 7 8
REMARK Flexibility Score: inf
ROOT
ATOM      1  C   UNL     1     133.511 140.657 141.378  1.00  0.00     0.002 C 
ENDROOT
BRANCH   1   2
ATOM      2  C   UNL     1     134.234 139.941 140.227  1.00  0.00    -0.000 C 
BRANCH   2   3
ATOM      3  C   UNL     1     133.707 140.361 138.846  1.00  0.00    -0.003 C 
ATOM      4  C   UNL     1     132.351 141.050 138.963  1.00  0.00     0.004 C 
ENDBRANCH   2   3
ENDBRANCH   1   2
BRANCH   1   5
ATOM      5  C   UNL     1     134.368 141.758 142.020  1.00  0.00     0.028 C 
BRANCH   5   6
ATOM      6  C   UNL     1     133.738 143.138 141.810  1.00  0.00     0.156 C 
BRANCH   6   7
ATOM      7  O   UNL     1     134.604 143.959 141.075  1.00  0.00    -0.396 OA
ATOM      8  H   UNL     1     135.448 144.020 141.594  1.00  0.00     0.210 HD
ENDBRANCH   6   7
ENDBRANCH   5   6
ENDBRANCH   1   5
TORSDOF 5
ENDMDL
MODEL 8
REMARK VINA RESULT:    -2.461      8.069      8.953
REMARK INTER + INTRA:          -3.235
REMARK INTER:                  -3.072
REMARK INTRA:                  -0.163
REMARK UNBOUND:                -0.127
REMARK SMILES CCCCCCO
REMARK SMILES IDX 4 1 3 2 2 3 1 4 5 5 6 6 7 7
REMARK H PARENT 7 8
REMARK Flexibility Score: inf
ROOT
ATOM      1  C   UNL     1     140.976 146.557 141.565  1.00  0.00     0.002 C 
ENDROOT
BRANCH   1   2
ATOM      2  C   UNL     1     140.267 147.835 141.089  1.00  0.00    -0.000 C 
BRANCH   2   3
ATOM      3  C   UNL     1     140.171 147.922 139.558  1.00  0.00    -0.003 C 
ATOM      4  C   UNL     1     140.962 149.113 139.026  1.00  0.00     0.004 C 
ENDBRANCH   2   3
ENDBRANCH   1   2
BRANCH   1   5
ATOM      5  C   UNL     1     142.154 146.852 142.504  1.00  0.00     0.028 C 
BRANCH   5   6
ATOM      6  C   UNL     1     143.156 147.806 141.849  1.00  0.00     0.156 C 
BRANCH   6   7
ATOM      7  O   UNL     1     144.060 147.089 141.053  1.00  0.00    -0.396 OA
ATOM      8  H   UNL     1     143.870 147.338 140.111  1.00  0.00     0.210 HD
ENDBRANCH   6   7
ENDBRANCH   5   6
ENDBRANCH   1   5
TORSDOF 5
ENDMDL
MODEL 9
REMARK VINA RESULT:    -2.437      7.573      7.970
REMARK INTER + INTRA:          -3.206
REMARK INTER:                  -3.097
REMARK INTRA:                  -0.109
REMARK UNBOUND:                -0.127
REMARK SMILES CCCCCCO
REMARK SMILES IDX 4 1 3 2 2 3 1 4 5 5 6 6 7 7
REMARK H PARENT 7 8
REMARK Flexibility Score: inf
ROOT
ATOM      1  C   UNL     1     142.086 144.973 142.681  1.00  0.00     0.002 C 
ENDROOT
BRANCH   1   2
ATOM      2  C   UNL     1     142.136 145.594 144.086  1.00  0.00    -0.000 C 
BRANCH   2   3
ATOM      3  C   UNL     1     142.767 144.654 145.125  1.00  0.00    -0.003 C 
ATOM      4  C   UNL     1     142.849 143.226 144.594  1.00  0.00     0.004 C 
ENDBRANCH   2   3
ENDBRANCH   1   2
BRANCH   1   5
ATOM      5  C   UNL     1     141.906 146.025 141.577  1.00  0.00     0.028 C 
BRANCH   5   6
ATOM      6  C   UNL     1     142.862 147.204 141.778  1.00  0.00     0.156 C 
BRANCH   6   7
ATOM      7  O   UNL     1     144.031 147.013 141.029  1.00  0.00    -0.396 OA
ATOM      8  H   UNL     1     144.485 147.894 140.981  1.00  0.00     0.210 HD
ENDBRANCH   6   7
ENDBRANCH   5   6
ENDBRANCH   1   5
TORSDOF 5
ENDMDL
