MODEL 1
REMARK VINA RESULT:    -5.483      0.000      0.000
REMARK INTER + INTRA:          -6.208
REMARK INTER:                  -5.803
REMARK INTRA:                  -0.404
REMARK UNBOUND:                -0.404
REMARK SMILES CC1=CC[C@@]23[C@H]([C@H](C(C)C)CC[C@H]2C)[C@H]13
REMARK SMILES IDX 14 1 13 2 12 3 11 4 7 5 6 6 5 7 15 8 2 9 3 10 4 11 1 12 8 13
REMARK SMILES IDX 9 14 10 15
REMARK H PARENT
REMARK Flexibility Score: inf
ROOT
ATOM      1  C   UNL     1      31.245   8.846  36.237  1.00  0.00     0.008 C 
ATOM      2  C   UNL     1      30.818   8.511  34.805  1.00  0.00    -0.007 C 
ATOM      3  C   UNL     1      31.480   7.182  34.323  1.00  0.00     0.004 C 
ATOM      4  C   UNL     1      31.225   6.853  32.820  1.00  0.00     0.004 C 
ATOM      5  C   UNL     1      31.325   8.094  31.875  1.00  0.00    -0.004 C 
ATOM      6  C   UNL     1      30.443   9.174  32.519  1.00  0.00     0.007 C 
ATOM      7  C   UNL     1      31.215   9.629  33.814  1.00  0.00    -0.013 C 
ATOM      8  C   UNL     1      30.527  10.621  32.880  1.00  0.00     0.025 C 
ATOM      9  C   UNL     1      31.625  11.385  32.227  1.00  0.00    -0.073 C 
ATOM     10  C   UNL     1      32.816  11.069  32.707  1.00  0.00    -0.027 C 
ATOM     11  C   UNL     1      32.720  10.032  33.767  1.00  0.00     0.035 C 
ATOM     12  C   UNL     1      31.406  12.404  31.153  1.00  0.00     0.039 C 
ENDROOT
BRANCH   5  13
ATOM     13  C   UNL     1      30.897   7.818  30.403  1.00  0.00    -0.014 C 
ATOM     14  C   UNL     1      30.148   8.976  29.719  1.00  0.00     0.007 C 
ATOM     15  C   UNL     1      30.072   6.527  30.292  1.00  0.00     0.007 C 
ENDBRANCH   5  13
TORSDOF 1
ENDMDL
MODEL 2
REMARK VINA RESULT:    -5.307      1.267      3.923
REMARK INTER + INTRA:          -6.021
REMARK INTER:                  -5.509
REMARK INTRA:                  -0.512
REMARK UNBOUND:                -0.404
REMARK SMILES CC1=CC[C@@]23[C@H]([C@H](C(C)C)CC[C@H]2C)[C@H]13
REMARK SMILES IDX 14 1 13 2 12 3 11 4 7 5 6 6 5 7 15 8 2 9 3 10 4 11 1 12 8 13
REMARK SMILES IDX 9 14 10 15
REMARK H PARENT
REMARK Flexibility Score: inf
ROOT
ATOM      1  C   UNL     1      31.124   5.875  36.688  1.00  0.00     0.008 C 
ATOM      2  C   UNL     1      31.577   7.110  35.903  1.00  0.00    -0.007 C 
ATOM      3  C   UNL     1      30.879   8.399  36.440  1.00  0.00     0.004 C 
ATOM      4  C   UNL     1      31.163   9.676  35.590  1.00  0.00     0.004 C 
ATOM      5  C   UNL     1      31.133   9.428  34.048  1.00  0.00    -0.004 C 
ATOM      6  C   UNL     1      32.037   8.210  33.808  1.00  0.00     0.007 C 
ATOM      7  C   UNL     1      31.247   6.981  34.397  1.00  0.00    -0.013 C 
ATOM      8  C   UNL     1      31.996   6.912  33.069  1.00  0.00     0.025 C 
ATOM      9  C   UNL     1      30.945   6.801  32.021  1.00  0.00    -0.073 C 
ATOM     10  C   UNL     1      29.730   6.690  32.533  1.00  0.00    -0.027 C 
ATOM     11  C   UNL     1      29.760   6.710  34.019  1.00  0.00     0.035 C 
ATOM     12  C   UNL     1      31.230   6.806  30.552  1.00  0.00     0.039 C 
ENDROOT
BRANCH   5  13
ATOM     13  C   UNL     1      31.590  10.648  33.192  1.00  0.00    -0.014 C 
ATOM     14  C   UNL     1      31.005  10.694  31.768  1.00  0.00     0.007 C 
ATOM     15  C   UNL     1      33.121  10.746  33.130  1.00  0.00     0.007 C 
ENDBRANCH   5  13
TORSDOF 1
ENDMDL
MODEL 3
REMARK VINA RESULT:    -5.137      1.259      4.013
REMARK INTER + INTRA:          -5.841
REMARK INTER:                  -5.337
REMARK INTRA:                  -0.504
REMARK UNBOUND:                -0.404
REMARK SMILES CC1=CC[C@@]23[C@H]([C@H](C(C)C)CC[C@H]2C)[C@H]13
REMARK SMILES IDX 14 1 13 2 12 3 11 4 7 5 6 6 5 7 15 8 2 9 3 10 4 11 1 12 8 13
REMARK SMILES IDX 9 14 10 15
REMARK H PARENT
REMARK Flexibility Score: inf
ROOT
ATOM      1  C   UNL     1      30.623   6.687  29.949  1.00  0.00     0.008 C 
ATOM      2  C   UNL     1      30.859   6.600  31.460  1.00  0.00    -0.007 C 
ATOM      3  C   UNL     1      29.554   6.177  32.205  1.00  0.00     0.004 C 
ATOM      4  C   UNL     1      29.668   6.221  33.760  1.00  0.00     0.004 C 
ATOM      5  C   UNL     1      30.437   7.468  34.302  1.00  0.00    -0.004 C 
ATOM      6  C   UNL     1      31.746   7.526  33.500  1.00  0.00     0.007 C 
ATOM      7  C   UNL     1      31.325   7.954  32.044  1.00  0.00    -0.013 C 
ATOM      8  C   UNL     1      32.552   8.531  32.744  1.00  0.00     0.025 C 
ATOM      9  C   UNL     1      32.225   9.956  33.017  1.00  0.00    -0.073 C 
ATOM     10  C   UNL     1      31.063  10.317  32.499  1.00  0.00    -0.027 C 
ATOM     11  C   UNL     1      30.408   9.187  31.789  1.00  0.00     0.035 C 
ATOM     12  C   UNL     1      33.115  10.883  33.785  1.00  0.00     0.039 C 
ENDROOT
BRANCH   5  13
ATOM     13  C   UNL     1      30.715   7.435  35.836  1.00  0.00    -0.014 C 
ATOM     14  C   UNL     1      31.266   8.748  36.421  1.00  0.00     0.007 C 
ATOM     15  C   UNL     1      31.639   6.268  36.213  1.00  0.00     0.007 C 
ENDBRANCH   5  13
TORSDOF 1
ENDMDL
MODEL 4
REMARK VINA RESULT:    -4.971      1.689      4.411
REMARK INTER + INTRA:          -5.666
REMARK INTER:                  -5.172
REMARK INTRA:                  -0.494
REMARK UNBOUND:                -0.404
REMARK SMILES CC1=CC[C@@]23[C@H]([C@H](C(C)C)CC[C@H]2C)[C@H]13
REMARK SMILES IDX 14 1 13 2 12 3 11 4 7 5 6 6 5 7 15 8 2 9 3 10 4 11 1 12 8 13
REMARK SMILES IDX 9 14 10 15
REMARK H PARENT
REMARK Flexibility Score: inf
ROOT
ATOM      1  C   UNL     1      32.485  11.306  32.639  1.00  0.00     0.008 C 
ATOM      2  C   UNL     1      32.358   9.969  33.377  1.00  0.00    -0.007 C 
ATOM      3  C   UNL     1      31.722   8.882  32.455  1.00  0.00     0.004 C 
ATOM      4  C   UNL     1      31.410   7.537  33.180  1.00  0.00     0.004 C 
ATOM      5  C   UNL     1      30.804   7.716  34.609  1.00  0.00    -0.004 C 
ATOM      6  C   UNL     1      31.734   8.704  35.330  1.00  0.00     0.007 C 
ATOM      7  C   UNL     1      31.478  10.097  34.642  1.00  0.00    -0.013 C 
ATOM      8  C   UNL     1      31.626   9.946  36.153  1.00  0.00     0.025 C 
ATOM      9  C   UNL     1      30.280  10.228  36.719  1.00  0.00    -0.073 C 
ATOM     10  C   UNL     1      29.415  10.617  35.797  1.00  0.00    -0.027 C 
ATOM     11  C   UNL     1      30.037  10.659  34.448  1.00  0.00     0.035 C 
ATOM     12  C   UNL     1      29.942  10.097  38.171  1.00  0.00     0.039 C 
ENDROOT
BRANCH   5  13
ATOM     13  C   UNL     1      30.656   6.389  35.414  1.00  0.00    -0.014 C 
ATOM     14  C   UNL     1      29.307   6.221  36.138  1.00  0.00     0.007 C 
ATOM     15  C   UNL     1      31.809   6.207  36.412  1.00  0.00     0.007 C 
ENDBRANCH   5  13
TORSDOF 1
ENDMDL
MODEL 5
REMARK VINA RESULT:    -4.860      4.697      7.999
REMARK INTER + INTRA:          -5.548
REMARK INTER:                  -5.047
REMARK INTRA:                  -0.501
REMARK UNBOUND:                -0.404
REMARK SMILES CC1=CC[C@@]23[C@H]([C@H](C(C)C)CC[C@H]2C)[C@H]13
REMARK SMILES IDX 14 1 13 2 12 3 11 4 7 5 6 6 5 7 15 8 2 9 3 10 4 11 1 12 8 13
REMARK SMILES IDX 9 14 10 15
REMARK H PARENT
REMARK Flexibility Score: inf
ROOT
ATOM      1  C   UNL     1      30.069   8.593  22.090  1.00  0.00     0.008 C 
ATOM      2  C   UNL     1      30.471   8.169  23.506  1.00  0.00    -0.007 C 
ATOM      3  C   UNL     1      29.793   6.819  23.898  1.00  0.00     0.004 C 
ATOM      4  C   UNL     1      30.023   6.399  25.382  1.00  0.00     0.004 C 
ATOM      5  C   UNL     1      29.916   7.582  26.397  1.00  0.00    -0.004 C 
ATOM      6  C   UNL     1      30.815   8.692  25.833  1.00  0.00     0.007 C 
ATOM      7  C   UNL     1      30.066   9.229  24.556  1.00  0.00    -0.013 C 
ATOM      8  C   UNL     1      30.746  10.158  25.558  1.00  0.00     0.025 C 
ATOM      9  C   UNL     1      29.644  10.890  26.239  1.00  0.00    -0.073 C 
ATOM     10  C   UNL     1      28.458  10.612  25.723  1.00  0.00    -0.027 C 
ATOM     11  C   UNL     1      28.564   9.640  24.605  1.00  0.00     0.035 C 
ATOM     12  C   UNL     1      29.853  11.842  27.375  1.00  0.00     0.039 C 
ENDROOT
BRANCH   5  13
ATOM     13  C   UNL     1      30.319   7.215  27.857  1.00  0.00    -0.014 C 
ATOM     14  C   UNL     1      30.056   8.318  28.898  1.00  0.00     0.007 C 
ATOM     15  C   UNL     1      31.785   6.763  27.937  1.00  0.00     0.007 C 
ENDBRANCH   5  13
TORSDOF 1
ENDMDL
MODEL 6
REMARK VINA RESULT:    -4.828      3.732      6.584
REMARK INTER + INTRA:          -5.515
REMARK INTER:                  -5.005
REMARK INTRA:                  -0.509
REMARK UNBOUND:                -0.404
REMARK SMILES CC1=CC[C@@]23[C@H]([C@H](C(C)C)CC[C@H]2C)[C@H]13
REMARK SMILES IDX 14 1 13 2 12 3 11 4 7 5 6 6 5 7 15 8 2 9 3 10 4 11 1 12 8 13
REMARK SMILES IDX 9 14 10 15
REMARK H PARENT
REMARK Flexibility Score: inf
ROOT
ATOM      1  C   UNL     1      31.253   6.219  30.357  1.00  0.00     0.008 C 
ATOM      2  C   UNL     1      31.064   7.390  29.386  1.00  0.00    -0.007 C 
ATOM      3  C   UNL     1      30.108   8.466  29.991  1.00  0.00     0.004 C 
ATOM      4  C   UNL     1      29.736   9.613  29.002  1.00  0.00     0.004 C 
ATOM      5  C   UNL     1      29.442   9.122  27.547  1.00  0.00    -0.004 C 
ATOM      6  C   UNL     1      30.629   8.224  27.168  1.00  0.00     0.007 C 
ATOM      7  C   UNL     1      30.465   6.922  28.039  1.00  0.00    -0.013 C 
ATOM      8  C   UNL     1      30.868   6.877  26.568  1.00  0.00     0.025 C 
ATOM      9  C   UNL     1      29.710   6.276  25.853  1.00  0.00    -0.073 C 
ATOM     10  C   UNL     1      28.757   5.876  26.679  1.00  0.00    -0.027 C 
ATOM     11  C   UNL     1      29.116   6.144  28.096  1.00  0.00     0.035 C 
ATOM     12  C   UNL     1      29.633   6.132  24.365  1.00  0.00     0.039 C 
ENDROOT
BRANCH   5  13
ATOM     13  C   UNL     1      29.246  10.268  26.510  1.00  0.00    -0.014 C 
ATOM     14  C   UNL     1      28.206   9.975  25.412  1.00  0.00     0.007 C 
ATOM     15  C   UNL     1      30.580  10.677  25.868  1.00  0.00     0.007 C 
ENDBRANCH   5  13
TORSDOF 1
ENDMDL
MODEL 7
REMARK VINA RESULT:    -4.769      1.239      1.969
REMARK INTER + INTRA:          -5.451
REMARK INTER:                  -4.950
REMARK INTRA:                  -0.501
REMARK UNBOUND:                -0.404
REMARK SMILES CC1=CC[C@@]23[C@H]([C@H](C(C)C)CC[C@H]2C)[C@H]13
REMARK SMILES IDX 14 1 13 2 12 3 11 4 7 5 6 6 5 7 15 8 2 9 3 10 4 11 1 12 8 13
REMARK SMILES IDX 9 14 10 15
REMARK H PARENT
REMARK Flexibility Score: inf
ROOT
ATOM      1  C   UNL     1      31.004  10.355  37.577  1.00  0.00     0.008 C 
ATOM      2  C   UNL     1      30.630   9.361  36.472  1.00  0.00    -0.007 C 
ATOM      3  C   UNL     1      31.409   8.019  36.642  1.00  0.00     0.004 C 
ATOM      4  C   UNL     1      31.206   7.013  35.468  1.00  0.00     0.004 C 
ATOM      5  C   UNL     1      31.217   7.681  34.055  1.00  0.00    -0.004 C 
ATOM      6  C   UNL     1      30.237   8.860  34.148  1.00  0.00     0.007 C 
ATOM      7  C   UNL     1      30.948   9.923  35.067  1.00  0.00    -0.013 C 
ATOM      8  C   UNL     1      30.194  10.311  33.798  1.00  0.00     0.025 C 
ATOM      9  C   UNL     1      31.233  10.773  32.840  1.00  0.00    -0.073 C 
ATOM     10  C   UNL     1      32.440  10.813  33.381  1.00  0.00    -0.027 C 
ATOM     11  C   UNL     1      32.414  10.380  34.803  1.00  0.00     0.035 C 
ATOM     12  C   UNL     1      30.947  11.159  31.422  1.00  0.00     0.039 C 
ENDROOT
BRANCH   5  13
ATOM     13  C   UNL     1      30.838   6.721  32.888  1.00  0.00    -0.014 C 
ATOM     14  C   UNL     1      31.019   7.314  31.478  1.00  0.00     0.007 C 
ATOM     15  C   UNL     1      29.408   6.183  33.047  1.00  0.00     0.007 C 
ENDBRANCH   5  13
TORSDOF 1
ENDMDL
MODEL 8
REMARK VINA RESULT:    -4.738      1.960      3.514
REMARK INTER + INTRA:          -5.419
REMARK INTER:                  -4.907
REMARK INTRA:                  -0.512
REMARK UNBOUND:                -0.404
REMARK SMILES CC1=CC[C@@]23[C@H]([C@H](C(C)C)CC[C@H]2C)[C@H]13
REMARK SMILES IDX 14 1 13 2 12 3 11 4 7 5 6 6 5 7 15 8 2 9 3 10 4 11 1 12 8 13
REMARK SMILES IDX 9 14 10 15
REMARK H PARENT
REMARK Flexibility Score: inf
ROOT
ATOM      1  C   UNL     1      31.728   6.254  36.383  1.00  0.00     0.008 C 
ATOM      2  C   UNL     1      30.749   7.412  36.165  1.00  0.00    -0.007 C 
ATOM      3  C   UNL     1      29.346   6.881  35.734  1.00  0.00     0.004 C 
ATOM      4  C   UNL     1      28.337   8.002  35.336  1.00  0.00     0.004 C 
ATOM      5  C   UNL     1      28.970   9.147  34.481  1.00  0.00    -0.004 C 
ATOM      6  C   UNL     1      30.235   9.576  35.239  1.00  0.00     0.007 C 
ATOM      7  C   UNL     1      31.249   8.383  35.070  1.00  0.00    -0.013 C 
ATOM      8  C   UNL     1      31.676   9.843  34.952  1.00  0.00     0.025 C 
ATOM      9  C   UNL     1      32.020  10.046  33.519  1.00  0.00    -0.073 C 
ATOM     10  C   UNL     1      31.962   8.924  32.820  1.00  0.00    -0.027 C 
ATOM     11  C   UNL     1      31.564   7.772  33.672  1.00  0.00     0.035 C 
ATOM     12  C   UNL     1      32.399  11.370  32.932  1.00  0.00     0.039 C 
ENDROOT
BRANCH   5  13
ATOM     13  C   UNL     1      28.023  10.359  34.229  1.00  0.00    -0.014 C 
ATOM     14  C   UNL     1      28.319  11.155  32.945  1.00  0.00     0.007 C 
ATOM     15  C   UNL     1      27.995  11.309  35.436  1.00  0.00     0.007 C 
ENDBRANCH   5  13
TORSDOF 1
ENDMDL
MODEL 9
REMARK VINA RESULT:    -4.558      3.604      6.808
REMARK INTER + INTRA:          -5.229
REMARK INTER:                  -4.845
REMARK INTRA:                  -0.384
REMARK UNBOUND:                -0.404
REMARK SMILES CC1=CC[C@@]23[C@H]([C@H](C(C)C)CC[C@H]2C)[C@H]13
REMARK SMILES IDX 14 1 13 2 12 3 11 4 7 5 6 6 5 7 15 8 2 9 3 10 4 11 1 12 8 13
REMARK SMILES IDX 9 14 10 15
REMARK H PARENT
REMARK Flexibility Score: inf
ROOT
ATOM      1  C   UNL     1      28.086  12.396  26.887  1.00  0.00     0.008 C 
ATOM      2  C   UNL     1      28.383  11.029  27.513  1.00  0.00    -0.007 C 
ATOM      3  C   UNL     1      29.301  11.179  28.767  1.00  0.00     0.004 C 
ATOM      4  C   UNL     1      29.782   9.822  29.368  1.00  0.00     0.004 C 
ATOM      5  C   UNL     1      30.195   8.766  28.293  1.00  0.00    -0.004 C 
ATOM      6  C   UNL     1      29.030   8.718  27.293  1.00  0.00     0.007 C 
ATOM      7  C   UNL     1      29.091  10.086  26.514  1.00  0.00    -0.013 C 
ATOM      8  C   UNL     1      28.820   8.756  25.815  1.00  0.00     0.025 C 
ATOM      9  C   UNL     1      30.026   8.485  24.986  1.00  0.00    -0.073 C 
ATOM     10  C   UNL     1      30.893   9.483  25.013  1.00  0.00    -0.027 C 
ATOM     11  C   UNL     1      30.414  10.599  25.871  1.00  0.00     0.035 C 
ATOM     12  C   UNL     1      30.233   7.227  24.202  1.00  0.00     0.039 C 
ENDROOT
BRANCH   5  13
ATOM     13  C   UNL     1      30.505   7.351  28.868  1.00  0.00    -0.014 C 
ATOM     14  C   UNL     1      30.779   7.315  30.383  1.00  0.00     0.007 C 
ATOM     15  C   UNL     1      31.662   6.680  28.113  1.00  0.00     0.007 C 
ENDBRANCH   5  13
TORSDOF 1
ENDMDL
