MODEL 1
REMARK VINA RESULT:    -3.762      0.000      0.000
REMARK INTER + INTRA:          -4.211
REMARK INTER:                  -4.202
REMARK INTRA:                  -0.009
REMARK UNBOUND:                -0.009
REMARK SMILES CCCC(=O)[O-]
REMARK SMILES IDX 3 1 4 2 5 3 6 4 2 5 1 6
REMARK H PARENT
REMARK Flexibility Score: inf
ROOT
ATOM      1  C   UNL     1       0.124  10.522 -38.272  1.00  0.00     0.052 C 
ENDROOT
BRANCH   1   2
ATOM      2  C   UNL     1       0.151  11.951 -37.825  1.00  0.00     0.041 C 
ATOM      3  O   UNL     1      -0.782  12.412 -37.116  1.00  0.00    -0.550 OA
ATOM      4  O   UNL     1       1.192  12.783 -38.218  1.00  0.00    -0.550 OA
ENDBRANCH   1   2
BRANCH   1   5
ATOM      5  C   UNL     1      -1.305   9.970 -38.321  1.00  0.00     0.003 C 
ATOM      6  C   UNL     1      -1.386   8.627 -39.048  1.00  0.00     0.004 C 
ENDBRANCH   1   5
TORSDOF 2
ENDMDL
MODEL 2
REMARK VINA RESULT:    -3.577      3.015      3.964
REMARK INTER + INTRA:          -4.005
REMARK INTER:                  -3.998
REMARK INTRA:                  -0.006
REMARK UNBOUND:                -0.009
REMARK SMILES CCCC(=O)[O-]
REMARK SMILES IDX 3 1 4 2 5 3 6 4 2 5 1 6
REMARK H PARENT
REMARK Flexibility Score: inf
ROOT
ATOM      1  C   UNL     1      -0.626   9.295 -38.255  1.00  0.00     0.052 C 
ENDROOT
BRANCH   1   2
ATOM      2  C   UNL     1      -1.556   8.635 -39.227  1.00  0.00     0.041 C 
ATOM      3  O   UNL     1      -1.133   7.729 -39.992  1.00  0.00    -0.550 OA
ATOM      4  O   UNL     1      -2.880   9.043 -39.308  1.00  0.00    -0.550 OA
ENDBRANCH   1   2
BRANCH   1   5
ATOM      5  C   UNL     1      -0.809  10.817 -38.239  1.00  0.00     0.003 C 
ATOM      6  C   UNL     1       0.501  11.559 -37.974  1.00  0.00     0.004 C 
ENDBRANCH   1   5
TORSDOF 2
ENDMDL
MODEL 3
REMARK VINA RESULT:    -3.495      2.064      3.133
REMARK INTER + INTRA:          -3.913
REMARK INTER:                  -3.869
REMARK INTRA:                  -0.043
REMARK UNBOUND:                -0.009
REMARK SMILES CCCC(=O)[O-]
REMARK SMILES IDX 3 1 4 2 5 3 6 4 2 5 1 6
REMARK H PARENT
REMARK Flexibility Score: inf
ROOT
ATOM      1  C   UNL     1      -0.693  12.863 -37.707  1.00  0.00     0.052 C 
ENDROOT
BRANCH   1   2
ATOM      2  C   UNL     1       0.078  11.593 -37.901  1.00  0.00     0.041 C 
ATOM      3  O   UNL     1       1.320  11.569 -37.701  1.00  0.00    -0.550 OA
ATOM      4  O   UNL     1      -0.573  10.445 -38.333  1.00  0.00    -0.550 OA
ENDBRANCH   1   2
BRANCH   1   5
ATOM      5  C   UNL     1      -1.070  13.079 -36.236  1.00  0.00     0.003 C 
ATOM      6  C   UNL     1      -2.255  12.215 -35.806  1.00  0.00     0.004 C 
ENDBRANCH   1   5
TORSDOF 2
ENDMDL
MODEL 4
REMARK VINA RESULT:    -3.447      1.476      2.188
REMARK INTER + INTRA:          -3.859
REMARK INTER:                  -3.832
REMARK INTRA:                  -0.027
REMARK UNBOUND:                -0.009
REMARK SMILES CCCC(=O)[O-]
REMARK SMILES IDX 3 1 4 2 5 3 6 4 2 5 1 6
REMARK H PARENT
REMARK Flexibility Score: inf
ROOT
ATOM      1  C   UNL     1       0.269  12.034 -37.307  1.00  0.00     0.052 C 
ENDROOT
BRANCH   1   2
ATOM      2  C   UNL     1      -0.973  12.833 -37.054  1.00  0.00     0.041 C 
ATOM      3  O   UNL     1      -1.224  13.852 -37.749  1.00  0.00    -0.550 OA
ATOM      4  O   UNL     1      -1.836  12.469 -36.029  1.00  0.00    -0.550 OA
ENDBRANCH   1   2
BRANCH   1   5
ATOM      5  C   UNL     1       0.106  11.098 -38.510  1.00  0.00     0.003 C 
ATOM      6  C   UNL     1      -1.027  10.090 -38.314  1.00  0.00     0.004 C 
ENDBRANCH   1   5
TORSDOF 2
ENDMDL
MODEL 5
REMARK VINA RESULT:    -3.344      7.089      7.671
REMARK INTER + INTRA:          -3.745
REMARK INTER:                  -3.726
REMARK INTRA:                  -0.018
REMARK UNBOUND:                -0.009
REMARK SMILES CCCC(=O)[O-]
REMARK SMILES IDX 3 1 4 2 5 3 6 4 2 5 1 6
REMARK H PARENT
REMARK Flexibility Score: inf
ROOT
ATOM      1  C   UNL     1      -6.625   8.048 -39.388  1.00  0.00     0.052 C 
ENDROOT
BRANCH   1   2
ATOM      2  C   UNL     1      -7.287   9.342 -39.028  1.00  0.00     0.041 C 
ATOM      3  O   UNL     1      -8.126   9.386 -38.090  1.00  0.00    -0.550 OA
ATOM      4  O   UNL     1      -7.001  10.493 -39.750  1.00  0.00    -0.550 OA
ENDBRANCH   1   2
BRANCH   1   5
ATOM      5  C   UNL     1      -7.375   7.319 -40.509  1.00  0.00     0.003 C 
ATOM      6  C   UNL     1      -7.750   5.888 -40.124  1.00  0.00     0.004 C 
ENDBRANCH   1   5
TORSDOF 2
ENDMDL
MODEL 6
REMARK VINA RESULT:    -3.293      5.333      6.388
REMARK INTER + INTRA:          -3.688
REMARK INTER:                  -3.683
REMARK INTRA:                  -0.005
REMARK UNBOUND:                -0.009
REMARK SMILES CCCC(=O)[O-]
REMARK SMILES IDX 3 1 4 2 5 3 6 4 2 5 1 6
REMARK H PARENT
REMARK Flexibility Score: inf
ROOT
ATOM      1  C   UNL     1      -5.157   8.911 -38.901  1.00  0.00     0.052 C 
ENDROOT
BRANCH   1   2
ATOM      2  C   UNL     1      -6.500   8.972 -39.562  1.00  0.00     0.041 C 
ATOM      3  O   UNL     1      -7.065   7.916 -39.948  1.00  0.00    -0.550 OA
ATOM      4  O   UNL     1      -7.112  10.200 -39.780  1.00  0.00    -0.550 OA
ENDBRANCH   1   2
BRANCH   1   5
ATOM      5  C   UNL     1      -4.035   9.340 -39.854  1.00  0.00     0.003 C 
ATOM      6  C   UNL     1      -2.646   9.085 -39.270  1.00  0.00     0.004 C 
ENDBRANCH   1   5
TORSDOF 2
ENDMDL
MODEL 7
REMARK VINA RESULT:    -3.257      8.782     10.046
REMARK INTER + INTRA:          -3.648
REMARK INTER:                  -3.636
REMARK INTRA:                  -0.011
REMARK UNBOUND:                -0.009
REMARK SMILES CCCC(=O)[O-]
REMARK SMILES IDX 3 1 4 2 5 3 6 4 2 5 1 6
REMARK H PARENT
REMARK Flexibility Score: inf
ROOT
ATOM      1  C   UNL     1      -7.718   5.891 -40.028  1.00  0.00     0.052 C 
ENDROOT
BRANCH   1   2
ATOM      2  C   UNL     1      -8.096   4.987 -41.162  1.00  0.00     0.041 C 
ATOM      3  O   UNL     1      -7.791   5.293 -42.345  1.00  0.00    -0.550 OA
ATOM      4  O   UNL     1      -8.811   3.823 -40.914  1.00  0.00    -0.550 OA
ENDBRANCH   1   2
BRANCH   1   5
ATOM      5  C   UNL     1      -7.301   7.280 -40.525  1.00  0.00     0.003 C 
ATOM      6  C   UNL     1      -6.748   8.158 -39.402  1.00  0.00     0.004 C 
ENDBRANCH   1   5
TORSDOF 2
ENDMDL
MODEL 8
REMARK VINA RESULT:    -3.228      3.115      4.155
REMARK INTER + INTRA:          -3.615
REMARK INTER:                  -3.609
REMARK INTRA:                  -0.006
REMARK UNBOUND:                -0.009
REMARK SMILES CCCC(=O)[O-]
REMARK SMILES IDX 3 1 4 2 5 3 6 4 2 5 1 6
REMARK H PARENT
REMARK Flexibility Score: inf
ROOT
ATOM      1  C   UNL     1      -0.940   7.320 -39.913  1.00  0.00     0.052 C 
ENDROOT
BRANCH   1   2
ATOM      2  C   UNL     1      -1.399   8.551 -39.195  1.00  0.00     0.041 C 
ATOM      3  O   UNL     1      -0.626   9.146 -38.399  1.00  0.00    -0.550 OA
ATOM      4  O   UNL     1      -2.692   9.023 -39.381  1.00  0.00    -0.550 OA
ENDBRANCH   1   2
BRANCH   1   5
ATOM      5  C   UNL     1      -0.142   7.664 -41.177  1.00  0.00     0.003 C 
ATOM      6  C   UNL     1       0.590   6.451 -41.752  1.00  0.00     0.004 C 
ENDBRANCH   1   5
TORSDOF 2
ENDMDL
MODEL 9
REMARK VINA RESULT:    -3.102      2.279      3.484
REMARK INTER + INTRA:          -3.474
REMARK INTER:                  -3.457
REMARK INTRA:                  -0.017
REMARK UNBOUND:                -0.009
REMARK SMILES CCCC(=O)[O-]
REMARK SMILES IDX 3 1 4 2 5 3 6 4 2 5 1 6
REMARK H PARENT
REMARK Flexibility Score: inf
ROOT
ATOM      1  C   UNL     1      -0.065  11.044 -37.961  1.00  0.00     0.052 C 
ENDROOT
BRANCH   1   2
ATOM      2  C   UNL     1      -0.973   9.905 -38.312  1.00  0.00     0.041 C 
ATOM      3  O   UNL     1      -0.565   8.976 -39.058  1.00  0.00    -0.550 OA
ATOM      4  O   UNL     1      -2.279   9.886 -37.841  1.00  0.00    -0.550 OA
ENDBRANCH   1   2
BRANCH   1   5
ATOM      5  C   UNL     1      -0.831  12.368 -37.859  1.00  0.00     0.003 C 
ATOM      6  C   UNL     1      -1.078  12.788 -36.410  1.00  0.00     0.004 C 
ENDBRANCH   1   5
TORSDOF 2
ENDMDL
