MODEL 1
REMARK VINA RESULT:    -4.406      0.000      0.000
REMARK INTER + INTRA:          -8.610
REMARK INTER:                  -6.981
REMARK INTRA:                  -1.629
REMARK UNBOUND:                -1.629
REMARK SMILES CCCCCCCCCCCC(=O)[O-]
REMARK SMILES IDX 7 1 8 2 9 3 10 4 11 5 12 6 13 7 14 8 6 9 5 10 4 11 3 12 2 13
REMARK SMILES IDX 1 14
REMARK H PARENT
REMARK Flexibility Score: inf
ROOT
ATOM      1  C   UNL     1       4.095  53.373  18.771  1.00  0.00     0.000 C 
ENDROOT
BRANCH   1   2
ATOM      2  C   UNL     1       2.725  53.330  19.467  1.00  0.00     0.000 C 
BRANCH   2   3
ATOM      3  C   UNL     1       2.607  54.362  20.602  1.00  0.00     0.000 C 
BRANCH   3   4
ATOM      4  C   UNL     1       1.194  54.960  20.710  1.00  0.00     0.006 C 
BRANCH   4   5
ATOM      5  C   UNL     1       0.117  54.049  20.107  1.00  0.00     0.053 C 
BRANCH   5   6
ATOM      6  C   UNL     1      -1.226  54.702  20.194  1.00  0.00     0.041 C 
ATOM      7  O   UNL     1      -2.186  54.106  20.751  1.00  0.00    -0.550 OA
ATOM      8  O   UNL     1      -1.407  55.989  19.703  1.00  0.00    -0.550 OA
ENDBRANCH   5   6
ENDBRANCH   4   5
ENDBRANCH   3   4
ENDBRANCH   2   3
ENDBRANCH   1   2
BRANCH   1   9
ATOM      9  C   UNL     1       4.045  54.068  17.401  1.00  0.00     0.000 C 
BRANCH   9  10
ATOM     10  C   UNL     1       2.611  54.107  16.860  1.00  0.00    -0.000 C 
BRANCH  10  11
ATOM     11  C   UNL     1       2.246  55.513  16.367  1.00  0.00    -0.000 C 
BRANCH  11  12
ATOM     12  C   UNL     1       1.058  56.082  17.156  1.00  0.00    -0.000 C 
BRANCH  12  13
ATOM     13  C   UNL     1       1.399  57.399  17.870  1.00  0.00    -0.003 C 
ATOM     14  C   UNL     1       2.844  57.444  18.368  1.00  0.00     0.004 C 
ENDBRANCH  12  13
ENDBRANCH  11  12
ENDBRANCH  10  11
ENDBRANCH   9  10
ENDBRANCH   1   9
TORSDOF 10
ENDMDL
MODEL 2
REMARK VINA RESULT:    -4.399      3.213      5.513
REMARK INTER + INTRA:          -8.600
REMARK INTER:                  -7.082
REMARK INTRA:                  -1.518
REMARK UNBOUND:                -1.629
REMARK SMILES CCCCCCCCCCCC(=O)[O-]
REMARK SMILES IDX 7 1 8 2 9 3 10 4 11 5 12 6 13 7 14 8 6 9 5 10 4 11 3 12 2 13
REMARK SMILES IDX 1 14
REMARK H PARENT
REMARK Flexibility Score: inf
ROOT
ATOM      1  C   UNL     1      -0.375  55.316  18.288  1.00  0.00     0.000 C 
ENDROOT
BRANCH   1   2
ATOM      2  C   UNL     1      -0.134  56.570  17.433  1.00  0.00     0.000 C 
BRANCH   2   3
ATOM      3  C   UNL     1       1.291  57.126  17.588  1.00  0.00     0.000 C 
BRANCH   3   4
ATOM      4  C   UNL     1       2.364  56.156  17.066  1.00  0.00     0.006 C 
BRANCH   4   5
ATOM      5  C   UNL     1       3.752  56.435  17.657  1.00  0.00     0.053 C 
BRANCH   5   6
ATOM      6  C   UNL     1       4.817  56.120  16.654  1.00  0.00     0.041 C 
ATOM      7  O   UNL     1       4.597  55.287  15.736  1.00  0.00    -0.550 OA
ATOM      8  O   UNL     1       6.037  56.783  16.705  1.00  0.00    -0.550 OA
ENDBRANCH   5   6
ENDBRANCH   4   5
ENDBRANCH   3   4
ENDBRANCH   2   3
ENDBRANCH   1   2
BRANCH   1   9
ATOM      9  C   UNL     1      -0.436  55.624  19.792  1.00  0.00     0.000 C 
BRANCH   9  10
ATOM     10  C   UNL     1       0.395  54.614  20.592  1.00  0.00    -0.000 C 
BRANCH  10  11
ATOM     11  C   UNL     1       1.874  55.020  20.626  1.00  0.00    -0.000 C 
BRANCH  11  12
ATOM     12  C   UNL     1       2.778  53.837  20.249  1.00  0.00    -0.000 C 
BRANCH  12  13
ATOM     13  C   UNL     1       2.049  52.785  19.397  1.00  0.00    -0.003 C 
ATOM     14  C   UNL     1       2.634  52.655  17.991  1.00  0.00     0.004 C 
ENDBRANCH  12  13
ENDBRANCH  11  12
ENDBRANCH  10  11
ENDBRANCH   9  10
ENDBRANCH   1   9
TORSDOF 10
ENDMDL
MODEL 3
REMARK VINA RESULT:    -4.369      2.729      4.525
REMARK INTER + INTRA:          -8.552
REMARK INTER:                  -6.780
REMARK INTRA:                  -1.772
REMARK UNBOUND:                -1.629
REMARK SMILES CCCCCCCCCCCC(=O)[O-]
REMARK SMILES IDX 7 1 8 2 9 3 10 4 11 5 12 6 13 7 14 8 6 9 5 10 4 11 3 12 2 13
REMARK SMILES IDX 1 14
REMARK H PARENT
REMARK Flexibility Score: inf
ROOT
ATOM      1  C   UNL     1       1.848  55.212  20.389  1.00  0.00     0.000 C 
ENDROOT
BRANCH   1   2
ATOM      2  C   UNL     1       0.329  55.238  20.158  1.00  0.00     0.000 C 
BRANCH   2   3
ATOM      3  C   UNL     1      -0.090  56.275  19.102  1.00  0.00     0.000 C 
BRANCH   3   4
ATOM      4  C   UNL     1       1.104  56.803  18.288  1.00  0.00     0.006 C 
BRANCH   4   5
ATOM      5  C   UNL     1       1.118  56.275  16.847  1.00  0.00     0.053 C 
BRANCH   5   6
ATOM      6  C   UNL     1       2.482  55.774  16.490  1.00  0.00     0.041 C 
ATOM      7  O   UNL     1       3.457  55.988  17.257  1.00  0.00    -0.550 OA
ATOM      8  O   UNL     1       2.667  55.029  15.332  1.00  0.00    -0.550 OA
ENDBRANCH   5   6
ENDBRANCH   4   5
ENDBRANCH   3   4
ENDBRANCH   2   3
ENDBRANCH   1   2
BRANCH   1   9
ATOM      9  C   UNL     1       2.489  53.879  19.972  1.00  0.00     0.000 C 
BRANCH   9  10
ATOM     10  C   UNL     1       1.424  52.883  19.498  1.00  0.00    -0.000 C 
BRANCH  10  11
ATOM     11  C   UNL     1       1.628  52.519  18.022  1.00  0.00    -0.000 C 
BRANCH  11  12
ATOM     12  C   UNL     1       0.355  52.793  17.207  1.00  0.00    -0.000 C 
BRANCH  12  13
ATOM     13  C   UNL     1      -0.925  52.404  17.963  1.00  0.00    -0.003 C 
ATOM     14  C   UNL     1      -2.077  53.378  17.716  1.00  0.00     0.004 C 
ENDBRANCH  12  13
ENDBRANCH  11  12
ENDBRANCH  10  11
ENDBRANCH   9  10
ENDBRANCH   1   9
TORSDOF 10
ENDMDL
MODEL 4
REMARK VINA RESULT:    -4.359      4.513      6.094
REMARK INTER + INTRA:          -8.536
REMARK INTER:                  -7.642
REMARK INTRA:                  -0.894
REMARK UNBOUND:                -1.629
REMARK SMILES CCCCCCCCCCCC(=O)[O-]
REMARK SMILES IDX 7 1 8 2 9 3 10 4 11 5 12 6 13 7 14 8 6 9 5 10 4 11 3 12 2 13
REMARK SMILES IDX 1 14
REMARK H PARENT
REMARK Flexibility Score: inf
ROOT
ATOM      1  C   UNL     1       4.431  54.877  16.062  1.00  0.00     0.000 C 
ENDROOT
BRANCH   1   2
ATOM      2  C   UNL     1       4.626  55.350  17.512  1.00  0.00     0.000 C 
BRANCH   2   3
ATOM      3  C   UNL     1       5.212  56.770  17.596  1.00  0.00     0.000 C 
BRANCH   3   4
ATOM      4  C   UNL     1       6.667  56.838  17.103  1.00  0.00     0.006 C 
BRANCH   4   5
ATOM      5  C   UNL     1       7.674  56.988  18.251  1.00  0.00     0.053 C 
BRANCH   5   6
ATOM      6  C   UNL     1       7.902  58.434  18.558  1.00  0.00     0.041 C 
ATOM      7  O   UNL     1       7.224  59.007  19.451  1.00  0.00    -0.550 OA
ATOM      8  O   UNL     1       8.897  59.138  17.892  1.00  0.00    -0.550 OA
ENDBRANCH   5   6
ENDBRANCH   4   5
ENDBRANCH   3   4
ENDBRANCH   2   3
ENDBRANCH   1   2
BRANCH   1   9
ATOM      9  C   UNL     1       2.994  55.084  15.558  1.00  0.00     0.000 C 
BRANCH   9  10
ATOM     10  C   UNL     1       1.993  55.027  16.718  1.00  0.00    -0.000 C 
BRANCH  10  11
ATOM     11  C   UNL     1       1.064  56.247  16.705  1.00  0.00    -0.000 C 
BRANCH  11  12
ATOM     12  C   UNL     1       0.953  56.869  18.105  1.00  0.00    -0.000 C 
BRANCH  12  13
ATOM     13  C   UNL     1       1.465  55.931  19.209  1.00  0.00    -0.003 C 
ATOM     14  C   UNL     1       0.339  55.367  20.076  1.00  0.00     0.004 C 
ENDBRANCH  12  13
ENDBRANCH  11  12
ENDBRANCH  10  11
ENDBRANCH   9  10
ENDBRANCH   1   9
TORSDOF 10
ENDMDL
MODEL 5
REMARK VINA RESULT:    -4.320      2.865      4.727
REMARK INTER + INTRA:          -8.474
REMARK INTER:                  -7.066
REMARK INTRA:                  -1.409
REMARK UNBOUND:                -1.629
REMARK SMILES CCCCCCCCCCCC(=O)[O-]
REMARK SMILES IDX 7 1 8 2 9 3 10 4 11 5 12 6 13 7 14 8 6 9 5 10 4 11 3 12 2 13
REMARK SMILES IDX 1 14
REMARK H PARENT
REMARK Flexibility Score: inf
ROOT
ATOM      1  C   UNL     1       2.088  53.107  19.194  1.00  0.00     0.000 C 
ENDROOT
BRANCH   1   2
ATOM      2  C   UNL     1       2.836  53.161  17.852  1.00  0.00     0.000 C 
BRANCH   2   3
ATOM      3  C   UNL     1       1.990  53.784  16.729  1.00  0.00     0.000 C 
BRANCH   3   4
ATOM      4  C   UNL     1       2.689  54.977  16.055  1.00  0.00     0.006 C 
BRANCH   4   5
ATOM      5  C   UNL     1       4.215  54.926  16.198  1.00  0.00     0.053 C 
BRANCH   5   6
ATOM      6  C   UNL     1       4.717  56.167  16.867  1.00  0.00     0.041 C 
ATOM      7  O   UNL     1       5.851  56.630  16.576  1.00  0.00    -0.550 OA
ATOM      8  O   UNL     1       3.912  56.840  17.779  1.00  0.00    -0.550 OA
ENDBRANCH   5   6
ENDBRANCH   4   5
ENDBRANCH   3   4
ENDBRANCH   2   3
ENDBRANCH   1   2
BRANCH   1   9
ATOM      9  C   UNL     1       2.670  54.072  20.239  1.00  0.00     0.000 C 
BRANCH   9  10
ATOM     10  C   UNL     1       1.862  55.373  20.293  1.00  0.00    -0.000 C 
BRANCH  10  11
ATOM     11  C   UNL     1       0.359  55.085  20.394  1.00  0.00    -0.000 C 
BRANCH  11  12
ATOM     12  C   UNL     1      -0.432  55.930  19.384  1.00  0.00    -0.000 C 
BRANCH  12  13
ATOM     13  C   UNL     1       0.479  56.692  18.409  1.00  0.00    -0.003 C 
ATOM     14  C   UNL     1      -0.167  56.906  17.040  1.00  0.00     0.004 C 
ENDBRANCH  12  13
ENDBRANCH  11  12
ENDBRANCH  10  11
ENDBRANCH   9  10
ENDBRANCH   1   9
TORSDOF 10
ENDMDL
MODEL 6
REMARK VINA RESULT:    -4.319      2.139      3.280
REMARK INTER + INTRA:          -8.473
REMARK INTER:                  -6.804
REMARK INTRA:                  -1.669
REMARK UNBOUND:                -1.629
REMARK SMILES CCCCCCCCCCCC(=O)[O-]
REMARK SMILES IDX 7 1 8 2 9 3 10 4 11 5 12 6 13 7 14 8 6 9 5 10 4 11 3 12 2 13
REMARK SMILES IDX 1 14
REMARK H PARENT
REMARK Flexibility Score: inf
ROOT
ATOM      1  C   UNL     1       2.394  52.813  19.181  1.00  0.00     0.000 C 
ENDROOT
BRANCH   1   2
ATOM      2  C   UNL     1       2.596  53.356  17.757  1.00  0.00     0.000 C 
BRANCH   2   3
ATOM      3  C   UNL     1       1.317  53.273  16.907  1.00  0.00     0.000 C 
BRANCH   3   4
ATOM      4  C   UNL     1       0.188  52.502  17.611  1.00  0.00     0.006 C 
BRANCH   4   5
ATOM      5  C   UNL     1      -1.197  53.101  17.338  1.00  0.00     0.053 C 
BRANCH   5   6
ATOM      6  C   UNL     1      -2.249  52.342  18.084  1.00  0.00     0.041 C 
ATOM      7  O   UNL     1      -2.754  51.302  17.585  1.00  0.00    -0.550 OA
ATOM      8  O   UNL     1      -2.639  52.757  19.352  1.00  0.00    -0.550 OA
ENDBRANCH   5   6
ENDBRANCH   4   5
ENDBRANCH   3   4
ENDBRANCH   2   3
ENDBRANCH   1   2
BRANCH   1   9
ATOM      9  C   UNL     1       2.937  53.761  20.261  1.00  0.00     0.000 C 
BRANCH   9  10
ATOM     10  C   UNL     1       2.228  55.119  20.204  1.00  0.00    -0.000 C 
BRANCH  10  11
ATOM     11  C   UNL     1       0.727  54.969  20.482  1.00  0.00    -0.000 C 
BRANCH  11  12
ATOM     12  C   UNL     1      -0.099  55.848  19.531  1.00  0.00    -0.000 C 
BRANCH  12  13
ATOM     13  C   UNL     1       0.772  56.586  18.503  1.00  0.00    -0.003 C 
ATOM     14  C   UNL     1       0.064  56.788  17.163  1.00  0.00     0.004 C 
ENDBRANCH  12  13
ENDBRANCH  11  12
ENDBRANCH  10  11
ENDBRANCH   9  10
ENDBRANCH   1   9
TORSDOF 10
ENDMDL
MODEL 7
REMARK VINA RESULT:    -4.231      2.053      3.062
REMARK INTER + INTRA:          -8.333
REMARK INTER:                  -6.689
REMARK INTRA:                  -1.644
REMARK UNBOUND:                -1.629
REMARK SMILES CCCCCCCCCCCC(=O)[O-]
REMARK SMILES IDX 7 1 8 2 9 3 10 4 11 5 12 6 13 7 14 8 6 9 5 10 4 11 3 12 2 13
REMARK SMILES IDX 1 14
REMARK H PARENT
REMARK Flexibility Score: inf
ROOT
ATOM      1  C   UNL     1       1.027  53.382  19.543  1.00  0.00     0.000 C 
ENDROOT
BRANCH   1   2
ATOM      2  C   UNL     1       0.233  54.351  20.434  1.00  0.00     0.000 C 
BRANCH   2   3
ATOM      3  C   UNL     1      -1.201  54.577  19.928  1.00  0.00     0.000 C 
BRANCH   3   4
ATOM      4  C   UNL     1      -1.435  56.018  19.441  1.00  0.00     0.006 C 
BRANCH   4   5
ATOM      5  C   UNL     1      -2.020  56.076  18.024  1.00  0.00     0.053 C 
BRANCH   5   6
ATOM      6  C   UNL     1      -3.315  56.824  18.026  1.00  0.00     0.041 C 
ATOM      7  O   UNL     1      -3.518  57.742  17.188  1.00  0.00    -0.550 OA
ATOM      8  O   UNL     1      -4.319  56.475  18.921  1.00  0.00    -0.550 OA
ENDBRANCH   5   6
ENDBRANCH   4   5
ENDBRANCH   3   4
ENDBRANCH   2   3
ENDBRANCH   1   2
BRANCH   1   9
ATOM      9  C   UNL     1       0.206  52.859  18.355  1.00  0.00     0.000 C 
BRANCH   9  10
ATOM     10  C   UNL     1       0.799  53.341  17.025  1.00  0.00    -0.000 C 
BRANCH  10  11
ATOM     11  C   UNL     1       1.887  54.396  17.257  1.00  0.00    -0.000 C 
BRANCH  11  12
ATOM     12  C   UNL     1       1.488  55.743  16.636  1.00  0.00    -0.000 C 
BRANCH  12  13
ATOM     13  C   UNL     1       1.571  56.904  17.639  1.00  0.00    -0.003 C 
ATOM     14  C   UNL     1       2.624  56.675  18.723  1.00  0.00     0.004 C 
ENDBRANCH  12  13
ENDBRANCH  11  12
ENDBRANCH  10  11
ENDBRANCH   9  10
ENDBRANCH   1   9
TORSDOF 10
ENDMDL
MODEL 8
REMARK VINA RESULT:    -4.220      2.994      5.152
REMARK INTER + INTRA:          -8.316
REMARK INTER:                  -6.955
REMARK INTRA:                  -1.362
REMARK UNBOUND:                -1.629
REMARK SMILES CCCCCCCCCCCC(=O)[O-]
REMARK SMILES IDX 7 1 8 2 9 3 10 4 11 5 12 6 13 7 14 8 6 9 5 10 4 11 3 12 2 13
REMARK SMILES IDX 1 14
REMARK H PARENT
REMARK Flexibility Score: inf
ROOT
ATOM      1  C   UNL     1       0.383  52.899  17.416  1.00  0.00     0.000 C 
ENDROOT
BRANCH   1   2
ATOM      2  C   UNL     1       1.734  53.356  16.845  1.00  0.00     0.000 C 
BRANCH   2   3
ATOM      3  C   UNL     1       1.769  54.864  16.545  1.00  0.00     0.000 C 
BRANCH   3   4
ATOM      4  C   UNL     1       3.073  55.299  15.855  1.00  0.00     0.006 C 
BRANCH   4   5
ATOM      5  C   UNL     1       4.308  55.095  16.741  1.00  0.00     0.053 C 
BRANCH   5   6
ATOM      6  C   UNL     1       4.810  56.412  17.245  1.00  0.00     0.041 C 
ATOM      7  O   UNL     1       4.116  57.088  18.049  1.00  0.00    -0.550 OA
ATOM      8  O   UNL     1       6.065  56.870  16.864  1.00  0.00    -0.550 OA
ENDBRANCH   5   6
ENDBRANCH   4   5
ENDBRANCH   3   4
ENDBRANCH   2   3
ENDBRANCH   1   2
BRANCH   1   9
ATOM      9  C   UNL     1      -0.502  54.073  17.863  1.00  0.00     0.000 C 
BRANCH   9  10
ATOM     10  C   UNL     1      -1.100  53.811  19.250  1.00  0.00    -0.000 C 
BRANCH  10  11
ATOM     11  C   UNL     1      -0.029  53.919  20.342  1.00  0.00    -0.000 C 
BRANCH  11  12
ATOM     12  C   UNL     1       0.703  55.267  20.263  1.00  0.00    -0.000 C 
BRANCH  12  13
ATOM     13  C   UNL     1       2.189  55.156  20.638  1.00  0.00    -0.003 C 
ATOM     14  C   UNL     1       2.789  53.797  20.279  1.00  0.00     0.004 C 
ENDBRANCH  12  13
ENDBRANCH  11  12
ENDBRANCH  10  11
ENDBRANCH   9  10
ENDBRANCH   1   9
TORSDOF 10
ENDMDL
MODEL 9
REMARK VINA RESULT:    -4.202      2.834      5.221
REMARK INTER + INTRA:          -8.287
REMARK INTER:                  -6.829
REMARK INTRA:                  -1.458
REMARK UNBOUND:                -1.629
REMARK SMILES CCCCCCCCCCCC(=O)[O-]
REMARK SMILES IDX 7 1 8 2 9 3 10 4 11 5 12 6 13 7 14 8 6 9 5 10 4 11 3 12 2 13
REMARK SMILES IDX 1 14
REMARK H PARENT
REMARK Flexibility Score: inf
ROOT
ATOM      1  C   UNL     1      -2.931  55.277  17.664  1.00  0.00     0.000 C 
ENDROOT
BRANCH   1   2
ATOM      2  C   UNL     1      -2.125  56.586  17.668  1.00  0.00     0.000 C 
BRANCH   2   3
ATOM      3  C   UNL     1      -0.654  56.373  18.064  1.00  0.00     0.000 C 
BRANCH   3   4
ATOM      4  C   UNL     1       0.326  56.867  16.986  1.00  0.00     0.006 C 
BRANCH   4   5
ATOM      5  C   UNL     1       1.369  55.809  16.606  1.00  0.00     0.053 C 
BRANCH   5   6
ATOM      6  C   UNL     1       2.705  56.166  17.177  1.00  0.00     0.041 C 
ATOM      7  O   UNL     1       2.783  56.740  18.295  1.00  0.00    -0.550 OA
ATOM      8  O   UNL     1       3.867  55.822  16.497  1.00  0.00    -0.550 OA
ENDBRANCH   5   6
ENDBRANCH   4   5
ENDBRANCH   3   4
ENDBRANCH   2   3
ENDBRANCH   1   2
BRANCH   1   9
ATOM      9  C   UNL     1      -2.258  54.163  18.481  1.00  0.00     0.000 C 
BRANCH   9  10
ATOM     10  C   UNL     1      -1.833  53.001  17.575  1.00  0.00    -0.000 C 
BRANCH  10  11
ATOM     11  C   UNL     1      -0.338  52.698  17.731  1.00  0.00    -0.000 C 
BRANCH  11  12
ATOM     12  C   UNL     1       0.058  52.631  19.214  1.00  0.00    -0.000 C 
BRANCH  12  13
ATOM     13  C   UNL     1       1.324  53.444  19.524  1.00  0.00    -0.003 C 
ATOM     14  C   UNL     1       1.104  54.487  20.620  1.00  0.00     0.004 C 
ENDBRANCH  12  13
ENDBRANCH  11  12
ENDBRANCH  10  11
ENDBRANCH   9  10
ENDBRANCH   1   9
TORSDOF 10
ENDMDL
