MODEL 1
REMARK VINA RESULT:    -5.173      0.000      0.000
REMARK INTER + INTRA:         -10.337
REMARK INTER:                  -7.895
REMARK INTRA:                  -2.442
REMARK UNBOUND:                -2.442
REMARK SMILES CC(=O)CCC=C(C)CCC=C(C)CCC=C(C)C
REMARK SMILES IDX 10 1 11 2 12 3 13 4 14 5 15 6 16 7 18 8 17 9 19 10 9 11 7 12
REMARK SMILES IDX 6 13 8 14 5 15 4 16 2 17 3 18 1 19
REMARK H PARENT
REMARK Flexibility Score: inf
ROOT
ATOM      1  C   UNL     1       6.651 -18.926  23.790  1.00  0.00     0.032 C 
ENDROOT
BRANCH   1   2
ATOM      2  C   UNL     1       7.084 -17.494  23.981  1.00  0.00    -0.028 C 
ATOM      3  C   UNL     1       7.589 -16.710  23.000  1.00  0.00    -0.077 C 
ATOM      4  C   UNL     1       7.815 -17.232  21.600  1.00  0.00     0.039 C 
BRANCH   3   5
ATOM      5  C   UNL     1       7.947 -15.274  23.319  1.00  0.00     0.034 C 
BRANCH   5   6
ATOM      6  C   UNL     1       8.965 -15.206  24.464  1.00  0.00     0.032 C 
BRANCH   6   7
ATOM      7  C   UNL     1      10.301 -15.770  24.041  1.00  0.00    -0.028 C 
ATOM      8  C   UNL     1      12.246 -17.294  24.222  1.00  0.00     0.039 C 
ATOM      9  C   UNL     1      10.911 -16.782  24.697  1.00  0.00    -0.080 C 
ATOM     10  C   UNL     1      10.296 -17.418  25.918  1.00  0.00     0.039 C 
ENDBRANCH   6   7
ENDBRANCH   5   6
ENDBRANCH   3   5
ENDBRANCH   1   2
BRANCH   1  11
ATOM     11  C   UNL     1       7.708 -19.890  24.342  1.00  0.00     0.034 C 
BRANCH  11  12
ATOM     12  C   UNL     1       8.520 -20.499  23.220  1.00  0.00    -0.077 C 
ATOM     13  C   UNL     1       7.970 -21.483  22.472  1.00  0.00    -0.028 C 
ATOM     14  C   UNL     1       9.918 -19.987  22.961  1.00  0.00     0.039 C 
BRANCH  13  15
ATOM     15  C   UNL     1       8.679 -22.203  21.353  1.00  0.00     0.035 C 
BRANCH  15  16
ATOM     16  C   UNL     1       8.121 -21.776  19.993  1.00  0.00     0.079 C 
BRANCH  16  17
ATOM     17  C   UNL     1       8.987 -20.709  19.375  1.00  0.00     0.130 C 
ATOM     18  O   UNL     1       8.488 -19.642  19.053  1.00  0.00    -0.300 OA
ATOM     19  C   UNL     1      10.451 -20.933  19.136  1.00  0.00     0.087 C 
ENDBRANCH  16  17
ENDBRANCH  15  16
ENDBRANCH  13  15
ENDBRANCH  11  12
ENDBRANCH   1  11
TORSDOF 9
ENDMDL
MODEL 2
REMARK VINA RESULT:    -5.097      2.228      3.821
REMARK INTER + INTRA:         -10.222
REMARK INTER:                  -8.247
REMARK INTRA:                  -1.975
REMARK UNBOUND:                -2.442
REMARK SMILES CC(=O)CCC=C(C)CCC=C(C)CCC=C(C)C
REMARK SMILES IDX 10 1 11 2 12 3 13 4 14 5 15 6 16 7 18 8 17 9 19 10 9 11 7 12
REMARK SMILES IDX 6 13 8 14 5 15 4 16 2 17 3 18 1 19
REMARK H PARENT
REMARK Flexibility Score: inf
ROOT
ATOM      1  C   UNL     1       6.900 -21.067  23.033  1.00  0.00     0.032 C 
ENDROOT
BRANCH   1   2
ATOM      2  C   UNL     1       6.726 -19.635  23.471  1.00  0.00    -0.028 C 
ATOM      3  C   UNL     1       7.746 -18.781  23.721  1.00  0.00    -0.077 C 
ATOM      4  C   UNL     1       9.190 -19.217  23.627  1.00  0.00     0.039 C 
BRANCH   3   5
ATOM      5  C   UNL     1       7.430 -17.354  24.116  1.00  0.00     0.034 C 
BRANCH   5   6
ATOM      6  C   UNL     1       8.193 -16.362  23.231  1.00  0.00     0.032 C 
BRANCH   6   7
ATOM      7  C   UNL     1       7.310 -15.820  22.132  1.00  0.00    -0.028 C 
ATOM      8  C   UNL     1       6.437 -15.699  19.817  1.00  0.00     0.039 C 
ATOM      9  C   UNL     1       7.344 -16.289  20.865  1.00  0.00    -0.080 C 
ATOM     10  C   UNL     1       8.286 -17.393  20.455  1.00  0.00     0.039 C 
ENDBRANCH   6   7
ENDBRANCH   5   6
ENDBRANCH   3   5
ENDBRANCH   1   2
BRANCH   1  11
ATOM     11  C   UNL     1       6.859 -21.177  21.505  1.00  0.00     0.034 C 
BRANCH  11  12
ATOM     12  C   UNL     1       8.149 -21.759  20.971  1.00  0.00    -0.077 C 
ATOM     13  C   UNL     1       8.922 -22.503  21.796  1.00  0.00    -0.028 C 
ATOM     14  C   UNL     1       8.534 -21.502  19.533  1.00  0.00     0.039 C 
BRANCH  13  15
ATOM     15  C   UNL     1      10.248 -23.109  21.408  1.00  0.00     0.035 C 
BRANCH  15  16
ATOM     16  C   UNL     1      11.347 -22.679  22.384  1.00  0.00     0.079 C 
BRANCH  16  17
ATOM     17  C   UNL     1      12.326 -21.755  21.708  1.00  0.00     0.130 C 
ATOM     18  O   UNL     1      13.195 -21.211  22.372  1.00  0.00    -0.300 OA
ATOM     19  C   UNL     1      12.250 -21.478  20.235  1.00  0.00     0.087 C 
ENDBRANCH  16  17
ENDBRANCH  15  16
ENDBRANCH  13  15
ENDBRANCH  11  12
ENDBRANCH   1  11
TORSDOF 9
ENDMDL
MODEL 3
REMARK VINA RESULT:    -5.074      1.678      2.142
REMARK INTER + INTRA:         -10.185
REMARK INTER:                  -7.332
REMARK INTRA:                  -2.853
REMARK UNBOUND:                -2.442
REMARK SMILES CC(=O)CCC=C(C)CCC=C(C)CCC=C(C)C
REMARK SMILES IDX 10 1 11 2 12 3 13 4 14 5 15 6 16 7 18 8 17 9 19 10 9 11 7 12
REMARK SMILES IDX 6 13 8 14 5 15 4 16 2 17 3 18 1 19
REMARK H PARENT
REMARK Flexibility Score: inf
ROOT
ATOM      1  C   UNL     1       6.631 -18.847  23.858  1.00  0.00     0.032 C 
ENDROOT
BRANCH   1   2
ATOM      2  C   UNL     1       7.106 -17.427  24.034  1.00  0.00    -0.028 C 
ATOM      3  C   UNL     1       7.614 -16.662  23.040  1.00  0.00    -0.077 C 
ATOM      4  C   UNL     1       7.800 -17.196  21.639  1.00  0.00     0.039 C 
BRANCH   3   5
ATOM      5  C   UNL     1       8.017 -15.235  23.345  1.00  0.00     0.034 C 
BRANCH   5   6
ATOM      6  C   UNL     1       9.046 -15.189  24.481  1.00  0.00     0.032 C 
BRANCH   6   7
ATOM      7  C   UNL     1      10.364 -15.788  24.050  1.00  0.00    -0.028 C 
ATOM      8  C   UNL     1      12.274 -17.356  24.224  1.00  0.00     0.039 C 
ATOM      9  C   UNL     1      10.957 -16.808  24.708  1.00  0.00    -0.080 C 
ATOM     10  C   UNL     1      10.339 -17.420  25.941  1.00  0.00     0.039 C 
ENDBRANCH   6   7
ENDBRANCH   5   6
ENDBRANCH   3   5
ENDBRANCH   1   2
BRANCH   1  11
ATOM     11  C   UNL     1       7.673 -19.838  24.388  1.00  0.00     0.034 C 
BRANCH  11  12
ATOM     12  C   UNL     1       8.489 -20.421  23.255  1.00  0.00    -0.077 C 
ATOM     13  C   UNL     1       9.767 -20.008  23.088  1.00  0.00    -0.028 C 
ATOM     14  C   UNL     1       7.858 -21.451  22.347  1.00  0.00     0.039 C 
BRANCH  13  15
ATOM     15  C   UNL     1      10.677 -20.474  21.980  1.00  0.00     0.035 C 
BRANCH  15  16
ATOM     16  C   UNL     1      10.581 -19.540  20.770  1.00  0.00     0.079 C 
BRANCH  16  17
ATOM     17  C   UNL     1      11.680 -18.510  20.806  1.00  0.00     0.130 C 
ATOM     18  O   UNL     1      12.832 -18.867  20.997  1.00  0.00    -0.300 OA
ATOM     19  C   UNL     1      11.389 -17.049  20.623  1.00  0.00     0.087 C 
ENDBRANCH  16  17
ENDBRANCH  15  16
ENDBRANCH  13  15
ENDBRANCH  11  12
ENDBRANCH   1  11
TORSDOF 9
ENDMDL
MODEL 4
REMARK VINA RESULT:    -5.064      1.600      2.145
REMARK INTER + INTRA:         -10.170
REMARK INTER:                  -7.978
REMARK INTRA:                  -2.192
REMARK UNBOUND:                -2.442
REMARK SMILES CC(=O)CCC=C(C)CCC=C(C)CCC=C(C)C
REMARK SMILES IDX 10 1 11 2 12 3 13 4 14 5 15 6 16 7 18 8 17 9 19 10 9 11 7 12
REMARK SMILES IDX 6 13 8 14 5 15 4 16 2 17 3 18 1 19
REMARK H PARENT
REMARK Flexibility Score: inf
ROOT
ATOM      1  C   UNL     1       6.692 -18.111  24.110  1.00  0.00     0.032 C 
ENDROOT
BRANCH   1   2
ATOM      2  C   UNL     1       7.878 -17.219  24.379  1.00  0.00    -0.028 C 
ATOM      3  C   UNL     1       8.122 -16.055  23.733  1.00  0.00    -0.077 C 
ATOM      4  C   UNL     1       7.227 -15.559  22.621  1.00  0.00     0.039 C 
BRANCH   3   5
ATOM      5  C   UNL     1       9.330 -15.234  24.130  1.00  0.00     0.034 C 
BRANCH   5   6
ATOM      6  C   UNL     1      10.598 -16.097  24.138  1.00  0.00     0.032 C 
BRANCH   6   7
ATOM      7  C   UNL     1      10.899 -16.637  22.760  1.00  0.00    -0.028 C 
ATOM      8  C   UNL     1      11.332 -18.426  21.102  1.00  0.00     0.039 C 
ATOM      9  C   UNL     1      11.027 -17.957  22.500  1.00  0.00    -0.080 C 
ATOM     10  C   UNL     1      10.884 -18.994  23.586  1.00  0.00     0.039 C 
ENDBRANCH   6   7
ENDBRANCH   5   6
ENDBRANCH   3   5
ENDBRANCH   1   2
BRANCH   1  11
ATOM     11  C   UNL     1       7.102 -19.588  24.156  1.00  0.00     0.034 C 
BRANCH  11  12
ATOM     12  C   UNL     1       7.343 -20.123  22.762  1.00  0.00    -0.077 C 
ATOM     13  C   UNL     1       7.307 -21.461  22.558  1.00  0.00    -0.028 C 
ATOM     14  C   UNL     1       7.610 -19.152  21.635  1.00  0.00     0.039 C 
BRANCH  13  15
ATOM     15  C   UNL     1       7.569 -22.131  21.233  1.00  0.00     0.035 C 
BRANCH  15  16
ATOM     16  C   UNL     1       8.726 -23.128  21.347  1.00  0.00     0.079 C 
BRANCH  16  17
ATOM     17  C   UNL     1      10.050 -22.422  21.219  1.00  0.00     0.130 C 
ATOM     18  O   UNL     1      10.278 -21.749  20.225  1.00  0.00    -0.300 OA
ATOM     19  C   UNL     1      11.102 -22.534  22.283  1.00  0.00     0.087 C 
ENDBRANCH  16  17
ENDBRANCH  15  16
ENDBRANCH  13  15
ENDBRANCH  11  12
ENDBRANCH   1  11
TORSDOF 9
ENDMDL
MODEL 5
REMARK VINA RESULT:    -5.011      2.293      5.521
REMARK INTER + INTRA:         -10.089
REMARK INTER:                  -7.811
REMARK INTRA:                  -2.278
REMARK UNBOUND:                -2.442
REMARK SMILES CC(=O)CCC=C(C)CCC=C(C)CCC=C(C)C
REMARK SMILES IDX 10 1 11 2 12 3 13 4 14 5 15 6 16 7 18 8 17 9 19 10 9 11 7 12
REMARK SMILES IDX 6 13 8 14 5 15 4 16 2 17 3 18 1 19
REMARK H PARENT
REMARK Flexibility Score: inf
ROOT
ATOM      1  C   UNL     1       6.668 -19.946  23.603  1.00  0.00     0.032 C 
ENDROOT
BRANCH   1   2
ATOM      2  C   UNL     1       7.161 -21.302  23.163  1.00  0.00    -0.028 C 
ATOM      3  C   UNL     1       7.573 -21.596  21.908  1.00  0.00    -0.077 C 
ATOM      4  C   UNL     1       7.528 -20.575  20.795  1.00  0.00     0.039 C 
BRANCH   3   5
ATOM      5  C   UNL     1       8.082 -22.990  21.610  1.00  0.00     0.034 C 
BRANCH   5   6
ATOM      6  C   UNL     1       9.509 -22.941  21.050  1.00  0.00     0.032 C 
BRANCH   6   7
ATOM      7  C   UNL     1      10.521 -22.729  22.151  1.00  0.00    -0.028 C 
ATOM      8  C   UNL     1      12.661 -21.917  23.099  1.00  0.00     0.039 C 
ATOM      9  C   UNL     1      11.696 -22.091  21.956  1.00  0.00    -0.080 C 
ATOM     10  C   UNL     1      12.086 -21.549  20.603  1.00  0.00     0.039 C 
ENDBRANCH   6   7
ENDBRANCH   5   6
ENDBRANCH   3   5
ENDBRANCH   1   2
BRANCH   1  11
ATOM     11  C   UNL     1       7.740 -19.219  24.424  1.00  0.00     0.034 C 
BRANCH  11  12
ATOM     12  C   UNL     1       8.721 -18.507  23.519  1.00  0.00    -0.077 C 
ATOM     13  C   UNL     1       9.957 -19.032  23.351  1.00  0.00    -0.028 C 
ATOM     14  C   UNL     1       8.292 -17.236  22.823  1.00  0.00     0.039 C 
BRANCH  13  15
ATOM     15  C   UNL     1      11.043 -18.407  22.512  1.00  0.00     0.035 C 
BRANCH  15  16
ATOM     16  C   UNL     1      12.213 -17.952  23.390  1.00  0.00     0.079 C 
BRANCH  16  17
ATOM     17  C   UNL     1      12.311 -16.449  23.409  1.00  0.00     0.130 C 
ATOM     18  O   UNL     1      11.339 -15.788  23.743  1.00  0.00    -0.300 OA
ATOM     19  C   UNL     1      13.574 -15.743  23.014  1.00  0.00     0.087 C 
ENDBRANCH  16  17
ENDBRANCH  15  16
ENDBRANCH  13  15
ENDBRANCH  11  12
ENDBRANCH   1  11
TORSDOF 9
ENDMDL
MODEL 6
REMARK VINA RESULT:    -5.010      1.834      3.253
REMARK INTER + INTRA:         -10.088
REMARK INTER:                  -7.976
REMARK INTRA:                  -2.112
REMARK UNBOUND:                -2.442
REMARK SMILES CC(=O)CCC=C(C)CCC=C(C)CCC=C(C)C
REMARK SMILES IDX 10 1 11 2 12 3 13 4 14 5 15 6 16 7 18 8 17 9 19 10 9 11 7 12
REMARK SMILES IDX 6 13 8 14 5 15 4 16 2 17 3 18 1 19
REMARK H PARENT
REMARK Flexibility Score: inf
ROOT
ATOM      1  C   UNL     1       7.076 -18.288  24.983  1.00  0.00     0.032 C 
ENDROOT
BRANCH   1   2
ATOM      2  C   UNL     1       6.795 -17.299  23.880  1.00  0.00    -0.028 C 
ATOM      3  C   UNL     1       7.547 -16.204  23.624  1.00  0.00    -0.077 C 
ATOM      4  C   UNL     1       8.742 -15.842  24.475  1.00  0.00     0.039 C 
BRANCH   3   5
ATOM      5  C   UNL     1       7.175 -15.313  22.458  1.00  0.00     0.034 C 
BRANCH   5   6
ATOM      6  C   UNL     1       7.092 -16.122  21.158  1.00  0.00     0.032 C 
BRANCH   6   7
ATOM      7  C   UNL     1       8.378 -16.867  20.895  1.00  0.00    -0.028 C 
ATOM      8  C   UNL     1       9.771 -18.629  19.849  1.00  0.00     0.039 C 
ATOM      9  C   UNL     1       8.454 -17.930  20.063  1.00  0.00    -0.080 C 
ATOM     10  C   UNL     1       7.240 -18.456  19.340  1.00  0.00     0.039 C 
ENDBRANCH   6   7
ENDBRANCH   5   6
ENDBRANCH   3   5
ENDBRANCH   1   2
BRANCH   1  11
ATOM     11  C   UNL     1       6.736 -19.714  24.534  1.00  0.00     0.034 C 
BRANCH  11  12
ATOM     12  C   UNL     1       7.644 -20.154  23.407  1.00  0.00    -0.077 C 
ATOM     13  C   UNL     1       7.148 -20.968  22.446  1.00  0.00    -0.028 C 
ATOM     14  C   UNL     1       9.075 -19.669  23.381  1.00  0.00     0.039 C 
BRANCH  13  15
ATOM     15  C   UNL     1       7.950 -21.514  21.292  1.00  0.00     0.035 C 
BRANCH  15  16
ATOM     16  C   UNL     1       8.739 -22.756  21.718  1.00  0.00     0.079 C 
BRANCH  16  17
ATOM     17  C   UNL     1      10.206 -22.578  21.430  1.00  0.00     0.130 C 
ATOM     18  O   UNL     1      10.557 -22.154  20.339  1.00  0.00    -0.300 OA
ATOM     19  C   UNL     1      11.251 -22.921  22.451  1.00  0.00     0.087 C 
ENDBRANCH  16  17
ENDBRANCH  15  16
ENDBRANCH  13  15
ENDBRANCH  11  12
ENDBRANCH   1  11
TORSDOF 9
ENDMDL
MODEL 7
REMARK VINA RESULT:    -4.929      1.693      2.482
REMARK INTER + INTRA:          -9.965
REMARK INTER:                  -8.214
REMARK INTRA:                  -1.751
REMARK UNBOUND:                -2.442
REMARK SMILES CC(=O)CCC=C(C)CCC=C(C)CCC=C(C)C
REMARK SMILES IDX 10 1 11 2 12 3 13 4 14 5 15 6 16 7 18 8 17 9 19 10 9 11 7 12
REMARK SMILES IDX 6 13 8 14 5 15 4 16 2 17 3 18 1 19
REMARK H PARENT
REMARK Flexibility Score: inf
ROOT
ATOM      1  C   UNL     1       7.261 -20.030  23.735  1.00  0.00     0.032 C 
ENDROOT
BRANCH   1   2
ATOM      2  C   UNL     1       7.471 -18.586  23.356  1.00  0.00    -0.028 C 
ATOM      3  C   UNL     1       7.570 -17.568  24.243  1.00  0.00    -0.077 C 
ATOM      4  C   UNL     1       7.427 -17.792  25.730  1.00  0.00     0.039 C 
BRANCH   3   5
ATOM      5  C   UNL     1       7.821 -16.167  23.728  1.00  0.00     0.034 C 
BRANCH   5   6
ATOM      6  C   UNL     1       8.965 -15.499  24.501  1.00  0.00     0.032 C 
BRANCH   6   7
ATOM      7  C   UNL     1      10.284 -15.677  23.787  1.00  0.00    -0.028 C 
ATOM      8  C   UNL     1      12.551 -16.626  23.477  1.00  0.00     0.039 C 
ATOM      9  C   UNL     1      11.257 -16.498  24.238  1.00  0.00    -0.080 C 
ATOM     10  C   UNL     1      11.093 -17.297  25.507  1.00  0.00     0.039 C 
ENDBRANCH   6   7
ENDBRANCH   5   6
ENDBRANCH   3   5
ENDBRANCH   1   2
BRANCH   1  11
ATOM     11  C   UNL     1       6.645 -20.814  22.570  1.00  0.00     0.034 C 
BRANCH  11  12
ATOM     12  C   UNL     1       7.723 -21.401  21.686  1.00  0.00    -0.077 C 
ATOM     13  C   UNL     1       8.479 -22.417  22.163  1.00  0.00    -0.028 C 
ATOM     14  C   UNL     1       7.920 -20.843  20.296  1.00  0.00     0.039 C 
BRANCH  13  15
ATOM     15  C   UNL     1       9.610 -23.067  21.407  1.00  0.00     0.035 C 
BRANCH  15  16
ATOM     16  C   UNL     1      10.909 -23.009  22.217  1.00  0.00     0.079 C 
BRANCH  16  17
ATOM     17  C   UNL     1      11.664 -21.741  21.920  1.00  0.00     0.130 C 
ATOM     18  O   UNL     1      12.411 -21.698  20.954  1.00  0.00    -0.300 OA
ATOM     19  C   UNL     1      11.527 -20.527  22.793  1.00  0.00     0.087 C 
ENDBRANCH  16  17
ENDBRANCH  15  16
ENDBRANCH  13  15
ENDBRANCH  11  12
ENDBRANCH   1  11
TORSDOF 9
ENDMDL
MODEL 8
REMARK VINA RESULT:    -4.887      2.608      6.021
REMARK INTER + INTRA:          -9.901
REMARK INTER:                  -7.510
REMARK INTRA:                  -2.391
REMARK UNBOUND:                -2.442
REMARK SMILES CC(=O)CCC=C(C)CCC=C(C)CCC=C(C)C
REMARK SMILES IDX 10 1 11 2 12 3 13 4 14 5 15 6 16 7 18 8 17 9 19 10 9 11 7 12
REMARK SMILES IDX 6 13 8 14 5 15 4 16 2 17 3 18 1 19
REMARK H PARENT
REMARK Flexibility Score: inf
ROOT
ATOM      1  C   UNL     1       8.981 -23.009  21.728  1.00  0.00     0.032 C 
ENDROOT
BRANCH   1   2
ATOM      2  C   UNL     1      10.321 -22.651  21.136  1.00  0.00    -0.028 C 
ATOM      3  C   UNL     1      11.155 -21.712  21.641  1.00  0.00    -0.077 C 
ATOM      4  C   UNL     1      10.783 -20.885  22.850  1.00  0.00     0.039 C 
BRANCH   3   5
ATOM      5  C   UNL     1      12.492 -21.479  20.971  1.00  0.00     0.034 C 
BRANCH   5   6
ATOM      6  C   UNL     1      12.312 -21.229  19.469  1.00  0.00     0.032 C 
BRANCH   6   7
ATOM      7  C   UNL     1      11.722 -19.863  19.209  1.00  0.00    -0.028 C 
ATOM      8  C   UNL     1      10.033 -18.288  18.311  1.00  0.00     0.039 C 
ATOM      9  C   UNL     1      10.564 -19.680  18.537  1.00  0.00    -0.080 C 
ATOM     10  C   UNL     1       9.777 -20.843  17.985  1.00  0.00     0.039 C 
ENDBRANCH   6   7
ENDBRANCH   5   6
ENDBRANCH   3   5
ENDBRANCH   1   2
BRANCH   1  11
ATOM     11  C   UNL     1       7.845 -22.347  20.940  1.00  0.00     0.034 C 
BRANCH  11  12
ATOM     12  C   UNL     1       7.452 -21.027  21.567  1.00  0.00    -0.077 C 
ATOM     13  C   UNL     1       7.022 -21.014  22.851  1.00  0.00    -0.028 C 
ATOM     14  C   UNL     1       7.559 -19.762  20.749  1.00  0.00     0.039 C 
BRANCH  13  15
ATOM     15  C   UNL     1       6.563 -19.780  23.585  1.00  0.00     0.035 C 
BRANCH  15  16
ATOM     16  C   UNL     1       7.668 -19.254  24.506  1.00  0.00     0.079 C 
BRANCH  16  17
ATOM     17  C   UNL     1       7.548 -17.762  24.680  1.00  0.00     0.130 C 
ATOM     18  O   UNL     1       7.716 -17.271  25.785  1.00  0.00    -0.300 OA
ATOM     19  C   UNL     1       7.215 -16.865  23.524  1.00  0.00     0.087 C 
ENDBRANCH  16  17
ENDBRANCH  15  16
ENDBRANCH  13  15
ENDBRANCH  11  12
ENDBRANCH   1  11
TORSDOF 9
ENDMDL
MODEL 9
REMARK VINA RESULT:    -4.879      2.138      5.451
REMARK INTER + INTRA:          -9.889
REMARK INTER:                  -7.740
REMARK INTRA:                  -2.149
REMARK UNBOUND:                -2.442
REMARK SMILES CC(=O)CCC=C(C)CCC=C(C)CCC=C(C)C
REMARK SMILES IDX 10 1 11 2 12 3 13 4 14 5 15 6 16 7 18 8 17 9 19 10 9 11 7 12
REMARK SMILES IDX 6 13 8 14 5 15 4 16 2 17 3 18 1 19
REMARK H PARENT
REMARK Flexibility Score: inf
ROOT
ATOM      1  C   UNL     1       6.757 -20.760  22.793  1.00  0.00     0.032 C 
ENDROOT
BRANCH   1   2
ATOM      2  C   UNL     1       7.882 -21.747  22.605  1.00  0.00    -0.028 C 
ATOM      3  C   UNL     1       8.523 -21.962  21.433  1.00  0.00    -0.077 C 
ATOM      4  C   UNL     1       8.124 -21.244  20.164  1.00  0.00     0.039 C 
BRANCH   3   5
ATOM      5  C   UNL     1       9.664 -22.955  21.391  1.00  0.00     0.034 C 
BRANCH   5   6
ATOM      6  C   UNL     1      10.998 -22.243  21.133  1.00  0.00     0.032 C 
BRANCH   6   7
ATOM      7  C   UNL     1      11.593 -21.717  22.417  1.00  0.00    -0.028 C 
ATOM      8  C   UNL     1      12.155 -19.956  24.067  1.00  0.00     0.039 C 
ATOM      9  C   UNL     1      11.537 -20.414  22.772  1.00  0.00    -0.080 C 
ATOM     10  C   UNL     1      10.876 -19.382  21.892  1.00  0.00     0.039 C 
ENDBRANCH   6   7
ENDBRANCH   5   6
ENDBRANCH   3   5
ENDBRANCH   1   2
BRANCH   1  11
ATOM     11  C   UNL     1       6.761 -20.198  24.220  1.00  0.00     0.034 C 
BRANCH  11  12
ATOM     12  C   UNL     1       7.400 -18.827  24.257  1.00  0.00    -0.077 C 
ATOM     13  C   UNL     1       7.866 -18.353  25.436  1.00  0.00    -0.028 C 
ATOM     14  C   UNL     1       7.506 -18.029  22.978  1.00  0.00     0.039 C 
BRANCH  13  15
ATOM     15  C   UNL     1       8.487 -16.992  25.623  1.00  0.00     0.035 C 
BRANCH  15  16
ATOM     16  C   UNL     1      10.007 -17.060  25.448  1.00  0.00     0.079 C 
BRANCH  16  17
ATOM     17  C   UNL     1      10.463 -16.090  24.390  1.00  0.00     0.130 C 
ATOM     18  O   UNL     1       9.748 -15.146  24.092  1.00  0.00    -0.300 OA
ATOM     19  C   UNL     1      11.775 -16.265  23.683  1.00  0.00     0.087 C 
ENDBRANCH  16  17
ENDBRANCH  15  16
ENDBRANCH  13  15
ENDBRANCH  11  12
ENDBRANCH   1  11
TORSDOF 9
ENDMDL
