MODEL 1
REMARK VINA RESULT:    -4.589      0.000      0.000
REMARK INTER + INTRA:          -6.170
REMARK INTER:                  -5.930
REMARK INTRA:                  -0.240
REMARK UNBOUND:                -0.240
REMARK SMILES CCCCCCC(=O)[O-]
REMARK SMILES IDX 5 1 6 2 7 3 8 4 9 5 4 6 3 7 2 8 1 9
REMARK H PARENT
REMARK Flexibility Score: inf
ROOT
ATOM      1  C   UNL     1      19.185   6.701 -11.708  1.00  0.00     0.006 C 
ENDROOT
BRANCH   1   2
ATOM      2  C   UNL     1      20.090   5.701 -12.435  1.00  0.00     0.053 C 
BRANCH   2   3
ATOM      3  C   UNL     1      21.522   5.935 -12.076  1.00  0.00     0.041 C 
ATOM      4  O   UNL     1      21.827   6.802 -11.215  1.00  0.00    -0.550 OA
ATOM      5  O   UNL     1      22.519   5.161 -12.657  1.00  0.00    -0.550 OA
ENDBRANCH   2   3
ENDBRANCH   1   2
BRANCH   1   6
ATOM      6  C   UNL     1      18.099   5.977 -10.904  1.00  0.00     0.000 C 
BRANCH   6   7
ATOM      7  C   UNL     1      18.362   4.463 -10.865  1.00  0.00    -0.000 C 
BRANCH   7   8
ATOM      8  C   UNL     1      17.065   3.640 -10.840  1.00  0.00    -0.003 C 
ATOM      9  C   UNL     1      15.816   4.507 -10.687  1.00  0.00     0.004 C 
ENDBRANCH   7   8
ENDBRANCH   6   7
ENDBRANCH   1   6
TORSDOF 5
ENDMDL
MODEL 2
REMARK VINA RESULT:    -4.377      1.277      1.701
REMARK INTER + INTRA:          -5.896
REMARK INTER:                  -5.625
REMARK INTRA:                  -0.272
REMARK UNBOUND:                -0.240
REMARK SMILES CCCCCCC(=O)[O-]
REMARK SMILES IDX 5 1 6 2 7 3 8 4 9 5 4 6 3 7 2 8 1 9
REMARK H PARENT
REMARK Flexibility Score: inf
ROOT
ATOM      1  C   UNL     1      20.600   5.957 -10.371  1.00  0.00     0.006 C 
ENDROOT
BRANCH   1   2
ATOM      2  C   UNL     1      21.584   6.522 -11.400  1.00  0.00     0.053 C 
BRANCH   2   3
ATOM      3  C   UNL     1      21.792   5.547 -12.516  1.00  0.00     0.041 C 
ATOM      4  O   UNL     1      20.803   5.016 -13.085  1.00  0.00    -0.550 OA
ATOM      5  O   UNL     1      23.077   5.261 -12.958  1.00  0.00    -0.550 OA
ENDBRANCH   2   3
ENDBRANCH   1   2
BRANCH   1   6
ATOM      6  C   UNL     1      19.311   6.785 -10.329  1.00  0.00     0.000 C 
BRANCH   6   7
ATOM      7  C   UNL     1      18.137   6.007 -10.945  1.00  0.00    -0.000 C 
BRANCH   7   8
ATOM      8  C   UNL     1      18.318   4.485 -10.836  1.00  0.00    -0.003 C 
ATOM      9  C   UNL     1      16.989   3.731 -10.814  1.00  0.00     0.004 C 
ENDBRANCH   7   8
ENDBRANCH   6   7
ENDBRANCH   1   6
TORSDOF 5
ENDMDL
MODEL 3
REMARK VINA RESULT:    -4.362      3.109      4.767
REMARK INTER + INTRA:          -5.878
REMARK INTER:                  -5.593
REMARK INTRA:                  -0.285
REMARK UNBOUND:                -0.240
REMARK SMILES CCCCCCC(=O)[O-]
REMARK SMILES IDX 5 1 6 2 7 3 8 4 9 5 4 6 3 7 2 8 1 9
REMARK H PARENT
REMARK Flexibility Score: inf
ROOT
ATOM      1  C   UNL     1      18.284   6.317 -11.059  1.00  0.00     0.006 C 
ENDROOT
BRANCH   1   2
ATOM      2  C   UNL     1      18.422   4.800 -10.900  1.00  0.00     0.053 C 
BRANCH   2   3
ATOM      3  C   UNL     1      17.075   4.161 -10.786  1.00  0.00     0.041 C 
ATOM      4  O   UNL     1      16.906   2.967 -11.149  1.00  0.00    -0.550 OA
ATOM      5  O   UNL     1      16.014   4.868 -10.234  1.00  0.00    -0.550 OA
ENDBRANCH   2   3
ENDBRANCH   1   2
BRANCH   1   6
ATOM      6  C   UNL     1      19.283   7.058 -10.163  1.00  0.00     0.000 C 
BRANCH   6   7
ATOM      7  C   UNL     1      20.619   6.300 -10.087  1.00  0.00    -0.000 C 
BRANCH   7   8
ATOM      8  C   UNL     1      21.636   6.791 -11.128  1.00  0.00    -0.003 C 
ATOM      9  C   UNL     1      22.045   5.699 -12.116  1.00  0.00     0.004 C 
ENDBRANCH   7   8
ENDBRANCH   6   7
ENDBRANCH   1   6
TORSDOF 5
ENDMDL
MODEL 4
REMARK VINA RESULT:    -4.062      2.586      4.193
REMARK INTER + INTRA:          -5.490
REMARK INTER:                  -5.115
REMARK INTRA:                  -0.375
REMARK UNBOUND:                -0.240
REMARK SMILES CCCCCCC(=O)[O-]
REMARK SMILES IDX 5 1 6 2 7 3 8 4 9 5 4 6 3 7 2 8 1 9
REMARK H PARENT
REMARK Flexibility Score: inf
ROOT
ATOM      1  C   UNL     1      21.106   6.040  -9.986  1.00  0.00     0.006 C 
ENDROOT
BRANCH   1   2
ATOM      2  C   UNL     1      19.676   6.509  -9.697  1.00  0.00     0.053 C 
BRANCH   2   3
ATOM      3  C   UNL     1      18.733   5.980 -10.731  1.00  0.00     0.041 C 
ATOM      4  O   UNL     1      18.255   6.750 -11.605  1.00  0.00    -0.550 OA
ATOM      5  O   UNL     1      18.419   4.627 -10.758  1.00  0.00    -0.550 OA
ENDBRANCH   2   3
ENDBRANCH   1   2
BRANCH   1   6
ATOM      6  C   UNL     1      21.904   7.125 -10.717  1.00  0.00     0.000 C 
BRANCH   6   7
ATOM      7  C   UNL     1      21.992   6.823 -12.221  1.00  0.00    -0.000 C 
BRANCH   7   8
ATOM      8  C   UNL     1      22.041   5.317 -12.518  1.00  0.00    -0.003 C 
ATOM      9  C   UNL     1      20.863   4.843 -13.370  1.00  0.00     0.004 C 
ENDBRANCH   7   8
ENDBRANCH   6   7
ENDBRANCH   1   6
TORSDOF 5
ENDMDL
MODEL 5
REMARK VINA RESULT:    -3.540     12.091     13.321
REMARK INTER + INTRA:          -4.815
REMARK INTER:                  -4.645
REMARK INTRA:                  -0.170
REMARK UNBOUND:                -0.240
REMARK SMILES CCCCCCC(=O)[O-]
REMARK SMILES IDX 5 1 6 2 7 3 8 4 9 5 4 6 3 7 2 8 1 9
REMARK H PARENT
REMARK Flexibility Score: inf
ROOT
ATOM      1  C   UNL     1      24.798  -2.491 -19.491  1.00  0.00     0.006 C 
ENDROOT
BRANCH   1   2
ATOM      2  C   UNL     1      24.987  -2.633 -17.977  1.00  0.00     0.053 C 
BRANCH   2   3
ATOM      3  C   UNL     1      24.289  -1.525 -17.256  1.00  0.00     0.041 C 
ATOM      4  O   UNL     1      24.284  -1.492 -15.997  1.00  0.00    -0.550 OA
ATOM      5  O   UNL     1      23.684  -0.501 -17.974  1.00  0.00    -0.550 OA
ENDBRANCH   2   3
ENDBRANCH   1   2
BRANCH   1   6
ATOM      6  C   UNL     1      25.472  -3.645 -20.241  1.00  0.00     0.000 C 
BRANCH   6   7
ATOM      7  C   UNL     1      25.115  -4.998 -19.604  1.00  0.00    -0.000 C 
BRANCH   7   8
ATOM      8  C   UNL     1      25.761  -6.183 -20.337  1.00  0.00    -0.003 C 
ATOM      9  C   UNL     1      26.528  -5.759 -21.589  1.00  0.00     0.004 C 
ENDBRANCH   7   8
ENDBRANCH   6   7
ENDBRANCH   1   6
TORSDOF 5
ENDMDL
MODEL 6
REMARK VINA RESULT:    -3.503     12.660     13.868
REMARK INTER + INTRA:          -4.767
REMARK INTER:                  -4.610
REMARK INTRA:                  -0.157
REMARK UNBOUND:                -0.240
REMARK SMILES CCCCCCC(=O)[O-]
REMARK SMILES IDX 5 1 6 2 7 3 8 4 9 5 4 6 3 7 2 8 1 9
REMARK H PARENT
REMARK Flexibility Score: inf
ROOT
ATOM      1  C   UNL     1      25.028  -4.478 -19.039  1.00  0.00     0.006 C 
ENDROOT
BRANCH   1   2
ATOM      2  C   UNL     1      25.669  -4.224 -20.407  1.00  0.00     0.053 C 
BRANCH   2   3
ATOM      3  C   UNL     1      26.115  -5.511 -21.024  1.00  0.00     0.041 C 
ATOM      4  O   UNL     1      26.886  -5.504 -22.019  1.00  0.00    -0.550 OA
ATOM      5  O   UNL     1      25.716  -6.721 -20.470  1.00  0.00    -0.550 OA
ENDBRANCH   2   3
ENDBRANCH   1   2
BRANCH   1   6
ATOM      6  C   UNL     1      24.964  -3.188 -18.213  1.00  0.00     0.000 C 
BRANCH   6   7
ATOM      7  C   UNL     1      24.284  -2.061 -19.007  1.00  0.00    -0.000 C 
BRANCH   7   8
ATOM      8  C   UNL     1      23.925  -0.854 -18.126  1.00  0.00    -0.003 C 
ATOM      9  C   UNL     1      24.239  -1.086 -16.648  1.00  0.00     0.004 C 
ENDBRANCH   7   8
ENDBRANCH   6   7
ENDBRANCH   1   6
TORSDOF 5
ENDMDL
MODEL 7
REMARK VINA RESULT:    -3.485     24.556     25.543
REMARK INTER + INTRA:          -4.744
REMARK INTER:                  -4.977
REMARK INTRA:                   0.233
REMARK UNBOUND:                -0.240
REMARK SMILES CCCCCCC(=O)[O-]
REMARK SMILES IDX 5 1 6 2 7 3 8 4 9 5 4 6 3 7 2 8 1 9
REMARK H PARENT
REMARK Flexibility Score: inf
ROOT
ATOM      1  C   UNL     1      29.833 -12.476 -26.129  1.00  0.00     0.006 C 
ENDROOT
BRANCH   1   2
ATOM      2  C   UNL     1      30.821 -13.117 -27.108  1.00  0.00     0.053 C 
BRANCH   2   3
ATOM      3  C   UNL     1      30.531 -12.677 -28.508  1.00  0.00     0.041 C 
ATOM      4  O   UNL     1      29.522 -13.121 -29.116  1.00  0.00    -0.550 OA
ATOM      5  O   UNL     1      31.349 -11.739 -29.125  1.00  0.00    -0.550 OA
ENDBRANCH   2   3
ENDBRANCH   1   2
BRANCH   1   6
ATOM      6  C   UNL     1      28.405 -12.975 -26.381  1.00  0.00     0.000 C 
BRANCH   6   7
ATOM      7  C   UNL     1      27.380 -12.107 -25.633  1.00  0.00    -0.000 C 
BRANCH   7   8
ATOM      8  C   UNL     1      26.332 -11.492 -26.573  1.00  0.00    -0.003 C 
ATOM      9  C   UNL     1      25.365 -10.556 -25.850  1.00  0.00     0.004 C 
ENDBRANCH   7   8
ENDBRANCH   6   7
ENDBRANCH   1   6
TORSDOF 5
ENDMDL
MODEL 8
REMARK VINA RESULT:    -3.444     24.326     25.497
REMARK INTER + INTRA:          -4.690
REMARK INTER:                  -4.382
REMARK INTRA:                  -0.308
REMARK UNBOUND:                -0.240
REMARK SMILES CCCCCCC(=O)[O-]
REMARK SMILES IDX 5 1 6 2 7 3 8 4 9 5 4 6 3 7 2 8 1 9
REMARK H PARENT
REMARK Flexibility Score: inf
ROOT
ATOM      1  C   UNL     1      28.481 -11.563 -25.408  1.00  0.00     0.006 C 
ENDROOT
BRANCH   1   2
ATOM      2  C   UNL     1      27.681 -12.635 -26.155  1.00  0.00     0.053 C 
BRANCH   2   3
ATOM      3  C   UNL     1      26.620 -12.003 -26.998  1.00  0.00     0.041 C 
ATOM      4  O   UNL     1      25.872 -11.113 -26.514  1.00  0.00    -0.550 OA
ATOM      5  O   UNL     1      26.486 -12.362 -28.333  1.00  0.00    -0.550 OA
ENDBRANCH   2   3
ENDBRANCH   1   2
BRANCH   1   6
ATOM      6  C   UNL     1      29.986 -11.736 -25.642  1.00  0.00     0.000 C 
BRANCH   6   7
ATOM      7  C   UNL     1      30.282 -13.066 -26.354  1.00  0.00    -0.000 C 
BRANCH   7   8
ATOM      8  C   UNL     1      31.037 -12.871 -27.677  1.00  0.00    -0.003 C 
ATOM      9  C   UNL     1      30.111 -12.873 -28.893  1.00  0.00     0.004 C 
ENDBRANCH   7   8
ENDBRANCH   6   7
ENDBRANCH   1   6
TORSDOF 5
ENDMDL
MODEL 9
REMARK VINA RESULT:    -3.393     22.968     24.203
REMARK INTER + INTRA:          -4.625
REMARK INTER:                  -4.411
REMARK INTRA:                  -0.214
REMARK UNBOUND:                -0.240
REMARK SMILES CCCCCCC(=O)[O-]
REMARK SMILES IDX 5 1 6 2 7 3 8 4 9 5 4 6 3 7 2 8 1 9
REMARK H PARENT
REMARK Flexibility Score: inf
ROOT
ATOM      1  C   UNL     1      28.056 -12.802 -26.398  1.00  0.00     0.006 C 
ENDROOT
BRANCH   1   2
ATOM      2  C   UNL     1      27.208 -11.829 -25.572  1.00  0.00     0.053 C 
BRANCH   2   3
ATOM      3  C   UNL     1      26.047 -11.336 -26.375  1.00  0.00     0.041 C 
ATOM      4  O   UNL     1      25.915 -11.683 -27.577  1.00  0.00    -0.550 OA
ATOM      5  O   UNL     1      25.084 -10.530 -25.781  1.00  0.00    -0.550 OA
ENDBRANCH   2   3
ENDBRANCH   1   2
BRANCH   1   6
ATOM      6  C   UNL     1      29.550 -12.482 -26.261  1.00  0.00     0.000 C 
BRANCH   6   7
ATOM      7  C   UNL     1      29.767 -11.232 -25.394  1.00  0.00    -0.000 C 
BRANCH   7   8
ATOM      8  C   UNL     1      30.736 -11.484 -24.229  1.00  0.00    -0.003 C 
ATOM      9  C   UNL     1      30.811 -10.308 -23.256  1.00  0.00     0.004 C 
ENDBRANCH   7   8
ENDBRANCH   6   7
ENDBRANCH   1   6
TORSDOF 5
ENDMDL
