MODEL 1
REMARK VINA RESULT:    -5.543      0.000      0.000
REMARK INTER + INTRA:         -12.165
REMARK INTER:                 -10.404
REMARK INTRA:                  -1.761
REMARK UNBOUND:                -1.761
REMARK SMILES O=C([O-])CCCCCCCCCCCCCCC(=O)[O-]
REMARK SMILES IDX 10 1 9 2 8 3 7 4 6 5 5 6 4 7 2 8 1 9 3 10 11 11 12 12 13 13
REMARK SMILES IDX 14 14 15 15 16 16 17 17 18 18 19 19 20 20
REMARK H PARENT
REMARK Flexibility Score: inf
ROOT
ATOM      1  C   UNL     1       9.670   3.717  54.523  1.00  0.00     0.000 C 
ENDROOT
BRANCH   1   2
ATOM      2  C   UNL     1       9.636   4.143  56.002  1.00  0.00     0.000 C 
BRANCH   2   3
ATOM      3  C   UNL     1       9.519   5.666  56.168  1.00  0.00     0.000 C 
BRANCH   3   4
ATOM      4  C   UNL     1       9.498   6.409  54.819  1.00  0.00     0.000 C 
BRANCH   4   5
ATOM      5  C   UNL     1      10.330   7.707  54.857  1.00  0.00     0.000 C 
BRANCH   5   6
ATOM      6  C   UNL     1      11.105   7.980  53.556  1.00  0.00     0.006 C 
BRANCH   6   7
ATOM      7  C   UNL     1      10.379   7.464  52.308  1.00  0.00     0.053 C 
BRANCH   7   8
ATOM      8  C   UNL     1       9.436   8.502  51.787  1.00  0.00     0.041 C 
ATOM      9  O   UNL     1       8.238   8.202  51.539  1.00  0.00    -0.550 OA
ATOM     10  O   UNL     1       9.865   9.812  51.621  1.00  0.00    -0.550 OA
ENDBRANCH   7   8
ENDBRANCH   6   7
ENDBRANCH   5   6
ENDBRANCH   4   5
ENDBRANCH   3   4
ENDBRANCH   2   3
ENDBRANCH   1   2
BRANCH   1  11
ATOM     11  C   UNL     1      11.001   3.055  54.130  1.00  0.00     0.000 C 
BRANCH  11  12
ATOM     12  C   UNL     1      11.924   4.004  53.345  1.00  0.00     0.000 C 
BRANCH  12  13
ATOM     13  C   UNL     1      12.834   4.834  54.264  1.00  0.00     0.000 C 
BRANCH  13  14
ATOM     14  C   UNL     1      13.263   4.066  55.528  1.00  0.00     0.000 C 
BRANCH  14  15
ATOM     15  C   UNL     1      14.776   3.802  55.574  1.00  0.00     0.000 C 
BRANCH  15  16
ATOM     16  C   UNL     1      15.126   2.499  56.309  1.00  0.00     0.006 C 
BRANCH  16  17
ATOM     17  C   UNL     1      16.238   1.740  55.578  1.00  0.00     0.053 C 
BRANCH  17  18
ATOM     18  C   UNL     1      16.575   0.476  56.306  1.00  0.00     0.041 C 
ATOM     19  O   UNL     1      16.894   0.512  57.523  1.00  0.00    -0.550 OA
ATOM     20  O   UNL     1      16.584  -0.736  55.626  1.00  0.00    -0.550 OA
ENDBRANCH  17  18
ENDBRANCH  16  17
ENDBRANCH  15  16
ENDBRANCH  14  15
ENDBRANCH  13  14
ENDBRANCH  12  13
ENDBRANCH  11  12
ENDBRANCH   1  11
TORSDOF 15
ENDMDL
MODEL 2
REMARK VINA RESULT:    -5.526      2.250      7.857
REMARK INTER + INTRA:         -12.134
REMARK INTER:                 -10.163
REMARK INTRA:                  -1.970
REMARK UNBOUND:                -1.761
REMARK SMILES O=C([O-])CCCCCCCCCCCCCCC(=O)[O-]
REMARK SMILES IDX 10 1 9 2 8 3 7 4 6 5 5 6 4 7 2 8 1 9 3 10 11 11 12 12 13 13
REMARK SMILES IDX 14 14 15 15 16 16 17 17 18 18 19 19 20 20
REMARK H PARENT
REMARK Flexibility Score: inf
ROOT
ATOM      1  C   UNL     1      12.402   5.071  53.543  1.00  0.00     0.000 C 
ENDROOT
BRANCH   1   2
ATOM      2  C   UNL     1      11.775   3.723  53.144  1.00  0.00     0.000 C 
BRANCH   2   3
ATOM      3  C   UNL     1      10.872   3.150  54.248  1.00  0.00     0.000 C 
BRANCH   3   4
ATOM      4  C   UNL     1       9.869   4.185  54.788  1.00  0.00     0.000 C 
BRANCH   4   5
ATOM      5  C   UNL     1       9.969   4.346  56.320  1.00  0.00     0.000 C 
BRANCH   5   6
ATOM      6  C   UNL     1      11.407   4.563  56.824  1.00  0.00     0.006 C 
BRANCH   6   7
ATOM      7  C   UNL     1      11.869   3.473  57.798  1.00  0.00     0.053 C 
BRANCH   7   8
ATOM      8  C   UNL     1      12.997   2.687  57.207  1.00  0.00     0.041 C 
ATOM      9  O   UNL     1      13.715   3.192  56.305  1.00  0.00    -0.550 OA
ATOM     10  O   UNL     1      13.286   1.417  57.687  1.00  0.00    -0.550 OA
ENDBRANCH   7   8
ENDBRANCH   6   7
ENDBRANCH   5   6
ENDBRANCH   4   5
ENDBRANCH   3   4
ENDBRANCH   2   3
ENDBRANCH   1   2
BRANCH   1  11
ATOM     11  C   UNL     1      12.001   6.212  52.593  1.00  0.00     0.000 C 
BRANCH  11  12
ATOM     12  C   UNL     1      11.910   7.572  53.308  1.00  0.00     0.000 C 
BRANCH  12  13
ATOM     13  C   UNL     1      11.502   7.435  54.784  1.00  0.00     0.000 C 
BRANCH  13  14
ATOM     14  C   UNL     1      10.468   8.490  55.215  1.00  0.00     0.000 C 
BRANCH  14  15
ATOM     15  C   UNL     1       9.032   7.942  55.220  1.00  0.00     0.000 C 
BRANCH  15  16
ATOM     16  C   UNL     1       8.576   7.467  53.832  1.00  0.00     0.006 C 
BRANCH  16  17
ATOM     17  C   UNL     1       7.740   8.542  53.132  1.00  0.00     0.053 C 
BRANCH  17  18
ATOM     18  C   UNL     1       8.168   8.693  51.706  1.00  0.00     0.041 C 
ATOM     19  O   UNL     1       9.109   7.990  51.250  1.00  0.00    -0.550 OA
ATOM     20  O   UNL     1       7.563   9.644  50.895  1.00  0.00    -0.550 OA
ENDBRANCH  17  18
ENDBRANCH  16  17
ENDBRANCH  15  16
ENDBRANCH  14  15
ENDBRANCH  13  14
ENDBRANCH  12  13
ENDBRANCH  11  12
ENDBRANCH   1  11
TORSDOF 15
ENDMDL
MODEL 3
REMARK VINA RESULT:    -5.507      0.878      8.537
REMARK INTER + INTRA:         -12.097
REMARK INTER:                 -10.760
REMARK INTRA:                  -1.336
REMARK UNBOUND:                -1.761
REMARK SMILES O=C([O-])CCCCCCCCCCCCCCC(=O)[O-]
REMARK SMILES IDX 10 1 9 2 8 3 7 4 6 5 5 6 4 7 2 8 1 9 3 10 11 11 12 12 13 13
REMARK SMILES IDX 14 14 15 15 16 16 17 17 18 18 19 19 20 20
REMARK H PARENT
REMARK Flexibility Score: inf
ROOT
ATOM      1  C   UNL     1      10.971   3.091  54.159  1.00  0.00     0.000 C 
ENDROOT
BRANCH   1   2
ATOM      2  C   UNL     1      11.846   4.020  53.298  1.00  0.00     0.000 C 
BRANCH   2   3
ATOM      3  C   UNL     1      12.841   4.832  54.142  1.00  0.00     0.000 C 
BRANCH   3   4
ATOM      4  C   UNL     1      13.192   4.141  55.472  1.00  0.00     0.000 C 
BRANCH   4   5
ATOM      5  C   UNL     1      14.695   3.810  55.576  1.00  0.00     0.000 C 
BRANCH   5   6
ATOM      6  C   UNL     1      14.979   2.401  56.127  1.00  0.00     0.006 C 
BRANCH   6   7
ATOM      7  C   UNL     1      16.331   1.842  55.669  1.00  0.00     0.053 C 
BRANCH   7   8
ATOM      8  C   UNL     1      16.624   0.549  56.363  1.00  0.00     0.041 C 
ATOM      9  O   UNL     1      16.928   0.541  57.584  1.00  0.00    -0.550 OA
ATOM     10  O   UNL     1      16.513  -0.650  55.672  1.00  0.00    -0.550 OA
ENDBRANCH   7   8
ENDBRANCH   6   7
ENDBRANCH   5   6
ENDBRANCH   4   5
ENDBRANCH   3   4
ENDBRANCH   2   3
ENDBRANCH   1   2
BRANCH   1  11
ATOM     11  C   UNL     1       9.621   3.726  54.527  1.00  0.00     0.000 C 
BRANCH  11  12
ATOM     12  C   UNL     1       9.573   4.207  55.989  1.00  0.00     0.000 C 
BRANCH  12  13
ATOM     13  C   UNL     1       9.827   5.717  56.121  1.00  0.00     0.000 C 
BRANCH  13  14
ATOM     14  C   UNL     1       9.474   6.494  54.840  1.00  0.00     0.000 C 
BRANCH  14  15
ATOM     15  C   UNL     1       9.308   8.001  55.090  1.00  0.00     0.000 C 
BRANCH  15  16
ATOM     16  C   UNL     1       8.418   8.680  54.038  1.00  0.00     0.006 C 
BRANCH  16  17
ATOM     17  C   UNL     1       8.141   7.737  52.863  1.00  0.00     0.053 C 
BRANCH  17  18
ATOM     18  C   UNL     1       8.843   8.215  51.631  1.00  0.00     0.041 C 
ATOM     19  O   UNL     1       9.871   7.618  51.216  1.00  0.00    -0.550 OA
ATOM     20  O   UNL     1       8.391   9.349  50.969  1.00  0.00    -0.550 OA
ENDBRANCH  17  18
ENDBRANCH  16  17
ENDBRANCH  15  16
ENDBRANCH  14  15
ENDBRANCH  13  14
ENDBRANCH  12  13
ENDBRANCH  11  12
ENDBRANCH   1  11
TORSDOF 15
ENDMDL
MODEL 4
REMARK VINA RESULT:    -5.375      2.148      3.267
REMARK INTER + INTRA:         -11.850
REMARK INTER:                  -9.957
REMARK INTRA:                  -1.893
REMARK UNBOUND:                -1.761
REMARK SMILES O=C([O-])CCCCCCCCCCCCCCC(=O)[O-]
REMARK SMILES IDX 10 1 9 2 8 3 7 4 6 5 5 6 4 7 2 8 1 9 3 10 11 11 12 12 13 13
REMARK SMILES IDX 14 14 15 15 16 16 17 17 18 18 19 19 20 20
REMARK H PARENT
REMARK Flexibility Score: inf
ROOT
ATOM      1  C   UNL     1      11.459   6.619  53.007  1.00  0.00     0.000 C 
ENDROOT
BRANCH   1   2
ATOM      2  C   UNL     1      11.739   7.895  53.821  1.00  0.00     0.000 C 
BRANCH   2   3
ATOM      3  C   UNL     1      11.041   7.880  55.190  1.00  0.00     0.000 C 
BRANCH   3   4
ATOM      4  C   UNL     1       9.549   7.515  55.089  1.00  0.00     0.000 C 
BRANCH   4   5
ATOM      5  C   UNL     1       8.638   8.756  55.201  1.00  0.00     0.000 C 
BRANCH   5   6
ATOM      6  C   UNL     1       7.695   8.938  53.999  1.00  0.00     0.006 C 
BRANCH   6   7
ATOM      7  C   UNL     1       8.074   8.057  52.803  1.00  0.00     0.053 C 
BRANCH   7   8
ATOM      8  C   UNL     1       8.358   8.901  51.601  1.00  0.00     0.041 C 
ATOM      9  O   UNL     1       7.421   9.499  51.011  1.00  0.00    -0.550 OA
ATOM     10  O   UNL     1       9.665   9.068  51.162  1.00  0.00    -0.550 OA
ENDBRANCH   7   8
ENDBRANCH   6   7
ENDBRANCH   5   6
ENDBRANCH   4   5
ENDBRANCH   3   4
ENDBRANCH   2   3
ENDBRANCH   1   2
BRANCH   1  11
ATOM     11  C   UNL     1      12.365   5.447  53.417  1.00  0.00     0.000 C 
BRANCH  11  12
ATOM     12  C   UNL     1      11.796   4.082  52.990  1.00  0.00     0.000 C 
BRANCH  12  13
ATOM     13  C   UNL     1      11.223   3.286  54.175  1.00  0.00     0.000 C 
BRANCH  13  14
ATOM     14  C   UNL     1       9.970   3.943  54.782  1.00  0.00     0.000 C 
BRANCH  14  15
ATOM     15  C   UNL     1      10.134   4.258  56.277  1.00  0.00     0.000 C 
BRANCH  15  16
ATOM     16  C   UNL     1      11.607   4.383  56.696  1.00  0.00     0.006 C 
BRANCH  16  17
ATOM     17  C   UNL     1      11.972   3.321  57.737  1.00  0.00     0.053 C 
BRANCH  17  18
ATOM     18  C   UNL     1      13.172   2.544  57.295  1.00  0.00     0.041 C 
ATOM     19  O   UNL     1      13.472   1.462  57.865  1.00  0.00    -0.550 OA
ATOM     20  O   UNL     1      13.987   3.040  56.285  1.00  0.00    -0.550 OA
ENDBRANCH  17  18
ENDBRANCH  16  17
ENDBRANCH  15  16
ENDBRANCH  14  15
ENDBRANCH  13  14
ENDBRANCH  12  13
ENDBRANCH  11  12
ENDBRANCH   1  11
TORSDOF 15
ENDMDL
MODEL 5
REMARK VINA RESULT:    -5.368      1.291      2.226
REMARK INTER + INTRA:         -11.836
REMARK INTER:                 -10.038
REMARK INTRA:                  -1.798
REMARK UNBOUND:                -1.761
REMARK SMILES O=C([O-])CCCCCCCCCCCCCCC(=O)[O-]
REMARK SMILES IDX 10 1 9 2 8 3 7 4 6 5 5 6 4 7 2 8 1 9 3 10 11 11 12 12 13 13
REMARK SMILES IDX 14 14 15 15 16 16 17 17 18 18 19 19 20 20
REMARK H PARENT
REMARK Flexibility Score: inf
ROOT
ATOM      1  C   UNL     1      11.310   3.343  54.160  1.00  0.00     0.000 C 
ENDROOT
BRANCH   1   2
ATOM      2  C   UNL     1      11.649   4.309  53.012  1.00  0.00     0.000 C 
BRANCH   2   3
ATOM      3  C   UNL     1      12.475   5.515  53.488  1.00  0.00     0.000 C 
BRANCH   3   4
ATOM      4  C   UNL     1      11.698   6.840  53.392  1.00  0.00     0.000 C 
BRANCH   4   5
ATOM      5  C   UNL     1      11.458   7.474  54.778  1.00  0.00     0.000 C 
BRANCH   5   6
ATOM      6  C   UNL     1       9.986   7.834  55.045  1.00  0.00     0.006 C 
BRANCH   6   7
ATOM      7  C   UNL     1       9.018   7.149  54.073  1.00  0.00     0.053 C 
BRANCH   7   8
ATOM      8  C   UNL     1       8.199   8.169  53.346  1.00  0.00     0.041 C 
ATOM      9  O   UNL     1       7.616   9.084  53.983  1.00  0.00    -0.550 OA
ATOM     10  O   UNL     1       8.121   8.137  51.960  1.00  0.00    -0.550 OA
ENDBRANCH   7   8
ENDBRANCH   6   7
ENDBRANCH   5   6
ENDBRANCH   4   5
ENDBRANCH   3   4
ENDBRANCH   2   3
ENDBRANCH   1   2
BRANCH   1  11
ATOM     11  C   UNL     1      10.573   4.037  55.317  1.00  0.00     0.000 C 
BRANCH  11  12
ATOM     12  C   UNL     1      11.377   4.011  56.630  1.00  0.00     0.000 C 
BRANCH  12  13
ATOM     13  C   UNL     1      12.638   3.138  56.531  1.00  0.00     0.000 C 
BRANCH  13  14
ATOM     14  C   UNL     1      13.935   3.967  56.500  1.00  0.00     0.000 C 
BRANCH  14  15
ATOM     15  C   UNL     1      14.824   3.628  55.294  1.00  0.00     0.000 C 
BRANCH  15  16
ATOM     16  C   UNL     1      16.186   3.050  55.709  1.00  0.00     0.006 C 
BRANCH  16  17
ATOM     17  C   UNL     1      16.260   1.551  55.401  1.00  0.00     0.053 C 
BRANCH  17  18
ATOM     18  C   UNL     1      16.202   0.753  56.665  1.00  0.00     0.041 C 
ATOM     19  O   UNL     1      17.235   0.177  57.099  1.00  0.00    -0.550 OA
ATOM     20  O   UNL     1      14.996   0.603  57.338  1.00  0.00    -0.550 OA
ENDBRANCH  17  18
ENDBRANCH  16  17
ENDBRANCH  15  16
ENDBRANCH  14  15
ENDBRANCH  13  14
ENDBRANCH  12  13
ENDBRANCH  11  12
ENDBRANCH   1  11
TORSDOF 15
ENDMDL
MODEL 6
REMARK VINA RESULT:    -5.285      1.784      8.507
REMARK INTER + INTRA:         -11.681
REMARK INTER:                 -10.052
REMARK INTRA:                  -1.628
REMARK UNBOUND:                -1.761
REMARK SMILES O=C([O-])CCCCCCCCCCCCCCC(=O)[O-]
REMARK SMILES IDX 10 1 9 2 8 3 7 4 6 5 5 6 4 7 2 8 1 9 3 10 11 11 12 12 13 13
REMARK SMILES IDX 14 14 15 15 16 16 17 17 18 18 19 19 20 20
REMARK H PARENT
REMARK Flexibility Score: inf
ROOT
ATOM      1  C   UNL     1       9.603   3.695  54.483  1.00  0.00     0.000 C 
ENDROOT
BRANCH   1   2
ATOM      2  C   UNL     1      10.966   3.059  54.153  1.00  0.00     0.000 C 
BRANCH   2   3
ATOM      3  C   UNL     1      11.929   4.055  53.488  1.00  0.00     0.000 C 
BRANCH   3   4
ATOM      4  C   UNL     1      12.849   4.757  54.504  1.00  0.00     0.000 C 
BRANCH   4   5
ATOM      5  C   UNL     1      13.650   3.750  55.355  1.00  0.00     0.000 C 
BRANCH   5   6
ATOM      6  C   UNL     1      13.208   3.699  56.828  1.00  0.00     0.006 C 
BRANCH   6   7
ATOM      7  C   UNL     1      12.647   2.331  57.236  1.00  0.00     0.053 C 
BRANCH   7   8
ATOM      8  C   UNL     1      13.701   1.516  57.915  1.00  0.00     0.041 C 
ATOM      9  O   UNL     1      13.630   1.292  59.152  1.00  0.00    -0.550 OA
ATOM     10  O   UNL     1      14.736   0.960  57.174  1.00  0.00    -0.550 OA
ENDBRANCH   7   8
ENDBRANCH   6   7
ENDBRANCH   5   6
ENDBRANCH   4   5
ENDBRANCH   3   4
ENDBRANCH   2   3
ENDBRANCH   1   2
BRANCH   1  11
ATOM     11  C   UNL     1       9.502   4.145  55.950  1.00  0.00     0.000 C 
BRANCH  11  12
ATOM     12  C   UNL     1       9.765   5.652  56.125  1.00  0.00     0.000 C 
BRANCH  12  13
ATOM     13  C   UNL     1       9.474   6.453  54.845  1.00  0.00     0.000 C 
BRANCH  13  14
ATOM     14  C   UNL     1       9.602   7.973  55.054  1.00  0.00     0.000 C 
BRANCH  14  15
ATOM     15  C   UNL     1       8.237   8.668  55.177  1.00  0.00     0.000 C 
BRANCH  15  16
ATOM     16  C   UNL     1       7.960   9.635  54.015  1.00  0.00     0.006 C 
BRANCH  16  17
ATOM     17  C   UNL     1       7.122   8.957  52.926  1.00  0.00     0.053 C 
BRANCH  17  18
ATOM     18  C   UNL     1       7.892   8.879  51.646  1.00  0.00     0.041 C 
ATOM     19  O   UNL     1       8.776   7.995  51.491  1.00  0.00    -0.550 OA
ATOM     20  O   UNL     1       7.668   9.812  50.642  1.00  0.00    -0.550 OA
ENDBRANCH  17  18
ENDBRANCH  16  17
ENDBRANCH  15  16
ENDBRANCH  14  15
ENDBRANCH  13  14
ENDBRANCH  12  13
ENDBRANCH  11  12
ENDBRANCH   1  11
TORSDOF 15
ENDMDL
MODEL 7
REMARK VINA RESULT:    -5.236      1.543      2.519
REMARK INTER + INTRA:         -11.588
REMARK INTER:                  -9.640
REMARK INTRA:                  -1.948
REMARK UNBOUND:                -1.761
REMARK SMILES O=C([O-])CCCCCCCCCCCCCCC(=O)[O-]
REMARK SMILES IDX 10 1 9 2 8 3 7 4 6 5 5 6 4 7 2 8 1 9 3 10 11 11 12 12 13 13
REMARK SMILES IDX 14 14 15 15 16 16 17 17 18 18 19 19 20 20
REMARK H PARENT
REMARK Flexibility Score: inf
ROOT
ATOM      1  C   UNL     1      11.765   4.251  52.986  1.00  0.00     0.000 C 
ENDROOT
BRANCH   1   2
ATOM      2  C   UNL     1      12.493   5.531  53.434  1.00  0.00     0.000 C 
BRANCH   2   3
ATOM      3  C   UNL     1      11.629   6.788  53.252  1.00  0.00     0.000 C 
BRANCH   3   4
ATOM      4  C   UNL     1      11.455   7.581  54.560  1.00  0.00     0.000 C 
BRANCH   4   5
ATOM      5  C   UNL     1       9.974   7.895  54.856  1.00  0.00     0.000 C 
BRANCH   5   6
ATOM      6  C   UNL     1       9.003   7.351  53.793  1.00  0.00     0.006 C 
BRANCH   6   7
ATOM      7  C   UNL     1       7.956   8.382  53.356  1.00  0.00     0.053 C 
BRANCH   7   8
ATOM      8  C   UNL     1       8.211   8.822  51.949  1.00  0.00     0.041 C 
ATOM      9  O   UNL     1       7.249   9.144  51.203  1.00  0.00    -0.550 OA
ATOM     10  O   UNL     1       9.513   8.923  51.478  1.00  0.00    -0.550 OA
ENDBRANCH   7   8
ENDBRANCH   6   7
ENDBRANCH   5   6
ENDBRANCH   4   5
ENDBRANCH   3   4
ENDBRANCH   2   3
ENDBRANCH   1   2
BRANCH   1  11
ATOM     11  C   UNL     1      11.291   3.395  54.172  1.00  0.00     0.000 C 
BRANCH  11  12
ATOM     12  C   UNL     1       9.996   3.932  54.807  1.00  0.00     0.000 C 
BRANCH  12  13
ATOM     13  C   UNL     1      10.219   4.482  56.225  1.00  0.00     0.000 C 
BRANCH  13  14
ATOM     14  C   UNL     1      11.695   4.429  56.658  1.00  0.00     0.000 C 
BRANCH  14  15
ATOM     15  C   UNL     1      11.952   3.384  57.755  1.00  0.00     0.000 C 
BRANCH  15  16
ATOM     16  C   UNL     1      13.119   2.444  57.414  1.00  0.00     0.006 C 
BRANCH  16  17
ATOM     17  C   UNL     1      13.976   3.023  56.284  1.00  0.00     0.053 C 
BRANCH  17  18
ATOM     18  C   UNL     1      15.274   2.286  56.181  1.00  0.00     0.041 C 
ATOM     19  O   UNL     1      16.246   2.799  55.566  1.00  0.00    -0.550 OA
ATOM     20  O   UNL     1      15.396   1.013  56.723  1.00  0.00    -0.550 OA
ENDBRANCH  17  18
ENDBRANCH  16  17
ENDBRANCH  15  16
ENDBRANCH  14  15
ENDBRANCH  13  14
ENDBRANCH  12  13
ENDBRANCH  11  12
ENDBRANCH   1  11
TORSDOF 15
ENDMDL
MODEL 8
REMARK VINA RESULT:    -5.191      1.883      2.723
REMARK INTER + INTRA:         -11.504
REMARK INTER:                  -9.762
REMARK INTRA:                  -1.741
REMARK UNBOUND:                -1.761
REMARK SMILES O=C([O-])CCCCCCCCCCCCCCC(=O)[O-]
REMARK SMILES IDX 10 1 9 2 8 3 7 4 6 5 5 6 4 7 2 8 1 9 3 10 11 11 12 12 13 13
REMARK SMILES IDX 14 14 15 15 16 16 17 17 18 18 19 19 20 20
REMARK H PARENT
REMARK Flexibility Score: inf
ROOT
ATOM      1  C   UNL     1      11.058   3.331  54.123  1.00  0.00     0.000 C 
ENDROOT
BRANCH   1   2
ATOM      2  C   UNL     1      11.730   4.148  53.004  1.00  0.00     0.000 C 
BRANCH   2   3
ATOM      3  C   UNL     1      12.674   5.227  53.556  1.00  0.00     0.000 C 
BRANCH   3   4
ATOM      4  C   UNL     1      12.094   6.647  53.419  1.00  0.00     0.000 C 
BRANCH   4   5
ATOM      5  C   UNL     1      11.026   6.734  52.310  1.00  0.00     0.000 C 
BRANCH   5   6
ATOM      6  C   UNL     1      10.047   7.907  52.488  1.00  0.00     0.006 C 
BRANCH   6   7
ATOM      7  C   UNL     1       8.782   7.518  53.261  1.00  0.00     0.053 C 
BRANCH   7   8
ATOM      8  C   UNL     1       8.796   8.128  54.628  1.00  0.00     0.041 C 
ATOM      9  O   UNL     1       9.059   7.419  55.635  1.00  0.00    -0.550 OA
ATOM     10  O   UNL     1       8.567   9.488  54.783  1.00  0.00    -0.550 OA
ENDBRANCH   7   8
ENDBRANCH   6   7
ENDBRANCH   5   6
ENDBRANCH   4   5
ENDBRANCH   3   4
ENDBRANCH   2   3
ENDBRANCH   1   2
BRANCH   1  11
ATOM     11  C   UNL     1       9.910   4.096  54.803  1.00  0.00     0.000 C 
BRANCH  11  12
ATOM     12  C   UNL     1      10.041   4.115  56.337  1.00  0.00     0.000 C 
BRANCH  12  13
ATOM     13  C   UNL     1      11.431   4.574  56.805  1.00  0.00     0.000 C 
BRANCH  13  14
ATOM     14  C   UNL     1      12.031   3.652  57.881  1.00  0.00     0.000 C 
BRANCH  14  15
ATOM     15  C   UNL     1      12.568   2.335  57.300  1.00  0.00     0.000 C 
BRANCH  15  16
ATOM     16  C   UNL     1      13.977   2.482  56.706  1.00  0.00     0.006 C 
BRANCH  16  17
ATOM     17  C   UNL     1      14.817   1.230  56.974  1.00  0.00     0.053 C 
BRANCH  17  18
ATOM     18  C   UNL     1      16.015   1.201  56.078  1.00  0.00     0.041 C 
ATOM     19  O   UNL     1      16.506   2.275  55.643  1.00  0.00    -0.550 OA
ATOM     20  O   UNL     1      16.558  -0.015  55.682  1.00  0.00    -0.550 OA
ENDBRANCH  17  18
ENDBRANCH  16  17
ENDBRANCH  15  16
ENDBRANCH  14  15
ENDBRANCH  13  14
ENDBRANCH  12  13
ENDBRANCH  11  12
ENDBRANCH   1  11
TORSDOF 15
ENDMDL
MODEL 9
REMARK VINA RESULT:    -5.089      2.404      8.251
REMARK INTER + INTRA:         -11.313
REMARK INTER:                  -9.630
REMARK INTRA:                  -1.682
REMARK UNBOUND:                -1.761
REMARK SMILES O=C([O-])CCCCCCCCCCCCCCC(=O)[O-]
REMARK SMILES IDX 10 1 9 2 8 3 7 4 6 5 5 6 4 7 2 8 1 9 3 10 11 11 12 12 13 13
REMARK SMILES IDX 14 14 15 15 16 16 17 17 18 18 19 19 20 20
REMARK H PARENT
REMARK Flexibility Score: inf
ROOT
ATOM      1  C   UNL     1      11.380   7.935  55.178  1.00  0.00     0.000 C 
ENDROOT
BRANCH   1   2
ATOM      2  C   UNL     1      11.789   7.677  53.717  1.00  0.00     0.000 C 
BRANCH   2   3
ATOM      3  C   UNL     1      11.225   6.353  53.177  1.00  0.00     0.000 C 
BRANCH   3   4
ATOM      4  C   UNL     1      12.287   5.241  53.113  1.00  0.00     0.000 C 
BRANCH   4   5
ATOM      5  C   UNL     1      11.764   3.905  53.680  1.00  0.00     0.000 C 
BRANCH   5   6
ATOM      6  C   UNL     1      11.085   4.042  55.054  1.00  0.00     0.006 C 
BRANCH   6   7
ATOM      7  C   UNL     1      12.078   4.341  56.184  1.00  0.00     0.053 C 
BRANCH   7   8
ATOM      8  C   UNL     1      12.977   3.167  56.413  1.00  0.00     0.041 C 
ATOM      9  O   UNL     1      12.545   2.144  57.005  1.00  0.00    -0.550 OA
ATOM     10  O   UNL     1      14.278   3.183  55.927  1.00  0.00    -0.550 OA
ENDBRANCH   7   8
ENDBRANCH   6   7
ENDBRANCH   5   6
ENDBRANCH   4   5
ENDBRANCH   3   4
ENDBRANCH   2   3
ENDBRANCH   1   2
BRANCH   1  11
ATOM     11  C   UNL     1      11.233   9.432  55.495  1.00  0.00     0.000 C 
BRANCH  11  12
ATOM     12  C   UNL     1       9.793   9.814  55.884  1.00  0.00     0.000 C 
BRANCH  12  13
ATOM     13  C   UNL     1       8.768   8.744  55.475  1.00  0.00     0.000 C 
BRANCH  13  14
ATOM     14  C   UNL     1       7.386   9.338  55.150  1.00  0.00     0.000 C 
BRANCH  14  15
ATOM     15  C   UNL     1       7.049   9.266  53.653  1.00  0.00     0.000 C 
BRANCH  15  16
ATOM     16  C   UNL     1       8.292   9.402  52.760  1.00  0.00     0.006 C 
BRANCH  16  17
ATOM     17  C   UNL     1       8.381   8.242  51.764  1.00  0.00     0.053 C 
BRANCH  17  18
ATOM     18  C   UNL     1       9.301   8.589  50.636  1.00  0.00     0.041 C 
ATOM     19  O   UNL     1       9.859   7.677  49.971  1.00  0.00    -0.550 OA
ATOM     20  O   UNL     1       9.580   9.920  50.351  1.00  0.00    -0.550 OA
ENDBRANCH  17  18
ENDBRANCH  16  17
ENDBRANCH  15  16
ENDBRANCH  14  15
ENDBRANCH  13  14
ENDBRANCH  12  13
ENDBRANCH  11  12
ENDBRANCH   1  11
TORSDOF 15
ENDMDL
