MODEL 1
REMARK VINA RESULT:    -3.558      0.000      0.000
REMARK INTER + INTRA:          -5.680
REMARK INTER:                  -5.221
REMARK INTRA:                  -0.458
REMARK UNBOUND:                -0.458
REMARK SMILES O=C([O-])CCCCCCCC(=O)[O-]
REMARK SMILES IDX 7 1 6 2 5 3 4 4 2 5 1 6 3 7 8 8 9 9 10 10 11 11 12 12 13 13
REMARK H PARENT
REMARK Flexibility Score: inf
ROOT
ATOM      1  C   UNL     1      19.475 -11.988 187.466  1.00  0.00     0.000 C 
ENDROOT
BRANCH   1   2
ATOM      2  C   UNL     1      19.221 -10.608 188.101  1.00  0.00     0.000 C 
BRANCH   2   3
ATOM      3  C   UNL     1      20.118  -9.467 187.576  1.00  0.00     0.006 C 
BRANCH   3   4
ATOM      4  C   UNL     1      19.794  -9.007 186.147  1.00  0.00     0.053 C 
BRANCH   4   5
ATOM      5  C   UNL     1      18.346  -8.660 185.985  1.00  0.00     0.041 C 
ATOM      6  O   UNL     1      17.616  -9.329 185.207  1.00  0.00    -0.550 OA
ATOM      7  O   UNL     1      17.795  -7.618 186.719  1.00  0.00    -0.550 OA
ENDBRANCH   4   5
ENDBRANCH   3   4
ENDBRANCH   2   3
ENDBRANCH   1   2
BRANCH   1   8
ATOM      8  C   UNL     1      18.221 -12.580 186.800  1.00  0.00     0.000 C 
BRANCH   8   9
ATOM      9  C   UNL     1      18.202 -14.120 186.831  1.00  0.00     0.006 C 
BRANCH   9  10
ATOM     10  C   UNL     1      16.845 -14.730 187.219  1.00  0.00     0.053 C 
BRANCH  10  11
ATOM     11  C   UNL     1      16.010 -15.048 186.017  1.00  0.00     0.041 C 
ATOM     12  O   UNL     1      16.263 -16.066 185.320  1.00  0.00    -0.550 OA
ATOM     13  O   UNL     1      14.970 -14.204 185.649  1.00  0.00    -0.550 OA
ENDBRANCH  10  11
ENDBRANCH   9  10
ENDBRANCH   8   9
ENDBRANCH   1   8
TORSDOF 8
ENDMDL
MODEL 2
REMARK VINA RESULT:    -3.516      1.594      6.210
REMARK INTER + INTRA:          -5.619
REMARK INTER:                  -5.322
REMARK INTRA:                  -0.298
REMARK UNBOUND:                -0.458
REMARK SMILES O=C([O-])CCCCCCCC(=O)[O-]
REMARK SMILES IDX 7 1 6 2 5 3 4 4 2 5 1 6 3 7 8 8 9 9 10 10 11 11 12 12 13 13
REMARK H PARENT
REMARK Flexibility Score: inf
ROOT
ATOM      1  C   UNL     1      18.241 -12.926 186.886  1.00  0.00     0.000 C 
ENDROOT
BRANCH   1   2
ATOM      2  C   UNL     1      18.593 -14.425 186.920  1.00  0.00     0.000 C 
BRANCH   2   3
ATOM      3  C   UNL     1      17.431 -15.382 186.583  1.00  0.00     0.006 C 
BRANCH   3   4
ATOM      4  C   UNL     1      16.051 -14.709 186.509  1.00  0.00     0.053 C 
BRANCH   4   5
ATOM      5  C   UNL     1      15.449 -14.817 185.142  1.00  0.00     0.041 C 
ATOM      6  O   UNL     1      14.849 -13.833 184.633  1.00  0.00    -0.550 OA
ATOM      7  O   UNL     1      15.578 -15.994 184.416  1.00  0.00    -0.550 OA
ENDBRANCH   4   5
ENDBRANCH   3   4
ENDBRANCH   2   3
ENDBRANCH   1   2
BRANCH   1   8
ATOM      8  C   UNL     1      19.357 -12.036 187.459  1.00  0.00     0.000 C 
BRANCH   8   9
ATOM      9  C   UNL     1      19.337 -10.609 186.879  1.00  0.00     0.006 C 
BRANCH   9  10
ATOM     10  C   UNL     1      20.036  -9.558 187.756  1.00  0.00     0.053 C 
BRANCH  10  11
ATOM     11  C   UNL     1      19.165  -9.102 188.886  1.00  0.00     0.041 C 
ATOM     12  O   UNL     1      19.675  -8.787 189.993  1.00  0.00    -0.550 OA
ATOM     13  O   UNL     1      17.786  -9.053 188.726  1.00  0.00    -0.550 OA
ENDBRANCH  10  11
ENDBRANCH   9  10
ENDBRANCH   8   9
ENDBRANCH   1   8
TORSDOF 8
ENDMDL
MODEL 3
REMARK VINA RESULT:    -3.453      1.686      2.274
REMARK INTER + INTRA:          -5.526
REMARK INTER:                  -5.215
REMARK INTRA:                  -0.312
REMARK UNBOUND:                -0.458
REMARK SMILES O=C([O-])CCCCCCCC(=O)[O-]
REMARK SMILES IDX 7 1 6 2 5 3 4 4 2 5 1 6 3 7 8 8 9 9 10 10 11 11 12 12 13 13
REMARK H PARENT
REMARK Flexibility Score: inf
ROOT
ATOM      1  C   UNL     1      18.050 -12.883 186.913  1.00  0.00     0.000 C 
ENDROOT
BRANCH   1   2
ATOM      2  C   UNL     1      19.280 -12.063 187.343  1.00  0.00     0.000 C 
BRANCH   2   3
ATOM      3  C   UNL     1      19.298 -10.599 186.856  1.00  0.00     0.006 C 
BRANCH   3   4
ATOM      4  C   UNL     1      20.034  -9.625 187.790  1.00  0.00     0.053 C 
BRANCH   4   5
ATOM      5  C   UNL     1      19.152  -9.138 188.898  1.00  0.00     0.041 C 
ATOM      6  O   UNL     1      17.912  -9.012 188.714  1.00  0.00    -0.550 OA
ATOM      7  O   UNL     1      19.694  -8.854 190.144  1.00  0.00    -0.550 OA
ENDBRANCH   4   5
ENDBRANCH   3   4
ENDBRANCH   2   3
ENDBRANCH   1   2
BRANCH   1   8
ATOM      8  C   UNL     1      18.319 -14.398 186.889  1.00  0.00     0.000 C 
BRANCH   8   9
ATOM      9  C   UNL     1      17.055 -15.231 187.168  1.00  0.00     0.006 C 
BRANCH   9  10
ATOM     10  C   UNL     1      16.360 -15.771 185.907  1.00  0.00     0.053 C 
BRANCH  10  11
ATOM     11  C   UNL     1      15.167 -14.948 185.528  1.00  0.00     0.041 C 
ATOM     12  O   UNL     1      14.014 -15.297 185.893  1.00  0.00    -0.550 OA
ATOM     13  O   UNL     1      15.327 -13.811 184.747  1.00  0.00    -0.550 OA
ENDBRANCH  10  11
ENDBRANCH   9  10
ENDBRANCH   8   9
ENDBRANCH   1   8
TORSDOF 8
ENDMDL
MODEL 4
REMARK VINA RESULT:    -3.420      0.936      5.479
REMARK INTER + INTRA:          -5.478
REMARK INTER:                  -4.981
REMARK INTRA:                  -0.497
REMARK UNBOUND:                -0.458
REMARK SMILES O=C([O-])CCCCCCCC(=O)[O-]
REMARK SMILES IDX 7 1 6 2 5 3 4 4 2 5 1 6 3 7 8 8 9 9 10 10 11 11 12 12 13 13
REMARK H PARENT
REMARK Flexibility Score: inf
ROOT
ATOM      1  C   UNL     1      19.017 -10.750 188.150  1.00  0.00     0.000 C 
ENDROOT
BRANCH   1   2
ATOM      2  C   UNL     1      19.275 -12.000 187.290  1.00  0.00     0.000 C 
BRANCH   2   3
ATOM      3  C   UNL     1      18.022 -12.619 186.635  1.00  0.00     0.006 C 
BRANCH   3   4
ATOM      4  C   UNL     1      17.707 -14.053 187.088  1.00  0.00     0.053 C 
BRANCH   4   5
ATOM      5  C   UNL     1      16.636 -14.682 186.251  1.00  0.00     0.041 C 
ATOM      6  O   UNL     1      16.717 -15.896 185.925  1.00  0.00    -0.550 OA
ATOM      7  O   UNL     1      15.533 -13.936 185.858  1.00  0.00    -0.550 OA
ENDBRANCH   4   5
ENDBRANCH   3   4
ENDBRANCH   2   3
ENDBRANCH   1   2
BRANCH   1   8
ATOM      8  C   UNL     1      19.933  -9.570 187.782  1.00  0.00     0.000 C 
BRANCH   8   9
ATOM      9  C   UNL     1      19.792  -9.144 186.309  1.00  0.00     0.006 C 
BRANCH   9  10
ATOM     10  C   UNL     1      18.610  -8.201 186.032  1.00  0.00     0.053 C 
BRANCH  10  11
ATOM     11  C   UNL     1      17.551  -8.859 185.202  1.00  0.00     0.041 C 
ATOM     12  O   UNL     1      17.566  -8.744 183.948  1.00  0.00    -0.550 OA
ATOM     13  O   UNL     1      16.530  -9.574 185.815  1.00  0.00    -0.550 OA
ENDBRANCH  10  11
ENDBRANCH   9  10
ENDBRANCH   8   9
ENDBRANCH   1   8
TORSDOF 8
ENDMDL
MODEL 5
REMARK VINA RESULT:    -3.417      1.328      6.291
REMARK INTER + INTRA:          -5.473
REMARK INTER:                  -5.090
REMARK INTRA:                  -0.383
REMARK UNBOUND:                -0.458
REMARK SMILES O=C([O-])CCCCCCCC(=O)[O-]
REMARK SMILES IDX 7 1 6 2 5 3 4 4 2 5 1 6 3 7 8 8 9 9 10 10 11 11 12 12 13 13
REMARK H PARENT
REMARK Flexibility Score: inf
ROOT
ATOM      1  C   UNL     1      18.021 -11.698 186.930  1.00  0.00     0.000 C 
ENDROOT
BRANCH   1   2
ATOM      2  C   UNL     1      17.678 -13.079 186.341  1.00  0.00     0.000 C 
BRANCH   2   3
ATOM      3  C   UNL     1      18.527 -14.252 186.874  1.00  0.00     0.006 C 
BRANCH   3   4
ATOM      4  C   UNL     1      17.821 -15.616 186.844  1.00  0.00     0.053 C 
BRANCH   4   5
ATOM      5  C   UNL     1      16.372 -15.504 187.205  1.00  0.00     0.041 C 
ATOM      6  O   UNL     1      15.483 -15.708 186.335  1.00  0.00    -0.550 OA
ATOM      7  O   UNL     1      16.001 -15.206 188.509  1.00  0.00    -0.550 OA
ENDBRANCH   4   5
ENDBRANCH   3   4
ENDBRANCH   2   3
ENDBRANCH   1   2
BRANCH   1   8
ATOM      8  C   UNL     1      19.465 -11.611 187.452  1.00  0.00     0.000 C 
BRANCH   8   9
ATOM      9  C   UNL     1      19.955 -10.160 187.607  1.00  0.00     0.006 C 
BRANCH   9  10
ATOM     10  C   UNL     1      19.889  -9.326 186.317  1.00  0.00     0.053 C 
BRANCH  10  11
ATOM     11  C   UNL     1      19.075  -8.082 186.495  1.00  0.00     0.041 C 
ATOM     12  O   UNL     1      17.829  -8.108 186.314  1.00  0.00    -0.550 OA
ATOM     13  O   UNL     1      19.696  -6.886 186.830  1.00  0.00    -0.550 OA
ENDBRANCH  10  11
ENDBRANCH   9  10
ENDBRANCH   8   9
ENDBRANCH   1   8
TORSDOF 8
ENDMDL
MODEL 6
REMARK VINA RESULT:    -3.415      1.428      6.178
REMARK INTER + INTRA:          -5.470
REMARK INTER:                  -4.996
REMARK INTRA:                  -0.474
REMARK UNBOUND:                -0.458
REMARK SMILES O=C([O-])CCCCCCCC(=O)[O-]
REMARK SMILES IDX 7 1 6 2 5 3 4 4 2 5 1 6 3 7 8 8 9 9 10 10 11 11 12 12 13 13
REMARK H PARENT
REMARK Flexibility Score: inf
ROOT
ATOM      1  C   UNL     1      19.772 -11.088 187.641  1.00  0.00     0.000 C 
ENDROOT
BRANCH   1   2
ATOM      2  C   UNL     1      18.606 -11.764 186.896  1.00  0.00     0.000 C 
BRANCH   2   3
ATOM      3  C   UNL     1      18.616 -13.307 186.918  1.00  0.00     0.006 C 
BRANCH   3   4
ATOM      4  C   UNL     1      17.266 -13.959 186.582  1.00  0.00     0.053 C 
BRANCH   4   5
ATOM      5  C   UNL     1      17.359 -15.453 186.549  1.00  0.00     0.041 C 
ATOM      6  O   UNL     1      16.548 -16.124 185.857  1.00  0.00    -0.550 OA
ATOM      7  O   UNL     1      18.360 -16.103 187.257  1.00  0.00    -0.550 OA
ENDBRANCH   4   5
ENDBRANCH   3   4
ENDBRANCH   2   3
ENDBRANCH   1   2
BRANCH   1   8
ATOM      8  C   UNL     1      19.316  -9.920 188.532  1.00  0.00     0.000 C 
BRANCH   8   9
ATOM      9  C   UNL     1      17.848  -9.524 188.289  1.00  0.00     0.006 C 
BRANCH   9  10
ATOM     10  C   UNL     1      17.652  -8.073 187.821  1.00  0.00     0.053 C 
BRANCH  10  11
ATOM     11  C   UNL     1      18.405  -7.784 186.559  1.00  0.00     0.041 C 
ATOM     12  O   UNL     1      18.142  -8.420 185.504  1.00  0.00    -0.550 OA
ATOM     13  O   UNL     1      19.418  -6.834 186.556  1.00  0.00    -0.550 OA
ENDBRANCH  10  11
ENDBRANCH   9  10
ENDBRANCH   8   9
ENDBRANCH   1   8
TORSDOF 8
ENDMDL
MODEL 7
REMARK VINA RESULT:    -3.383      1.959      2.602
REMARK INTER + INTRA:          -5.424
REMARK INTER:                  -5.019
REMARK INTRA:                  -0.404
REMARK UNBOUND:                -0.458
REMARK SMILES O=C([O-])CCCCCCCC(=O)[O-]
REMARK SMILES IDX 7 1 6 2 5 3 4 4 2 5 1 6 3 7 8 8 9 9 10 10 11 11 12 12 13 13
REMARK H PARENT
REMARK Flexibility Score: inf
ROOT
ATOM      1  C   UNL     1      17.484 -12.842 186.270  1.00  0.00     0.000 C 
ENDROOT
BRANCH   1   2
ATOM      2  C   UNL     1      18.131 -11.481 186.587  1.00  0.00     0.000 C 
BRANCH   2   3
ATOM      3  C   UNL     1      19.434 -11.547 187.410  1.00  0.00     0.006 C 
BRANCH   3   4
ATOM      4  C   UNL     1      20.125 -10.190 187.621  1.00  0.00     0.053 C 
BRANCH   4   5
ATOM      5  C   UNL     1      19.311  -9.276 188.485  1.00  0.00     0.041 C 
ATOM      6  O   UNL     1      19.377  -9.363 189.740  1.00  0.00    -0.550 OA
ATOM      7  O   UNL     1      18.504  -8.307 187.904  1.00  0.00    -0.550 OA
ENDBRANCH   4   5
ENDBRANCH   3   4
ENDBRANCH   2   3
ENDBRANCH   1   2
BRANCH   1   8
ATOM      8  C   UNL     1      18.255 -14.027 186.875  1.00  0.00     0.000 C 
BRANCH   8   9
ATOM      9  C   UNL     1      17.576 -15.381 186.600  1.00  0.00     0.006 C 
BRANCH   9  10
ATOM     10  C   UNL     1      17.079 -16.109 187.860  1.00  0.00     0.053 C 
BRANCH  10  11
ATOM     11  C   UNL     1      15.779 -15.552 188.353  1.00  0.00     0.041 C 
ATOM     12  O   UNL     1      15.557 -15.457 189.589  1.00  0.00    -0.550 OA
ATOM     13  O   UNL     1      14.799 -15.165 187.447  1.00  0.00    -0.550 OA
ENDBRANCH  10  11
ENDBRANCH   9  10
ENDBRANCH   8   9
ENDBRANCH   1   8
TORSDOF 8
ENDMDL
MODEL 8
REMARK VINA RESULT:    -3.234      2.166      5.213
REMARK INTER + INTRA:          -5.205
REMARK INTER:                  -4.643
REMARK INTRA:                  -0.562
REMARK UNBOUND:                -0.458
REMARK SMILES O=C([O-])CCCCCCCC(=O)[O-]
REMARK SMILES IDX 7 1 6 2 5 3 4 4 2 5 1 6 3 7 8 8 9 9 10 10 11 11 12 12 13 13
REMARK H PARENT
REMARK Flexibility Score: inf
ROOT
ATOM      1  C   UNL     1      17.241 -14.495 186.841  1.00  0.00     0.000 C 
ENDROOT
BRANCH   1   2
ATOM      2  C   UNL     1      16.100 -13.530 187.212  1.00  0.00     0.000 C 
BRANCH   2   3
ATOM      3  C   UNL     1      14.776 -13.753 186.451  1.00  0.00     0.006 C 
BRANCH   3   4
ATOM      4  C   UNL     1      14.853 -13.476 184.941  1.00  0.00     0.053 C 
BRANCH   4   5
ATOM      5  C   UNL     1      15.315 -12.081 184.651  1.00  0.00     0.041 C 
ATOM      6  O   UNL     1      16.376 -11.886 184.001  1.00  0.00    -0.550 OA
ATOM      7  O   UNL     1      14.556 -10.996 185.069  1.00  0.00    -0.550 OA
ENDBRANCH   4   5
ENDBRANCH   3   4
ENDBRANCH   2   3
ENDBRANCH   1   2
BRANCH   1   8
ATOM      8  C   UNL     1      18.625 -13.825 186.873  1.00  0.00     0.000 C 
BRANCH   8   9
ATOM      9  C   UNL     1      18.542 -12.287 186.893  1.00  0.00     0.006 C 
BRANCH   9  10
ATOM     10  C   UNL     1      19.710 -11.598 187.615  1.00  0.00     0.053 C 
BRANCH  10  11
ATOM     11  C   UNL     1      19.451 -10.139 187.834  1.00  0.00     0.041 C 
ATOM     12  O   UNL     1      19.309  -9.366 186.850  1.00  0.00    -0.550 OA
ATOM     13  O   UNL     1      19.398  -9.628 189.124  1.00  0.00    -0.550 OA
ENDBRANCH  10  11
ENDBRANCH   9  10
ENDBRANCH   8   9
ENDBRANCH   1   8
TORSDOF 8
ENDMDL
