MODEL 1
REMARK VINA RESULT:    -4.551      0.000      0.000
REMARK INTER + INTRA:          -4.684
REMARK INTER:                  -4.684
REMARK INTRA:                   0.000
REMARK UNBOUND:                 0.000
REMARK SMILES Nc1ncnc2nc[nH]c12
REMARK SMILES IDX 8 1 7 2 6 3 5 4 4 5 3 6 2 7 10 8 9 9 1 11
REMARK H PARENT 9 10 1 12 1 13
REMARK Flexibility Score: inf
ROOT
ATOM      1  C   UNL     1      70.098   8.629 356.931  1.00  0.00     0.199 A 
ATOM      2  N   UNL     1      69.543   8.328 355.725  1.00  0.00    -0.217 NA
ATOM      3  C   UNL     1      70.295   7.292 355.317  1.00  0.00     0.182 A 
ATOM      4  N   UNL     1      70.161   6.604 354.157  1.00  0.00    -0.215 NA
ATOM      5  C   UNL     1      71.027   5.573 353.914  1.00  0.00     0.226 A 
ATOM      6  N   UNL     1      72.000   5.253 354.826  1.00  0.00    -0.217 NA
ATOM      7  C   UNL     1      72.137   5.946 355.996  1.00  0.00     0.152 A 
ATOM      8  C   UNL     1      71.248   6.992 356.228  1.00  0.00     0.127 A 
ATOM      9  N   UNL     1      71.142   7.831 357.266  1.00  0.00    -0.340 N 
ATOM     10  H   UNL     1      71.721   7.871 358.134  1.00  0.00     0.168 HD
ENDROOT
BRANCH   7  11
ATOM     11  N   UNL     1      73.158   5.594 356.931  1.00  0.00    -0.382 N 
ATOM     12  H   UNL     1      72.970   5.654 357.956  1.00  0.00     0.158 HD
ATOM     13  H   UNL     1      74.100   5.273 356.613  1.00  0.00     0.158 HD
ENDBRANCH   7  11
TORSDOF 1
ENDMDL
MODEL 2
REMARK VINA RESULT:    -4.521      0.983      3.080
REMARK INTER + INTRA:          -4.653
REMARK INTER:                  -4.653
REMARK INTRA:                   0.000
REMARK UNBOUND:                 0.000
REMARK SMILES Nc1ncnc2nc[nH]c12
REMARK SMILES IDX 8 1 7 2 6 3 5 4 4 5 3 6 2 7 10 8 9 9 1 11
REMARK H PARENT 9 10 1 12 1 13
REMARK Flexibility Score: inf
ROOT
ATOM      1  C   UNL     1      71.469   4.439 353.163  1.00  0.00     0.199 A 
ATOM      2  N   UNL     1      70.444   5.333 353.130  1.00  0.00    -0.217 NA
ATOM      3  C   UNL     1      70.619   6.010 354.276  1.00  0.00     0.182 A 
ATOM      4  N   UNL     1      69.856   7.031 354.738  1.00  0.00    -0.215 NA
ATOM      5  C   UNL     1      70.193   7.600 355.935  1.00  0.00     0.226 A 
ATOM      6  N   UNL     1      71.275   7.141 356.642  1.00  0.00    -0.217 NA
ATOM      7  C   UNL     1      72.046   6.112 356.180  1.00  0.00     0.152 A 
ATOM      8  C   UNL     1      71.690   5.544 354.959  1.00  0.00     0.127 A 
ATOM      9  N   UNL     1      72.248   4.542 354.269  1.00  0.00    -0.340 N 
ATOM     10  H   UNL     1      73.085   3.968 354.513  1.00  0.00     0.168 HD
ENDROOT
BRANCH   7  11
ATOM     11  N   UNL     1      73.169   5.653 356.933  1.00  0.00    -0.382 N 
ATOM     12  H   UNL     1      73.080   4.808 357.540  1.00  0.00     0.158 HD
ATOM     13  H   UNL     1      74.089   6.145 356.894  1.00  0.00     0.158 HD
ENDBRANCH   7  11
TORSDOF 1
ENDMDL
MODEL 3
REMARK VINA RESULT:    -4.331     14.182     15.677
REMARK INTER + INTRA:          -4.457
REMARK INTER:                  -4.457
REMARK INTRA:                   0.000
REMARK UNBOUND:                 0.000
REMARK SMILES Nc1ncnc2nc[nH]c12
REMARK SMILES IDX 8 1 7 2 6 3 5 4 4 5 3 6 2 7 10 8 9 9 1 11
REMARK H PARENT 9 10 1 12 1 13
REMARK Flexibility Score: inf
ROOT
ATOM      1  C   UNL     1      81.347   9.977 363.937  1.00  0.00     0.199 A 
ATOM      2  N   UNL     1      81.674  10.892 364.889  1.00  0.00    -0.217 NA
ATOM      3  C   UNL     1      82.300  10.138 365.807  1.00  0.00     0.182 A 
ATOM      4  N   UNL     1      82.834  10.566 366.977  1.00  0.00    -0.215 NA
ATOM      5  C   UNL     1      83.436   9.643 367.788  1.00  0.00     0.226 A 
ATOM      6  N   UNL     1      83.491   8.323 367.418  1.00  0.00    -0.217 NA
ATOM      7  C   UNL     1      82.953   7.890 366.239  1.00  0.00     0.152 A 
ATOM      8  C   UNL     1      82.344   8.841 365.425  1.00  0.00     0.127 A 
ATOM      9  N   UNL     1      81.743   8.713 364.236  1.00  0.00    -0.340 N 
ATOM     10  H   UNL     1      81.605   7.852 363.663  1.00  0.00     0.168 HD
ENDROOT
BRANCH   7  11
ATOM     11  N   UNL     1      83.023   6.510 365.875  1.00  0.00    -0.382 N 
ATOM     12  H   UNL     1      82.572   5.788 366.478  1.00  0.00     0.158 HD
ATOM     13  H   UNL     1      83.520   6.200 365.011  1.00  0.00     0.158 HD
ENDBRANCH   7  11
TORSDOF 1
ENDMDL
MODEL 4
REMARK VINA RESULT:    -4.140     14.986     16.711
REMARK INTER + INTRA:          -4.261
REMARK INTER:                  -4.261
REMARK INTRA:                   0.000
REMARK UNBOUND:                 0.000
REMARK SMILES Nc1ncnc2nc[nH]c12
REMARK SMILES IDX 8 1 7 2 6 3 5 4 4 5 3 6 2 7 10 8 9 9 1 11
REMARK H PARENT 9 10 1 12 1 13
REMARK Flexibility Score: inf
ROOT
ATOM      1  C   UNL     1      85.793   8.255 365.558  1.00  0.00     0.199 A 
ATOM      2  N   UNL     1      85.514   8.359 366.886  1.00  0.00    -0.217 NA
ATOM      3  C   UNL     1      84.193   8.603 366.881  1.00  0.00     0.182 A 
ATOM      4  N   UNL     1      83.402   8.792 367.965  1.00  0.00    -0.215 NA
ATOM      5  C   UNL     1      82.071   9.031 367.760  1.00  0.00     0.226 A 
ATOM      6  N   UNL     1      81.561   9.076 366.487  1.00  0.00    -0.217 NA
ATOM      7  C   UNL     1      82.356   8.886 365.393  1.00  0.00     0.152 A 
ATOM      8  C   UNL     1      83.709   8.644 365.619  1.00  0.00     0.127 A 
ATOM      9  N   UNL     1      84.710   8.425 364.757  1.00  0.00    -0.340 N 
ATOM     10  H   UNL     1      84.678   8.390 363.715  1.00  0.00     0.168 HD
ENDROOT
BRANCH   7  11
ATOM     11  N   UNL     1      81.802   8.937 364.077  1.00  0.00    -0.382 N 
ATOM     12  H   UNL     1      82.024   8.185 363.388  1.00  0.00     0.158 HD
ATOM     13  H   UNL     1      81.173   9.716 363.781  1.00  0.00     0.158 HD
ENDBRANCH   7  11
TORSDOF 1
ENDMDL
MODEL 5
REMARK VINA RESULT:    -3.968      1.104      2.479
REMARK INTER + INTRA:          -4.084
REMARK INTER:                  -4.084
REMARK INTRA:                   0.000
REMARK UNBOUND:                 0.000
REMARK SMILES Nc1ncnc2nc[nH]c12
REMARK SMILES IDX 8 1 7 2 6 3 5 4 4 5 3 6 2 7 10 8 9 9 1 11
REMARK H PARENT 9 10 1 12 1 13
REMARK Flexibility Score: inf
ROOT
ATOM      1  C   UNL     1      69.114   8.698 355.634  1.00  0.00     0.199 A 
ATOM      2  N   UNL     1      70.002   8.492 356.644  1.00  0.00    -0.217 NA
ATOM      3  C   UNL     1      70.739   7.473 356.172  1.00  0.00     0.182 A 
ATOM      4  N   UNL     1      71.779   6.870 356.798  1.00  0.00    -0.215 NA
ATOM      5  C   UNL     1      72.411   5.841 356.155  1.00  0.00     0.226 A 
ATOM      6  N   UNL     1      71.995   5.438 354.911  1.00  0.00    -0.217 NA
ATOM      7  C   UNL     1      70.946   6.044 354.279  1.00  0.00     0.152 A 
ATOM      8  C   UNL     1      70.314   7.090 354.947  1.00  0.00     0.127 A 
ATOM      9  N   UNL     1      69.279   7.857 354.582  1.00  0.00    -0.340 N 
ATOM     10  H   UNL     1      68.722   7.825 353.700  1.00  0.00     0.168 HD
ENDROOT
BRANCH   7  11
ATOM     11  N   UNL     1      70.531   5.608 352.984  1.00  0.00    -0.382 N 
ATOM     12  H   UNL     1      70.243   6.307 352.265  1.00  0.00     0.158 HD
ATOM     13  H   UNL     1      70.508   4.595 352.733  1.00  0.00     0.158 HD
ENDBRANCH   7  11
TORSDOF 1
ENDMDL
MODEL 6
REMARK VINA RESULT:    -3.765      9.941     10.932
REMARK INTER + INTRA:          -3.875
REMARK INTER:                  -3.875
REMARK INTRA:                   0.000
REMARK UNBOUND:                 0.000
REMARK SMILES Nc1ncnc2nc[nH]c12
REMARK SMILES IDX 8 1 7 2 6 3 5 4 4 5 3 6 2 7 10 8 9 9 1 11
REMARK H PARENT 9 10 1 12 1 13
REMARK Flexibility Score: inf
ROOT
ATOM      1  C   UNL     1      79.389  12.615 359.606  1.00  0.00     0.199 A 
ATOM      2  N   UNL     1      78.038  12.487 359.508  1.00  0.00    -0.217 NA
ATOM      3  C   UNL     1      77.723  13.458 358.634  1.00  0.00     0.182 A 
ATOM      4  N   UNL     1      76.484  13.767 358.181  1.00  0.00    -0.215 NA
ATOM      5  C   UNL     1      76.360  14.795 357.288  1.00  0.00     0.226 A 
ATOM      6  N   UNL     1      77.467  15.489 356.869  1.00  0.00    -0.217 NA
ATOM      7  C   UNL     1      78.717  15.179 357.325  1.00  0.00     0.152 A 
ATOM      8  C   UNL     1      78.826  14.130 358.233  1.00  0.00     0.127 A 
ATOM      9  N   UNL     1      79.901  13.610 358.839  1.00  0.00    -0.340 N 
ATOM     10  H   UNL     1      80.901  13.895 358.751  1.00  0.00     0.168 HD
ENDROOT
BRANCH   7  11
ATOM     11  N   UNL     1      79.855  15.915 356.873  1.00  0.00    -0.382 N 
ATOM     12  H   UNL     1      80.623  16.149 357.540  1.00  0.00     0.158 HD
ATOM     13  H   UNL     1      79.941  16.230 355.881  1.00  0.00     0.158 HD
ENDBRANCH   7  11
TORSDOF 1
ENDMDL
MODEL 7
REMARK VINA RESULT:    -3.743     15.902     16.384
REMARK INTER + INTRA:          -3.852
REMARK INTER:                  -3.852
REMARK INTRA:                   0.000
REMARK UNBOUND:                 0.000
REMARK SMILES Nc1ncnc2nc[nH]c12
REMARK SMILES IDX 8 1 7 2 6 3 5 4 4 5 3 6 2 7 10 8 9 9 1 11
REMARK H PARENT 9 10 1 12 1 13
REMARK Flexibility Score: inf
ROOT
ATOM      1  C   UNL     1      83.701   7.329 366.206  1.00  0.00     0.199 A 
ATOM      2  N   UNL     1      82.681   8.023 366.779  1.00  0.00    -0.217 NA
ATOM      3  C   UNL     1      82.825   9.243 366.235  1.00  0.00     0.182 A 
ATOM      4  N   UNL     1      82.052  10.330 366.471  1.00  0.00    -0.215 NA
ATOM      5  C   UNL     1      82.356  11.493 365.820  1.00  0.00     0.226 A 
ATOM      6  N   UNL     1      83.418  11.547 364.954  1.00  0.00    -0.217 NA
ATOM      7  C   UNL     1      84.200  10.453 364.714  1.00  0.00     0.152 A 
ATOM      8  C   UNL     1      83.876   9.276 365.385  1.00  0.00     0.127 A 
ATOM      9  N   UNL     1      84.451   8.067 365.349  1.00  0.00    -0.340 N 
ATOM     10  H   UNL     1      85.280   7.754 364.797  1.00  0.00     0.168 HD
ENDROOT
BRANCH   7  11
ATOM     11  N   UNL     1      85.300  10.533 363.807  1.00  0.00    -0.382 N 
ATOM     12  H   UNL     1      85.335   9.908 362.972  1.00  0.00     0.158 HD
ATOM     13  H   UNL     1      86.082  11.208 363.958  1.00  0.00     0.158 HD
ENDBRANCH   7  11
TORSDOF 1
ENDMDL
MODEL 8
REMARK VINA RESULT:    -3.725     15.062     16.599
REMARK INTER + INTRA:          -3.834
REMARK INTER:                  -3.834
REMARK INTRA:                   0.000
REMARK UNBOUND:                 0.000
REMARK SMILES Nc1ncnc2nc[nH]c12
REMARK SMILES IDX 8 1 7 2 6 3 5 4 4 5 3 6 2 7 10 8 9 9 1 11
REMARK H PARENT 9 10 1 12 1 13
REMARK Flexibility Score: inf
ROOT
ATOM      1  C   UNL     1      85.017   8.566 367.844  1.00  0.00     0.199 A 
ATOM      2  N   UNL     1      85.337   8.841 366.550  1.00  0.00    -0.217 NA
ATOM      3  C   UNL     1      84.145   9.172 366.026  1.00  0.00     0.182 A 
ATOM      4  N   UNL     1      83.899   9.538 364.745  1.00  0.00    -0.215 NA
ATOM      5  C   UNL     1      82.612   9.840 364.395  1.00  0.00     0.226 A 
ATOM      6  N   UNL     1      81.605   9.770 365.323  1.00  0.00    -0.217 NA
ATOM      7  C   UNL     1      81.850   9.401 366.616  1.00  0.00     0.152 A 
ATOM      8  C   UNL     1      83.166   9.097 366.956  1.00  0.00     0.127 A 
ATOM      9  N   UNL     1      83.697   8.713 368.123  1.00  0.00    -0.340 N 
ATOM     10  H   UNL     1      83.220   8.560 369.039  1.00  0.00     0.168 HD
ENDROOT
BRANCH   7  11
ATOM     11  N   UNL     1      80.785   9.336 367.565  1.00  0.00    -0.382 N 
ATOM     12  H   UNL     1      80.584  10.155 368.181  1.00  0.00     0.158 HD
ATOM     13  H   UNL     1      80.194   8.481 367.662  1.00  0.00     0.158 HD
ENDBRANCH   7  11
TORSDOF 1
ENDMDL
MODEL 9
REMARK VINA RESULT:    -3.663     16.253     16.456
REMARK INTER + INTRA:          -3.770
REMARK INTER:                  -3.770
REMARK INTRA:                   0.000
REMARK UNBOUND:                 0.000
REMARK SMILES Nc1ncnc2nc[nH]c12
REMARK SMILES IDX 8 1 7 2 6 3 5 4 4 5 3 6 2 7 10 8 9 9 1 11
REMARK H PARENT 9 10 1 12 1 13
REMARK Flexibility Score: inf
ROOT
ATOM      1  C   UNL     1      82.730  12.564 366.236  1.00  0.00     0.199 A 
ATOM      2  N   UNL     1      83.702  11.968 365.494  1.00  0.00    -0.217 NA
ATOM      3  C   UNL     1      83.558  10.674 365.821  1.00  0.00     0.182 A 
ATOM      4  N   UNL     1      84.292   9.635 365.354  1.00  0.00    -0.215 NA
ATOM      5  C   UNL     1      83.996   8.379 365.807  1.00  0.00     0.226 A 
ATOM      6  N   UNL     1      82.982   8.187 366.711  1.00  0.00    -0.217 NA
ATOM      7  C   UNL     1      82.241   9.233 367.184  1.00  0.00     0.152 A 
ATOM      8  C   UNL     1      82.555  10.505 366.713  1.00  0.00     0.127 A 
ATOM      9  N   UNL     1      82.011  11.697 366.992  1.00  0.00    -0.340 N 
ATOM     10  H   UNL     1      81.221  11.918 367.637  1.00  0.00     0.168 HD
ENDROOT
BRANCH   7  11
ATOM     11  N   UNL     1      81.189   9.009 368.125  1.00  0.00    -0.382 N 
ATOM     12  H   UNL     1      81.184   8.141 368.705  1.00  0.00     0.158 HD
ATOM     13  H   UNL     1      80.416   9.698 368.250  1.00  0.00     0.158 HD
ENDBRANCH   7  11
TORSDOF 1
ENDMDL
