MODEL 1
REMARK VINA RESULT:    -4.493      0.000      0.000
REMARK INTER + INTRA:         -10.031
REMARK INTER:                  -8.170
REMARK INTRA:                  -1.862
REMARK UNBOUND:                -1.862
REMARK SMILES CCCCCC=CCC=CCCCCCCCC(=O)[O-]
REMARK SMILES IDX 11 1 12 2 13 3 14 4 15 5 16 6 17 7 18 8 19 9 20 10 10 11
REMARK SMILES IDX 9 12 8 13 7 14 6 15 5 16 4 17 3 18 2 19 1 20
REMARK H PARENT
REMARK Flexibility Score: inf
ROOT
ATOM      1  C   UNL     1     132.304 -38.698  31.609  1.00  0.00     0.027 C 
ENDROOT
BRANCH   1   2
ATOM      2  C   UNL     1     131.692 -38.988  30.230  1.00  0.00     0.004 C 
BRANCH   2   3
ATOM      3  C   UNL     1     130.334 -38.298  30.033  1.00  0.00     0.000 C 
BRANCH   3   4
ATOM      4  C   UNL     1     129.212 -39.296  29.692  1.00  0.00     0.000 C 
BRANCH   4   5
ATOM      5  C   UNL     1     129.672 -40.759  29.794  1.00  0.00     0.000 C 
BRANCH   5   6
ATOM      6  C   UNL     1     129.023 -41.501  30.975  1.00  0.00     0.006 C 
BRANCH   6   7
ATOM      7  C   UNL     1     128.000 -40.629  31.715  1.00  0.00     0.053 C 
BRANCH   7   8
ATOM      8  C   UNL     1     126.601 -41.132  31.529  1.00  0.00     0.041 C 
ATOM      9  O   UNL     1     126.182 -41.427  30.379  1.00  0.00    -0.550 OA
ATOM     10  O   UNL     1     125.771 -41.302  32.629  1.00  0.00    -0.550 OA
ENDBRANCH   7   8
ENDBRANCH   6   7
ENDBRANCH   5   6
ENDBRANCH   4   5
ENDBRANCH   3   4
ENDBRANCH   2   3
ENDBRANCH   1   2
BRANCH   1  11
ATOM     11  C   UNL     1     131.275 -38.861  32.696  1.00  0.00    -0.031 C 
ATOM     12  C   UNL     1     131.159 -39.947  33.483  1.00  0.00    -0.027 C 
BRANCH  12  13
ATOM     13  C   UNL     1     131.988 -41.201  33.342  1.00  0.00     0.054 C 
BRANCH  13  14
ATOM     14  C   UNL     1     131.802 -42.088  34.538  1.00  0.00    -0.027 C 
ATOM     15  C   UNL     1     131.191 -41.647  35.646  1.00  0.00    -0.031 C 
BRANCH  15  16
ATOM     16  C   UNL     1     131.015 -42.546  36.839  1.00  0.00     0.027 C 
BRANCH  16  17
ATOM     17  C   UNL     1     132.142 -42.336  37.861  1.00  0.00     0.004 C 
BRANCH  17  18
ATOM     18  C   UNL     1     131.748 -41.364  38.984  1.00  0.00     0.000 C 
BRANCH  18  19
ATOM     19  C   UNL     1     132.813 -41.270  40.085  1.00  0.00    -0.003 C 
ATOM     20  C   UNL     1     133.860 -42.370  39.933  1.00  0.00     0.004 C 
ENDBRANCH  18  19
ENDBRANCH  17  18
ENDBRANCH  16  17
ENDBRANCH  15  16
ENDBRANCH  13  14
ENDBRANCH  12  13
ENDBRANCH   1  11
TORSDOF 14
ENDMDL
MODEL 2
REMARK VINA RESULT:    -4.479      3.462      7.896
REMARK INTER + INTRA:         -10.006
REMARK INTER:                  -8.378
REMARK INTRA:                  -1.628
REMARK UNBOUND:                -1.862
REMARK SMILES CCCCCC=CCC=CCCCCCCCC(=O)[O-]
REMARK SMILES IDX 11 1 12 2 13 3 14 4 15 5 16 6 17 7 18 8 19 9 20 10 10 11
REMARK SMILES IDX 9 12 8 13 7 14 6 15 5 16 4 17 3 18 2 19 1 20
REMARK H PARENT
REMARK Flexibility Score: inf
ROOT
ATOM      1  C   UNL     1     130.001 -41.012  33.054  1.00  0.00     0.027 C 
ENDROOT
BRANCH   1   2
ATOM      2  C   UNL     1     130.929 -42.189  33.391  1.00  0.00     0.004 C 
BRANCH   2   3
ATOM      3  C   UNL     1     132.090 -41.780  34.309  1.00  0.00     0.000 C 
BRANCH   3   4
ATOM      4  C   UNL     1     131.942 -42.350  35.732  1.00  0.00     0.000 C 
BRANCH   4   5
ATOM      5  C   UNL     1     130.742 -41.755  36.485  1.00  0.00     0.000 C 
BRANCH   5   6
ATOM      6  C   UNL     1     130.853 -41.937  38.009  1.00  0.00     0.006 C 
BRANCH   6   7
ATOM      7  C   UNL     1     132.312 -42.003  38.480  1.00  0.00     0.053 C 
BRANCH   7   8
ATOM      8  C   UNL     1     132.508 -41.298  39.787  1.00  0.00     0.041 C 
ATOM      9  O   UNL     1     133.513 -41.553  40.501  1.00  0.00    -0.550 OA
ATOM     10  O   UNL     1     131.593 -40.338  40.202  1.00  0.00    -0.550 OA
ENDBRANCH   7   8
ENDBRANCH   6   7
ENDBRANCH   5   6
ENDBRANCH   4   5
ENDBRANCH   3   4
ENDBRANCH   2   3
ENDBRANCH   1   2
BRANCH   1  11
ATOM     11  C   UNL     1     130.617 -39.707  33.484  1.00  0.00    -0.031 C 
ATOM     12  C   UNL     1     131.229 -38.840  32.654  1.00  0.00    -0.027 C 
BRANCH  12  13
ATOM     13  C   UNL     1     131.464 -39.083  31.183  1.00  0.00     0.054 C 
BRANCH  13  14
ATOM     14  C   UNL     1     130.318 -38.547  30.375  1.00  0.00    -0.027 C 
ATOM     15  C   UNL     1     129.388 -39.362  29.856  1.00  0.00    -0.031 C 
BRANCH  15  16
ATOM     16  C   UNL     1     128.248 -38.811  29.045  1.00  0.00     0.027 C 
BRANCH  16  17
ATOM     17  C   UNL     1     126.897 -39.305  29.583  1.00  0.00     0.004 C 
BRANCH  17  18
ATOM     18  C   UNL     1     126.981 -40.714  30.190  1.00  0.00     0.000 C 
BRANCH  18  19
ATOM     19  C   UNL     1     126.445 -40.772  31.627  1.00  0.00    -0.003 C 
ATOM     20  C   UNL     1     126.508 -39.400  32.293  1.00  0.00     0.004 C 
ENDBRANCH  18  19
ENDBRANCH  17  18
ENDBRANCH  16  17
ENDBRANCH  15  16
ENDBRANCH  13  14
ENDBRANCH  12  13
ENDBRANCH   1  11
TORSDOF 14
ENDMDL
MODEL 3
REMARK VINA RESULT:    -4.455      3.527      7.484
REMARK INTER + INTRA:          -9.963
REMARK INTER:                  -8.042
REMARK INTRA:                  -1.921
REMARK UNBOUND:                -1.862
REMARK SMILES CCCCCC=CCC=CCCCCCCCC(=O)[O-]
REMARK SMILES IDX 11 1 12 2 13 3 14 4 15 5 16 6 17 7 18 8 19 9 20 10 10 11
REMARK SMILES IDX 9 12 8 13 7 14 6 15 5 16 4 17 3 18 2 19 1 20
REMARK H PARENT
REMARK Flexibility Score: inf
ROOT
ATOM      1  C   UNL     1     131.021 -38.736  32.953  1.00  0.00     0.027 C 
ENDROOT
BRANCH   1   2
ATOM      2  C   UNL     1     130.614 -39.951  33.800  1.00  0.00     0.004 C 
BRANCH   2   3
ATOM      3  C   UNL     1     131.223 -41.262  33.280  1.00  0.00     0.000 C 
BRANCH   3   4
ATOM      4  C   UNL     1     131.718 -42.172  34.420  1.00  0.00     0.000 C 
BRANCH   4   5
ATOM      5  C   UNL     1     131.086 -41.819  35.775  1.00  0.00     0.000 C 
BRANCH   5   6
ATOM      6  C   UNL     1     131.892 -42.370  36.964  1.00  0.00     0.006 C 
BRANCH   6   7
ATOM      7  C   UNL     1     131.462 -41.742  38.297  1.00  0.00     0.053 C 
BRANCH   7   8
ATOM      8  C   UNL     1     132.549 -41.821  39.325  1.00  0.00     0.041 C 
ATOM      9  O   UNL     1     133.505 -42.627  39.176  1.00  0.00    -0.550 OA
ATOM     10  O   UNL     1     132.518 -40.985  40.434  1.00  0.00    -0.550 OA
ENDBRANCH   7   8
ENDBRANCH   6   7
ENDBRANCH   5   6
ENDBRANCH   4   5
ENDBRANCH   3   4
ENDBRANCH   2   3
ENDBRANCH   1   2
BRANCH   1  11
ATOM     11  C   UNL     1     131.927 -39.151  31.824  1.00  0.00    -0.031 C 
ATOM     12  C   UNL     1     131.780 -38.761  30.544  1.00  0.00    -0.027 C 
BRANCH  12  13
ATOM     13  C   UNL     1     130.639 -37.917  30.030  1.00  0.00     0.054 C 
BRANCH  13  14
ATOM     14  C   UNL     1     129.555 -38.791  29.469  1.00  0.00    -0.027 C 
ATOM     15  C   UNL     1     129.738 -40.108  29.297  1.00  0.00    -0.031 C 
BRANCH  15  16
ATOM     16  C   UNL     1     128.645 -40.970  28.729  1.00  0.00     0.027 C 
BRANCH  16  17
ATOM     17  C   UNL     1     127.557 -41.246  29.777  1.00  0.00     0.004 C 
BRANCH  17  18
ATOM     18  C   UNL     1     128.136 -41.716  31.121  1.00  0.00     0.000 C 
BRANCH  18  19
ATOM     19  C   UNL     1     127.539 -40.962  32.318  1.00  0.00    -0.003 C 
ATOM     20  C   UNL     1     126.758 -39.734  31.859  1.00  0.00     0.004 C 
ENDBRANCH  18  19
ENDBRANCH  17  18
ENDBRANCH  16  17
ENDBRANCH  15  16
ENDBRANCH  13  14
ENDBRANCH  12  13
ENDBRANCH   1  11
TORSDOF 14
ENDMDL
MODEL 4
REMARK VINA RESULT:    -4.423      2.821      6.441
REMARK INTER + INTRA:          -9.905
REMARK INTER:                  -6.988
REMARK INTRA:                  -2.916
REMARK UNBOUND:                -1.862
REMARK SMILES CCCCCC=CCC=CCCCCCCCC(=O)[O-]
REMARK SMILES IDX 11 1 12 2 13 3 14 4 15 5 16 6 17 7 18 8 19 9 20 10 10 11
REMARK SMILES IDX 9 12 8 13 7 14 6 15 5 16 4 17 3 18 2 19 1 20
REMARK H PARENT
REMARK Flexibility Score: inf
ROOT
ATOM      1  C   UNL     1     131.993 -38.976  29.958  1.00  0.00     0.027 C 
ENDROOT
BRANCH   1   2
ATOM      2  C   UNL     1     130.785 -38.347  30.669  1.00  0.00     0.004 C 
BRANCH   2   3
ATOM      3  C   UNL     1     130.793 -38.606  32.184  1.00  0.00     0.000 C 
BRANCH   3   4
ATOM      4  C   UNL     1     132.079 -39.312  32.651  1.00  0.00     0.000 C 
BRANCH   4   5
ATOM      5  C   UNL     1     131.813 -40.722  33.202  1.00  0.00     0.000 C 
BRANCH   5   6
ATOM      6  C   UNL     1     130.803 -40.722  34.362  1.00  0.00     0.006 C 
BRANCH   6   7
ATOM      7  C   UNL     1     130.614 -42.120  34.966  1.00  0.00     0.053 C 
BRANCH   7   8
ATOM      8  C   UNL     1     130.543 -42.074  36.462  1.00  0.00     0.041 C 
ATOM      9  O   UNL     1     129.438 -42.217  37.048  1.00  0.00    -0.550 OA
ATOM     10  O   UNL     1     131.701 -41.903  37.208  1.00  0.00    -0.550 OA
ENDBRANCH   7   8
ENDBRANCH   6   7
ENDBRANCH   5   6
ENDBRANCH   4   5
ENDBRANCH   3   4
ENDBRANCH   2   3
ENDBRANCH   1   2
BRANCH   1  11
ATOM     11  C   UNL     1     131.570 -39.639  28.674  1.00  0.00    -0.031 C 
ATOM     12  C   UNL     1     131.107 -40.900  28.581  1.00  0.00    -0.027 C 
BRANCH  12  13
ATOM     13  C   UNL     1     131.019 -41.868  29.736  1.00  0.00     0.054 C 
BRANCH  13  14
ATOM     14  C   UNL     1     129.584 -42.167  30.060  1.00  0.00    -0.027 C 
ATOM     15  C   UNL     1     129.040 -41.795  31.227  1.00  0.00    -0.031 C 
BRANCH  15  16
ATOM     16  C   UNL     1     127.602 -42.106  31.539  1.00  0.00     0.027 C 
BRANCH  16  17
ATOM     17  C   UNL     1     126.882 -40.876  32.111  1.00  0.00     0.004 C 
BRANCH  17  18
ATOM     18  C   UNL     1     127.322 -39.567  31.438  1.00  0.00     0.000 C 
BRANCH  18  19
ATOM     19  C   UNL     1     126.618 -39.327  30.095  1.00  0.00    -0.003 C 
ATOM     20  C   UNL     1     127.630 -39.091  28.978  1.00  0.00     0.004 C 
ENDBRANCH  18  19
ENDBRANCH  17  18
ENDBRANCH  16  17
ENDBRANCH  15  16
ENDBRANCH  13  14
ENDBRANCH  12  13
ENDBRANCH   1  11
TORSDOF 14
ENDMDL
MODEL 5
REMARK VINA RESULT:    -4.413      1.077      1.624
REMARK INTER + INTRA:          -9.886
REMARK INTER:                  -7.923
REMARK INTRA:                  -1.963
REMARK UNBOUND:                -1.862
REMARK SMILES CCCCCC=CCC=CCCCCCCCC(=O)[O-]
REMARK SMILES IDX 11 1 12 2 13 3 14 4 15 5 16 6 17 7 18 8 19 9 20 10 10 11
REMARK SMILES IDX 9 12 8 13 7 14 6 15 5 16 4 17 3 18 2 19 1 20
REMARK H PARENT
REMARK Flexibility Score: inf
ROOT
ATOM      1  C   UNL     1     130.736 -38.145  30.601  1.00  0.00     0.027 C 
ENDROOT
BRANCH   1   2
ATOM      2  C   UNL     1     129.677 -38.697  29.635  1.00  0.00     0.004 C 
BRANCH   2   3
ATOM      3  C   UNL     1     130.048 -40.082  29.083  1.00  0.00     0.000 C 
BRANCH   3   4
ATOM      4  C   UNL     1     129.082 -41.181  29.561  1.00  0.00     0.000 C 
BRANCH   4   5
ATOM      5  C   UNL     1     129.561 -41.870  30.848  1.00  0.00     0.000 C 
BRANCH   5   6
ATOM      6  C   UNL     1     128.416 -42.116  31.847  1.00  0.00     0.006 C 
BRANCH   6   7
ATOM      7  C   UNL     1     127.052 -41.705  31.277  1.00  0.00     0.053 C 
BRANCH   7   8
ATOM      8  C   UNL     1     126.410 -40.626  32.095  1.00  0.00     0.041 C 
ATOM      9  O   UNL     1     125.574 -40.921  32.989  1.00  0.00    -0.550 OA
ATOM     10  O   UNL     1     126.757 -39.297  31.888  1.00  0.00    -0.550 OA
ENDBRANCH   7   8
ENDBRANCH   6   7
ENDBRANCH   5   6
ENDBRANCH   4   5
ENDBRANCH   3   4
ENDBRANCH   2   3
ENDBRANCH   1   2
BRANCH   1  11
ATOM     11  C   UNL     1     130.268 -38.258  32.028  1.00  0.00    -0.031 C 
ATOM     12  C   UNL     1     130.840 -39.042  32.961  1.00  0.00    -0.027 C 
BRANCH  12  13
ATOM     13  C   UNL     1     131.984 -39.992  32.698  1.00  0.00     0.054 C 
BRANCH  13  14
ATOM     14  C   UNL     1     131.916 -41.163  33.635  1.00  0.00    -0.027 C 
ATOM     15  C   UNL     1     131.102 -41.159  34.700  1.00  0.00    -0.031 C 
BRANCH  15  16
ATOM     16  C   UNL     1     131.049 -42.338  35.632  1.00  0.00     0.027 C 
BRANCH  16  17
ATOM     17  C   UNL     1     130.717 -41.896  37.064  1.00  0.00     0.004 C 
BRANCH  17  18
ATOM     18  C   UNL     1     131.888 -42.111  38.036  1.00  0.00     0.000 C 
BRANCH  18  19
ATOM     19  C   UNL     1     131.784 -41.232  39.291  1.00  0.00    -0.003 C 
ATOM     20  C   UNL     1     133.029 -41.369  40.163  1.00  0.00     0.004 C 
ENDBRANCH  18  19
ENDBRANCH  17  18
ENDBRANCH  16  17
ENDBRANCH  15  16
ENDBRANCH  13  14
ENDBRANCH  12  13
ENDBRANCH   1  11
TORSDOF 14
ENDMDL
MODEL 6
REMARK VINA RESULT:    -4.411      3.086      5.466
REMARK INTER + INTRA:          -9.883
REMARK INTER:                  -6.390
REMARK INTRA:                  -3.494
REMARK UNBOUND:                -1.862
REMARK SMILES CCCCCC=CCC=CCCCCCCCC(=O)[O-]
REMARK SMILES IDX 11 1 12 2 13 3 14 4 15 5 16 6 17 7 18 8 19 9 20 10 10 11
REMARK SMILES IDX 9 12 8 13 7 14 6 15 5 16 4 17 3 18 2 19 1 20
REMARK H PARENT
REMARK Flexibility Score: inf
ROOT
ATOM      1  C   UNL     1     132.131 -39.023  32.246  1.00  0.00     0.027 C 
ENDROOT
BRANCH   1   2
ATOM      2  C   UNL     1     132.017 -38.977  30.715  1.00  0.00     0.004 C 
BRANCH   2   3
ATOM      3  C   UNL     1     130.702 -38.342  30.241  1.00  0.00     0.000 C 
BRANCH   3   4
ATOM      4  C   UNL     1     130.244 -38.889  28.876  1.00  0.00     0.000 C 
BRANCH   4   5
ATOM      5  C   UNL     1     128.821 -39.466  28.917  1.00  0.00     0.000 C 
BRANCH   5   6
ATOM      6  C   UNL     1     128.122 -39.219  30.265  1.00  0.00     0.006 C 
BRANCH   6   7
ATOM      7  C   UNL     1     126.857 -40.072  30.428  1.00  0.00     0.053 C 
BRANCH   7   8
ATOM      8  C   UNL     1     126.364 -40.073  31.842  1.00  0.00     0.041 C 
ATOM      9  O   UNL     1     126.249 -38.990  32.474  1.00  0.00    -0.550 OA
ATOM     10  O   UNL     1     126.006 -41.267  32.453  1.00  0.00    -0.550 OA
ENDBRANCH   7   8
ENDBRANCH   6   7
ENDBRANCH   5   6
ENDBRANCH   4   5
ENDBRANCH   3   4
ENDBRANCH   2   3
ENDBRANCH   1   2
BRANCH   1  11
ATOM     11  C   UNL     1     130.837 -38.599  32.891  1.00  0.00    -0.031 C 
ATOM     12  C   UNL     1     130.045 -39.408  33.619  1.00  0.00    -0.027 C 
BRANCH  12  13
ATOM     13  C   UNL     1     130.289 -40.883  33.830  1.00  0.00     0.054 C 
BRANCH  13  14
ATOM     14  C   UNL     1     129.498 -41.690  32.841  1.00  0.00    -0.027 C 
ATOM     15  C   UNL     1     130.030 -42.079  31.673  1.00  0.00    -0.031 C 
BRANCH  15  16
ATOM     16  C   UNL     1     129.223 -42.883  30.691  1.00  0.00     0.027 C 
BRANCH  16  17
ATOM     17  C   UNL     1     129.942 -42.984  29.338  1.00  0.00     0.004 C 
BRANCH  17  18
ATOM     18  C   UNL     1     131.355 -42.382  29.372  1.00  0.00     0.000 C 
BRANCH  18  19
ATOM     19  C   UNL     1     131.891 -42.050  27.972  1.00  0.00    -0.003 C 
ATOM     20  C   UNL     1     130.763 -42.026  26.943  1.00  0.00     0.004 C 
ENDBRANCH  18  19
ENDBRANCH  17  18
ENDBRANCH  16  17
ENDBRANCH  15  16
ENDBRANCH  13  14
ENDBRANCH  12  13
ENDBRANCH   1  11
TORSDOF 14
ENDMDL
MODEL 7
REMARK VINA RESULT:    -4.392      3.522      7.990
REMARK INTER + INTRA:          -9.849
REMARK INTER:                  -7.867
REMARK INTRA:                  -1.981
REMARK UNBOUND:                -1.862
REMARK SMILES CCCCCC=CCC=CCCCCCCCC(=O)[O-]
REMARK SMILES IDX 11 1 12 2 13 3 14 4 15 5 16 6 17 7 18 8 19 9 20 10 10 11
REMARK SMILES IDX 9 12 8 13 7 14 6 15 5 16 4 17 3 18 2 19 1 20
REMARK H PARENT
REMARK Flexibility Score: inf
ROOT
ATOM      1  C   UNL     1     131.657 -40.976  32.606  1.00  0.00     0.027 C 
ENDROOT
BRANCH   1   2
ATOM      2  C   UNL     1     132.711 -41.560  33.559  1.00  0.00     0.004 C 
BRANCH   2   3
ATOM      3  C   UNL     1     132.189 -42.774  34.342  1.00  0.00     0.000 C 
BRANCH   3   4
ATOM      4  C   UNL     1     132.267 -42.567  35.866  1.00  0.00     0.000 C 
BRANCH   4   5
ATOM      5  C   UNL     1     130.983 -41.956  36.447  1.00  0.00     0.000 C 
BRANCH   5   6
ATOM      6  C   UNL     1     131.000 -41.895  37.984  1.00  0.00     0.006 C 
BRANCH   6   7
ATOM      7  C   UNL     1     132.418 -42.037  38.553  1.00  0.00     0.053 C 
BRANCH   7   8
ATOM      8  C   UNL     1     132.568 -41.318  39.859  1.00  0.00     0.041 C 
ATOM      9  O   UNL     1     133.634 -41.422  40.521  1.00  0.00    -0.550 OA
ATOM     10  O   UNL     1     131.540 -40.511  40.330  1.00  0.00    -0.550 OA
ENDBRANCH   7   8
ENDBRANCH   6   7
ENDBRANCH   5   6
ENDBRANCH   4   5
ENDBRANCH   3   4
ENDBRANCH   2   3
ENDBRANCH   1   2
BRANCH   1  11
ATOM     11  C   UNL     1     130.664 -40.133  33.361  1.00  0.00    -0.031 C 
ATOM     12  C   UNL     1     129.354 -40.419  33.482  1.00  0.00    -0.027 C 
BRANCH  12  13
ATOM     13  C   UNL     1     128.665 -41.583  32.810  1.00  0.00     0.054 C 
BRANCH  13  14
ATOM     14  C   UNL     1     128.042 -41.145  31.517  1.00  0.00    -0.027 C 
ATOM     15  C   UNL     1     127.727 -39.861  31.293  1.00  0.00    -0.031 C 
BRANCH  15  16
ATOM     16  C   UNL     1     127.098 -39.438  29.994  1.00  0.00     0.027 C 
BRANCH  16  17
ATOM     17  C   UNL     1     128.167 -39.165  28.926  1.00  0.00     0.004 C 
BRANCH  17  18
ATOM     18  C   UNL     1     129.392 -38.428  29.489  1.00  0.00     0.000 C 
BRANCH  18  19
ATOM     19  C   UNL     1     130.715 -39.123  29.136  1.00  0.00    -0.003 C 
ATOM     20  C   UNL     1     130.485 -40.586  28.766  1.00  0.00     0.004 C 
ENDBRANCH  18  19
ENDBRANCH  17  18
ENDBRANCH  16  17
ENDBRANCH  15  16
ENDBRANCH  13  14
ENDBRANCH  12  13
ENDBRANCH   1  11
TORSDOF 14
ENDMDL
MODEL 8
REMARK VINA RESULT:    -4.290      2.499      3.743
REMARK INTER + INTRA:          -9.663
REMARK INTER:                  -8.306
REMARK INTRA:                  -1.357
REMARK UNBOUND:                -1.862
REMARK SMILES CCCCCC=CCC=CCCCCCCCC(=O)[O-]
REMARK SMILES IDX 11 1 12 2 13 3 14 4 15 5 16 6 17 7 18 8 19 9 20 10 10 11
REMARK SMILES IDX 9 12 8 13 7 14 6 15 5 16 4 17 3 18 2 19 1 20
REMARK H PARENT
REMARK Flexibility Score: inf
ROOT
ATOM      1  C   UNL     1     127.078 -39.644  31.603  1.00  0.00     0.027 C 
ENDROOT
BRANCH   1   2
ATOM      2  C   UNL     1     126.471 -39.386  30.216  1.00  0.00     0.004 C 
BRANCH   2   3
ATOM      3  C   UNL     1     127.534 -39.028  29.166  1.00  0.00     0.000 C 
BRANCH   3   4
ATOM      4  C   UNL     1     128.563 -40.155  28.965  1.00  0.00     0.000 C 
BRANCH   4   5
ATOM      5  C   UNL     1     130.012 -39.669  29.124  1.00  0.00     0.000 C 
BRANCH   5   6
ATOM      6  C   UNL     1     130.102 -38.302  29.825  1.00  0.00     0.006 C 
BRANCH   6   7
ATOM      7  C   UNL     1     130.471 -38.434  31.308  1.00  0.00     0.053 C 
BRANCH   7   8
ATOM      8  C   UNL     1     131.852 -38.985  31.492  1.00  0.00     0.041 C 
ATOM      9  O   UNL     1     132.777 -38.650  30.706  1.00  0.00    -0.550 OA
ATOM     10  O   UNL     1     132.123 -39.845  32.548  1.00  0.00    -0.550 OA
ENDBRANCH   7   8
ENDBRANCH   6   7
ENDBRANCH   5   6
ENDBRANCH   4   5
ENDBRANCH   3   4
ENDBRANCH   2   3
ENDBRANCH   1   2
BRANCH   1  11
ATOM     11  C   UNL     1     126.755 -41.037  32.076  1.00  0.00    -0.031 C 
ATOM     12  C   UNL     1     127.593 -41.818  32.785  1.00  0.00    -0.027 C 
BRANCH  12  13
ATOM     13  C   UNL     1     129.013 -41.449  33.140  1.00  0.00     0.054 C 
BRANCH  13  14
ATOM     14  C   UNL     1     129.486 -42.261  34.311  1.00  0.00    -0.027 C 
ATOM     15  C   UNL     1     130.210 -41.710  35.296  1.00  0.00    -0.031 C 
BRANCH  15  16
ATOM     16  C   UNL     1     130.681 -42.538  36.460  1.00  0.00     0.027 C 
BRANCH  16  17
ATOM     17  C   UNL     1     130.889 -41.669  37.708  1.00  0.00     0.004 C 
BRANCH  17  18
ATOM     18  C   UNL     1     132.205 -41.986  38.436  1.00  0.00     0.000 C 
BRANCH  18  19
ATOM     19  C   UNL     1     132.336 -41.240  39.772  1.00  0.00    -0.003 C 
ATOM     20  C   UNL     1     133.643 -41.597  40.475  1.00  0.00     0.004 C 
ENDBRANCH  18  19
ENDBRANCH  17  18
ENDBRANCH  16  17
ENDBRANCH  15  16
ENDBRANCH  13  14
ENDBRANCH  12  13
ENDBRANCH   1  11
TORSDOF 14
ENDMDL
MODEL 9
REMARK VINA RESULT:    -4.274      3.049      6.101
REMARK INTER + INTRA:          -9.633
REMARK INTER:                  -7.304
REMARK INTRA:                  -2.329
REMARK UNBOUND:                -1.862
REMARK SMILES CCCCCC=CCC=CCCCCCCCC(=O)[O-]
REMARK SMILES IDX 11 1 12 2 13 3 14 4 15 5 16 6 17 7 18 8 19 9 20 10 10 11
REMARK SMILES IDX 9 12 8 13 7 14 6 15 5 16 4 17 3 18 2 19 1 20
REMARK H PARENT
REMARK Flexibility Score: inf
ROOT
ATOM      1  C   UNL     1     131.925 -38.675  30.498  1.00  0.00     0.027 C 
ENDROOT
BRANCH   1   2
ATOM      2  C   UNL     1     131.965 -39.030  31.991  1.00  0.00     0.004 C 
BRANCH   2   3
ATOM      3  C   UNL     1     130.694 -38.594  32.735  1.00  0.00     0.000 C 
BRANCH   3   4
ATOM      4  C   UNL     1     129.914 -39.788  33.315  1.00  0.00     0.000 C 
BRANCH   4   5
ATOM      5  C   UNL     1     130.528 -41.142  32.922  1.00  0.00     0.000 C 
BRANCH   5   6
ATOM      6  C   UNL     1     130.580 -42.130  34.100  1.00  0.00     0.006 C 
BRANCH   6   7
ATOM      7  C   UNL     1     130.365 -41.433  35.451  1.00  0.00     0.053 C 
BRANCH   7   8
ATOM      8  C   UNL     1     131.243 -42.009  36.520  1.00  0.00     0.041 C 
ATOM      9  O   UNL     1     132.337 -42.552  36.216  1.00  0.00    -0.550 OA
ATOM     10  O   UNL     1     130.865 -41.919  37.853  1.00  0.00    -0.550 OA
ENDBRANCH   7   8
ENDBRANCH   6   7
ENDBRANCH   5   6
ENDBRANCH   4   5
ENDBRANCH   3   4
ENDBRANCH   2   3
ENDBRANCH   1   2
BRANCH   1  11
ATOM     11  C   UNL     1     130.605 -38.047  30.133  1.00  0.00    -0.031 C 
ATOM     12  C   UNL     1     129.598 -38.691  29.514  1.00  0.00    -0.027 C 
BRANCH  12  13
ATOM     13  C   UNL     1     129.668 -40.114  29.015  1.00  0.00     0.054 C 
BRANCH  13  14
ATOM     14  C   UNL     1     128.434 -40.870  29.415  1.00  0.00    -0.027 C 
ATOM     15  C   UNL     1     127.633 -40.430  30.396  1.00  0.00    -0.031 C 
BRANCH  15  16
ATOM     16  C   UNL     1     126.402 -41.200  30.788  1.00  0.00     0.027 C 
BRANCH  16  17
ATOM     17  C   UNL     1     126.204 -41.189  32.310  1.00  0.00     0.004 C 
BRANCH  17  18
ATOM     18  C   UNL     1     127.063 -42.243  33.027  1.00  0.00     0.000 C 
BRANCH  18  19
ATOM     19  C   UNL     1     126.452 -42.696  34.360  1.00  0.00    -0.003 C 
ATOM     20  C   UNL     1     125.046 -42.129  34.542  1.00  0.00     0.004 C 
ENDBRANCH  18  19
ENDBRANCH  17  18
ENDBRANCH  16  17
ENDBRANCH  15  16
ENDBRANCH  13  14
ENDBRANCH  12  13
ENDBRANCH   1  11
TORSDOF 14
ENDMDL
