MODEL 1
REMARK VINA RESULT:    -6.306      0.000      0.000
REMARK INTER + INTRA:          -8.596
REMARK INTER:                  -7.965
REMARK INTRA:                  -0.631
REMARK UNBOUND:                -0.631
REMARK SMILES O=C(C=Cc1ccc(O)cc1)c1ccc(O)cc1O
REMARK SMILES IDX 4 1 3 2 5 3 6 4 7 5 8 6 11 7 10 8 9 9 2 11 1 12 12 13 18 14
REMARK SMILES IDX 13 15 17 16 14 17 15 18 19 19 16 21
REMARK H PARENT 9 10 19 20 16 22
REMARK Flexibility Score: inf
ROOT
ATOM      1  C   UNL     1     -10.742  -8.316  -5.897  1.00  0.00     0.012 C 
ATOM      2  C   UNL     1      -9.707  -8.794  -5.189  1.00  0.00     0.053 C 
ENDROOT
BRANCH   1   3
ATOM      3  C   UNL     1     -11.140  -6.887  -5.915  1.00  0.00    -0.025 A 
ATOM      4  C   UNL     1     -10.440  -6.005  -6.758  1.00  0.00     0.012 A 
ATOM      5  C   UNL     1     -10.785  -4.652  -6.816  1.00  0.00     0.047 A 
ATOM      6  C   UNL     1     -11.837  -4.160  -6.040  1.00  0.00     0.115 A 
ATOM      7  C   UNL     1     -12.210  -6.385  -5.146  1.00  0.00     0.012 A 
ATOM      8  C   UNL     1     -12.551  -5.030  -5.207  1.00  0.00     0.047 A 
BRANCH   6   9
ATOM      9  O   UNL     1     -12.168  -2.808  -6.107  1.00  0.00    -0.508 OA
ATOM     10  H   UNL     1     -11.780  -2.136  -5.456  1.00  0.00     0.293 HD
ENDBRANCH   6   9
ENDBRANCH   1   3
BRANCH   2  11
ATOM     11  C   UNL     1      -9.326 -10.222  -5.186  1.00  0.00     0.189 C 
ATOM     12  O   UNL     1     -10.060 -11.038  -4.569  1.00  0.00    -0.289 OA
BRANCH  11  13
ATOM     13  C   UNL     1      -8.095 -10.722  -5.841  1.00  0.00     0.064 A 
ATOM     14  C   UNL     1      -8.119 -11.839  -6.709  1.00  0.00     0.130 A 
ATOM     15  C   UNL     1      -6.868 -10.101  -5.554  1.00  0.00     0.020 A 
ATOM     16  C   UNL     1      -6.922 -12.315  -7.259  1.00  0.00     0.093 A 
ATOM     17  C   UNL     1      -5.682 -10.578  -6.118  1.00  0.00     0.047 A 
ATOM     18  C   UNL     1      -5.705 -11.686  -6.968  1.00  0.00     0.119 A 
BRANCH  14  19
ATOM     19  O   UNL     1      -9.309 -12.482  -7.059  1.00  0.00    -0.507 OA
ATOM     20  H   UNL     1      -9.587 -13.375  -6.674  1.00  0.00     0.293 HD
ENDBRANCH  14  19
BRANCH  18  21
ATOM     21  O   UNL     1      -4.514 -12.155  -7.518  1.00  0.00    -0.508 OA
ATOM     22  H   UNL     1      -4.006 -11.620  -8.215  1.00  0.00     0.293 HD
ENDBRANCH  18  21
ENDBRANCH  11  13
ENDBRANCH   2  11
TORSDOF 6
ENDMDL
MODEL 2
REMARK VINA RESULT:    -6.191      1.028      1.697
REMARK INTER + INTRA:          -8.451
REMARK INTER:                  -8.383
REMARK INTRA:                  -0.069
REMARK UNBOUND:                -0.631
REMARK SMILES O=C(C=Cc1ccc(O)cc1)c1ccc(O)cc1O
REMARK SMILES IDX 4 1 3 2 5 3 6 4 7 5 8 6 11 7 10 8 9 9 2 11 1 12 12 13 18 14
REMARK SMILES IDX 13 15 17 16 14 17 15 18 19 19 16 21
REMARK H PARENT 9 10 19 20 16 22
REMARK Flexibility Score: inf
ROOT
ATOM      1  C   UNL     1     -10.230  -8.166  -5.653  1.00  0.00     0.012 C 
ATOM      2  C   UNL     1     -10.842  -9.358  -5.582  1.00  0.00     0.053 C 
ENDROOT
BRANCH   1   3
ATOM      3  C   UNL     1     -10.916  -6.907  -6.032  1.00  0.00    -0.025 A 
ATOM      4  C   UNL     1     -10.414  -6.170  -7.119  1.00  0.00     0.012 A 
ATOM      5  C   UNL     1     -11.032  -4.981  -7.519  1.00  0.00     0.047 A 
ATOM      6  C   UNL     1     -12.164  -4.516  -6.847  1.00  0.00     0.115 A 
ATOM      7  C   UNL     1     -12.068  -6.438  -5.368  1.00  0.00     0.012 A 
ATOM      8  C   UNL     1     -12.682  -5.249  -5.772  1.00  0.00     0.047 A 
BRANCH   6   9
ATOM      9  O   UNL     1     -12.769  -3.329  -7.256  1.00  0.00    -0.508 OA
ATOM     10  H   UNL     1     -12.907  -3.117  -8.237  1.00  0.00     0.293 HD
ENDBRANCH   6   9
ENDBRANCH   1   3
BRANCH   2  11
ATOM     11  C   UNL     1     -10.140 -10.601  -5.200  1.00  0.00     0.189 C 
ATOM     12  O   UNL     1     -10.696 -11.375  -4.376  1.00  0.00    -0.289 OA
BRANCH  11  13
ATOM     13  C   UNL     1      -8.795 -10.949  -5.711  1.00  0.00     0.064 A 
ATOM     14  C   UNL     1      -7.641 -10.240  -5.302  1.00  0.00     0.130 A 
ATOM     15  C   UNL     1      -8.668 -11.976  -6.661  1.00  0.00     0.020 A 
ATOM     16  C   UNL     1      -6.395 -10.564  -5.856  1.00  0.00     0.093 A 
ATOM     17  C   UNL     1      -7.420 -12.297  -7.198  1.00  0.00     0.047 A 
ATOM     18  C   UNL     1      -6.282 -11.592  -6.801  1.00  0.00     0.119 A 
BRANCH  14  19
ATOM     19  O   UNL     1      -7.692  -9.230  -4.339  1.00  0.00    -0.507 OA
ATOM     20  H   UNL     1      -7.250  -9.310  -3.432  1.00  0.00     0.293 HD
ENDBRANCH  14  19
BRANCH  18  21
ATOM     21  O   UNL     1      -5.044 -11.919  -7.349  1.00  0.00    -0.508 OA
ATOM     22  H   UNL     1      -4.243 -12.126  -6.763  1.00  0.00     0.293 HD
ENDBRANCH  18  21
ENDBRANCH  11  13
ENDBRANCH   2  11
TORSDOF 6
ENDMDL
MODEL 3
REMARK VINA RESULT:    -6.081      3.983      9.473
REMARK INTER + INTRA:          -8.312
REMARK INTER:                  -7.680
REMARK INTRA:                  -0.632
REMARK UNBOUND:                -0.631
REMARK SMILES O=C(C=Cc1ccc(O)cc1)c1ccc(O)cc1O
REMARK SMILES IDX 4 1 3 2 5 3 6 4 7 5 8 6 11 7 10 8 9 9 2 11 1 12 12 13 18 14
REMARK SMILES IDX 13 15 17 16 14 17 15 18 19 19 16 21
REMARK H PARENT 9 10 19 20 16 22
REMARK Flexibility Score: inf
ROOT
ATOM      1  C   UNL     1      -3.154 -13.191  -5.957  1.00  0.00     0.012 C 
ATOM      2  C   UNL     1      -3.699 -12.047  -6.397  1.00  0.00     0.053 C 
ENDROOT
BRANCH   1   3
ATOM      3  C   UNL     1      -1.869 -13.262  -5.219  1.00  0.00    -0.025 A 
ATOM      4  C   UNL     1      -1.898 -13.219  -3.814  1.00  0.00     0.012 A 
ATOM      5  C   UNL     1      -0.713 -13.291  -3.075  1.00  0.00     0.047 A 
ATOM      6  C   UNL     1       0.516 -13.418  -3.727  1.00  0.00     0.115 A 
ATOM      7  C   UNL     1      -0.625 -13.405  -5.868  1.00  0.00     0.012 A 
ATOM      8  C   UNL     1       0.557 -13.477  -5.125  1.00  0.00     0.047 A 
BRANCH   6   9
ATOM      9  O   UNL     1       1.688 -13.488  -2.977  1.00  0.00    -0.508 OA
ATOM     10  H   UNL     1       1.670 -13.489  -1.964  1.00  0.00     0.293 HD
ENDBRANCH   6   9
ENDBRANCH   1   3
BRANCH   2  11
ATOM     11  C   UNL     1      -4.983 -11.998  -7.129  1.00  0.00     0.189 C 
ATOM     12  O   UNL     1      -4.998 -12.349  -8.338  1.00  0.00    -0.289 OA
BRANCH  11  13
ATOM     13  C   UNL     1      -6.237 -11.511  -6.511  1.00  0.00     0.064 A 
ATOM     14  C   UNL     1      -7.467 -12.185  -6.699  1.00  0.00     0.130 A 
ATOM     15  C   UNL     1      -6.214 -10.323  -5.760  1.00  0.00     0.020 A 
ATOM     16  C   UNL     1      -8.640 -11.655  -6.145  1.00  0.00     0.093 A 
ATOM     17  C   UNL     1      -7.388  -9.811  -5.204  1.00  0.00     0.047 A 
ATOM     18  C   UNL     1      -8.602 -10.473  -5.397  1.00  0.00     0.119 A 
BRANCH  14  19
ATOM     19  O   UNL     1      -7.554 -13.385  -7.408  1.00  0.00    -0.507 OA
ATOM     20  H   UNL     1      -7.756 -13.427  -8.398  1.00  0.00     0.293 HD
ENDBRANCH  14  19
BRANCH  18  21
ATOM     21  O   UNL     1      -9.767  -9.947  -4.841  1.00  0.00    -0.508 OA
ATOM     22  H   UNL     1      -9.965 -10.031  -3.850  1.00  0.00     0.293 HD
ENDBRANCH  18  21
ENDBRANCH  11  13
ENDBRANCH   2  11
TORSDOF 6
ENDMDL
MODEL 4
REMARK VINA RESULT:    -6.005      2.676      7.437
REMARK INTER + INTRA:          -8.216
REMARK INTER:                  -7.550
REMARK INTRA:                  -0.665
REMARK UNBOUND:                -0.631
REMARK SMILES O=C(C=Cc1ccc(O)cc1)c1ccc(O)cc1O
REMARK SMILES IDX 4 1 3 2 5 3 6 4 7 5 8 6 11 7 10 8 9 9 2 11 1 12 12 13 18 14
REMARK SMILES IDX 13 15 17 16 14 17 15 18 19 19 16 21
REMARK H PARENT 9 10 19 20 16 22
REMARK Flexibility Score: inf
ROOT
ATOM      1  C   UNL     1     -11.137  -8.406  -5.897  1.00  0.00     0.012 C 
ATOM      2  C   UNL     1     -10.150  -7.537  -5.630  1.00  0.00     0.053 C 
ENDROOT
BRANCH   1   3
ATOM      3  C   UNL     1     -10.955  -9.877  -5.933  1.00  0.00    -0.025 A 
ATOM      4  C   UNL     1      -9.872 -10.437  -5.231  1.00  0.00     0.012 A 
ATOM      5  C   UNL     1      -9.665 -11.819  -5.228  1.00  0.00     0.047 A 
ATOM      6  C   UNL     1     -10.538 -12.664  -5.917  1.00  0.00     0.115 A 
ATOM      7  C   UNL     1     -11.841 -10.738  -6.613  1.00  0.00     0.012 A 
ATOM      8  C   UNL     1     -11.629 -12.119  -6.608  1.00  0.00     0.047 A 
BRANCH   6   9
ATOM      9  O   UNL     1     -10.318 -14.040  -5.906  1.00  0.00    -0.508 OA
ATOM     10  H   UNL     1     -11.083 -14.698  -5.989  1.00  0.00     0.293 HD
ENDBRANCH   6   9
ENDBRANCH   1   3
BRANCH   2  11
ATOM     11  C   UNL     1     -10.353  -6.073  -5.597  1.00  0.00     0.189 C 
ATOM     12  O   UNL     1     -10.275  -5.482  -4.487  1.00  0.00    -0.289 OA
BRANCH  11  13
ATOM     13  C   UNL     1     -10.688  -5.285  -6.804  1.00  0.00     0.064 A 
ATOM     14  C   UNL     1     -11.576  -4.185  -6.748  1.00  0.00     0.130 A 
ATOM     15  C   UNL     1     -10.150  -5.671  -8.044  1.00  0.00     0.020 A 
ATOM     16  C   UNL     1     -11.912  -3.505  -7.926  1.00  0.00     0.093 A 
ATOM     17  C   UNL     1     -10.484  -4.978  -9.209  1.00  0.00     0.047 A 
ATOM     18  C   UNL     1     -11.366  -3.897  -9.155  1.00  0.00     0.119 A 
BRANCH  14  19
ATOM     19  O   UNL     1     -12.122  -3.731  -5.545  1.00  0.00    -0.507 OA
ATOM     20  H   UNL     1     -12.350  -2.761  -5.375  1.00  0.00     0.293 HD
ENDBRANCH  14  19
BRANCH  18  21
ATOM     21  O   UNL     1     -11.695  -3.218 -10.327  1.00  0.00    -0.508 OA
ATOM     22  H   UNL     1     -11.570  -3.645 -11.238  1.00  0.00     0.293 HD
ENDBRANCH  18  21
ENDBRANCH  11  13
ENDBRANCH   2  11
TORSDOF 6
ENDMDL
MODEL 5
REMARK VINA RESULT:    -5.874      1.988      3.074
REMARK INTER + INTRA:          -8.051
REMARK INTER:                  -7.458
REMARK INTRA:                  -0.593
REMARK UNBOUND:                -0.631
REMARK SMILES O=C(C=Cc1ccc(O)cc1)c1ccc(O)cc1O
REMARK SMILES IDX 4 1 3 2 5 3 6 4 7 5 8 6 11 7 10 8 9 9 2 11 1 12 12 13 18 14
REMARK SMILES IDX 13 15 17 16 14 17 15 18 19 19 16 21
REMARK H PARENT 9 10 19 20 16 22
REMARK Flexibility Score: inf
ROOT
ATOM      1  C   UNL     1     -10.452  -6.744  -6.166  1.00  0.00     0.012 C 
ATOM      2  C   UNL     1      -9.202  -7.200  -5.991  1.00  0.00     0.053 C 
ENDROOT
BRANCH   1   3
ATOM      3  C   UNL     1     -10.812  -5.665  -7.118  1.00  0.00    -0.025 A 
ATOM      4  C   UNL     1     -10.320  -5.739  -8.433  1.00  0.00     0.012 A 
ATOM      5  C   UNL     1     -10.640  -4.750  -9.369  1.00  0.00     0.047 A 
ATOM      6  C   UNL     1     -11.461  -3.679  -9.008  1.00  0.00     0.115 A 
ATOM      7  C   UNL     1     -11.652  -4.589  -6.766  1.00  0.00     0.012 A 
ATOM      8  C   UNL     1     -11.969  -3.602  -7.705  1.00  0.00     0.047 A 
BRANCH   6   9
ATOM      9  O   UNL     1     -11.769  -2.700  -9.951  1.00  0.00    -0.508 OA
ATOM     10  H   UNL     1     -12.272  -2.925 -10.801  1.00  0.00     0.293 HD
ENDBRANCH   6   9
ENDBRANCH   1   3
BRANCH   2  11
ATOM     11  C   UNL     1      -8.865  -8.278  -5.038  1.00  0.00     0.189 C 
ATOM     12  O   UNL     1      -8.376  -7.961  -3.922  1.00  0.00    -0.289 OA
BRANCH  11  13
ATOM     13  C   UNL     1      -9.036  -9.713  -5.361  1.00  0.00     0.064 A 
ATOM     14  C   UNL     1      -7.931 -10.538  -5.679  1.00  0.00     0.130 A 
ATOM     15  C   UNL     1     -10.332 -10.255  -5.402  1.00  0.00     0.020 A 
ATOM     16  C   UNL     1      -8.145 -11.876  -6.037  1.00  0.00     0.093 A 
ATOM     17  C   UNL     1     -10.531 -11.593  -5.750  1.00  0.00     0.047 A 
ATOM     18  C   UNL     1      -9.441 -12.405  -6.070  1.00  0.00     0.119 A 
BRANCH  14  19
ATOM     19  O   UNL     1      -6.616 -10.070  -5.627  1.00  0.00    -0.507 OA
ATOM     20  H   UNL     1      -6.350  -9.142  -5.928  1.00  0.00     0.293 HD
ENDBRANCH  14  19
BRANCH  18  21
ATOM     21  O   UNL     1      -9.656 -13.736  -6.421  1.00  0.00    -0.508 OA
ATOM     22  H   UNL     1      -9.630 -14.039  -7.388  1.00  0.00     0.293 HD
ENDBRANCH  18  21
ENDBRANCH  11  13
ENDBRANCH   2  11
TORSDOF 6
ENDMDL
MODEL 6
REMARK VINA RESULT:    -5.862      3.231      7.484
REMARK INTER + INTRA:          -8.036
REMARK INTER:                  -7.393
REMARK INTRA:                  -0.643
REMARK UNBOUND:                -0.631
REMARK SMILES O=C(C=Cc1ccc(O)cc1)c1ccc(O)cc1O
REMARK SMILES IDX 4 1 3 2 5 3 6 4 7 5 8 6 11 7 10 8 9 9 2 11 1 12 12 13 18 14
REMARK SMILES IDX 13 15 17 16 14 17 15 18 19 19 16 21
REMARK H PARENT 9 10 19 20 16 22
REMARK Flexibility Score: inf
ROOT
ATOM      1  C   UNL     1     -10.310  -8.988  -5.511  1.00  0.00     0.012 C 
ATOM      2  C   UNL     1     -10.965  -7.879  -5.886  1.00  0.00     0.053 C 
ENDROOT
BRANCH   1   3
ATOM      3  C   UNL     1     -10.908 -10.345  -5.528  1.00  0.00    -0.025 A 
ATOM      4  C   UNL     1     -12.310 -10.461  -5.537  1.00  0.00     0.012 A 
ATOM      5  C   UNL     1     -12.919 -11.719  -5.562  1.00  0.00     0.047 A 
ATOM      6  C   UNL     1     -12.141 -12.878  -5.587  1.00  0.00     0.115 A 
ATOM      7  C   UNL     1     -10.130 -11.520  -5.568  1.00  0.00     0.012 A 
ATOM      8  C   UNL     1     -10.744 -12.775  -5.593  1.00  0.00     0.047 A 
BRANCH   6   9
ATOM      9  O   UNL     1     -12.762 -14.125  -5.610  1.00  0.00    -0.508 OA
ATOM     10  H   UNL     1     -12.244 -14.971  -5.815  1.00  0.00     0.293 HD
ENDBRANCH   6   9
ENDBRANCH   1   3
BRANCH   2  11
ATOM     11  C   UNL     1     -10.349  -6.535  -5.863  1.00  0.00     0.189 C 
ATOM     12  O   UNL     1      -9.605  -6.232  -4.893  1.00  0.00    -0.289 OA
BRANCH  11  13
ATOM     13  C   UNL     1     -10.609  -5.519  -6.909  1.00  0.00     0.064 A 
ATOM     14  C   UNL     1     -11.100  -4.232  -6.586  1.00  0.00     0.130 A 
ATOM     15  C   UNL     1     -10.409  -5.860  -8.258  1.00  0.00     0.020 A 
ATOM     16  C   UNL     1     -11.388  -3.323  -7.613  1.00  0.00     0.093 A 
ATOM     17  C   UNL     1     -10.690  -4.941  -9.271  1.00  0.00     0.047 A 
ATOM     18  C   UNL     1     -11.182  -3.673  -8.953  1.00  0.00     0.119 A 
BRANCH  14  19
ATOM     19  O   UNL     1     -11.291  -3.820  -5.266  1.00  0.00    -0.507 OA
ATOM     20  H   UNL     1     -11.906  -3.059  -5.009  1.00  0.00     0.293 HD
ENDBRANCH  14  19
BRANCH  18  21
ATOM     21  O   UNL     1     -11.463  -2.769  -9.974  1.00  0.00    -0.508 OA
ATOM     22  H   UNL     1     -11.894  -1.871  -9.783  1.00  0.00     0.293 HD
ENDBRANCH  18  21
ENDBRANCH  11  13
ENDBRANCH   2  11
TORSDOF 6
ENDMDL
MODEL 7
REMARK VINA RESULT:    -5.796      1.506      2.081
REMARK INTER + INTRA:          -7.952
REMARK INTER:                  -7.429
REMARK INTRA:                  -0.523
REMARK UNBOUND:                -0.631
REMARK SMILES O=C(C=Cc1ccc(O)cc1)c1ccc(O)cc1O
REMARK SMILES IDX 4 1 3 2 5 3 6 4 7 5 8 6 11 7 10 8 9 9 2 11 1 12 12 13 18 14
REMARK SMILES IDX 13 15 17 16 14 17 15 18 19 19 16 21
REMARK H PARENT 9 10 19 20 16 22
REMARK Flexibility Score: inf
ROOT
ATOM      1  C   UNL     1      -9.349  -7.343  -5.171  1.00  0.00     0.012 C 
ATOM      2  C   UNL     1      -9.018  -8.443  -5.864  1.00  0.00     0.053 C 
ENDROOT
BRANCH   1   3
ATOM      3  C   UNL     1     -10.212  -6.261  -5.703  1.00  0.00    -0.025 A 
ATOM      4  C   UNL     1      -9.982  -5.801  -7.012  1.00  0.00     0.012 A 
ATOM      5  C   UNL     1     -10.775  -4.789  -7.560  1.00  0.00     0.047 A 
ATOM      6  C   UNL     1     -11.814  -4.227  -6.815  1.00  0.00     0.115 A 
ATOM      7  C   UNL     1     -11.272  -5.699  -4.963  1.00  0.00     0.012 A 
ATOM      8  C   UNL     1     -12.062  -4.687  -5.515  1.00  0.00     0.047 A 
BRANCH   6   9
ATOM      9  O   UNL     1     -12.596  -3.218  -7.374  1.00  0.00    -0.508 OA
ATOM     10  H   UNL     1     -12.673  -2.307  -6.938  1.00  0.00     0.293 HD
ENDBRANCH   6   9
ENDBRANCH   1   3
BRANCH   2  11
ATOM     11  C   UNL     1      -8.157  -9.512  -5.314  1.00  0.00     0.189 C 
ATOM     12  O   UNL     1      -7.689  -9.368  -4.154  1.00  0.00    -0.289 OA
BRANCH  11  13
ATOM     13  C   UNL     1      -7.790 -10.720  -6.088  1.00  0.00     0.064 A 
ATOM     14  C   UNL     1      -6.524 -10.846  -6.708  1.00  0.00     0.130 A 
ATOM     15  C   UNL     1      -8.739 -11.743  -6.251  1.00  0.00     0.020 A 
ATOM     16  C   UNL     1      -6.241 -11.980  -7.481  1.00  0.00     0.093 A 
ATOM     17  C   UNL     1      -8.441 -12.874  -7.015  1.00  0.00     0.047 A 
ATOM     18  C   UNL     1      -7.195 -12.994  -7.633  1.00  0.00     0.119 A 
BRANCH  14  19
ATOM     19  O   UNL     1      -5.526  -9.881  -6.560  1.00  0.00    -0.507 OA
ATOM     20  H   UNL     1      -5.594  -8.953  -6.957  1.00  0.00     0.293 HD
ENDBRANCH  14  19
BRANCH  18  21
ATOM     21  O   UNL     1      -6.913 -14.125  -8.397  1.00  0.00    -0.508 OA
ATOM     22  H   UNL     1      -6.148 -14.746  -8.160  1.00  0.00     0.293 HD
ENDBRANCH  18  21
ENDBRANCH  11  13
ENDBRANCH   2  11
TORSDOF 6
ENDMDL
MODEL 8
REMARK VINA RESULT:    -5.727      1.673      2.381
REMARK INTER + INTRA:          -7.864
REMARK INTER:                  -7.220
REMARK INTRA:                  -0.645
REMARK UNBOUND:                -0.631
REMARK SMILES O=C(C=Cc1ccc(O)cc1)c1ccc(O)cc1O
REMARK SMILES IDX 4 1 3 2 5 3 6 4 7 5 8 6 11 7 10 8 9 9 2 11 1 12 12 13 18 14
REMARK SMILES IDX 13 15 17 16 14 17 15 18 19 19 16 21
REMARK H PARENT 9 10 19 20 16 22
REMARK Flexibility Score: inf
ROOT
ATOM      1  C   UNL     1     -11.491  -8.182  -6.388  1.00  0.00     0.012 C 
ATOM      2  C   UNL     1     -12.046  -9.006  -5.488  1.00  0.00     0.053 C 
ENDROOT
BRANCH   1   3
ATOM      3  C   UNL     1     -11.565  -6.702  -6.310  1.00  0.00    -0.025 A 
ATOM      4  C   UNL     1     -12.270  -6.121  -5.241  1.00  0.00     0.012 A 
ATOM      5  C   UNL     1     -12.361  -4.732  -5.120  1.00  0.00     0.047 A 
ATOM      6  C   UNL     1     -11.742  -3.902  -6.057  1.00  0.00     0.115 A 
ATOM      7  C   UNL     1     -10.931  -5.857  -7.243  1.00  0.00     0.012 A 
ATOM      8  C   UNL     1     -11.024  -4.468  -7.118  1.00  0.00     0.047 A 
BRANCH   6   9
ATOM      9  O   UNL     1     -11.841  -2.518  -5.924  1.00  0.00    -0.508 OA
ATOM     10  H   UNL     1     -12.732  -2.042  -6.006  1.00  0.00     0.293 HD
ENDBRANCH   6   9
ENDBRANCH   1   3
BRANCH   2  11
ATOM     11  C   UNL     1     -11.958 -10.479  -5.583  1.00  0.00     0.189 C 
ATOM     12  O   UNL     1     -12.962 -11.163  -5.247  1.00  0.00    -0.289 OA
BRANCH  11  13
ATOM     13  C   UNL     1     -10.728 -11.180  -6.014  1.00  0.00     0.064 A 
ATOM     14  C   UNL     1     -10.766 -12.228  -6.964  1.00  0.00     0.130 A 
ATOM     15  C   UNL     1      -9.500 -10.830  -5.427  1.00  0.00     0.020 A 
ATOM     16  C   UNL     1      -9.585 -12.904  -7.298  1.00  0.00     0.093 A 
ATOM     17  C   UNL     1      -8.328 -11.504  -5.776  1.00  0.00     0.047 A 
ATOM     18  C   UNL     1      -8.367 -12.543  -6.708  1.00  0.00     0.119 A 
BRANCH  14  19
ATOM     19  O   UNL     1     -11.947 -12.604  -7.607  1.00  0.00    -0.507 OA
ATOM     20  H   UNL     1     -12.428 -12.009  -8.268  1.00  0.00     0.293 HD
ENDBRANCH  14  19
BRANCH  18  21
ATOM     21  O   UNL     1      -7.191 -13.211  -7.043  1.00  0.00    -0.508 OA
ATOM     22  H   UNL     1      -6.905 -13.328  -8.008  1.00  0.00     0.293 HD
ENDBRANCH  18  21
ENDBRANCH  11  13
ENDBRANCH   2  11
TORSDOF 6
ENDMDL
MODEL 9
REMARK VINA RESULT:    -5.628      3.305      4.858
REMARK INTER + INTRA:          -7.740
REMARK INTER:                  -7.126
REMARK INTRA:                  -0.614
REMARK UNBOUND:                -0.631
REMARK SMILES O=C(C=Cc1ccc(O)cc1)c1ccc(O)cc1O
REMARK SMILES IDX 4 1 3 2 5 3 6 4 7 5 8 6 11 7 10 8 9 9 2 11 1 12 12 13 18 14
REMARK SMILES IDX 13 15 17 16 14 17 15 18 19 19 16 21
REMARK H PARENT 9 10 19 20 16 22
REMARK Flexibility Score: inf
ROOT
ATOM      1  C   UNL     1     -11.042  -8.241  -6.200  1.00  0.00     0.012 C 
ATOM      2  C   UNL     1     -11.951  -9.133  -5.780  1.00  0.00     0.053 C 
ENDROOT
BRANCH   1   3
ATOM      3  C   UNL     1     -11.274  -6.776  -6.230  1.00  0.00    -0.025 A 
ATOM      4  C   UNL     1     -11.948  -6.181  -5.150  1.00  0.00     0.012 A 
ATOM      5  C   UNL     1     -12.182  -4.803  -5.129  1.00  0.00     0.047 A 
ATOM      6  C   UNL     1     -11.740  -3.998  -6.181  1.00  0.00     0.115 A 
ATOM      7  C   UNL     1     -10.818  -5.954  -7.282  1.00  0.00     0.012 A 
ATOM      8  C   UNL     1     -11.055  -4.577  -7.257  1.00  0.00     0.047 A 
BRANCH   6   9
ATOM      9  O   UNL     1     -11.983  -2.626  -6.148  1.00  0.00    -0.508 OA
ATOM     10  H   UNL     1     -12.690  -2.228  -5.541  1.00  0.00     0.293 HD
ENDBRANCH   6   9
ENDBRANCH   1   3
BRANCH   2  11
ATOM     11  C   UNL     1     -11.699 -10.589  -5.756  1.00  0.00     0.189 C 
ATOM     12  O   UNL     1     -11.116 -11.113  -6.742  1.00  0.00    -0.289 OA
BRANCH  11  13
ATOM     13  C   UNL     1     -12.141 -11.459  -4.642  1.00  0.00     0.064 A 
ATOM     14  C   UNL     1     -11.266 -12.391  -4.037  1.00  0.00     0.130 A 
ATOM     15  C   UNL     1     -13.477 -11.390  -4.210  1.00  0.00     0.020 A 
ATOM     16  C   UNL     1     -11.744 -13.236  -3.027  1.00  0.00     0.093 A 
ATOM     17  C   UNL     1     -13.938 -12.231  -3.195  1.00  0.00     0.047 A 
ATOM     18  C   UNL     1     -13.076 -13.156  -2.603  1.00  0.00     0.119 A 
BRANCH  14  19
ATOM     19  O   UNL     1      -9.920 -12.488  -4.398  1.00  0.00    -0.507 OA
ATOM     20  H   UNL     1      -9.326 -13.254  -4.109  1.00  0.00     0.293 HD
ENDBRANCH  14  19
BRANCH  18  21
ATOM     21  O   UNL     1     -13.552 -13.992  -1.595  1.00  0.00    -0.508 OA
ATOM     22  H   UNL     1     -14.526 -13.980  -1.313  1.00  0.00     0.293 HD
ENDBRANCH  18  21
ENDBRANCH  11  13
ENDBRANCH   2  11
TORSDOF 6
ENDMDL
