MODEL 1
REMARK VINA RESULT:    -3.885      0.000      0.000
REMARK INTER + INTRA:          -6.229
REMARK INTER:                  -5.930
REMARK INTRA:                  -0.299
REMARK UNBOUND:                -0.299
REMARK SMILES O=C([O-])CCCCCCCCC(=O)[O-]
REMARK SMILES IDX 7 1 6 2 5 3 4 4 2 5 1 6 3 7 8 8 9 9 10 10 11 11 12 12 13 13
REMARK SMILES IDX 14 14
REMARK H PARENT
REMARK Flexibility Score: inf
ROOT
ATOM      1  C   UNL     1       5.459 -21.531 -13.186  1.00  0.00     0.000 C 
ENDROOT
BRANCH   1   2
ATOM      2  C   UNL     1       5.625 -22.501 -12.003  1.00  0.00     0.000 C 
BRANCH   2   3
ATOM      3  C   UNL     1       5.243 -21.862 -10.658  1.00  0.00     0.006 C 
BRANCH   3   4
ATOM      4  C   UNL     1       5.110 -22.893  -9.529  1.00  0.00     0.053 C 
BRANCH   4   5
ATOM      5  C   UNL     1       6.064 -22.578  -8.419  1.00  0.00     0.041 C 
ATOM      6  O   UNL     1       6.349 -23.454  -7.561  1.00  0.00    -0.550 OA
ATOM      7  O   UNL     1       6.676 -21.333  -8.363  1.00  0.00    -0.550 OA
ENDBRANCH   4   5
ENDBRANCH   3   4
ENDBRANCH   2   3
ENDBRANCH   1   2
BRANCH   1   8
ATOM      8  C   UNL     1       5.081 -20.110 -12.735  1.00  0.00     0.000 C 
BRANCH   8   9
ATOM      9  C   UNL     1       5.141 -19.090 -13.886  1.00  0.00     0.000 C 
BRANCH   9  10
ATOM     10  C   UNL     1       6.331 -19.332 -14.833  1.00  0.00     0.006 C 
BRANCH  10  11
ATOM     11  C   UNL     1       5.961 -20.023 -16.154  1.00  0.00     0.053 C 
BRANCH  11  12
ATOM     12  C   UNL     1       7.046 -20.937 -16.635  1.00  0.00     0.041 C 
ATOM     13  O   UNL     1       6.922 -21.548 -17.729  1.00  0.00    -0.550 OA
ATOM     14  O   UNL     1       8.210 -21.088 -15.891  1.00  0.00    -0.550 OA
ENDBRANCH  11  12
ENDBRANCH  10  11
ENDBRANCH   9  10
ENDBRANCH   8   9
ENDBRANCH   1   8
TORSDOF 9
ENDMDL
MODEL 2
REMARK VINA RESULT:    -3.871     13.510     15.451
REMARK INTER + INTRA:          -6.207
REMARK INTER:                  -5.845
REMARK INTRA:                  -0.362
REMARK UNBOUND:                -0.299
REMARK SMILES O=C([O-])CCCCCCCCC(=O)[O-]
REMARK SMILES IDX 7 1 6 2 5 3 4 4 2 5 1 6 3 7 8 8 9 9 10 10 11 11 12 12 13 13
REMARK SMILES IDX 14 14
REMARK H PARENT
REMARK Flexibility Score: inf
ROOT
ATOM      1  C   UNL     1      21.675 -17.069 -16.994  1.00  0.00     0.000 C 
ENDROOT
BRANCH   1   2
ATOM      2  C   UNL     1      20.200 -17.228 -16.588  1.00  0.00     0.000 C 
BRANCH   2   3
ATOM      3  C   UNL     1      19.582 -15.915 -16.082  1.00  0.00     0.006 C 
BRANCH   3   4
ATOM      4  C   UNL     1      18.290 -16.137 -15.283  1.00  0.00     0.053 C 
BRANCH   4   5
ATOM      5  C   UNL     1      17.257 -15.126 -15.670  1.00  0.00     0.041 C 
ATOM      6  O   UNL     1      17.034 -14.132 -14.929  1.00  0.00    -0.550 OA
ATOM      7  O   UNL     1      16.575 -15.254 -16.873  1.00  0.00    -0.550 OA
ENDBRANCH   4   5
ENDBRANCH   3   4
ENDBRANCH   2   3
ENDBRANCH   1   2
BRANCH   1   8
ATOM      8  C   UNL     1      22.382 -18.420 -17.191  1.00  0.00     0.000 C 
BRANCH   8   9
ATOM      9  C   UNL     1      21.397 -19.603 -17.207  1.00  0.00     0.000 C 
BRANCH   9  10
ATOM     10  C   UNL     1      21.625 -20.550 -18.400  1.00  0.00     0.006 C 
BRANCH  10  11
ATOM     11  C   UNL     1      20.362 -20.848 -19.224  1.00  0.00     0.053 C 
BRANCH  11  12
ATOM     12  C   UNL     1      20.029 -22.308 -19.236  1.00  0.00     0.041 C 
ATOM     13  O   UNL     1      20.914 -23.158 -19.518  1.00  0.00    -0.550 OA
ATOM     14  O   UNL     1      18.749 -22.733 -18.902  1.00  0.00    -0.550 OA
ENDBRANCH  11  12
ENDBRANCH  10  11
ENDBRANCH   9  10
ENDBRANCH   8   9
ENDBRANCH   1   8
TORSDOF 9
ENDMDL
MODEL 3
REMARK VINA RESULT:    -3.855     13.210     15.706
REMARK INTER + INTRA:          -6.183
REMARK INTER:                  -5.675
REMARK INTRA:                  -0.508
REMARK UNBOUND:                -0.299
REMARK SMILES O=C([O-])CCCCCCCCC(=O)[O-]
REMARK SMILES IDX 7 1 6 2 5 3 4 4 2 5 1 6 3 7 8 8 9 9 10 10 11 11 12 12 13 13
REMARK SMILES IDX 14 14
REMARK H PARENT
REMARK Flexibility Score: inf
ROOT
ATOM      1  C   UNL     1      21.779 -17.194 -17.088  1.00  0.00     0.000 C 
ENDROOT
BRANCH   1   2
ATOM      2  C   UNL     1      22.490 -18.557 -17.014  1.00  0.00     0.000 C 
BRANCH   2   3
ATOM      3  C   UNL     1      21.526 -19.736 -17.218  1.00  0.00     0.006 C 
BRANCH   3   4
ATOM      4  C   UNL     1      21.718 -20.431 -18.574  1.00  0.00     0.053 C 
BRANCH   4   5
ATOM      5  C   UNL     1      20.419 -20.503 -19.312  1.00  0.00     0.041 C 
ATOM      6  O   UNL     1      19.843 -21.611 -19.473  1.00  0.00    -0.550 OA
ATOM      7  O   UNL     1      19.819 -19.340 -19.777  1.00  0.00    -0.550 OA
ENDBRANCH   4   5
ENDBRANCH   3   4
ENDBRANCH   2   3
ENDBRANCH   1   2
BRANCH   1   8
ATOM      8  C   UNL     1      20.276 -17.295 -16.780  1.00  0.00     0.000 C 
BRANCH   8   9
ATOM      9  C   UNL     1      19.711 -16.003 -16.165  1.00  0.00     0.000 C 
BRANCH   9  10
ATOM     10  C   UNL     1      18.652 -16.274 -15.080  1.00  0.00     0.006 C 
BRANCH  10  11
ATOM     11  C   UNL     1      17.199 -16.187 -15.575  1.00  0.00     0.053 C 
BRANCH  11  12
ATOM     12  C   UNL     1      16.834 -14.801 -16.008  1.00  0.00     0.041 C 
ATOM     13  O   UNL     1      16.184 -14.619 -17.071  1.00  0.00    -0.550 OA
ATOM     14  O   UNL     1      17.182 -13.711 -15.220  1.00  0.00    -0.550 OA
ENDBRANCH  11  12
ENDBRANCH  10  11
ENDBRANCH   9  10
ENDBRANCH   8   9
ENDBRANCH   1   8
TORSDOF 9
ENDMDL
MODEL 4
REMARK VINA RESULT:    -3.854     12.187     14.657
REMARK INTER + INTRA:          -6.181
REMARK INTER:                  -5.854
REMARK INTRA:                  -0.327
REMARK UNBOUND:                -0.299
REMARK SMILES O=C([O-])CCCCCCCCC(=O)[O-]
REMARK SMILES IDX 7 1 6 2 5 3 4 4 2 5 1 6 3 7 8 8 9 9 10 10 11 11 12 12 13 13
REMARK SMILES IDX 14 14
REMARK H PARENT
REMARK Flexibility Score: inf
ROOT
ATOM      1  C   UNL     1      18.825 -22.454 -19.624  1.00  0.00     0.000 C 
ENDROOT
BRANCH   1   2
ATOM      2  C   UNL     1      18.523 -23.962 -19.593  1.00  0.00     0.000 C 
BRANCH   2   3
ATOM      3  C   UNL     1      17.092 -24.268 -19.124  1.00  0.00     0.006 C 
BRANCH   3   4
ATOM      4  C   UNL     1      16.754 -23.607 -17.780  1.00  0.00     0.053 C 
BRANCH   4   5
ATOM      5  C   UNL     1      15.272 -23.560 -17.579  1.00  0.00     0.041 C 
ATOM      6  O   UNL     1      14.514 -24.267 -18.294  1.00  0.00    -0.550 OA
ATOM      7  O   UNL     1      14.733 -22.775 -16.569  1.00  0.00    -0.550 OA
ENDBRANCH   4   5
ENDBRANCH   3   4
ENDBRANCH   2   3
ENDBRANCH   1   2
BRANCH   1   8
ATOM      8  C   UNL     1      20.169 -22.107 -18.962  1.00  0.00     0.000 C 
BRANCH   8   9
ATOM      9  C   UNL     1      20.599 -20.653 -19.225  1.00  0.00     0.000 C 
BRANCH   9  10
ATOM     10  C   UNL     1      21.780 -20.213 -18.340  1.00  0.00     0.006 C 
BRANCH  10  11
ATOM     11  C   UNL     1      21.369 -19.532 -17.025  1.00  0.00     0.053 C 
BRANCH  11  12
ATOM     12  C   UNL     1      21.251 -18.047 -17.172  1.00  0.00     0.041 C 
ATOM     13  O   UNL     1      20.298 -17.430 -16.628  1.00  0.00    -0.550 OA
ATOM     14  O   UNL     1      22.212 -17.339 -17.884  1.00  0.00    -0.550 OA
ENDBRANCH  11  12
ENDBRANCH  10  11
ENDBRANCH   9  10
ENDBRANCH   8   9
ENDBRANCH   1   8
TORSDOF 9
ENDMDL
MODEL 5
REMARK VINA RESULT:    -3.852      4.596      8.136
REMARK INTER + INTRA:          -6.178
REMARK INTER:                  -5.541
REMARK INTRA:                  -0.636
REMARK UNBOUND:                -0.299
REMARK SMILES O=C([O-])CCCCCCCCC(=O)[O-]
REMARK SMILES IDX 7 1 6 2 5 3 4 4 2 5 1 6 3 7 8 8 9 9 10 10 11 11 12 12 13 13
REMARK SMILES IDX 14 14
REMARK H PARENT
REMARK Flexibility Score: inf
ROOT
ATOM      1  C   UNL     1       5.943 -16.893 -16.111  1.00  0.00     0.000 C 
ENDROOT
BRANCH   1   2
ATOM      2  C   UNL     1       5.028 -17.602 -17.124  1.00  0.00     0.000 C 
BRANCH   2   3
ATOM      3  C   UNL     1       5.148 -17.015 -18.539  1.00  0.00     0.006 C 
BRANCH   3   4
ATOM      4  C   UNL     1       5.823 -15.637 -18.554  1.00  0.00     0.053 C 
BRANCH   4   5
ATOM      5  C   UNL     1       6.600 -15.450 -19.820  1.00  0.00     0.041 C 
ATOM      6  O   UNL     1       7.132 -14.338 -20.077  1.00  0.00    -0.550 OA
ATOM      7  O   UNL     1       6.777 -16.517 -20.690  1.00  0.00    -0.550 OA
ENDBRANCH   4   5
ENDBRANCH   3   4
ENDBRANCH   2   3
ENDBRANCH   1   2
BRANCH   1   8
ATOM      8  C   UNL     1       6.661 -17.879 -15.174  1.00  0.00     0.000 C 
BRANCH   8   9
ATOM      9  C   UNL     1       5.685 -18.835 -14.465  1.00  0.00     0.000 C 
BRANCH   9  10
ATOM     10  C   UNL     1       6.125 -20.308 -14.555  1.00  0.00     0.006 C 
BRANCH  10  11
ATOM     11  C   UNL     1       7.026 -20.629 -15.759  1.00  0.00     0.053 C 
BRANCH  11  12
ATOM     12  C   UNL     1       6.242 -21.131 -16.931  1.00  0.00     0.041 C 
ATOM     13  O   UNL     1       4.983 -21.091 -16.915  1.00  0.00    -0.550 OA
ATOM     14  O   UNL     1       6.900 -21.612 -18.056  1.00  0.00    -0.550 OA
ENDBRANCH  11  12
ENDBRANCH  10  11
ENDBRANCH   9  10
ENDBRANCH   8   9
ENDBRANCH   1   8
TORSDOF 9
ENDMDL
MODEL 6
REMARK VINA RESULT:    -3.844     13.603     15.543
REMARK INTER + INTRA:          -6.165
REMARK INTER:                  -6.013
REMARK INTRA:                  -0.152
REMARK UNBOUND:                -0.299
REMARK SMILES O=C([O-])CCCCCCCCC(=O)[O-]
REMARK SMILES IDX 7 1 6 2 5 3 4 4 2 5 1 6 3 7 8 8 9 9 10 10 11 11 12 12 13 13
REMARK SMILES IDX 14 14
REMARK H PARENT
REMARK Flexibility Score: inf
ROOT
ATOM      1  C   UNL     1       6.072  -7.501  -8.240  1.00  0.00     0.000 C 
ENDROOT
BRANCH   1   2
ATOM      2  C   UNL     1       5.028  -7.977  -9.265  1.00  0.00     0.000 C 
BRANCH   2   3
ATOM      3  C   UNL     1       5.352  -7.515 -10.695  1.00  0.00     0.006 C 
BRANCH   3   4
ATOM      4  C   UNL     1       5.708  -8.680 -11.628  1.00  0.00     0.053 C 
BRANCH   4   5
ATOM      5  C   UNL     1       5.949  -9.927 -10.837  1.00  0.00     0.041 C 
ATOM      6  O   UNL     1       5.041 -10.792 -10.726  1.00  0.00    -0.550 OA
ATOM      7  O   UNL     1       7.193 -10.157 -10.264  1.00  0.00    -0.550 OA
ENDBRANCH   4   5
ENDBRANCH   3   4
ENDBRANCH   2   3
ENDBRANCH   1   2
BRANCH   1   8
ATOM      8  C   UNL     1       5.779  -6.086  -7.713  1.00  0.00     0.000 C 
BRANCH   8   9
ATOM      9  C   UNL     1       5.680  -6.038  -6.178  1.00  0.00     0.000 C 
BRANCH   9  10
ATOM     10  C   UNL     1       7.023  -5.702  -5.505  1.00  0.00     0.006 C 
BRANCH  10  11
ATOM     11  C   UNL     1       8.091  -5.145  -6.460  1.00  0.00     0.053 C 
BRANCH  11  12
ATOM     12  C   UNL     1       9.350  -5.954  -6.430  1.00  0.00     0.041 C 
ATOM     13  O   UNL     1       9.411  -7.007  -5.741  1.00  0.00    -0.550 OA
ATOM     14  O   UNL     1      10.447  -5.565  -7.190  1.00  0.00    -0.550 OA
ENDBRANCH  11  12
ENDBRANCH  10  11
ENDBRANCH   9  10
ENDBRANCH   8   9
ENDBRANCH   1   8
TORSDOF 9
ENDMDL
MODEL 7
REMARK VINA RESULT:    -3.824     11.916     14.725
REMARK INTER + INTRA:          -6.135
REMARK INTER:                  -5.879
REMARK INTRA:                  -0.256
REMARK UNBOUND:                -0.299
REMARK SMILES O=C([O-])CCCCCCCCC(=O)[O-]
REMARK SMILES IDX 7 1 6 2 5 3 4 4 2 5 1 6 3 7 8 8 9 9 10 10 11 11 12 12 13 13
REMARK SMILES IDX 14 14
REMARK H PARENT
REMARK Flexibility Score: inf
ROOT
ATOM      1  C   UNL     1      19.734 -21.383 -19.588  1.00  0.00     0.000 C 
ENDROOT
BRANCH   1   2
ATOM      2  C   UNL     1      20.982 -20.986 -18.780  1.00  0.00     0.000 C 
BRANCH   2   3
ATOM      3  C   UNL     1      21.095 -19.467 -18.576  1.00  0.00     0.006 C 
BRANCH   3   4
ATOM      4  C   UNL     1      21.183 -19.073 -17.095  1.00  0.00     0.053 C 
BRANCH   4   5
ATOM      5  C   UNL     1      21.119 -17.586 -16.946  1.00  0.00     0.041 C 
ATOM      6  O   UNL     1      22.083 -16.869 -17.325  1.00  0.00    -0.550 OA
ATOM      7  O   UNL     1      19.975 -16.987 -16.435  1.00  0.00    -0.550 OA
ENDBRANCH   4   5
ENDBRANCH   3   4
ENDBRANCH   2   3
ENDBRANCH   1   2
BRANCH   1   8
ATOM      8  C   UNL     1      19.246 -22.803 -19.259  1.00  0.00     0.000 C 
BRANCH   8   9
ATOM      9  C   UNL     1      17.714 -22.931 -19.329  1.00  0.00     0.000 C 
BRANCH   9  10
ATOM     10  C   UNL     1      17.128 -23.728 -18.149  1.00  0.00     0.006 C 
BRANCH  10  11
ATOM     11  C   UNL     1      15.636 -24.069 -18.290  1.00  0.00     0.053 C 
BRANCH  11  12
ATOM     12  C   UNL     1      14.757 -22.972 -17.773  1.00  0.00     0.041 C 
ATOM     13  O   UNL     1      14.771 -22.671 -16.551  1.00  0.00    -0.550 OA
ATOM     14  O   UNL     1      13.948 -22.257 -18.648  1.00  0.00    -0.550 OA
ENDBRANCH  11  12
ENDBRANCH  10  11
ENDBRANCH   9  10
ENDBRANCH   8   9
ENDBRANCH   1   8
TORSDOF 9
ENDMDL
MODEL 8
REMARK VINA RESULT:    -3.793     13.728     15.157
REMARK INTER + INTRA:          -6.087
REMARK INTER:                  -5.691
REMARK INTRA:                  -0.396
REMARK UNBOUND:                -0.299
REMARK SMILES O=C([O-])CCCCCCCCC(=O)[O-]
REMARK SMILES IDX 7 1 6 2 5 3 4 4 2 5 1 6 3 7 8 8 9 9 10 10 11 11 12 12 13 13
REMARK SMILES IDX 14 14
REMARK H PARENT
REMARK Flexibility Score: inf
ROOT
ATOM      1  C   UNL     1       5.575  -5.720  -7.948  1.00  0.00     0.000 C 
ENDROOT
BRANCH   1   2
ATOM      2  C   UNL     1       5.832  -6.021  -6.461  1.00  0.00     0.000 C 
BRANCH   2   3
ATOM      3  C   UNL     1       7.214  -5.541  -5.992  1.00  0.00     0.006 C 
BRANCH   3   4
ATOM      4  C   UNL     1       8.362  -6.373  -6.581  1.00  0.00     0.053 C 
BRANCH   4   5
ATOM      5  C   UNL     1       9.677  -5.710  -6.314  1.00  0.00     0.041 C 
ATOM      6  O   UNL     1      10.603  -5.774  -7.165  1.00  0.00    -0.550 OA
ATOM      7  O   UNL     1       9.862  -4.980  -5.147  1.00  0.00    -0.550 OA
ENDBRANCH   4   5
ENDBRANCH   3   4
ENDBRANCH   2   3
ENDBRANCH   1   2
BRANCH   1   8
ATOM      8  C   UNL     1       5.304  -6.991  -8.769  1.00  0.00     0.000 C 
BRANCH   8   9
ATOM      9  C   UNL     1       5.338  -6.732 -10.286  1.00  0.00     0.000 C 
BRANCH   9  10
ATOM     10  C   UNL     1       4.880  -7.951 -11.108  1.00  0.00     0.006 C 
BRANCH  10  11
ATOM     11  C   UNL     1       6.023  -8.858 -11.592  1.00  0.00     0.053 C 
BRANCH  11  12
ATOM     12  C   UNL     1       6.261 -10.007 -10.661  1.00  0.00     0.041 C 
ATOM     13  O   UNL     1       7.258 -10.002  -9.892  1.00  0.00    -0.550 OA
ATOM     14  O   UNL     1       5.365 -11.067 -10.620  1.00  0.00    -0.550 OA
ENDBRANCH  11  12
ENDBRANCH  10  11
ENDBRANCH   9  10
ENDBRANCH   8   9
ENDBRANCH   1   8
TORSDOF 9
ENDMDL
MODEL 9
REMARK VINA RESULT:    -3.765     11.505     14.196
REMARK INTER + INTRA:          -6.045
REMARK INTER:                  -5.560
REMARK INTRA:                  -0.485
REMARK UNBOUND:                -0.299
REMARK SMILES O=C([O-])CCCCCCCCC(=O)[O-]
REMARK SMILES IDX 7 1 6 2 5 3 4 4 2 5 1 6 3 7 8 8 9 9 10 10 11 11 12 12 13 13
REMARK SMILES IDX 14 14
REMARK H PARENT
REMARK Flexibility Score: inf
ROOT
ATOM      1  C   UNL     1      18.347 -24.058 -19.829  1.00  0.00     0.000 C 
ENDROOT
BRANCH   1   2
ATOM      2  C   UNL     1      16.992 -24.451 -19.215  1.00  0.00     0.000 C 
BRANCH   2   3
ATOM      3  C   UNL     1      16.657 -23.638 -17.955  1.00  0.00     0.006 C 
BRANCH   3   4
ATOM      4  C   UNL     1      15.193 -23.797 -17.518  1.00  0.00     0.053 C 
BRANCH   4   5
ATOM      5  C   UNL     1      14.272 -23.390 -18.625  1.00  0.00     0.041 C 
ATOM      6  O   UNL     1      14.235 -22.192 -19.010  1.00  0.00    -0.550 OA
ATOM      7  O   UNL     1      13.490 -24.344 -19.264  1.00  0.00    -0.550 OA
ENDBRANCH   4   5
ENDBRANCH   3   4
ENDBRANCH   2   3
ENDBRANCH   1   2
BRANCH   1   8
ATOM      8  C   UNL     1      18.930 -22.780 -19.202  1.00  0.00     0.000 C 
BRANCH   8   9
ATOM      9  C   UNL     1      18.990 -21.609 -20.198  1.00  0.00     0.000 C 
BRANCH   9  10
ATOM     10  C   UNL     1      20.165 -20.653 -19.921  1.00  0.00     0.006 C 
BRANCH  10  11
ATOM     11  C   UNL     1      21.000 -21.014 -18.682  1.00  0.00     0.053 C 
BRANCH  11  12
ATOM     12  C   UNL     1      21.236 -19.828 -17.798  1.00  0.00     0.041 C 
ATOM     13  O   UNL     1      20.808 -18.693 -18.133  1.00  0.00    -0.550 OA
ATOM     14  O   UNL     1      21.899 -19.983 -16.587  1.00  0.00    -0.550 OA
ENDBRANCH  11  12
ENDBRANCH  10  11
ENDBRANCH   9  10
ENDBRANCH   8   9
ENDBRANCH   1   8
TORSDOF 9
ENDMDL
