MODEL 1
REMARK VINA RESULT:    -5.317      0.000      0.000
REMARK INTER + INTRA:          -8.221
REMARK INTER:                  -7.804
REMARK INTRA:                  -0.417
REMARK UNBOUND:                -0.417
REMARK SMILES O=C([O-])CCCCCCCC(=O)[O-]
REMARK SMILES IDX 7 1 6 2 5 3 4 4 2 5 1 6 3 7 8 8 9 9 10 10 11 11 12 12 13 13
REMARK H PARENT
REMARK Flexibility Score: inf
ROOT
ATOM      1  C   UNL     1      17.142   8.639 -20.487  1.00  0.00     0.000 C 
ENDROOT
BRANCH   1   2
ATOM      2  C   UNL     1      16.100   8.693 -21.616  1.00  0.00     0.000 C 
BRANCH   2   3
ATOM      3  C   UNL     1      15.328   7.374 -21.771  1.00  0.00     0.006 C 
BRANCH   3   4
ATOM      4  C   UNL     1      14.957   6.743 -20.422  1.00  0.00     0.053 C 
BRANCH   4   5
ATOM      5  C   UNL     1      13.650   7.285 -19.935  1.00  0.00     0.041 C 
ATOM      6  O   UNL     1      12.861   7.852 -20.738  1.00  0.00    -0.550 OA
ATOM      7  O   UNL     1      13.323   7.209 -18.588  1.00  0.00    -0.550 OA
ENDBRANCH   4   5
ENDBRANCH   3   4
ENDBRANCH   2   3
ENDBRANCH   1   2
BRANCH   1   8
ATOM      8  C   UNL     1      17.835  10.000 -20.317  1.00  0.00     0.000 C 
BRANCH   8   9
ATOM      9  C   UNL     1      17.515  10.981 -21.460  1.00  0.00     0.006 C 
BRANCH   9  10
ATOM     10  C   UNL     1      18.331  12.282 -21.423  1.00  0.00     0.053 C 
BRANCH  10  11
ATOM     11  C   UNL     1      18.003  13.118 -20.226  1.00  0.00     0.041 C 
ATOM     12  O   UNL     1      18.924  13.547 -19.481  1.00  0.00    -0.550 OA
ATOM     13  O   UNL     1      16.678  13.396 -19.911  1.00  0.00    -0.550 OA
ENDBRANCH  10  11
ENDBRANCH   9  10
ENDBRANCH   8   9
ENDBRANCH   1   8
TORSDOF 8
ENDMDL
MODEL 2
REMARK VINA RESULT:    -5.291      0.139      6.132
REMARK INTER + INTRA:          -8.183
REMARK INTER:                  -7.768
REMARK INTRA:                  -0.416
REMARK UNBOUND:                -0.417
REMARK SMILES O=C([O-])CCCCCCCC(=O)[O-]
REMARK SMILES IDX 7 1 6 2 5 3 4 4 2 5 1 6 3 7 8 8 9 9 10 10 11 11 12 12 13 13
REMARK H PARENT
REMARK Flexibility Score: inf
ROOT
ATOM      1  C   UNL     1      17.220   8.652 -20.428  1.00  0.00     0.000 C 
ENDROOT
BRANCH   1   2
ATOM      2  C   UNL     1      17.976   9.982 -20.283  1.00  0.00     0.000 C 
BRANCH   2   3
ATOM      3  C   UNL     1      17.456  11.065 -21.240  1.00  0.00     0.006 C 
BRANCH   3   4
ATOM      4  C   UNL     1      18.356  12.309 -21.270  1.00  0.00     0.053 C 
BRANCH   4   5
ATOM      5  C   UNL     1      18.044  13.205 -20.113  1.00  0.00     0.041 C 
ATOM      6  O   UNL     1      18.976  13.669 -19.403  1.00  0.00    -0.550 OA
ATOM      7  O   UNL     1      16.725  13.489 -19.788  1.00  0.00    -0.550 OA
ENDBRANCH   4   5
ENDBRANCH   3   4
ENDBRANCH   2   3
ENDBRANCH   1   2
BRANCH   1   8
ATOM      8  C   UNL     1      16.238   8.706 -21.608  1.00  0.00     0.000 C 
BRANCH   8   9
ATOM      9  C   UNL     1      15.424   7.409 -21.768  1.00  0.00     0.006 C 
BRANCH   9  10
ATOM     10  C   UNL     1      15.023   6.745 -20.442  1.00  0.00     0.053 C 
BRANCH  10  11
ATOM     11  C   UNL     1      13.715   7.262 -19.927  1.00  0.00     0.041 C 
ATOM     12  O   UNL     1      12.934   7.886 -20.694  1.00  0.00    -0.550 OA
ATOM     13  O   UNL     1      13.373   7.087 -18.592  1.00  0.00    -0.550 OA
ENDBRANCH  10  11
ENDBRANCH   9  10
ENDBRANCH   8   9
ENDBRANCH   1   8
TORSDOF 8
ENDMDL
MODEL 3
REMARK VINA RESULT:    -5.260      1.058      6.020
REMARK INTER + INTRA:          -8.138
REMARK INTER:                  -7.684
REMARK INTRA:                  -0.454
REMARK UNBOUND:                -0.417
REMARK SMILES O=C([O-])CCCCCCCC(=O)[O-]
REMARK SMILES IDX 7 1 6 2 5 3 4 4 2 5 1 6 3 7 8 8 9 9 10 10 11 11 12 12 13 13
REMARK H PARENT
REMARK Flexibility Score: inf
ROOT
ATOM      1  C   UNL     1      17.846   9.451 -19.379  1.00  0.00     0.000 C 
ENDROOT
BRANCH   1   2
ATOM      2  C   UNL     1      18.926   9.558 -20.467  1.00  0.00     0.000 C 
BRANCH   2   3
ATOM      3  C   UNL     1      19.296  11.014 -20.792  1.00  0.00     0.006 C 
BRANCH   3   4
ATOM      4  C   UNL     1      18.067  11.883 -21.091  1.00  0.00     0.053 C 
BRANCH   4   5
ATOM      5  C   UNL     1      17.967  13.002 -20.103  1.00  0.00     0.041 C 
ATOM      6  O   UNL     1      19.008  13.470 -19.569  1.00  0.00    -0.550 OA
ATOM      7  O   UNL     1      16.723  13.497 -19.734  1.00  0.00    -0.550 OA
ENDBRANCH   4   5
ENDBRANCH   3   4
ENDBRANCH   2   3
ENDBRANCH   1   2
BRANCH   1   8
ATOM      8  C   UNL     1      16.750   8.457 -19.791  1.00  0.00     0.000 C 
BRANCH   8   9
ATOM      9  C   UNL     1      16.382   8.558 -21.283  1.00  0.00     0.006 C 
BRANCH   9  10
ATOM     10  C   UNL     1      15.596   7.353 -21.823  1.00  0.00     0.053 C 
BRANCH  10  11
ATOM     11  C   UNL     1      14.581   6.857 -20.841  1.00  0.00     0.041 C 
ATOM     12  O   UNL     1      14.757   5.761 -20.246  1.00  0.00    -0.550 OA
ATOM     13  O   UNL     1      13.422   7.588 -20.608  1.00  0.00    -0.550 OA
ENDBRANCH  10  11
ENDBRANCH   9  10
ENDBRANCH   8   9
ENDBRANCH   1   8
TORSDOF 8
ENDMDL
MODEL 4
REMARK VINA RESULT:    -5.218      1.038      1.654
REMARK INTER + INTRA:          -8.075
REMARK INTER:                  -7.597
REMARK INTRA:                  -0.478
REMARK UNBOUND:                -0.417
REMARK SMILES O=C([O-])CCCCCCCC(=O)[O-]
REMARK SMILES IDX 7 1 6 2 5 3 4 4 2 5 1 6 3 7 8 8 9 9 10 10 11 11 12 12 13 13
REMARK H PARENT
REMARK Flexibility Score: inf
ROOT
ATOM      1  C   UNL     1      17.793   9.527 -19.442  1.00  0.00     0.000 C 
ENDROOT
BRANCH   1   2
ATOM      2  C   UNL     1      16.896   8.362 -19.887  1.00  0.00     0.000 C 
BRANCH   2   3
ATOM      3  C   UNL     1      16.300   8.575 -21.287  1.00  0.00     0.006 C 
BRANCH   3   4
ATOM      4  C   UNL     1      15.576   7.330 -21.818  1.00  0.00     0.053 C 
BRANCH   4   5
ATOM      5  C   UNL     1      14.536   6.877 -20.843  1.00  0.00     0.041 C 
ATOM      6  O   UNL     1      13.534   7.603 -20.603  1.00  0.00    -0.550 OA
ATOM      7  O   UNL     1      14.694   5.676 -20.163  1.00  0.00    -0.550 OA
ENDBRANCH   4   5
ENDBRANCH   3   4
ENDBRANCH   2   3
ENDBRANCH   1   2
BRANCH   1   8
ATOM      8  C   UNL     1      18.925   9.763 -20.453  1.00  0.00     0.000 C 
BRANCH   8   9
ATOM      9  C   UNL     1      18.928  11.193 -21.025  1.00  0.00     0.006 C 
BRANCH   9  10
ATOM     10  C   UNL     1      17.640  11.986 -20.752  1.00  0.00     0.053 C 
BRANCH  10  11
ATOM     11  C   UNL     1      17.887  13.180 -19.884  1.00  0.00     0.041 C 
ATOM     12  O   UNL     1      16.920  13.872 -19.469  1.00  0.00    -0.550 OA
ATOM     13  O   UNL     1      19.187  13.551 -19.562  1.00  0.00    -0.550 OA
ENDBRANCH  10  11
ENDBRANCH   9  10
ENDBRANCH   8   9
ENDBRANCH   1   8
TORSDOF 8
ENDMDL
MODEL 5
REMARK VINA RESULT:    -5.208      0.677      1.377
REMARK INTER + INTRA:          -8.061
REMARK INTER:                  -7.717
REMARK INTRA:                  -0.344
REMARK UNBOUND:                -0.417
REMARK SMILES O=C([O-])CCCCCCCC(=O)[O-]
REMARK SMILES IDX 7 1 6 2 5 3 4 4 2 5 1 6 3 7 8 8 9 9 10 10 11 11 12 12 13 13
REMARK H PARENT
REMARK Flexibility Score: inf
ROOT
ATOM      1  C   UNL     1      16.368   9.128 -21.625  1.00  0.00     0.000 C 
ENDROOT
BRANCH   1   2
ATOM      2  C   UNL     1      15.633   7.801 -21.868  1.00  0.00     0.000 C 
BRANCH   2   3
ATOM      3  C   UNL     1      15.250   7.088 -20.562  1.00  0.00     0.006 C 
BRANCH   3   4
ATOM      4  C   UNL     1      13.768   6.692 -20.518  1.00  0.00     0.053 C 
BRANCH   4   5
ATOM      5  C   UNL     1      13.027   7.558 -19.548  1.00  0.00     0.041 C 
ATOM      6  O   UNL     1      12.145   8.359 -19.960  1.00  0.00    -0.550 OA
ATOM      7  O   UNL     1      13.341   7.517 -18.196  1.00  0.00    -0.550 OA
ENDBRANCH   4   5
ENDBRANCH   3   4
ENDBRANCH   2   3
ENDBRANCH   1   2
BRANCH   1   8
ATOM      8  C   UNL     1      17.450   8.966 -20.547  1.00  0.00     0.000 C 
BRANCH   8   9
ATOM      9  C   UNL     1      17.889  10.307 -19.932  1.00  0.00     0.006 C 
BRANCH   9  10
ATOM     10  C   UNL     1      17.613  11.530 -20.821  1.00  0.00     0.053 C 
BRANCH  10  11
ATOM     11  C   UNL     1      17.741  12.816 -20.064  1.00  0.00     0.041 C 
ATOM     12  O   UNL     1      16.719  13.504 -19.806  1.00  0.00    -0.550 OA
ATOM     13  O   UNL     1      18.995  13.272 -19.673  1.00  0.00    -0.550 OA
ENDBRANCH  10  11
ENDBRANCH   9  10
ENDBRANCH   8   9
ENDBRANCH   1   8
TORSDOF 8
ENDMDL
MODEL 6
REMARK VINA RESULT:    -4.859      2.111      5.575
REMARK INTER + INTRA:          -7.549
REMARK INTER:                  -7.354
REMARK INTRA:                  -0.195
REMARK UNBOUND:                -0.417
REMARK SMILES O=C([O-])CCCCCCCC(=O)[O-]
REMARK SMILES IDX 7 1 6 2 5 3 4 4 2 5 1 6 3 7 8 8 9 9 10 10 11 11 12 12 13 13
REMARK H PARENT
REMARK Flexibility Score: inf
ROOT
ATOM      1  C   UNL     1      16.170   9.666 -21.981  1.00  0.00     0.000 C 
ENDROOT
BRANCH   1   2
ATOM      2  C   UNL     1      17.506  10.426 -21.971  1.00  0.00     0.000 C 
BRANCH   2   3
ATOM      3  C   UNL     1      18.039  10.665 -20.550  1.00  0.00     0.006 C 
BRANCH   3   4
ATOM      4  C   UNL     1      19.089   9.627 -20.130  1.00  0.00     0.053 C 
BRANCH   4   5
ATOM      5  C   UNL     1      18.778   9.094 -18.767  1.00  0.00     0.041 C 
ATOM      6  O   UNL     1      19.629   8.399 -18.150  1.00  0.00    -0.550 OA
ATOM      7  O   UNL     1      17.532   9.321 -18.198  1.00  0.00    -0.550 OA
ENDBRANCH   4   5
ENDBRANCH   3   4
ENDBRANCH   2   3
ENDBRANCH   1   2
BRANCH   1   8
ATOM      8  C   UNL     1      16.308   8.306 -21.281  1.00  0.00     0.000 C 
BRANCH   8   9
ATOM      9  C   UNL     1      15.323   7.253 -21.821  1.00  0.00     0.006 C 
BRANCH   9  10
ATOM     10  C   UNL     1      14.574   6.469 -20.731  1.00  0.00     0.053 C 
BRANCH  10  11
ATOM     11  C   UNL     1      13.593   7.327 -19.995  1.00  0.00     0.041 C 
ATOM     12  O   UNL     1      12.723   7.981 -20.629  1.00  0.00    -0.550 OA
ATOM     13  O   UNL     1      13.660   7.432 -18.611  1.00  0.00    -0.550 OA
ENDBRANCH  10  11
ENDBRANCH   9  10
ENDBRANCH   8   9
ENDBRANCH   1   8
TORSDOF 8
ENDMDL
MODEL 7
REMARK VINA RESULT:    -4.654      2.351      3.088
REMARK INTER + INTRA:          -7.247
REMARK INTER:                  -6.850
REMARK INTRA:                  -0.397
REMARK UNBOUND:                -0.417
REMARK SMILES O=C([O-])CCCCCCCC(=O)[O-]
REMARK SMILES IDX 7 1 6 2 5 3 4 4 2 5 1 6 3 7 8 8 9 9 10 10 11 11 12 12 13 13
REMARK H PARENT
REMARK Flexibility Score: inf
ROOT
ATOM      1  C   UNL     1      17.175  10.844 -21.378  1.00  0.00     0.000 C 
ENDROOT
BRANCH   1   2
ATOM      2  C   UNL     1      16.425   9.763 -22.171  1.00  0.00     0.000 C 
BRANCH   2   3
ATOM      3  C   UNL     1      16.120   8.515 -21.329  1.00  0.00     0.006 C 
BRANCH   3   4
ATOM      4  C   UNL     1      14.821   7.817 -21.754  1.00  0.00     0.053 C 
BRANCH   4   5
ATOM      5  C   UNL     1      14.292   6.975 -20.637  1.00  0.00     0.041 C 
ATOM      6  O   UNL     1      14.884   5.912 -20.310  1.00  0.00    -0.550 OA
ATOM      7  O   UNL     1      13.118   7.336 -19.987  1.00  0.00    -0.550 OA
ENDBRANCH   4   5
ENDBRANCH   3   4
ENDBRANCH   2   3
ENDBRANCH   1   2
BRANCH   1   8
ATOM      8  C   UNL     1      18.674  10.827 -21.711  1.00  0.00     0.000 C 
BRANCH   8   9
ATOM      9  C   UNL     1      19.548  10.417 -20.511  1.00  0.00     0.006 C 
BRANCH   9  10
ATOM     10  C   UNL     1      19.280   8.996 -19.989  1.00  0.00     0.053 C 
BRANCH  10  11
ATOM     11  C   UNL     1      18.806   8.999 -18.569  1.00  0.00     0.041 C 
ATOM     12  O   UNL     1      17.637   9.378 -18.293  1.00  0.00    -0.550 OA
ATOM     13  O   UNL     1      19.665   8.615 -17.547  1.00  0.00    -0.550 OA
ENDBRANCH  10  11
ENDBRANCH   9  10
ENDBRANCH   8   9
ENDBRANCH   1   8
TORSDOF 8
ENDMDL
MODEL 8
REMARK VINA RESULT:    -4.593      2.133      2.336
REMARK INTER + INTRA:          -7.158
REMARK INTER:                  -6.806
REMARK INTRA:                  -0.352
REMARK UNBOUND:                -0.417
REMARK SMILES O=C([O-])CCCCCCCC(=O)[O-]
REMARK SMILES IDX 7 1 6 2 5 3 4 4 2 5 1 6 3 7 8 8 9 9 10 10 11 11 12 12 13 13
REMARK H PARENT
REMARK Flexibility Score: inf
ROOT
ATOM      1  C   UNL     1      17.334   9.643 -20.474  1.00  0.00     0.000 C 
ENDROOT
BRANCH   1   2
ATOM      2  C   UNL     1      16.726   8.266 -20.161  1.00  0.00     0.000 C 
BRANCH   2   3
ATOM      3  C   UNL     1      15.799   7.761 -21.277  1.00  0.00     0.006 C 
BRANCH   3   4
ATOM      4  C   UNL     1      14.854   6.649 -20.801  1.00  0.00     0.053 C 
BRANCH   4   5
ATOM      5  C   UNL     1      13.673   7.235 -20.094  1.00  0.00     0.041 C 
ATOM      6  O   UNL     1      12.858   7.965 -20.719  1.00  0.00    -0.550 OA
ATOM      7  O   UNL     1      13.498   7.018 -18.733  1.00  0.00    -0.550 OA
ENDBRANCH   4   5
ENDBRANCH   3   4
ENDBRANCH   2   3
ENDBRANCH   1   2
BRANCH   1   8
ATOM      8  C   UNL     1      18.868   9.587 -20.428  1.00  0.00     0.000 C 
BRANCH   8   9
ATOM      9  C   UNL     1      19.531  10.818 -21.071  1.00  0.00     0.006 C 
BRANCH   9  10
ATOM     10  C   UNL     1      18.570  11.704 -21.880  1.00  0.00     0.053 C 
BRANCH  10  11
ATOM     11  C   UNL     1      18.787  11.569 -23.355  1.00  0.00     0.041 C 
ATOM     12  O   UNL     1      19.894  11.886 -23.865  1.00  0.00    -0.550 OA
ATOM     13  O   UNL     1      17.756  11.124 -24.173  1.00  0.00    -0.550 OA
ENDBRANCH  10  11
ENDBRANCH   9  10
ENDBRANCH   8   9
ENDBRANCH   1   8
TORSDOF 8
ENDMDL
MODEL 9
REMARK VINA RESULT:    -4.497      2.391      6.249
REMARK INTER + INTRA:          -7.018
REMARK INTER:                  -6.542
REMARK INTRA:                  -0.476
REMARK UNBOUND:                -0.417
REMARK SMILES O=C([O-])CCCCCCCC(=O)[O-]
REMARK SMILES IDX 7 1 6 2 5 3 4 4 2 5 1 6 3 7 8 8 9 9 10 10 11 11 12 12 13 13
REMARK H PARENT
REMARK Flexibility Score: inf
ROOT
ATOM      1  C   UNL     1      18.127   9.842 -20.530  1.00  0.00     0.000 C 
ENDROOT
BRANCH   1   2
ATOM      2  C   UNL     1      17.535  11.224 -20.850  1.00  0.00     0.000 C 
BRANCH   2   3
ATOM      3  C   UNL     1      18.537  12.147 -21.559  1.00  0.00     0.006 C 
BRANCH   3   4
ATOM      4  C   UNL     1      19.342  11.422 -22.646  1.00  0.00     0.053 C 
BRANCH   4   5
ATOM      5  C   UNL     1      18.666  11.560 -23.974  1.00  0.00     0.041 C 
ATOM      6  O   UNL     1      19.174  12.284 -24.871  1.00  0.00    -0.550 OA
ATOM      7  O   UNL     1      17.451  10.928 -24.206  1.00  0.00    -0.550 OA
ENDBRANCH   4   5
ENDBRANCH   3   4
ENDBRANCH   2   3
ENDBRANCH   1   2
BRANCH   1   8
ATOM      8  C   UNL     1      17.020   8.782 -20.433  1.00  0.00     0.000 C 
BRANCH   8   9
ATOM      9  C   UNL     1      16.114   8.747 -21.678  1.00  0.00     0.006 C 
BRANCH   9  10
ATOM     10  C   UNL     1      15.475   7.378 -21.957  1.00  0.00     0.053 C 
BRANCH  10  11
ATOM     11  C   UNL     1      14.547   6.956 -20.860  1.00  0.00     0.041 C 
ATOM     12  O   UNL     1      13.502   7.618 -20.625  1.00  0.00    -0.550 OA
ATOM     13  O   UNL     1      14.853   5.851 -20.075  1.00  0.00    -0.550 OA
ENDBRANCH  10  11
ENDBRANCH   9  10
ENDBRANCH   8   9
ENDBRANCH   1   8
TORSDOF 8
ENDMDL
