MODEL 1
REMARK VINA RESULT:    39.237      0.000      0.000
REMARK INTER + INTRA:          45.281
REMARK INTER:                  44.971
REMARK INTRA:                   0.310
REMARK UNBOUND:                 0.310
REMARK SMILES C=C(C)[C@@H]1CC[C@]2(C(=O)[O-])CC[C@]3(C)[C@H](CC[C@@H]4[C@]5(C)CC[C@@H](O)C(C)(C)[C@@H]5CC[C@@]43C)[C@@H]12
REMARK SMILES IDX 7 1 6 2 33 3 11 4 5 5 15 6 4 7 12 8 16 9 13 10 17 11 31 12
REMARK SMILES IDX 14 13 18 14 30 15 32 16 19 17 29 18 21 19 20 20 28 21 22 22
REMARK SMILES IDX 25 23 23 24 26 25 27 26 8 27 9 28 10 29 2 30 3 31 1 32 24 33
REMARK H PARENT 24 34
REMARK Flexibility Score: inf
ROOT
ATOM      1  C   UNL     1      44.383  26.022   1.520  1.00  0.00     0.014 C 
ATOM      2  C   UNL     1      44.009  25.518   2.916  1.00  0.00     0.014 C 
ATOM      3  C   UNL     1      44.334  27.553   1.731  1.00  0.00     0.012 C 
ATOM      4  C   UNL     1      45.811  25.655   1.039  1.00  0.00     0.014 C 
ATOM      5  C   UNL     1      42.951  26.518   3.426  1.00  0.00     0.009 C 
ATOM      6  C   UNL     1      44.576  28.269   0.374  1.00  0.00     0.000 C 
ATOM      7  C   UNL     1      43.050  27.790   2.547  1.00  0.00     0.018 C 
ATOM      8  C   UNL     1      46.188  26.435  -0.264  1.00  0.00     0.008 C 
ATOM      9  C   UNL     1      44.187  29.739   0.281  1.00  0.00     0.005 C 
ATOM     10  C   UNL     1      46.031  28.008  -0.178  1.00  0.00    -0.024 C 
ATOM     11  C   UNL     1      43.978  30.123  -1.199  1.00  0.00     0.005 C 
ATOM     12  C   UNL     1      46.242  28.826  -1.599  1.00  0.00    -0.024 C 
ATOM     13  C   UNL     1      47.124  28.455   0.863  1.00  0.00     0.012 C 
ATOM     14  C   UNL     1      44.897  29.385  -2.251  1.00  0.00     0.002 C 
ATOM     15  C   UNL     1      47.057  28.036  -2.666  1.00  0.00     0.008 C 
ATOM     16  C   UNL     1      47.123  30.121  -1.364  1.00  0.00     0.012 C 
ATOM     17  C   UNL     1      44.119  28.538  -3.375  1.00  0.00    -0.026 C 
ATOM     18  C   UNL     1      46.263  27.117  -3.589  1.00  0.00     0.005 C 
ATOM     19  C   UNL     1      43.198  27.439  -2.770  1.00  0.00     0.010 C 
ATOM     20  C   UNL     1      43.235  29.580  -4.160  1.00  0.00     0.012 C 
ATOM     21  C   UNL     1      45.141  27.846  -4.375  1.00  0.00     0.003 C 
ATOM     22  C   UNL     1      42.505  26.543  -3.808  1.00  0.00     0.033 C 
ATOM     23  C   UNL     1      44.465  26.870  -5.451  1.00  0.00    -0.006 C 
ATOM     24  C   UNL     1      43.506  25.858  -4.745  1.00  0.00     0.120 C 
ATOM     25  C   UNL     1      43.707  27.666  -6.553  1.00  0.00     0.014 C 
ATOM     26  C   UNL     1      45.545  26.052  -6.220  1.00  0.00     0.014 C 
ENDROOT
BRANCH   1  27
ATOM     27  C   UNL     1      43.358  25.440   0.530  1.00  0.00     0.048 C 
ATOM     28  O   UNL     1      43.680  25.122  -0.645  1.00  0.00    -0.550 OA
ATOM     29  O   UNL     1      42.018  25.353   0.890  1.00  0.00    -0.550 OA
ENDBRANCH   1  27
BRANCH   7  30
ATOM     30  C   UNL     1      42.956  29.058   3.402  1.00  0.00    -0.077 C 
ATOM     31  C   UNL     1      44.228  29.590   4.012  1.00  0.00     0.039 C 
ATOM     32  C   UNL     1      41.819  29.743   3.625  1.00  0.00     0.008 C 
ENDBRANCH   7  30
BRANCH  24  33
ATOM     33  O   UNL     1      42.785  25.105  -5.690  1.00  0.00    -0.393 OA
ATOM     34  H   UNL     1      43.365  24.998  -6.488  1.00  0.00     0.210 HD
ENDBRANCH  24  33
TORSDOF 3
ENDMDL
