MODEL 1
REMARK VINA RESULT:    -5.490      0.000      0.000
REMARK INTER + INTRA:          -5.490
REMARK INTER:                  -5.490
REMARK INTRA:                   0.000
REMARK UNBOUND:                 0.000
REMARK SMILES Cc1cc2cc3c(C)cc(=O)oc3c(C)c2o1
REMARK SMILES IDX 8 1 7 2 9 3 10 4 11 5 12 6 13 7 6 8 5 9 4 10 3 11 2 12 17 13
REMARK SMILES IDX 16 14 14 15 15 16 1 17
REMARK H PARENT
REMARK Flexibility Score: inf
ROOT
ATOM      1  C   UNL     1      11.034  17.780  26.541  1.00  0.00     0.045 C 
ATOM      2  C   UNL     1      12.484  17.457  26.288  1.00  0.00    -0.033 A 
ATOM      3  C   UNL     1      13.085  17.889  25.099  1.00  0.00     0.098 A 
ATOM      4  C   UNL     1      14.427  17.591  24.855  1.00  0.00     0.336 A 
ATOM      5  O   UNL     1      14.971  17.977  23.787  1.00  0.00    -0.246 OA
ATOM      6  O   UNL     1      15.137  16.904  25.741  1.00  0.00    -0.422 OA
ATOM      7  C   UNL     1      14.630  16.465  26.890  1.00  0.00     0.145 A 
ATOM      8  C   UNL     1      13.261  16.725  27.214  1.00  0.00     0.022 A 
ATOM      9  C   UNL     1      12.727  16.244  28.435  1.00  0.00     0.024 A 
ATOM     10  C   UNL     1      13.567  15.526  29.278  1.00  0.00     0.022 A 
ATOM     11  C   UNL     1      13.320  14.942  30.499  1.00  0.00     0.054 A 
ATOM     12  C   UNL     1      14.533  14.363  30.852  1.00  0.00     0.102 A 
ATOM     13  O   UNL     1      15.445  14.579  29.922  1.00  0.00    -0.461 OA
ATOM     14  C   UNL     1      14.877  15.279  28.968  1.00  0.00     0.140 A 
ATOM     15  C   UNL     1      15.456  15.740  27.784  1.00  0.00     0.036 A 
ATOM     16  C   UNL     1      16.888  15.434  27.447  1.00  0.00     0.052 C 
ATOM     17  C   UNL     1      14.790  13.602  32.109  1.00  0.00     0.087 C 
ENDROOT
TORSDOF 0
ENDMDL
MODEL 2
REMARK VINA RESULT:    -5.151      1.776      3.054
REMARK INTER + INTRA:          -5.151
REMARK INTER:                  -5.151
REMARK INTRA:                   0.000
REMARK UNBOUND:                 0.000
REMARK SMILES Cc1cc2cc3c(C)cc(=O)oc3c(C)c2o1
REMARK SMILES IDX 8 1 7 2 9 3 10 4 11 5 12 6 13 7 6 8 5 9 4 10 3 11 2 12 17 13
REMARK SMILES IDX 16 14 14 15 15 16 1 17
REMARK H PARENT
REMARK Flexibility Score: inf
ROOT
ATOM      1  C   UNL     1      15.995  18.124  24.001  1.00  0.00     0.045 C 
ATOM      2  C   UNL     1      14.623  17.579  24.300  1.00  0.00    -0.033 A 
ATOM      3  C   UNL     1      13.583  17.802  23.389  1.00  0.00     0.098 A 
ATOM      4  C   UNL     1      12.308  17.302  23.659  1.00  0.00     0.336 A 
ATOM      5  O   UNL     1      11.370  17.501  22.844  1.00  0.00    -0.246 OA
ATOM      6  O   UNL     1      12.075  16.616  24.772  1.00  0.00    -0.422 OA
ATOM      7  C   UNL     1      13.015  16.367  25.678  1.00  0.00     0.145 A 
ATOM      8  C   UNL     1      14.348  16.847  25.478  1.00  0.00     0.022 A 
ATOM      9  C   UNL     1      15.341  16.585  26.454  1.00  0.00     0.024 A 
ATOM     10  C   UNL     1      14.973  15.865  27.584  1.00  0.00     0.022 A 
ATOM     11  C   UNL     1      15.713  15.481  28.678  1.00  0.00     0.054 A 
ATOM     12  C   UNL     1      14.807  14.796  29.479  1.00  0.00     0.102 A 
ATOM     13  O   UNL     1      13.612  14.764  28.917  1.00  0.00    -0.461 OA
ATOM     14  C   UNL     1      13.698  15.404  27.775  1.00  0.00     0.140 A 
ATOM     15  C   UNL     1      12.685  15.624  26.838  1.00  0.00     0.036 A 
ATOM     16  C   UNL     1      11.285  15.135  27.078  1.00  0.00     0.052 C 
ATOM     17  C   UNL     1      15.124  14.170  30.796  1.00  0.00     0.087 C 
ENDROOT
TORSDOF 0
ENDMDL
MODEL 3
REMARK VINA RESULT:    -4.374      2.653      4.846
REMARK INTER + INTRA:          -4.374
REMARK INTER:                  -4.374
REMARK INTRA:                   0.000
REMARK UNBOUND:                 0.000
REMARK SMILES Cc1cc2cc3c(C)cc(=O)oc3c(C)c2o1
REMARK SMILES IDX 8 1 7 2 9 3 10 4 11 5 12 6 13 7 6 8 5 9 4 10 3 11 2 12 17 13
REMARK SMILES IDX 16 14 14 15 15 16 1 17
REMARK H PARENT
REMARK Flexibility Score: inf
ROOT
ATOM      1  C   UNL     1      15.489  18.125  21.623  1.00  0.00     0.045 C 
ATOM      2  C   UNL     1      14.036  17.988  22.000  1.00  0.00    -0.033 A 
ATOM      3  C   UNL     1      13.055  18.125  21.009  1.00  0.00     0.098 A 
ATOM      4  C   UNL     1      11.707  18.002  21.350  1.00  0.00     0.336 A 
ATOM      5  O   UNL     1      10.822  18.125  20.463  1.00  0.00    -0.246 OA
ATOM      6  O   UNL     1      11.349  17.755  22.604  1.00  0.00    -0.422 OA
ATOM      7  C   UNL     1      12.226  17.612  23.593  1.00  0.00     0.145 A 
ATOM      8  C   UNL     1      13.628  17.727  23.327  1.00  0.00     0.022 A 
ATOM      9  C   UNL     1      14.555  17.584  24.389  1.00  0.00     0.024 A 
ATOM     10  C   UNL     1      14.058  17.338  25.663  1.00  0.00     0.022 A 
ATOM     11  C   UNL     1      14.714  17.169  26.860  1.00  0.00     0.054 A 
ATOM     12  C   UNL     1      13.694  16.963  27.782  1.00  0.00     0.102 A 
ATOM     13  O   UNL     1      12.513  17.002  27.192  1.00  0.00    -0.461 OA
ATOM     14  C   UNL     1      12.718  17.227  25.916  1.00  0.00     0.140 A 
ATOM     15  C   UNL     1      11.762  17.347  24.904  1.00  0.00     0.036 A 
ATOM     16  C   UNL     1      10.293  17.250  25.206  1.00  0.00     0.052 C 
ATOM     17  C   UNL     1      13.889  16.723  29.242  1.00  0.00     0.087 C 
ENDROOT
TORSDOF 0
ENDMDL
MODEL 4
REMARK VINA RESULT:    -4.007      2.002      6.142
REMARK INTER + INTRA:          -4.007
REMARK INTER:                  -4.007
REMARK INTRA:                   0.000
REMARK UNBOUND:                 0.000
REMARK SMILES Cc1cc2cc3c(C)cc(=O)oc3c(C)c2o1
REMARK SMILES IDX 8 1 7 2 9 3 10 4 11 5 12 6 13 7 6 8 5 9 4 10 3 11 2 12 17 13
REMARK SMILES IDX 16 14 14 15 15 16 1 17
REMARK H PARENT
REMARK Flexibility Score: inf
ROOT
ATOM      1  C   UNL     1      16.358  15.500  27.377  1.00  0.00     0.045 C 
ATOM      2  C   UNL     1      14.962  15.944  27.727  1.00  0.00    -0.033 A 
ATOM      3  C   UNL     1      14.529  15.862  29.056  1.00  0.00     0.098 A 
ATOM      4  C   UNL     1      13.236  16.268  29.388  1.00  0.00     0.336 A 
ATOM      5  O   UNL     1      12.842  16.195  30.582  1.00  0.00    -0.246 OA
ATOM      6  O   UNL     1      12.414  16.733  28.455  1.00  0.00    -0.422 OA
ATOM      7  C   UNL     1      12.760  16.840  27.175  1.00  0.00     0.145 A 
ATOM      8  C   UNL     1      14.067  16.441  26.751  1.00  0.00     0.022 A 
ATOM      9  C   UNL     1      14.423  16.548  25.384  1.00  0.00     0.024 A 
ATOM     10  C   UNL     1      13.472  17.040  24.498  1.00  0.00     0.022 A 
ATOM     11  C   UNL     1      13.538  17.238  23.138  1.00  0.00     0.054 A 
ATOM     12  C   UNL     1      12.285  17.741  22.806  1.00  0.00     0.102 A 
ATOM     13  O   UNL     1      11.520  17.841  23.878  1.00  0.00    -0.461 OA
ATOM     14  C   UNL     1      12.223  17.423  24.904  1.00  0.00     0.140 A 
ATOM     15  C   UNL     1      11.825  17.349  26.241  1.00  0.00     0.036 A 
ATOM     16  C   UNL     1      10.439  17.747  26.663  1.00  0.00     0.052 C 
ATOM     17  C   UNL     1      11.848  18.125  21.432  1.00  0.00     0.087 C 
ENDROOT
TORSDOF 0
ENDMDL
MODEL 5
REMARK VINA RESULT:    -3.682      1.914      5.721
REMARK INTER + INTRA:          -3.682
REMARK INTER:                  -3.682
REMARK INTRA:                   0.000
REMARK UNBOUND:                 0.000
REMARK SMILES Cc1cc2cc3c(C)cc(=O)oc3c(C)c2o1
REMARK SMILES IDX 8 1 7 2 9 3 10 4 11 5 12 6 13 7 6 8 5 9 4 10 3 11 2 12 17 13
REMARK SMILES IDX 16 14 14 15 15 16 1 17
REMARK H PARENT
REMARK Flexibility Score: inf
ROOT
ATOM      1  C   UNL     1      11.704  14.812  28.128  1.00  0.00     0.045 C 
ATOM      2  C   UNL     1      12.992  15.430  27.650  1.00  0.00    -0.033 A 
ATOM      3  C   UNL     1      14.117  15.403  28.485  1.00  0.00     0.098 A 
ATOM      4  C   UNL     1      15.314  15.975  28.051  1.00  0.00     0.336 A 
ATOM      5  O   UNL     1      16.326  15.953  28.799  1.00  0.00    -0.246 OA
ATOM      6  O   UNL     1      15.395  16.542  26.855  1.00  0.00    -0.422 OA
ATOM      7  C   UNL     1      14.368  16.603  26.011  1.00  0.00     0.145 A 
ATOM      8  C   UNL     1      13.104  16.042  26.381  1.00  0.00     0.022 A 
ATOM      9  C   UNL     1      12.014  16.120  25.481  1.00  0.00     0.024 A 
ATOM     10  C   UNL     1      12.218  16.750  24.259  1.00  0.00     0.022 A 
ATOM     11  C   UNL     1      11.351  16.976  23.215  1.00  0.00     0.054 A 
ATOM     12  C   UNL     1      12.119  17.652  22.274  1.00  0.00     0.102 A 
ATOM     13  O   UNL     1      13.354  17.823  22.711  1.00  0.00    -0.461 OA
ATOM     14  C   UNL     1      13.427  17.284  23.905  1.00  0.00     0.140 A 
ATOM     15  C   UNL     1      14.538  17.224  24.750  1.00  0.00     0.036 A 
ATOM     16  C   UNL     1      15.850  17.841  24.356  1.00  0.00     0.052 C 
ATOM     17  C   UNL     1      11.633  18.125  20.945  1.00  0.00     0.087 C 
ENDROOT
TORSDOF 0
ENDMDL
MODEL 6
REMARK VINA RESULT:    -3.056      1.718      5.799
REMARK INTER + INTRA:          -3.056
REMARK INTER:                  -3.056
REMARK INTRA:                   0.000
REMARK UNBOUND:                 0.000
REMARK SMILES Cc1cc2cc3c(C)cc(=O)oc3c(C)c2o1
REMARK SMILES IDX 8 1 7 2 9 3 10 4 11 5 12 6 13 7 6 8 5 9 4 10 3 11 2 12 17 13
REMARK SMILES IDX 16 14 14 15 15 16 1 17
REMARK H PARENT
REMARK Flexibility Score: inf
ROOT
ATOM      1  C   UNL     1      17.635  15.876  28.489  1.00  0.00     0.045 C 
ATOM      2  C   UNL     1      16.215  15.460  28.771  1.00  0.00    -0.033 A 
ATOM      3  C   UNL     1      15.922  14.787  29.965  1.00  0.00     0.098 A 
ATOM      4  C   UNL     1      14.610  14.397  30.233  1.00  0.00     0.336 A 
ATOM      5  O   UNL     1      14.342  13.791  31.304  1.00  0.00    -0.246 OA
ATOM      6  O   UNL     1      13.638  14.659  29.368  1.00  0.00    -0.422 OA
ATOM      7  C   UNL     1      13.845  15.294  28.218  1.00  0.00     0.145 A 
ATOM      8  C   UNL     1      15.163  15.726  27.866  1.00  0.00     0.022 A 
ATOM      9  C   UNL     1      15.375  16.393  26.634  1.00  0.00     0.024 A 
ATOM     10  C   UNL     1      14.279  16.600  25.806  1.00  0.00     0.022 A 
ATOM     11  C   UNL     1      14.195  17.200  24.570  1.00  0.00     0.054 A 
ATOM     12  C   UNL     1      12.849  17.105  24.236  1.00  0.00     0.102 A 
ATOM     13  O   UNL     1      12.169  16.498  25.193  1.00  0.00    -0.461 OA
ATOM     14  C   UNL     1      13.018  16.189  26.144  1.00  0.00     0.140 A 
ATOM     15  C   UNL     1      12.752  15.538  27.351  1.00  0.00     0.036 A 
ATOM     16  C   UNL     1      11.366  15.068  27.692  1.00  0.00     0.052 C 
ATOM     17  C   UNL     1      12.237  17.618  22.976  1.00  0.00     0.087 C 
ENDROOT
TORSDOF 0
ENDMDL
