MODEL 1
REMARK VINA RESULT:    -4.408      0.000      0.000
REMARK INTER + INTRA:          -4.985
REMARK INTER:                  -4.923
REMARK INTRA:                  -0.062
REMARK UNBOUND:                -0.062
REMARK SMILES COc1ccc(C(=O)[O-])cc1
REMARK SMILES IDX 6 1 5 2 10 3 4 4 11 5 3 6 7 7 8 8 9 9 2 10 1 11
REMARK H PARENT
REMARK Flexibility Score: inf
ROOT
ATOM      1  C   UNL     1       2.626  -7.887   6.827  1.00  0.00    -0.003 A 
ATOM      2  C   UNL     1       3.437  -6.766   7.071  1.00  0.00     0.014 A 
ATOM      3  C   UNL     1       3.061  -9.150   7.264  1.00  0.00     0.014 A 
ATOM      4  C   UNL     1       4.657  -6.907   7.739  1.00  0.00     0.047 A 
ATOM      5  C   UNL     1       4.282  -9.289   7.932  1.00  0.00     0.047 A 
ATOM      6  C   UNL     1       5.091  -8.164   8.174  1.00  0.00     0.118 A 
ENDROOT
BRANCH   1   7
ATOM      7  C   UNL     1       1.335  -7.736   6.121  1.00  0.00     0.071 C 
ATOM      8  O   UNL     1       0.448  -8.627   6.208  1.00  0.00    -0.545 OA
ATOM      9  O   UNL     1       1.081  -6.607   5.350  1.00  0.00    -0.545 OA
ENDBRANCH   1   7
BRANCH   6  10
ATOM     10  O   UNL     1       6.322  -8.251   8.839  1.00  0.00    -0.497 OA
ATOM     11  C   UNL     1       7.578  -7.927   8.250  1.00  0.00     0.278 C 
ENDBRANCH   6  10
TORSDOF 2
ENDMDL
MODEL 2
REMARK VINA RESULT:    -4.375      1.920      2.992
REMARK INTER + INTRA:          -4.948
REMARK INTER:                  -4.885
REMARK INTRA:                  -0.063
REMARK UNBOUND:                -0.062
REMARK SMILES COc1ccc(C(=O)[O-])cc1
REMARK SMILES IDX 6 1 5 2 10 3 4 4 11 5 3 6 7 7 8 8 9 9 2 10 1 11
REMARK H PARENT
REMARK Flexibility Score: inf
ROOT
ATOM      1  C   UNL     1       4.861  -7.683   7.845  1.00  0.00    -0.003 A 
ATOM      2  C   UNL     1       5.744  -8.722   7.509  1.00  0.00     0.014 A 
ATOM      3  C   UNL     1       5.371  -6.533   8.473  1.00  0.00     0.014 A 
ATOM      4  C   UNL     1       7.108  -8.613   7.794  1.00  0.00     0.047 A 
ATOM      5  C   UNL     1       6.736  -6.426   8.758  1.00  0.00     0.047 A 
ATOM      6  C   UNL     1       7.616  -7.470   8.419  1.00  0.00     0.118 A 
ENDROOT
BRANCH   1   7
ATOM      7  C   UNL     1       3.418  -7.799   7.540  1.00  0.00     0.071 C 
ATOM      8  O   UNL     1       2.998  -8.686   6.751  1.00  0.00    -0.545 OA
ATOM      9  O   UNL     1       2.503  -6.929   8.123  1.00  0.00    -0.545 OA
ENDBRANCH   1   7
BRANCH   6  10
ATOM     10  O   UNL     1       8.992  -7.410   8.684  1.00  0.00    -0.497 OA
ATOM     11  C   UNL     1       9.793  -6.244   8.521  1.00  0.00     0.278 C 
ENDBRANCH   6  10
TORSDOF 2
ENDMDL
MODEL 3
REMARK VINA RESULT:    -4.372      1.896      2.643
REMARK INTER + INTRA:          -4.945
REMARK INTER:                  -4.880
REMARK INTRA:                  -0.065
REMARK UNBOUND:                -0.062
REMARK SMILES COc1ccc(C(=O)[O-])cc1
REMARK SMILES IDX 6 1 5 2 10 3 4 4 11 5 3 6 7 7 8 8 9 9 2 10 1 11
REMARK H PARENT
REMARK Flexibility Score: inf
ROOT
ATOM      1  C   UNL     1       4.777  -7.476   7.826  1.00  0.00    -0.003 A 
ATOM      2  C   UNL     1       5.347  -6.353   8.449  1.00  0.00     0.014 A 
ATOM      3  C   UNL     1       5.596  -8.582   7.537  1.00  0.00     0.014 A 
ATOM      4  C   UNL     1       6.705  -6.338   8.777  1.00  0.00     0.047 A 
ATOM      5  C   UNL     1       6.955  -8.565   7.866  1.00  0.00     0.047 A 
ATOM      6  C   UNL     1       7.520  -7.438   8.490  1.00  0.00     0.118 A 
ENDROOT
BRANCH   1   7
ATOM      7  C   UNL     1       3.339  -7.491   7.480  1.00  0.00     0.071 C 
ATOM      8  O   UNL     1       2.496  -6.915   8.218  1.00  0.00    -0.545 OA
ATOM      9  O   UNL     1       2.897  -8.143   6.334  1.00  0.00    -0.545 OA
ENDBRANCH   1   7
BRANCH   6  10
ATOM     10  O   UNL     1       8.877  -7.372   8.839  1.00  0.00    -0.497 OA
ATOM     11  C   UNL     1       9.656  -6.180   8.813  1.00  0.00     0.278 C 
ENDBRANCH   6  10
TORSDOF 2
ENDMDL
MODEL 4
REMARK VINA RESULT:    -4.341      3.322      5.257
REMARK INTER + INTRA:          -4.911
REMARK INTER:                  -4.853
REMARK INTRA:                  -0.057
REMARK UNBOUND:                -0.062
REMARK SMILES COc1ccc(C(=O)[O-])cc1
REMARK SMILES IDX 6 1 5 2 10 3 4 4 11 5 3 6 7 7 8 8 9 9 2 10 1 11
REMARK H PARENT
REMARK Flexibility Score: inf
ROOT
ATOM      1  C   UNL     1       6.863  -6.634   9.014  1.00  0.00    -0.003 A 
ATOM      2  C   UNL     1       7.910  -7.397   8.471  1.00  0.00     0.014 A 
ATOM      3  C   UNL     1       7.173  -5.466   9.732  1.00  0.00     0.014 A 
ATOM      4  C   UNL     1       9.239  -6.998   8.640  1.00  0.00     0.047 A 
ATOM      5  C   UNL     1       8.504  -5.068   9.901  1.00  0.00     0.047 A 
ATOM      6  C   UNL     1       9.549  -5.835   9.354  1.00  0.00     0.118 A 
ENDROOT
BRANCH   1   7
ATOM      7  C   UNL     1       5.458  -7.057   8.832  1.00  0.00     0.071 C 
ATOM      8  O   UNL     1       5.155  -8.279   8.791  1.00  0.00    -0.545 OA
ATOM      9  O   UNL     1       4.448  -6.109   8.704  1.00  0.00    -0.545 OA
ENDBRANCH   1   7
BRANCH   6  10
ATOM     10  O   UNL     1      10.898  -5.479   9.497  1.00  0.00    -0.497 OA
ATOM     11  C   UNL     1      11.613  -4.655   8.581  1.00  0.00     0.278 C 
ENDBRANCH   6  10
TORSDOF 2
ENDMDL
MODEL 5
REMARK VINA RESULT:    -4.211      0.987      4.976
REMARK INTER + INTRA:          -4.766
REMARK INTER:                  -4.708
REMARK INTRA:                  -0.057
REMARK UNBOUND:                -0.062
REMARK SMILES COc1ccc(C(=O)[O-])cc1
REMARK SMILES IDX 6 1 5 2 10 3 4 4 11 5 3 6 7 7 8 8 9 9 2 10 1 11
REMARK H PARENT
REMARK Flexibility Score: inf
ROOT
ATOM      1  C   UNL     1       5.344  -8.169   7.711  1.00  0.00    -0.003 A 
ATOM      2  C   UNL     1       4.412  -9.216   7.623  1.00  0.00     0.014 A 
ATOM      3  C   UNL     1       4.916  -6.853   7.458  1.00  0.00     0.014 A 
ATOM      4  C   UNL     1       3.080  -8.952   7.291  1.00  0.00     0.047 A 
ATOM      5  C   UNL     1       3.583  -6.592   7.125  1.00  0.00     0.047 A 
ATOM      6  C   UNL     1       2.653  -7.644   7.039  1.00  0.00     0.118 A 
ENDROOT
BRANCH   1   7
ATOM      7  C   UNL     1       6.753  -8.449   8.064  1.00  0.00     0.071 C 
ATOM      8  O   UNL     1       7.464  -9.186   7.330  1.00  0.00    -0.545 OA
ATOM      9  O   UNL     1       7.313  -7.903   9.214  1.00  0.00    -0.545 OA
ENDBRANCH   1   7
BRANCH   6  10
ATOM     10  O   UNL     1       1.307  -7.433   6.709  1.00  0.00    -0.497 OA
ATOM     11  C   UNL     1       0.622  -8.107   5.657  1.00  0.00     0.278 C 
ENDBRANCH   6  10
TORSDOF 2
ENDMDL
MODEL 6
REMARK VINA RESULT:    -4.189      2.343      3.561
REMARK INTER + INTRA:          -4.741
REMARK INTER:                  -4.687
REMARK INTRA:                  -0.054
REMARK UNBOUND:                -0.062
REMARK SMILES COc1ccc(C(=O)[O-])cc1
REMARK SMILES IDX 6 1 5 2 10 3 4 4 11 5 3 6 7 7 8 8 9 9 2 10 1 11
REMARK H PARENT
REMARK Flexibility Score: inf
ROOT
ATOM      1  C   UNL     1       4.897  -6.325   8.030  1.00  0.00    -0.003 A 
ATOM      2  C   UNL     1       5.672  -7.496   8.053  1.00  0.00     0.014 A 
ATOM      3  C   UNL     1       5.455  -5.130   8.517  1.00  0.00     0.014 A 
ATOM      4  C   UNL     1       6.978  -7.472   8.551  1.00  0.00     0.047 A 
ATOM      5  C   UNL     1       6.762  -5.107   9.015  1.00  0.00     0.047 A 
ATOM      6  C   UNL     1       7.534  -6.283   9.035  1.00  0.00     0.118 A 
ENDROOT
BRANCH   1   7
ATOM      7  C   UNL     1       3.516  -6.352   7.502  1.00  0.00     0.071 C 
ATOM      8  O   UNL     1       3.241  -5.816   6.396  1.00  0.00    -0.545 OA
ATOM      9  O   UNL     1       2.498  -6.970   8.222  1.00  0.00    -0.545 OA
ENDBRANCH   1   7
BRANCH   6  10
ATOM     10  O   UNL     1       8.848  -6.313   9.524  1.00  0.00    -0.497 OA
ATOM     11  C   UNL     1       9.246  -5.796  10.790  1.00  0.00     0.278 C 
ENDBRANCH   6  10
TORSDOF 2
ENDMDL
MODEL 7
REMARK VINA RESULT:    -4.181      2.301      3.198
REMARK INTER + INTRA:          -4.732
REMARK INTER:                  -4.668
REMARK INTRA:                  -0.064
REMARK UNBOUND:                -0.062
REMARK SMILES COc1ccc(C(=O)[O-])cc1
REMARK SMILES IDX 6 1 5 2 10 3 4 4 11 5 3 6 7 7 8 8 9 9 2 10 1 11
REMARK H PARENT
REMARK Flexibility Score: inf
ROOT
ATOM      1  C   UNL     1       4.878  -9.204   7.525  1.00  0.00    -0.003 A 
ATOM      2  C   UNL     1       5.819  -9.878   6.729  1.00  0.00     0.014 A 
ATOM      3  C   UNL     1       5.268  -8.033   8.197  1.00  0.00     0.014 A 
ATOM      4  C   UNL     1       7.123  -9.389   6.608  1.00  0.00     0.047 A 
ATOM      5  C   UNL     1       6.574  -7.546   8.075  1.00  0.00     0.047 A 
ATOM      6  C   UNL     1       7.513  -8.224   7.277  1.00  0.00     0.118 A 
ENDROOT
BRANCH   1   7
ATOM      7  C   UNL     1       3.498  -9.722   7.651  1.00  0.00     0.071 C 
ATOM      8  O   UNL     1       3.228 -10.913   7.342  1.00  0.00    -0.545 OA
ATOM      9  O   UNL     1       2.476  -8.898   8.114  1.00  0.00    -0.545 OA
ENDBRANCH   1   7
BRANCH   6  10
ATOM     10  O   UNL     1       8.833  -7.776   7.123  1.00  0.00    -0.497 OA
ATOM     11  C   UNL     1       9.553  -7.043   8.108  1.00  0.00     0.278 C 
ENDBRANCH   6  10
TORSDOF 2
ENDMDL
MODEL 8
REMARK VINA RESULT:    -4.167      3.739      5.044
REMARK INTER + INTRA:          -4.716
REMARK INTER:                  -4.665
REMARK INTRA:                  -0.052
REMARK UNBOUND:                -0.062
REMARK SMILES COc1ccc(C(=O)[O-])cc1
REMARK SMILES IDX 6 1 5 2 10 3 4 4 11 5 3 6 7 7 8 8 9 9 2 10 1 11
REMARK H PARENT
REMARK Flexibility Score: inf
ROOT
ATOM      1  C   UNL     1       4.117  -5.357   7.312  1.00  0.00    -0.003 A 
ATOM      2  C   UNL     1       4.024  -5.210   5.918  1.00  0.00     0.014 A 
ATOM      3  C   UNL     1       4.573  -4.271   8.081  1.00  0.00     0.014 A 
ATOM      4  C   UNL     1       4.378  -4.004   5.307  1.00  0.00     0.047 A 
ATOM      5  C   UNL     1       4.928  -3.065   7.468  1.00  0.00     0.047 A 
ATOM      6  C   UNL     1       4.832  -2.924   6.071  1.00  0.00     0.118 A 
ENDROOT
BRANCH   1   7
ATOM      7  C   UNL     1       3.740  -6.633   7.957  1.00  0.00     0.071 C 
ATOM      8  O   UNL     1       2.529  -6.925   8.144  1.00  0.00    -0.545 OA
ATOM      9  O   UNL     1       4.719  -7.531   8.368  1.00  0.00    -0.545 OA
ENDBRANCH   1   7
BRANCH   6  10
ATOM     10  O   UNL     1       5.176  -1.737   5.409  1.00  0.00    -0.497 OA
ATOM     11  C   UNL     1       6.474  -1.449   4.898  1.00  0.00     0.278 C 
ENDBRANCH   6  10
TORSDOF 2
ENDMDL
MODEL 9
REMARK VINA RESULT:    -4.161      3.755      7.549
REMARK INTER + INTRA:          -4.709
REMARK INTER:                  -4.645
REMARK INTRA:                  -0.064
REMARK UNBOUND:                -0.062
REMARK SMILES COc1ccc(C(=O)[O-])cc1
REMARK SMILES IDX 6 1 5 2 10 3 4 4 11 5 3 6 7 7 8 8 9 9 2 10 1 11
REMARK H PARENT
REMARK Flexibility Score: inf
ROOT
ATOM      1  C   UNL     1      10.004  -5.639   9.054  1.00  0.00    -0.003 A 
ATOM      2  C   UNL     1       9.792  -6.570   8.024  1.00  0.00     0.014 A 
ATOM      3  C   UNL     1       9.013  -5.472  10.037  1.00  0.00     0.014 A 
ATOM      4  C   UNL     1       8.613  -7.320   7.980  1.00  0.00     0.047 A 
ATOM      5  C   UNL     1       7.834  -6.224   9.991  1.00  0.00     0.047 A 
ATOM      6  C   UNL     1       7.626  -7.155   8.958  1.00  0.00     0.118 A 
ENDROOT
BRANCH   1   7
ATOM      7  C   UNL     1      11.253  -4.847   9.101  1.00  0.00     0.071 C 
ATOM      8  O   UNL     1      11.661  -4.231   8.081  1.00  0.00    -0.545 OA
ATOM      9  O   UNL     1      11.996  -4.772  10.274  1.00  0.00    -0.545 OA
ENDBRANCH   1   7
BRANCH   6  10
ATOM     10  O   UNL     1       6.462  -7.931   8.867  1.00  0.00    -0.497 OA
ATOM     11  C   UNL     1       5.995  -8.543   7.668  1.00  0.00     0.278 C 
ENDBRANCH   6  10
TORSDOF 2
ENDMDL
