MODEL 1
REMARK VINA RESULT:    -6.726      0.000      0.000
REMARK INTER + INTRA:          -7.273
REMARK INTER:                  -7.709
REMARK INTRA:                   0.436
REMARK UNBOUND:                 0.436
REMARK SMILES C=C(C)[C@H]1CC[C@]2(C(=O)[O-])CC[C@]3(C)[C@H](CC[C@@H]4[C@@]5(C)CC[C@@H](O)C(C)(C)[C@H]5CC[C@]43C)[C@@H]12
REMARK SMILES IDX 7 1 6 2 33 3 11 4 5 5 15 6 4 7 12 8 16 9 13 10 17 11 31 12
REMARK SMILES IDX 14 13 18 14 30 15 32 16 19 17 29 18 21 19 20 20 28 21 22 22
REMARK SMILES IDX 25 23 23 24 26 25 27 26 8 27 9 28 10 29 2 30 3 31 1 32 24 33
REMARK H PARENT 24 34
REMARK Flexibility Score: inf
ROOT
ATOM      1  C   UNL     1      10.681 -24.804  23.546  1.00  0.00     0.014 C 
ATOM      2  C   UNL     1      10.381 -23.363  24.002  1.00  0.00     0.014 C 
ATOM      3  C   UNL     1      11.158 -24.529  22.102  1.00  0.00     0.012 C 
ATOM      4  C   UNL     1      11.825 -25.484  24.323  1.00  0.00     0.014 C 
ATOM      5  C   UNL     1       9.688 -22.708  22.795  1.00  0.00     0.009 C 
ATOM      6  C   UNL     1      11.562 -25.803  21.316  1.00  0.00     0.000 C 
ATOM      7  C   UNL     1      10.227 -23.426  21.537  1.00  0.00     0.018 C 
ATOM      8  C   UNL     1      12.305 -26.780  23.610  1.00  0.00     0.008 C 
ATOM      9  C   UNL     1      11.973 -25.517  19.856  1.00  0.00     0.005 C 
ATOM     10  C   UNL     1      12.696 -26.610  22.085  1.00  0.00    -0.024 C 
ATOM     11  C   UNL     1      12.303 -26.809  19.094  1.00  0.00     0.005 C 
ATOM     12  C   UNL     1      12.894 -28.032  21.330  1.00  0.00    -0.024 C 
ATOM     13  C   UNL     1      14.049 -25.787  22.093  1.00  0.00     0.012 C 
ATOM     14  C   UNL     1      13.315 -27.748  19.826  1.00  0.00     0.002 C 
ATOM     15  C   UNL     1      13.991 -28.905  22.047  1.00  0.00     0.008 C 
ATOM     16  C   UNL     1      11.574 -28.885  21.339  1.00  0.00     0.012 C 
ATOM     17  C   UNL     1      13.792 -29.010  18.950  1.00  0.00    -0.026 C 
ATOM     18  C   UNL     1      15.082 -29.463  21.123  1.00  0.00     0.005 C 
ATOM     19  C   UNL     1      14.826 -28.469  17.903  1.00  0.00     0.010 C 
ATOM     20  C   UNL     1      12.581 -29.604  18.170  1.00  0.00     0.012 C 
ATOM     21  C   UNL     1      14.467 -30.132  19.863  1.00  0.00     0.003 C 
ATOM     22  C   UNL     1      15.590 -29.547  17.140  1.00  0.00     0.033 C 
ATOM     23  C   UNL     1      15.454 -31.162  19.124  1.00  0.00    -0.006 C 
ATOM     24  C   UNL     1      16.380 -30.443  18.099  1.00  0.00     0.120 C 
ATOM     25  C   UNL     1      16.359 -31.931  20.134  1.00  0.00     0.014 C 
ATOM     26  C   UNL     1      14.650 -32.288  18.398  1.00  0.00     0.014 C 
ENDROOT
BRANCH   1  27
ATOM     27  C   UNL     1       9.413 -25.660  23.700  1.00  0.00     0.048 C 
ATOM     28  O   UNL     1       8.388 -25.181  24.256  1.00  0.00    -0.550 OA
ATOM     29  O   UNL     1       9.391 -27.005  23.359  1.00  0.00    -0.550 OA
ENDBRANCH   1  27
BRANCH   7  30
ATOM     30  C   UNL     1       9.122 -23.843  20.559  1.00  0.00    -0.077 C 
ATOM     31  C   UNL     1       8.632 -25.265  20.440  1.00  0.00     0.039 C 
ATOM     32  C   UNL     1       8.548 -22.909  19.779  1.00  0.00     0.008 C 
ENDBRANCH   7  30
BRANCH  24  33
ATOM     33  O   UNL     1      17.349 -29.674  18.769  1.00  0.00    -0.393 OA
ATOM     34  H   UNL     1      17.422 -28.811  18.284  1.00  0.00     0.210 HD
ENDBRANCH  24  33
TORSDOF 3
ENDMDL
MODEL 2
REMARK VINA RESULT:    -6.674      1.460      7.854
REMARK INTER + INTRA:          -7.213
REMARK INTER:                  -7.160
REMARK INTRA:                  -0.054
REMARK UNBOUND:                 0.436
REMARK SMILES C=C(C)[C@H]1CC[C@]2(C(=O)[O-])CC[C@]3(C)[C@H](CC[C@@H]4[C@@]5(C)CC[C@@H](O)C(C)(C)[C@H]5CC[C@]43C)[C@@H]12
REMARK SMILES IDX 7 1 6 2 33 3 11 4 5 5 15 6 4 7 12 8 16 9 13 10 17 11 31 12
REMARK SMILES IDX 14 13 18 14 30 15 32 16 19 17 29 18 21 19 20 20 28 21 22 22
REMARK SMILES IDX 25 23 23 24 26 25 27 26 8 27 9 28 10 29 2 30 3 31 1 32 24 33
REMARK H PARENT 24 34
REMARK Flexibility Score: inf
ROOT
ATOM      1  C   UNL     1      15.755 -29.155  19.444  1.00  0.00     0.014 C 
ATOM      2  C   UNL     1      16.616 -30.433  19.412  1.00  0.00     0.014 C 
ATOM      3  C   UNL     1      14.434 -29.740  19.993  1.00  0.00     0.012 C 
ATOM      4  C   UNL     1      16.263 -28.079  20.423  1.00  0.00     0.014 C 
ATOM      5  C   UNL     1      15.673 -31.525  18.881  1.00  0.00     0.009 C 
ATOM      6  C   UNL     1      13.302 -28.694  20.164  1.00  0.00     0.000 C 
ATOM      7  C   UNL     1      14.243 -31.113  19.298  1.00  0.00     0.018 C 
ATOM      8  C   UNL     1      15.192 -26.977  20.663  1.00  0.00     0.008 C 
ATOM      9  C   UNL     1      11.971 -29.308  20.651  1.00  0.00     0.005 C 
ATOM     10  C   UNL     1      13.766 -27.504  21.110  1.00  0.00    -0.024 C 
ATOM     11  C   UNL     1      10.859 -28.252  20.746  1.00  0.00     0.005 C 
ATOM     12  C   UNL     1      12.629 -26.349  21.050  1.00  0.00    -0.024 C 
ATOM     13  C   UNL     1      13.961 -28.022  22.593  1.00  0.00     0.012 C 
ATOM     14  C   UNL     1      11.255 -26.970  21.548  1.00  0.00     0.002 C 
ATOM     15  C   UNL     1      13.026 -25.117  21.948  1.00  0.00     0.008 C 
ATOM     16  C   UNL     1      12.440 -25.791  19.593  1.00  0.00     0.012 C 
ATOM     17  C   UNL     1      10.037 -25.948  21.795  1.00  0.00    -0.026 C 
ATOM     18  C   UNL     1      11.942 -24.656  22.933  1.00  0.00     0.005 C 
ATOM     19  C   UNL     1       9.153 -26.565  22.933  1.00  0.00     0.010 C 
ATOM     20  C   UNL     1       9.164 -25.842  20.508  1.00  0.00     0.012 C 
ATOM     21  C   UNL     1      10.565 -24.505  22.227  1.00  0.00     0.003 C 
ATOM     22  C   UNL     1       8.086 -25.631  23.494  1.00  0.00     0.033 C 
ATOM     23  C   UNL     1       9.528 -23.567  23.016  1.00  0.00    -0.006 C 
ATOM     24  C   UNL     1       8.719 -24.365  24.081  1.00  0.00     0.120 C 
ATOM     25  C   UNL     1      10.242 -22.385  23.739  1.00  0.00     0.014 C 
ATOM     26  C   UNL     1       8.539 -22.868  22.028  1.00  0.00     0.014 C 
ENDROOT
BRANCH   1  27
ATOM     27  C   UNL     1      15.703 -28.543  18.034  1.00  0.00     0.048 C 
ATOM     28  O   UNL     1      16.718 -28.580  17.289  1.00  0.00    -0.550 OA
ATOM     29  O   UNL     1      14.601 -27.826  17.587  1.00  0.00    -0.550 OA
ENDBRANCH   1  27
BRANCH   7  30
ATOM     30  C   UNL     1      13.227 -31.209  18.154  1.00  0.00    -0.077 C 
ATOM     31  C   UNL     1      11.764 -31.497  18.382  1.00  0.00     0.039 C 
ATOM     32  C   UNL     1      13.643 -31.017  16.889  1.00  0.00     0.008 C 
ENDBRANCH   7  30
BRANCH  24  33
ATOM     33  O   UNL     1       9.547 -24.713  25.165  1.00  0.00    -0.393 OA
ATOM     34  H   UNL     1      10.465 -24.416  24.936  1.00  0.00     0.210 HD
ENDBRANCH  24  33
TORSDOF 3
ENDMDL
MODEL 3
REMARK VINA RESULT:    -6.434      4.028      6.348
REMARK INTER + INTRA:          -6.939
REMARK INTER:                  -7.018
REMARK INTRA:                   0.079
REMARK UNBOUND:                 0.436
REMARK SMILES C=C(C)[C@H]1CC[C@]2(C(=O)[O-])CC[C@]3(C)[C@H](CC[C@@H]4[C@@]5(C)CC[C@@H](O)C(C)(C)[C@H]5CC[C@]43C)[C@@H]12
REMARK SMILES IDX 7 1 6 2 33 3 11 4 5 5 15 6 4 7 12 8 16 9 13 10 17 11 31 12
REMARK SMILES IDX 14 13 18 14 30 15 32 16 19 17 29 18 21 19 20 20 28 21 22 22
REMARK SMILES IDX 25 23 23 24 26 25 27 26 8 27 9 28 10 29 2 30 3 31 1 32 24 33
REMARK H PARENT 24 34
REMARK Flexibility Score: inf
ROOT
ATOM      1  C   UNL     1       9.452 -24.609  20.547  1.00  0.00     0.014 C 
ATOM      2  C   UNL     1       8.721 -23.383  19.968  1.00  0.00     0.014 C 
ATOM      3  C   UNL     1       8.606 -24.843  21.820  1.00  0.00     0.012 C 
ATOM      4  C   UNL     1       9.369 -25.868  19.661  1.00  0.00     0.014 C 
ATOM      5  C   UNL     1       8.425 -22.492  21.187  1.00  0.00     0.009 C 
ATOM      6  C   UNL     1       9.072 -26.048  22.677  1.00  0.00     0.000 C 
ATOM      7  C   UNL     1       8.295 -23.440  22.401  1.00  0.00     0.018 C 
ATOM      8  C   UNL     1       9.818 -27.139  20.435  1.00  0.00     0.008 C 
ATOM      9  C   UNL     1       8.257 -26.226  23.976  1.00  0.00     0.005 C 
ATOM     10  C   UNL     1       9.084 -27.386  21.818  1.00  0.00    -0.024 C 
ATOM     11  C   UNL     1       8.791 -27.389  24.827  1.00  0.00     0.005 C 
ATOM     12  C   UNL     1       9.800 -28.540  22.705  1.00  0.00    -0.024 C 
ATOM     13  C   UNL     1       7.607 -27.808  21.434  1.00  0.00     0.012 C 
ATOM     14  C   UNL     1       8.970 -28.731  24.044  1.00  0.00     0.002 C 
ATOM     15  C   UNL     1       9.872 -29.899  21.912  1.00  0.00     0.008 C 
ATOM     16  C   UNL     1      11.280 -28.162  23.070  1.00  0.00     0.012 C 
ATOM     17  C   UNL     1       9.358 -29.985  24.973  1.00  0.00    -0.026 C 
ATOM     18  C   UNL     1       9.340 -31.123  22.672  1.00  0.00     0.005 C 
ATOM     19  C   UNL     1       8.048 -30.422  25.715  1.00  0.00     0.010 C 
ATOM     20  C   UNL     1      10.399 -29.548  26.048  1.00  0.00     0.012 C 
ATOM     21  C   UNL     1       9.932 -31.197  24.107  1.00  0.00     0.003 C 
ATOM     22  C   UNL     1       8.142 -31.754  26.453  1.00  0.00     0.033 C 
ATOM     23  C   UNL     1       9.851 -32.657  24.771  1.00  0.00    -0.006 C 
ATOM     24  C   UNL     1       8.489 -32.893  25.488  1.00  0.00     0.120 C 
ATOM     25  C   UNL     1      10.043 -33.789  23.717  1.00  0.00     0.014 C 
ATOM     26  C   UNL     1      11.019 -32.878  25.786  1.00  0.00     0.014 C 
ENDROOT
BRANCH   1  27
ATOM     27  C   UNL     1      10.934 -24.263  20.762  1.00  0.00     0.048 C 
ATOM     28  O   UNL     1      11.402 -23.177  20.324  1.00  0.00    -0.550 OA
ATOM     29  O   UNL     1      11.826 -25.170  21.318  1.00  0.00    -0.550 OA
ENDBRANCH   1  27
BRANCH   7  30
ATOM     30  C   UNL     1       9.093 -22.970  23.623  1.00  0.00    -0.077 C 
ATOM     31  C   UNL     1      10.583 -22.737  23.584  1.00  0.00     0.039 C 
ATOM     32  C   UNL     1       8.447 -22.741  24.780  1.00  0.00     0.008 C 
ENDBRANCH   7  30
BRANCH  24  33
ATOM     33  O   UNL     1       7.456 -33.038  24.544  1.00  0.00    -0.393 OA
ATOM     34  H   UNL     1       6.600 -33.019  25.045  1.00  0.00     0.210 HD
ENDBRANCH  24  33
TORSDOF 3
ENDMDL
MODEL 4
REMARK VINA RESULT:    -6.389      3.902      5.888
REMARK INTER + INTRA:          -6.887
REMARK INTER:                  -6.828
REMARK INTRA:                  -0.059
REMARK UNBOUND:                 0.436
REMARK SMILES C=C(C)[C@H]1CC[C@]2(C(=O)[O-])CC[C@]3(C)[C@H](CC[C@@H]4[C@@]5(C)CC[C@@H](O)C(C)(C)[C@H]5CC[C@]43C)[C@@H]12
REMARK SMILES IDX 7 1 6 2 33 3 11 4 5 5 15 6 4 7 12 8 16 9 13 10 17 11 31 12
REMARK SMILES IDX 14 13 18 14 30 15 32 16 19 17 29 18 21 19 20 20 28 21 22 22
REMARK SMILES IDX 25 23 23 24 26 25 27 26 8 27 9 28 10 29 2 30 3 31 1 32 24 33
REMARK H PARENT 24 34
REMARK Flexibility Score: inf
ROOT
ATOM      1  C   UNL     1       9.929 -24.483  23.980  1.00  0.00     0.014 C 
ATOM      2  C   UNL     1      10.781 -23.201  23.916  1.00  0.00     0.014 C 
ATOM      3  C   UNL     1      10.933 -25.497  23.385  1.00  0.00     0.012 C 
ATOM      4  C   UNL     1       9.566 -24.928  25.410  1.00  0.00     0.014 C 
ATOM      5  C   UNL     1      11.491 -23.271  22.554  1.00  0.00     0.009 C 
ATOM      6  C   UNL     1      10.392 -26.948  23.300  1.00  0.00     0.000 C 
ATOM      7  C   UNL     1      11.645 -24.772  22.215  1.00  0.00     0.018 C 
ATOM      8  C   UNL     1       9.011 -26.380  25.431  1.00  0.00     0.008 C 
ATOM      9  C   UNL     1      11.383 -27.933  22.644  1.00  0.00     0.005 C 
ATOM     10  C   UNL     1       9.926 -27.467  24.729  1.00  0.00    -0.024 C 
ATOM     11  C   UNL     1      10.785 -29.343  22.520  1.00  0.00     0.005 C 
ATOM     12  C   UNL     1       9.163 -28.882  24.520  1.00  0.00    -0.024 C 
ATOM     13  C   UNL     1      11.175 -27.638  25.687  1.00  0.00     0.012 C 
ATOM     14  C   UNL     1      10.174 -29.903  23.844  1.00  0.00     0.002 C 
ATOM     15  C   UNL     1       8.648 -29.456  25.893  1.00  0.00     0.008 C 
ATOM     16  C   UNL     1       7.898 -28.733  23.601  1.00  0.00     0.012 C 
ATOM     17  C   UNL     1       9.711 -31.441  23.755  1.00  0.00    -0.026 C 
ATOM     18  C   UNL     1       9.040 -30.913  26.176  1.00  0.00     0.005 C 
ATOM     19  C   UNL     1      11.014 -32.311  23.815  1.00  0.00     0.010 C 
ATOM     20  C   UNL     1       9.015 -31.707  22.385  1.00  0.00     0.012 C 
ATOM     21  C   UNL     1       8.733 -31.826  24.956  1.00  0.00     0.003 C 
ATOM     22  C   UNL     1      10.778 -33.806  23.999  1.00  0.00     0.033 C 
ATOM     23  C   UNL     1       8.624 -33.386  25.321  1.00  0.00    -0.006 C 
ATOM     24  C   UNL     1      10.015 -34.086  25.299  1.00  0.00     0.120 C 
ATOM     25  C   UNL     1       7.993 -33.614  26.728  1.00  0.00     0.014 C 
ATOM     26  C   UNL     1       7.654 -34.125  24.344  1.00  0.00     0.014 C 
ENDROOT
BRANCH   1  27
ATOM     27  C   UNL     1       8.625 -24.266  23.194  1.00  0.00     0.048 C 
ATOM     28  O   UNL     1       8.040 -23.150  23.233  1.00  0.00    -0.550 OA
ATOM     29  O   UNL     1       7.987 -25.306  22.531  1.00  0.00    -0.550 OA
ENDBRANCH   1  27
BRANCH   7  30
ATOM     30  C   UNL     1      11.218 -25.116  20.784  1.00  0.00    -0.077 C 
ATOM     31  C   UNL     1      11.940 -26.136  19.939  1.00  0.00     0.039 C 
ATOM     32  C   UNL     1      10.147 -24.498  20.252  1.00  0.00     0.008 C 
ENDBRANCH   7  30
BRANCH  24  33
ATOM     33  O   UNL     1      10.790 -33.671  26.397  1.00  0.00    -0.393 OA
ATOM     34  H   UNL     1      11.603 -33.234  26.031  1.00  0.00     0.210 HD
ENDBRANCH  24  33
TORSDOF 3
ENDMDL
MODEL 5
REMARK VINA RESULT:    -6.345      1.143      7.769
REMARK INTER + INTRA:          -6.836
REMARK INTER:                  -6.987
REMARK INTRA:                   0.151
REMARK UNBOUND:                 0.436
REMARK SMILES C=C(C)[C@H]1CC[C@]2(C(=O)[O-])CC[C@]3(C)[C@H](CC[C@@H]4[C@@]5(C)CC[C@@H](O)C(C)(C)[C@H]5CC[C@]43C)[C@@H]12
REMARK SMILES IDX 7 1 6 2 33 3 11 4 5 5 15 6 4 7 12 8 16 9 13 10 17 11 31 12
REMARK SMILES IDX 14 13 18 14 30 15 32 16 19 17 29 18 21 19 20 20 28 21 22 22
REMARK SMILES IDX 25 23 23 24 26 25 27 26 8 27 9 28 10 29 2 30 3 31 1 32 24 33
REMARK H PARENT 24 34
REMARK Flexibility Score: inf
ROOT
ATOM      1  C   UNL     1      14.975 -29.875  20.643  1.00  0.00     0.014 C 
ATOM      2  C   UNL     1      15.246 -31.211  19.925  1.00  0.00     0.014 C 
ATOM      3  C   UNL     1      13.839 -29.323  19.753  1.00  0.00     0.012 C 
ATOM      4  C   UNL     1      14.444 -30.031  22.082  1.00  0.00     0.014 C 
ATOM      5  C   UNL     1      15.184 -30.868  18.427  1.00  0.00     0.009 C 
ATOM      6  C   UNL     1      13.297 -27.941  20.203  1.00  0.00     0.000 C 
ATOM      7  C   UNL     1      14.224 -29.665  18.291  1.00  0.00     0.018 C 
ATOM      8  C   UNL     1      13.875 -28.690  22.626  1.00  0.00     0.008 C 
ATOM      9  C   UNL     1      12.209 -27.376  19.265  1.00  0.00     0.005 C 
ATOM     10  C   UNL     1      12.789 -27.992  21.708  1.00  0.00    -0.024 C 
ATOM     11  C   UNL     1      11.746 -25.980  19.707  1.00  0.00     0.005 C 
ATOM     12  C   UNL     1      12.463 -26.473  22.175  1.00  0.00    -0.024 C 
ATOM     13  C   UNL     1      11.499 -28.903  21.825  1.00  0.00     0.012 C 
ATOM     14  C   UNL     1      11.346 -25.882  21.215  1.00  0.00     0.002 C 
ATOM     15  C   UNL     1      11.972 -26.433  23.670  1.00  0.00     0.008 C 
ATOM     16  C   UNL     1      13.736 -25.555  22.102  1.00  0.00     0.012 C 
ATOM     17  C   UNL     1      10.696 -24.469  21.631  1.00  0.00    -0.026 C 
ATOM     18  C   UNL     1      10.666 -25.662  23.904  1.00  0.00     0.005 C 
ATOM     19  C   UNL     1       9.225 -24.470  21.089  1.00  0.00     0.010 C 
ATOM     20  C   UNL     1      11.466 -23.306  20.937  1.00  0.00     0.012 C 
ATOM     21  C   UNL     1      10.701 -24.270  23.214  1.00  0.00     0.003 C 
ATOM     22  C   UNL     1       8.354 -23.326  21.596  1.00  0.00     0.033 C 
ATOM     23  C   UNL     1       9.641 -23.221  23.809  1.00  0.00    -0.006 C 
ATOM     24  C   UNL     1       8.248 -23.352  23.124  1.00  0.00     0.120 C 
ATOM     25  C   UNL     1       9.440 -23.399  25.345  1.00  0.00     0.014 C 
ATOM     26  C   UNL     1      10.157 -21.754  23.660  1.00  0.00     0.014 C 
ENDROOT
BRANCH   1  27
ATOM     27  C   UNL     1      16.272 -29.051  20.691  1.00  0.00     0.048 C 
ATOM     28  O   UNL     1      17.370 -29.613  20.953  1.00  0.00    -0.550 OA
ATOM     29  O   UNL     1      16.267 -27.668  20.579  1.00  0.00    -0.550 OA
ENDBRANCH   1  27
BRANCH   7  30
ATOM     30  C   UNL     1      14.783 -28.542  17.409  1.00  0.00    -0.077 C 
ATOM     31  C   UNL     1      13.926 -27.421  16.876  1.00  0.00     0.039 C 
ATOM     32  C   UNL     1      16.092 -28.539  17.102  1.00  0.00     0.008 C 
ENDBRANCH   7  30
BRANCH  24  33
ATOM     33  O   UNL     1       7.612 -24.540  23.530  1.00  0.00    -0.393 OA
ATOM     34  H   UNL     1       7.559 -25.128  22.732  1.00  0.00     0.210 HD
ENDBRANCH  24  33
TORSDOF 3
ENDMDL
MODEL 6
REMARK VINA RESULT:    -6.122      2.712      7.822
REMARK INTER + INTRA:          -6.581
REMARK INTER:                  -6.684
REMARK INTRA:                   0.103
REMARK UNBOUND:                 0.436
REMARK SMILES C=C(C)[C@H]1CC[C@]2(C(=O)[O-])CC[C@]3(C)[C@H](CC[C@@H]4[C@@]5(C)CC[C@@H](O)C(C)(C)[C@H]5CC[C@]43C)[C@@H]12
REMARK SMILES IDX 7 1 6 2 33 3 11 4 5 5 15 6 4 7 12 8 16 9 13 10 17 11 31 12
REMARK SMILES IDX 14 13 18 14 30 15 32 16 19 17 29 18 21 19 20 20 28 21 22 22
REMARK SMILES IDX 25 23 23 24 26 25 27 26 8 27 9 28 10 29 2 30 3 31 1 32 24 33
REMARK H PARENT 24 34
REMARK Flexibility Score: inf
ROOT
ATOM      1  C   UNL     1      13.039 -29.325  19.049  1.00  0.00     0.014 C 
ATOM      2  C   UNL     1      13.439 -28.827  17.647  1.00  0.00     0.014 C 
ATOM      3  C   UNL     1      13.046 -27.984  19.817  1.00  0.00     0.012 C 
ATOM      4  C   UNL     1      11.623 -29.929  19.121  1.00  0.00     0.014 C 
ATOM      5  C   UNL     1      14.547 -27.790  17.902  1.00  0.00     0.009 C 
ATOM      6  C   UNL     1      12.669 -28.111  21.316  1.00  0.00     0.000 C 
ATOM      7  C   UNL     1      14.273 -27.190  19.300  1.00  0.00     0.018 C 
ATOM      8  C   UNL     1      11.151 -30.097  20.593  1.00  0.00     0.008 C 
ATOM      9  C   UNL     1      12.745 -26.773  22.081  1.00  0.00     0.005 C 
ATOM     10  C   UNL     1      11.243 -28.793  21.488  1.00  0.00    -0.024 C 
ATOM     11  C   UNL     1      12.428 -26.953  23.574  1.00  0.00     0.005 C 
ATOM     12  C   UNL     1      11.028 -29.103  23.065  1.00  0.00    -0.024 C 
ATOM     13  C   UNL     1      10.105 -27.835  20.944  1.00  0.00     0.012 C 
ATOM     14  C   UNL     1      11.105 -27.733  23.862  1.00  0.00     0.002 C 
ATOM     15  C   UNL     1       9.640 -29.803  23.320  1.00  0.00     0.008 C 
ATOM     16  C   UNL     1      12.124 -30.081  23.623  1.00  0.00     0.012 C 
ATOM     17  C   UNL     1      10.687 -27.765  25.416  1.00  0.00    -0.026 C 
ATOM     18  C   UNL     1       8.777 -29.155  24.411  1.00  0.00     0.005 C 
ATOM     19  C   UNL     1      10.101 -26.351  25.757  1.00  0.00     0.010 C 
ATOM     20  C   UNL     1      11.950 -27.991  26.300  1.00  0.00     0.012 C 
ATOM     21  C   UNL     1       9.600 -28.898  25.704  1.00  0.00     0.003 C 
ATOM     22  C   UNL     1       9.413 -26.253  27.114  1.00  0.00     0.033 C 
ATOM     23  C   UNL     1       8.703 -28.713  27.022  1.00  0.00    -0.006 C 
ATOM     24  C   UNL     1       8.242 -27.237  27.208  1.00  0.00     0.120 C 
ATOM     25  C   UNL     1       7.431 -29.614  26.995  1.00  0.00     0.014 C 
ATOM     26  C   UNL     1       9.474 -29.182  28.298  1.00  0.00     0.014 C 
ENDROOT
BRANCH   1  27
ATOM     27  C   UNL     1      14.045 -30.389  19.516  1.00  0.00     0.048 C 
ATOM     28  O   UNL     1      14.363 -31.340  18.752  1.00  0.00    -0.550 OA
ATOM     29  O   UNL     1      14.532 -30.417  20.816  1.00  0.00    -0.550 OA
ENDBRANCH   1  27
BRANCH   7  30
ATOM     30  C   UNL     1      15.522 -27.131  20.188  1.00  0.00    -0.077 C 
ATOM     31  C   UNL     1      15.602 -26.274  21.427  1.00  0.00     0.039 C 
ATOM     32  C   UNL     1      16.592 -27.879  19.866  1.00  0.00     0.008 C 
ENDBRANCH   7  30
BRANCH  24  33
ATOM     33  O   UNL     1       7.269 -26.902  26.249  1.00  0.00    -0.393 OA
ATOM     34  H   UNL     1       6.647 -27.673  26.185  1.00  0.00     0.210 HD
ENDBRANCH  24  33
TORSDOF 3
ENDMDL
MODEL 7
REMARK VINA RESULT:    -6.113      2.830      4.740
REMARK INTER + INTRA:          -6.571
REMARK INTER:                  -6.499
REMARK INTRA:                  -0.072
REMARK UNBOUND:                 0.436
REMARK SMILES C=C(C)[C@H]1CC[C@]2(C(=O)[O-])CC[C@]3(C)[C@H](CC[C@@H]4[C@@]5(C)CC[C@@H](O)C(C)(C)[C@H]5CC[C@]43C)[C@@H]12
REMARK SMILES IDX 7 1 6 2 33 3 11 4 5 5 15 6 4 7 12 8 16 9 13 10 17 11 31 12
REMARK SMILES IDX 14 13 18 14 30 15 32 16 19 17 29 18 21 19 20 20 28 21 22 22
REMARK SMILES IDX 25 23 23 24 26 25 27 26 8 27 9 28 10 29 2 30 3 31 1 32 24 33
REMARK H PARENT 24 34
REMARK Flexibility Score: inf
ROOT
ATOM      1  C   UNL     1       9.166 -27.028  25.520  1.00  0.00     0.014 C 
ATOM      2  C   UNL     1       7.736 -27.123  26.085  1.00  0.00     0.014 C 
ATOM      3  C   UNL     1       9.247 -28.381  24.778  1.00  0.00     0.012 C 
ATOM      4  C   UNL     1       9.365 -25.892  24.498  1.00  0.00     0.014 C 
ATOM      5  C   UNL     1       7.604 -28.576  26.573  1.00  0.00     0.009 C 
ATOM      6  C   UNL     1      10.599 -28.630  24.061  1.00  0.00     0.000 C 
ATOM      7  C   UNL     1       8.550 -29.423  25.691  1.00  0.00     0.018 C 
ATOM      8  C   UNL     1      10.702 -26.053  23.722  1.00  0.00     0.008 C 
ATOM      9  C   UNL     1      10.685 -30.013  23.381  1.00  0.00     0.005 C 
ATOM     10  C   UNL     1      10.921 -27.462  23.032  1.00  0.00    -0.024 C 
ATOM     11  C   UNL     1      12.062 -30.246  22.738  1.00  0.00     0.005 C 
ATOM     12  C   UNL     1      12.440 -27.668  22.504  1.00  0.00    -0.024 C 
ATOM     13  C   UNL     1       9.898 -27.495  21.823  1.00  0.00     0.012 C 
ATOM     14  C   UNL     1      12.540 -29.089  21.803  1.00  0.00     0.002 C 
ATOM     15  C   UNL     1      12.846 -26.532  21.491  1.00  0.00     0.008 C 
ATOM     16  C   UNL     1      13.480 -27.604  23.680  1.00  0.00     0.012 C 
ATOM     17  C   UNL     1      13.895 -29.414  20.998  1.00  0.00    -0.026 C 
ATOM     18  C   UNL     1      13.441 -27.027  20.166  1.00  0.00     0.005 C 
ATOM     19  C   UNL     1      13.506 -30.390  19.834  1.00  0.00     0.010 C 
ATOM     20  C   UNL     1      14.904 -30.150  21.930  1.00  0.00     0.012 C 
ATOM     21  C   UNL     1      14.554 -28.086  20.406  1.00  0.00     0.003 C 
ATOM     22  C   UNL     1      14.601 -30.622  18.798  1.00  0.00     0.033 C 
ATOM     23  C   UNL     1      15.556 -28.272  19.165  1.00  0.00    -0.006 C 
ATOM     24  C   UNL     1      15.014 -29.304  18.133  1.00  0.00     0.120 C 
ATOM     25  C   UNL     1      15.813 -26.930  18.415  1.00  0.00     0.014 C 
ATOM     26  C   UNL     1      16.974 -28.716  19.650  1.00  0.00     0.014 C 
ENDROOT
BRANCH   1  27
ATOM     27  C   UNL     1      10.156 -26.819  26.678  1.00  0.00     0.048 C 
ATOM     28  O   UNL     1       9.837 -26.101  27.663  1.00  0.00    -0.550 OA
ATOM     29  O   UNL     1      11.459 -27.295  26.623  1.00  0.00    -0.550 OA
ENDBRANCH   1  27
BRANCH   7  30
ATOM     30  C   UNL     1       9.432 -30.382  26.498  1.00  0.00    -0.077 C 
ATOM     31  C   UNL     1       9.844 -31.740  25.985  1.00  0.00     0.039 C 
ATOM     32  C   UNL     1       9.874 -30.003  27.711  1.00  0.00     0.008 C 
ENDBRANCH   7  30
BRANCH  24  33
ATOM     33  O   UNL     1      13.917 -28.768  17.433  1.00  0.00    -0.393 OA
ATOM     34  H   UNL     1      13.282 -28.419  18.111  1.00  0.00     0.210 HD
ENDBRANCH  24  33
TORSDOF 3
ENDMDL
MODEL 8
REMARK VINA RESULT:    -6.096      2.866      7.458
REMARK INTER + INTRA:          -6.551
REMARK INTER:                  -6.528
REMARK INTRA:                  -0.023
REMARK UNBOUND:                 0.436
REMARK SMILES C=C(C)[C@H]1CC[C@]2(C(=O)[O-])CC[C@]3(C)[C@H](CC[C@@H]4[C@@]5(C)CC[C@@H](O)C(C)(C)[C@H]5CC[C@]43C)[C@@H]12
REMARK SMILES IDX 7 1 6 2 33 3 11 4 5 5 15 6 4 7 12 8 16 9 13 10 17 11 31 12
REMARK SMILES IDX 14 13 18 14 30 15 32 16 19 17 29 18 21 19 20 20 28 21 22 22
REMARK SMILES IDX 25 23 23 24 26 25 27 26 8 27 9 28 10 29 2 30 3 31 1 32 24 33
REMARK H PARENT 24 34
REMARK Flexibility Score: inf
ROOT
ATOM      1  C   UNL     1      14.579 -27.724  19.433  1.00  0.00     0.014 C 
ATOM      2  C   UNL     1      15.673 -28.290  18.508  1.00  0.00     0.014 C 
ATOM      3  C   UNL     1      13.905 -29.041  19.881  1.00  0.00     0.012 C 
ATOM      4  C   UNL     1      15.122 -26.998  20.679  1.00  0.00     0.014 C 
ATOM      5  C   UNL     1      14.976 -29.412  17.719  1.00  0.00     0.009 C 
ATOM      6  C   UNL     1      12.719 -28.844  20.860  1.00  0.00     0.000 C 
ATOM      7  C   UNL     1      13.847 -29.951  18.627  1.00  0.00     0.018 C 
ATOM      8  C   UNL     1      14.001 -26.754  21.729  1.00  0.00     0.008 C 
ATOM      9  C   UNL     1      12.018 -30.165  21.245  1.00  0.00     0.005 C 
ATOM     10  C   UNL     1      13.175 -28.038  22.152  1.00  0.00    -0.024 C 
ATOM     11  C   UNL     1      10.810 -29.921  22.163  1.00  0.00     0.005 C 
ATOM     12  C   UNL     1      11.846 -27.670  23.005  1.00  0.00    -0.024 C 
ATOM     13  C   UNL     1      14.176 -28.906  23.019  1.00  0.00     0.012 C 
ATOM     14  C   UNL     1      11.116 -29.022  23.405  1.00  0.00     0.002 C 
ATOM     15  C   UNL     1      12.212 -26.847  24.296  1.00  0.00     0.008 C 
ATOM     16  C   UNL     1      10.851 -26.778  22.178  1.00  0.00     0.012 C 
ATOM     17  C   UNL     1       9.900 -28.914  24.452  1.00  0.00    -0.026 C 
ATOM     18  C   UNL     1      11.617 -27.390  25.602  1.00  0.00     0.005 C 
ATOM     19  C   UNL     1       9.871 -30.263  25.252  1.00  0.00     0.010 C 
ATOM     20  C   UNL     1       8.550 -28.777  23.687  1.00  0.00     0.012 C 
ATOM     21  C   UNL     1      10.098 -27.685  25.451  1.00  0.00     0.003 C 
ATOM     22  C   UNL     1       8.951 -30.268  26.468  1.00  0.00     0.033 C 
ATOM     23  C   UNL     1       9.306 -27.758  26.846  1.00  0.00    -0.006 C 
ATOM     24  C   UNL     1       9.362 -29.184  27.471  1.00  0.00     0.120 C 
ATOM     25  C   UNL     1       9.872 -26.751  27.893  1.00  0.00     0.014 C 
ATOM     26  C   UNL     1       7.815 -27.326  26.669  1.00  0.00     0.014 C 
ENDROOT
BRANCH   1  27
ATOM     27  C   UNL     1      13.703 -26.739  18.641  1.00  0.00     0.048 C 
ATOM     28  O   UNL     1      14.124 -26.245  17.560  1.00  0.00    -0.550 OA
ATOM     29  O   UNL     1      12.497 -26.267  19.139  1.00  0.00    -0.550 OA
ENDBRANCH   1  27
BRANCH   7  30
ATOM     30  C   UNL     1      12.504 -30.096  17.901  1.00  0.00    -0.077 C 
ATOM     31  C   UNL     1      11.908 -28.995  17.060  1.00  0.00     0.039 C 
ATOM     32  C   UNL     1      11.826 -31.253  18.000  1.00  0.00     0.008 C 
ENDBRANCH   7  30
BRANCH  24  33
ATOM     33  O   UNL     1      10.655 -29.457  27.954  1.00  0.00    -0.393 OA
ATOM     34  H   UNL     1      11.071 -30.100  27.323  1.00  0.00     0.210 HD
ENDBRANCH  24  33
TORSDOF 3
ENDMDL
MODEL 9
REMARK VINA RESULT:    -6.034      1.714      3.321
REMARK INTER + INTRA:          -6.480
REMARK INTER:                  -6.586
REMARK INTRA:                   0.106
REMARK UNBOUND:                 0.436
REMARK SMILES C=C(C)[C@H]1CC[C@]2(C(=O)[O-])CC[C@]3(C)[C@H](CC[C@@H]4[C@@]5(C)CC[C@@H](O)C(C)(C)[C@H]5CC[C@]43C)[C@@H]12
REMARK SMILES IDX 7 1 6 2 33 3 11 4 5 5 15 6 4 7 12 8 16 9 13 10 17 11 31 12
REMARK SMILES IDX 14 13 18 14 30 15 32 16 19 17 29 18 21 19 20 20 28 21 22 22
REMARK SMILES IDX 25 23 23 24 26 25 27 26 8 27 9 28 10 29 2 30 3 31 1 32 24 33
REMARK H PARENT 24 34
REMARK Flexibility Score: inf
ROOT
ATOM      1  C   UNL     1       9.116 -25.945  21.721  1.00  0.00     0.014 C 
ATOM      2  C   UNL     1       8.127 -25.598  22.850  1.00  0.00     0.014 C 
ATOM      3  C   UNL     1      10.356 -26.320  22.563  1.00  0.00     0.012 C 
ATOM      4  C   UNL     1       8.703 -27.168  20.878  1.00  0.00     0.014 C 
ATOM      5  C   UNL     1       8.961 -24.801  23.868  1.00  0.00     0.009 C 
ATOM      6  C   UNL     1      11.588 -26.743  21.721  1.00  0.00     0.000 C 
ATOM      7  C   UNL     1      10.417 -25.299  23.729  1.00  0.00     0.018 C 
ATOM      8  C   UNL     1       9.879 -27.672  19.994  1.00  0.00     0.008 C 
ATOM      9  C   UNL     1      12.837 -27.049  22.576  1.00  0.00     0.005 C 
ATOM     10  C   UNL     1      11.232 -27.962  20.765  1.00  0.00    -0.024 C 
ATOM     11  C   UNL     1      14.051 -27.401  21.703  1.00  0.00     0.005 C 
ATOM     12  C   UNL     1      12.485 -28.188  19.760  1.00  0.00    -0.024 C 
ATOM     13  C   UNL     1      10.953 -29.267  21.616  1.00  0.00     0.012 C 
ATOM     14  C   UNL     1      13.775 -28.503  20.630  1.00  0.00     0.002 C 
ATOM     15  C   UNL     1      12.201 -29.371  18.760  1.00  0.00     0.008 C 
ATOM     16  C   UNL     1      12.762 -26.918  18.877  1.00  0.00     0.012 C 
ATOM     17  C   UNL     1      15.088 -28.992  19.839  1.00  0.00    -0.026 C 
ATOM     18  C   UNL     1      13.307 -30.432  18.680  1.00  0.00     0.005 C 
ATOM     19  C   UNL     1      15.880 -29.932  20.814  1.00  0.00     0.010 C 
ATOM     20  C   UNL     1      15.994 -27.769  19.505  1.00  0.00     0.012 C 
ATOM     21  C   UNL     1      14.706 -29.779  18.504  1.00  0.00     0.003 C 
ATOM     22  C   UNL     1      17.027 -30.703  20.170  1.00  0.00     0.033 C 
ATOM     23  C   UNL     1      15.820 -30.772  17.911  1.00  0.00    -0.006 C 
ATOM     24  C   UNL     1      16.518 -31.596  19.033  1.00  0.00     0.120 C 
ATOM     25  C   UNL     1      15.219 -31.775  16.880  1.00  0.00     0.014 C 
ATOM     26  C   UNL     1      16.896 -29.986  17.095  1.00  0.00     0.014 C 
ENDROOT
BRANCH   1  27
ATOM     27  C   UNL     1       9.261 -24.736  20.783  1.00  0.00     0.048 C 
ATOM     28  O   UNL     1       8.236 -24.163  20.324  1.00  0.00    -0.550 OA
ATOM     29  O   UNL     1      10.498 -24.319  20.311  1.00  0.00    -0.550 OA
ENDBRANCH   1  27
BRANCH   7  30
ATOM     30  C   UNL     1      11.440 -24.161  23.641  1.00  0.00    -0.077 C 
ATOM     31  C   UNL     1      12.917 -24.372  23.868  1.00  0.00     0.039 C 
ATOM     32  C   UNL     1      11.018 -22.921  23.338  1.00  0.00     0.008 C 
ENDBRANCH   7  30
BRANCH  24  33
ATOM     33  O   UNL     1      15.637 -32.562  19.553  1.00  0.00    -0.393 OA
ATOM     34  H   UNL     1      14.764 -32.112  19.695  1.00  0.00     0.210 HD
ENDBRANCH  24  33
TORSDOF 3
ENDMDL
