MODEL 1
REMARK VINA RESULT:    -4.305      0.000      0.000
REMARK INTER + INTRA:          -4.305
REMARK INTER:                  -4.305
REMARK INTRA:                   0.000
REMARK UNBOUND:                 0.000
REMARK SMILES C=C1CC[C@@H]2C[C@H]1C2(C)C
REMARK SMILES IDX 9 1 8 2 5 3 4 4 3 5 2 6 1 7 7 8 6 9 10 10
REMARK H PARENT
REMARK Flexibility Score: inf
ROOT
ATOM      1  C   UNL     1      54.081  27.979  28.004  1.00  0.00     0.012 C 
ATOM      2  C   UNL     1      54.929  28.307  26.749  1.00  0.00    -0.026 C 
ATOM      3  C   UNL     1      55.428  29.774  26.755  1.00  0.00    -0.004 C 
ATOM      4  C   UNL     1      55.919  30.206  25.336  1.00  0.00     0.008 C 
ATOM      5  C   UNL     1      56.953  29.188  24.718  1.00  0.00     0.031 C 
ATOM      6  C   UNL     1      57.111  27.924  25.577  1.00  0.00    -0.074 C 
ATOM      7  C   UNL     1      57.835  26.882  25.153  1.00  0.00     0.008 C 
ATOM      8  C   UNL     1      56.413  27.913  26.933  1.00  0.00     0.021 C 
ATOM      9  C   UNL     1      56.674  29.307  27.526  1.00  0.00     0.012 C 
ATOM     10  C   UNL     1      54.175  27.781  25.496  1.00  0.00     0.012 C 
ENDROOT
TORSDOF 0
ENDMDL
MODEL 2
REMARK VINA RESULT:    -4.259     21.681     22.732
REMARK INTER + INTRA:          -4.259
REMARK INTER:                  -4.259
REMARK INTRA:                   0.000
REMARK UNBOUND:                 0.000
REMARK SMILES C=C1CC[C@@H]2C[C@H]1C2(C)C
REMARK SMILES IDX 9 1 8 2 5 3 4 4 3 5 2 6 1 7 7 8 6 9 10 10
REMARK H PARENT
REMARK Flexibility Score: inf
ROOT
ATOM      1  C   UNL     1      54.906  43.007  42.611  1.00  0.00     0.012 C 
ATOM      2  C   UNL     1      56.125  43.964  42.634  1.00  0.00    -0.026 C 
ATOM      3  C   UNL     1      56.973  43.790  43.919  1.00  0.00    -0.004 C 
ATOM      4  C   UNL     1      57.935  45.004  44.125  1.00  0.00     0.008 C 
ATOM      5  C   UNL     1      58.791  45.322  42.840  1.00  0.00     0.031 C 
ATOM      6  C   UNL     1      58.363  44.477  41.630  1.00  0.00    -0.074 C 
ATOM      7  C   UNL     1      58.873  44.697  40.414  1.00  0.00     0.008 C 
ATOM      8  C   UNL     1      57.339  43.375  41.880  1.00  0.00     0.021 C 
ATOM      9  C   UNL     1      57.785  42.706  43.191  1.00  0.00     0.012 C 
ATOM     10  C   UNL     1      55.637  45.388  42.250  1.00  0.00     0.012 C 
ENDROOT
TORSDOF 0
ENDMDL
MODEL 3
REMARK VINA RESULT:    -4.203     20.894     22.571
REMARK INTER + INTRA:          -4.203
REMARK INTER:                  -4.203
REMARK INTRA:                   0.000
REMARK UNBOUND:                 0.000
REMARK SMILES C=C1CC[C@@H]2C[C@H]1C2(C)C
REMARK SMILES IDX 9 1 8 2 5 3 4 4 3 5 2 6 1 7 7 8 6 9 10 10
REMARK H PARENT
REMARK Flexibility Score: inf
ROOT
ATOM      1  C   UNL     1      59.489  44.866  40.007  1.00  0.00     0.012 C 
ATOM      2  C   UNL     1      58.886  44.148  41.241  1.00  0.00    -0.026 C 
ATOM      3  C   UNL     1      59.239  44.875  42.563  1.00  0.00    -0.004 C 
ATOM      4  C   UNL     1      58.986  43.950  43.797  1.00  0.00     0.008 C 
ATOM      5  C   UNL     1      57.544  43.314  43.790  1.00  0.00     0.031 C 
ATOM      6  C   UNL     1      56.780  43.613  42.490  1.00  0.00    -0.074 C 
ATOM      7  C   UNL     1      55.597  43.046  42.234  1.00  0.00     0.008 C 
ATOM      8  C   UNL     1      57.429  44.587  41.512  1.00  0.00     0.021 C 
ATOM      9  C   UNL     1      57.972  45.728  42.388  1.00  0.00     0.012 C 
ATOM     10  C   UNL     1      59.190  42.629  41.121  1.00  0.00     0.012 C 
ENDROOT
TORSDOF 0
ENDMDL
MODEL 4
REMARK VINA RESULT:    -4.036      1.070      2.691
REMARK INTER + INTRA:          -4.036
REMARK INTER:                  -4.036
REMARK INTRA:                   0.000
REMARK UNBOUND:                 0.000
REMARK SMILES C=C1CC[C@@H]2C[C@H]1C2(C)C
REMARK SMILES IDX 9 1 8 2 5 3 4 4 3 5 2 6 1 7 7 8 6 9 10 10
REMARK H PARENT
REMARK Flexibility Score: inf
ROOT
ATOM      1  C   UNL     1      57.687  26.880  26.236  1.00  0.00     0.012 C 
ATOM      2  C   UNL     1      56.449  27.769  25.955  1.00  0.00    -0.026 C 
ATOM      3  C   UNL     1      55.782  28.264  27.264  1.00  0.00    -0.004 C 
ATOM      4  C   UNL     1      54.341  28.801  26.991  1.00  0.00     0.008 C 
ATOM      5  C   UNL     1      54.300  29.857  25.821  1.00  0.00     0.031 C 
ATOM      6  C   UNL     1      55.654  29.989  25.107  1.00  0.00    -0.074 C 
ATOM      7  C   UNL     1      55.787  30.729  24.001  1.00  0.00     0.008 C 
ATOM      8  C   UNL     1      56.838  29.246  25.718  1.00  0.00     0.021 C 
ATOM      9  C   UNL     1      56.718  29.485  27.232  1.00  0.00     0.012 C 
ATOM     10  C   UNL     1      55.566  27.057  24.892  1.00  0.00     0.012 C 
ENDROOT
TORSDOF 0
ENDMDL
MODEL 5
REMARK VINA RESULT:    -3.981     21.706     22.909
REMARK INTER + INTRA:          -3.981
REMARK INTER:                  -3.981
REMARK INTRA:                   0.000
REMARK UNBOUND:                 0.000
REMARK SMILES C=C1CC[C@@H]2C[C@H]1C2(C)C
REMARK SMILES IDX 9 1 8 2 5 3 4 4 3 5 2 6 1 7 7 8 6 9 10 10
REMARK H PARENT
REMARK Flexibility Score: inf
ROOT
ATOM      1  C   UNL     1      59.655  43.010  42.059  1.00  0.00     0.012 C 
ATOM      2  C   UNL     1      58.380  43.488  42.800  1.00  0.00    -0.026 C 
ATOM      3  C   UNL     1      58.291  45.034  42.859  1.00  0.00    -0.004 C 
ATOM      4  C   UNL     1      57.251  45.495  43.930  1.00  0.00     0.008 C 
ATOM      5  C   UNL     1      55.853  44.786  43.760  1.00  0.00     0.031 C 
ATOM      6  C   UNL     1      55.884  43.684  42.690  1.00  0.00    -0.074 C 
ATOM      7  C   UNL     1      54.837  42.874  42.496  1.00  0.00     0.008 C 
ATOM      8  C   UNL     1      57.156  43.559  41.858  1.00  0.00     0.021 C 
ATOM      9  C   UNL     1      57.549  45.005  41.512  1.00  0.00     0.012 C 
ATOM     10  C   UNL     1      58.250  42.682  44.121  1.00  0.00     0.012 C 
ENDROOT
TORSDOF 0
ENDMDL
MODEL 6
REMARK VINA RESULT:    -3.948      1.132      2.861
REMARK INTER + INTRA:          -3.948
REMARK INTER:                  -3.948
REMARK INTRA:                   0.000
REMARK UNBOUND:                 0.000
REMARK SMILES C=C1CC[C@@H]2C[C@H]1C2(C)C
REMARK SMILES IDX 9 1 8 2 5 3 4 4 3 5 2 6 1 7 7 8 6 9 10 10
REMARK H PARENT
REMARK Flexibility Score: inf
ROOT
ATOM      1  C   UNL     1      56.516  29.735  27.577  1.00  0.00     0.012 C 
ATOM      2  C   UNL     1      56.513  28.920  26.259  1.00  0.00    -0.026 C 
ATOM      3  C   UNL     1      57.329  27.609  26.388  1.00  0.00    -0.004 C 
ATOM      4  C   UNL     1      57.658  27.012  24.983  1.00  0.00     0.008 C 
ATOM      5  C   UNL     1      56.380  26.875  24.069  1.00  0.00     0.031 C 
ATOM      6  C   UNL     1      55.137  27.515  24.706  1.00  0.00    -0.074 C 
ATOM      7  C   UNL     1      53.989  27.626  24.029  1.00  0.00     0.008 C 
ATOM      8  C   UNL     1      55.269  28.011  26.142  1.00  0.00     0.021 C 
ATOM      9  C   UNL     1      56.050  26.906  26.874  1.00  0.00     0.012 C 
ATOM     10  C   UNL     1      56.836  29.886  25.085  1.00  0.00     0.012 C 
ENDROOT
TORSDOF 0
ENDMDL
MODEL 7
REMARK VINA RESULT:    -3.919     21.950     23.592
REMARK INTER + INTRA:          -3.919
REMARK INTER:                  -3.919
REMARK INTRA:                   0.000
REMARK UNBOUND:                 0.000
REMARK SMILES C=C1CC[C@@H]2C[C@H]1C2(C)C
REMARK SMILES IDX 9 1 8 2 5 3 4 4 3 5 2 6 1 7 7 8 6 9 10 10
REMARK H PARENT
REMARK Flexibility Score: inf
ROOT
ATOM      1  C   UNL     1      59.256  45.009  43.168  1.00  0.00     0.012 C 
ATOM      2  C   UNL     1      57.757  44.943  42.778  1.00  0.00    -0.026 C 
ATOM      3  C   UNL     1      57.263  43.482  42.626  1.00  0.00    -0.004 C 
ATOM      4  C   UNL     1      55.905  43.426  41.855  1.00  0.00     0.008 C 
ATOM      5  C   UNL     1      54.824  44.400  42.463  1.00  0.00     0.031 C 
ATOM      6  C   UNL     1      55.404  45.301  43.564  1.00  0.00    -0.074 C 
ATOM      7  C   UNL     1      54.683  46.289  44.105  1.00  0.00     0.008 C 
ATOM      8  C   UNL     1      56.833  45.015  44.015  1.00  0.00     0.021 C 
ATOM      9  C   UNL     1      56.916  43.484  44.124  1.00  0.00     0.012 C 
ATOM     10  C   UNL     1      57.510  45.939  41.612  1.00  0.00     0.012 C 
ENDROOT
TORSDOF 0
ENDMDL
MODEL 8
REMARK VINA RESULT:    -3.868      1.121      2.902
REMARK INTER + INTRA:          -3.868
REMARK INTER:                  -3.868
REMARK INTRA:                   0.000
REMARK UNBOUND:                 0.000
REMARK SMILES C=C1CC[C@@H]2C[C@H]1C2(C)C
REMARK SMILES IDX 9 1 8 2 5 3 4 4 3 5 2 6 1 7 7 8 6 9 10 10
REMARK H PARENT
REMARK Flexibility Score: inf
ROOT
ATOM      1  C   UNL     1      53.984  29.363  23.928  1.00  0.00     0.012 C 
ATOM      2  C   UNL     1      54.990  28.687  24.895  1.00  0.00    -0.026 C 
ATOM      3  C   UNL     1      56.184  28.053  24.137  1.00  0.00    -0.004 C 
ATOM      4  C   UNL     1      56.957  27.048  25.049  1.00  0.00     0.008 C 
ATOM      5  C   UNL     1      57.352  27.675  26.440  1.00  0.00     0.031 C 
ATOM      6  C   UNL     1      56.741  29.069  26.647  1.00  0.00    -0.074 C 
ATOM      7  C   UNL     1      56.843  29.706  27.818  1.00  0.00     0.008 C 
ATOM      8  C   UNL     1      56.019  29.694  25.457  1.00  0.00     0.021 C 
ATOM      9  C   UNL     1      56.919  29.399  24.246  1.00  0.00     0.012 C 
ATOM     10  C   UNL     1      54.192  27.809  25.897  1.00  0.00     0.012 C 
ENDROOT
TORSDOF 0
ENDMDL
MODEL 9
REMARK VINA RESULT:    -3.817      1.169      3.177
REMARK INTER + INTRA:          -3.817
REMARK INTER:                  -3.817
REMARK INTRA:                   0.000
REMARK UNBOUND:                 0.000
REMARK SMILES C=C1CC[C@@H]2C[C@H]1C2(C)C
REMARK SMILES IDX 9 1 8 2 5 3 4 4 3 5 2 6 1 7 7 8 6 9 10 10
REMARK H PARENT
REMARK Flexibility Score: inf
ROOT
ATOM      1  C   UNL     1      57.618  26.875  26.127  1.00  0.00     0.012 C 
ATOM      2  C   UNL     1      56.719  28.129  25.976  1.00  0.00    -0.026 C 
ATOM      3  C   UNL     1      56.891  28.800  24.590  1.00  0.00    -0.004 C 
ATOM      4  C   UNL     1      56.312  30.251  24.594  1.00  0.00     0.008 C 
ATOM      5  C   UNL     1      54.837  30.312  25.148  1.00  0.00     0.031 C 
ATOM      6  C   UNL     1      54.370  28.962  25.713  1.00  0.00    -0.074 C 
ATOM      7  C   UNL     1      53.203  28.844  26.355  1.00  0.00     0.008 C 
ATOM      8  C   UNL     1      55.292  27.765  25.505  1.00  0.00     0.021 C 
ATOM      9  C   UNL     1      55.778  27.886  24.051  1.00  0.00     0.012 C 
ATOM     10  C   UNL     1      56.876  29.001  27.252  1.00  0.00     0.012 C 
ENDROOT
TORSDOF 0
ENDMDL
