MODEL 1
REMARK VINA RESULT:    -2.490      0.000      0.000
REMARK INTER + INTRA:          -3.070
REMARK INTER:                  -2.635
REMARK INTRA:                  -0.435
REMARK UNBOUND:                -0.435
REMARK SMILES CC1=CC[C@@H]2[C@H]3[C@H](C(C)C)CC[C@]2(C)[C@@H]13
REMARK SMILES IDX 1 1 2 2 3 3 4 4 5 5 6 6 15 7 13 8 12 9 11 10 7 11 14 12 8 13
REMARK SMILES IDX 9 14 10 15
REMARK H PARENT
REMARK Flexibility Score: inf
ROOT
ATOM      1  C   UNL     1     166.026 170.848 139.243  1.00  0.00     0.039 C 
ATOM      2  C   UNL     1     167.061 171.877 139.586  1.00  0.00    -0.073 C 
ATOM      3  C   UNL     1     168.164 171.553 140.309  1.00  0.00    -0.027 C 
ATOM      4  C   UNL     1     169.200 172.644 140.609  1.00  0.00     0.031 C 
ATOM      5  C   UNL     1     168.735 174.014 140.016  1.00  0.00     0.003 C 
ATOM      6  C   UNL     1     167.247 174.204 140.393  1.00  0.00     0.004 C 
ATOM      7  C   UNL     1     166.916 173.339 139.153  1.00  0.00     0.024 C 
ATOM      8  C   UNL     1     168.249 173.859 138.556  1.00  0.00    -0.022 C 
ATOM      9  C   UNL     1     168.069 175.277 137.941  1.00  0.00     0.008 C 
ATOM     10  C   UNL     1     167.018 176.122 138.703  1.00  0.00     0.005 C 
ATOM     11  C   UNL     1     166.829 175.697 140.198  1.00  0.00    -0.005 C 
ATOM     12  C   UNL     1     169.047 172.941 137.599  1.00  0.00     0.012 C 
ENDROOT
BRANCH  11  13
ATOM     13  C   UNL     1     165.374 175.985 140.691  1.00  0.00    -0.014 C 
ATOM     14  C   UNL     1     164.908 174.923 141.704  1.00  0.00     0.007 C 
ATOM     15  C   UNL     1     164.361 176.037 139.531  1.00  0.00     0.007 C 
ENDBRANCH  11  13
TORSDOF 1
ENDMDL
MODEL 2
REMARK VINA RESULT:    -2.488      1.738      3.527
REMARK INTER + INTRA:          -3.068
REMARK INTER:                  -2.643
REMARK INTRA:                  -0.425
REMARK UNBOUND:                -0.435
REMARK SMILES CC1=CC[C@@H]2[C@H]3[C@H](C(C)C)CC[C@]2(C)[C@@H]13
REMARK SMILES IDX 1 1 2 2 3 3 4 4 5 5 6 6 15 7 13 8 12 9 11 10 7 11 14 12 8 13
REMARK SMILES IDX 9 14 10 15
REMARK H PARENT
REMARK Flexibility Score: inf
ROOT
ATOM      1  C   UNL     1     171.143 172.000 140.755  1.00  0.00     0.039 C 
ATOM      2  C   UNL     1     170.656 172.169 139.347  1.00  0.00    -0.073 C 
ATOM      3  C   UNL     1     171.514 172.129 138.295  1.00  0.00    -0.027 C 
ATOM      4  C   UNL     1     170.955 172.286 136.875  1.00  0.00     0.031 C 
ATOM      5  C   UNL     1     169.408 172.512 136.922  1.00  0.00     0.003 C 
ATOM      6  C   UNL     1     169.125 173.574 138.011  1.00  0.00     0.004 C 
ATOM      7  C   UNL     1     169.177 172.410 139.031  1.00  0.00     0.024 C 
ATOM      8  C   UNL     1     168.720 171.497 137.864  1.00  0.00    -0.022 C 
ATOM      9  C   UNL     1     167.181 171.591 137.653  1.00  0.00     0.008 C 
ATOM     10  C   UNL     1     166.624 172.997 137.984  1.00  0.00     0.005 C 
ATOM     11  C   UNL     1     167.680 174.144 137.843  1.00  0.00    -0.005 C 
ATOM     12  C   UNL     1     169.190 170.023 137.841  1.00  0.00     0.012 C 
ENDROOT
BRANCH  11  13
ATOM     13  C   UNL     1     167.378 175.320 138.827  1.00  0.00    -0.014 C 
ATOM     14  C   UNL     1     168.677 175.928 139.386  1.00  0.00     0.007 C 
ATOM     15  C   UNL     1     166.491 174.882 140.009  1.00  0.00     0.007 C 
ENDBRANCH  11  13
TORSDOF 1
ENDMDL
MODEL 3
REMARK VINA RESULT:    -2.475     13.058     15.974
REMARK INTER + INTRA:          -3.054
REMARK INTER:                  -2.619
REMARK INTRA:                  -0.435
REMARK UNBOUND:                -0.435
REMARK SMILES CC1=CC[C@@H]2[C@H]3[C@H](C(C)C)CC[C@]2(C)[C@@H]13
REMARK SMILES IDX 1 1 2 2 3 3 4 4 5 5 6 6 15 7 13 8 12 9 11 10 7 11 14 12 8 13
REMARK SMILES IDX 9 14 10 15
REMARK H PARENT
REMARK Flexibility Score: inf
ROOT
ATOM      1  C   UNL     1     160.923 160.037 140.744  1.00  0.00     0.039 C 
ATOM      2  C   UNL     1     161.452 159.841 139.354  1.00  0.00    -0.073 C 
ATOM      3  C   UNL     1     160.628 159.884 138.275  1.00  0.00    -0.027 C 
ATOM      4  C   UNL     1     161.229 159.699 136.876  1.00  0.00     0.031 C 
ATOM      5  C   UNL     1     162.769 159.445 136.975  1.00  0.00     0.003 C 
ATOM      6  C   UNL     1     162.998 158.392 138.085  1.00  0.00     0.004 C 
ATOM      7  C   UNL     1     162.935 159.570 139.088  1.00  0.00     0.024 C 
ATOM      8  C   UNL     1     163.446 160.460 137.927  1.00  0.00    -0.022 C 
ATOM      9  C   UNL     1     164.989 160.335 137.766  1.00  0.00     0.008 C 
ATOM     10  C   UNL     1     165.509 158.923 138.131  1.00  0.00     0.005 C 
ATOM     11  C   UNL     1     164.437 157.794 137.970  1.00  0.00    -0.005 C 
ATOM     12  C   UNL     1     163.005 161.942 137.871  1.00  0.00     0.012 C 
ENDROOT
BRANCH  11  13
ATOM     13  C   UNL     1     164.686 156.625 138.977  1.00  0.00    -0.014 C 
ATOM     14  C   UNL     1     163.359 155.995 139.439  1.00  0.00     0.007 C 
ATOM     15  C   UNL     1     165.473 157.081 140.221  1.00  0.00     0.007 C 
ENDBRANCH  11  13
TORSDOF 1
ENDMDL
MODEL 4
REMARK VINA RESULT:    -2.441      1.383      3.798
REMARK INTER + INTRA:          -3.019
REMARK INTER:                  -2.583
REMARK INTRA:                  -0.436
REMARK UNBOUND:                -0.435
REMARK SMILES CC1=CC[C@@H]2[C@H]3[C@H](C(C)C)CC[C@]2(C)[C@@H]13
REMARK SMILES IDX 1 1 2 2 3 3 4 4 5 5 6 6 15 7 13 8 12 9 11 10 7 11 14 12 8 13
REMARK SMILES IDX 9 14 10 15
REMARK H PARENT
REMARK Flexibility Score: inf
ROOT
ATOM      1  C   UNL     1     167.607 173.524 142.562  1.00  0.00     0.039 C 
ATOM      2  C   UNL     1     167.144 174.141 141.277  1.00  0.00    -0.073 C 
ATOM      3  C   UNL     1     166.414 175.286 141.268  1.00  0.00    -0.027 C 
ATOM      4  C   UNL     1     165.986 175.883 139.922  1.00  0.00     0.031 C 
ATOM      5  C   UNL     1     166.476 174.976 138.746  1.00  0.00     0.003 C 
ATOM      6  C   UNL     1     166.135 173.513 139.112  1.00  0.00     0.004 C 
ATOM      7  C   UNL     1     167.455 173.503 139.920  1.00  0.00     0.024 C 
ATOM      8  C   UNL     1     167.960 174.577 138.923  1.00  0.00    -0.022 C 
ATOM      9  C   UNL     1     168.457 173.922 137.602  1.00  0.00     0.008 C 
ATOM     10  C   UNL     1     167.663 172.642 137.241  1.00  0.00     0.005 C 
ATOM     11  C   UNL     1     166.217 172.607 137.841  1.00  0.00    -0.005 C 
ATOM     12  C   UNL     1     168.963 175.645 139.420  1.00  0.00     0.012 C 
ENDROOT
BRANCH  11  13
ATOM     13  C   UNL     1     165.751 171.140 138.115  1.00  0.00    -0.014 C 
ATOM     14  C   UNL     1     164.816 171.071 139.337  1.00  0.00     0.007 C 
ATOM     15  C   UNL     1     166.935 170.182 138.346  1.00  0.00     0.007 C 
ENDBRANCH  11  13
TORSDOF 1
ENDMDL
MODEL 5
REMARK VINA RESULT:    -2.412     13.085     16.617
REMARK INTER + INTRA:          -2.988
REMARK INTER:                  -2.553
REMARK INTRA:                  -0.435
REMARK UNBOUND:                -0.435
REMARK SMILES CC1=CC[C@@H]2[C@H]3[C@H](C(C)C)CC[C@]2(C)[C@@H]13
REMARK SMILES IDX 1 1 2 2 3 3 4 4 5 5 6 6 15 7 13 8 12 9 11 10 7 11 14 12 8 13
REMARK SMILES IDX 9 14 10 15
REMARK H PARENT
REMARK Flexibility Score: inf
ROOT
ATOM      1  C   UNL     1     166.185 161.147 139.105  1.00  0.00     0.039 C 
ATOM      2  C   UNL     1     165.143 160.147 139.508  1.00  0.00    -0.073 C 
ATOM      3  C   UNL     1     164.063 160.513 140.246  1.00  0.00    -0.027 C 
ATOM      4  C   UNL     1     163.019 159.450 140.610  1.00  0.00     0.031 C 
ATOM      5  C   UNL     1     163.448 158.054 140.052  1.00  0.00     0.003 C 
ATOM      6  C   UNL     1     164.941 157.852 140.398  1.00  0.00     0.004 C 
ATOM      7  C   UNL     1     165.254 158.670 139.121  1.00  0.00     0.024 C 
ATOM      8  C   UNL     1     163.899 158.152 138.575  1.00  0.00    -0.022 C 
ATOM      9  C   UNL     1     164.041 156.712 138.005  1.00  0.00     0.008 C 
ATOM     10  C   UNL     1     165.098 155.875 138.768  1.00  0.00     0.005 C 
ATOM     11  C   UNL     1     165.331 156.347 140.242  1.00  0.00    -0.005 C 
ATOM     12  C   UNL     1     163.090 159.050 137.609  1.00  0.00     0.012 C 
ENDROOT
BRANCH  11  13
ATOM     13  C   UNL     1     166.793 156.051 140.708  1.00  0.00    -0.014 C 
ATOM     14  C   UNL     1     167.303 157.140 141.670  1.00  0.00     0.007 C 
ATOM     15  C   UNL     1     167.775 155.941 139.525  1.00  0.00     0.007 C 
ENDBRANCH  11  13
TORSDOF 1
ENDMDL
MODEL 6
REMARK VINA RESULT:    -2.391     12.603     15.867
REMARK INTER + INTRA:          -2.966
REMARK INTER:                  -2.529
REMARK INTRA:                  -0.437
REMARK UNBOUND:                -0.435
REMARK SMILES CC1=CC[C@@H]2[C@H]3[C@H](C(C)C)CC[C@]2(C)[C@@H]13
REMARK SMILES IDX 1 1 2 2 3 3 4 4 5 5 6 6 15 7 13 8 12 9 11 10 7 11 14 12 8 13
REMARK SMILES IDX 9 14 10 15
REMARK H PARENT
REMARK Flexibility Score: inf
ROOT
ATOM      1  C   UNL     1     164.457 158.492 142.609  1.00  0.00     0.039 C 
ATOM      2  C   UNL     1     164.879 157.882 141.306  1.00  0.00    -0.073 C 
ATOM      3  C   UNL     1     165.608 156.736 141.268  1.00  0.00    -0.027 C 
ATOM      4  C   UNL     1     165.992 156.147 139.905  1.00  0.00     0.031 C 
ATOM      5  C   UNL     1     165.465 157.060 138.750  1.00  0.00     0.003 C 
ATOM      6  C   UNL     1     165.818 158.521 139.113  1.00  0.00     0.004 C 
ATOM      7  C   UNL     1     164.525 158.527 139.963  1.00  0.00     0.024 C 
ATOM      8  C   UNL     1     163.988 157.458 138.977  1.00  0.00    -0.022 C 
ATOM      9  C   UNL     1     163.449 158.121 137.677  1.00  0.00     0.008 C 
ATOM     10  C   UNL     1     164.232 159.402 137.297  1.00  0.00     0.005 C 
ATOM     11  C   UNL     1     165.696 159.434 137.850  1.00  0.00    -0.005 C 
ATOM     12  C   UNL     1     163.001 156.388 139.500  1.00  0.00     0.012 C 
ENDROOT
BRANCH  11  13
ATOM     13  C   UNL     1     166.171 160.899 138.117  1.00  0.00    -0.014 C 
ATOM     14  C   UNL     1     167.147 160.961 139.306  1.00  0.00     0.007 C 
ATOM     15  C   UNL     1     164.996 161.855 138.394  1.00  0.00     0.007 C 
ENDBRANCH  11  13
TORSDOF 1
ENDMDL
MODEL 7
REMARK VINA RESULT:    -2.340      1.581      4.011
REMARK INTER + INTRA:          -2.911
REMARK INTER:                  -2.512
REMARK INTRA:                  -0.399
REMARK UNBOUND:                -0.435
REMARK SMILES CC1=CC[C@@H]2[C@H]3[C@H](C(C)C)CC[C@]2(C)[C@@H]13
REMARK SMILES IDX 1 1 2 2 3 3 4 4 5 5 6 6 15 7 13 8 12 9 11 10 7 11 14 12 8 13
REMARK SMILES IDX 9 14 10 15
REMARK H PARENT
REMARK Flexibility Score: inf
ROOT
ATOM      1  C   UNL     1     165.768 171.794 141.587  1.00  0.00     0.039 C 
ATOM      2  C   UNL     1     165.611 173.024 140.744  1.00  0.00    -0.073 C 
ATOM      3  C   UNL     1     164.383 173.483 140.389  1.00  0.00    -0.027 C 
ATOM      4  C   UNL     1     164.284 174.759 139.544  1.00  0.00     0.031 C 
ATOM      5  C   UNL     1     165.712 175.297 139.203  1.00  0.00     0.003 C 
ATOM      6  C   UNL     1     166.563 174.094 138.732  1.00  0.00     0.004 C 
ATOM      7  C   UNL     1     166.823 173.807 140.231  1.00  0.00     0.024 C 
ATOM      8  C   UNL     1     166.617 175.327 140.457  1.00  0.00    -0.022 C 
ATOM      9  C   UNL     1     167.909 176.122 140.116  1.00  0.00     0.008 C 
ATOM     10  C   UNL     1     168.717 175.472 138.966  1.00  0.00     0.005 C 
ATOM     11  C   UNL     1     167.848 174.599 137.999  1.00  0.00    -0.005 C 
ATOM     12  C   UNL     1     166.013 175.808 141.799  1.00  0.00     0.012 C 
ENDROOT
BRANCH  11  13
ATOM     13  C   UNL     1     168.684 173.434 137.378  1.00  0.00    -0.014 C 
ATOM     14  C   UNL     1     167.774 172.293 136.888  1.00  0.00     0.007 C 
ATOM     15  C   UNL     1     169.709 172.853 138.371  1.00  0.00     0.007 C 
ENDBRANCH  11  13
TORSDOF 1
ENDMDL
MODEL 8
REMARK VINA RESULT:    -2.283     14.192     16.423
REMARK INTER + INTRA:          -2.851
REMARK INTER:                  -2.418
REMARK INTRA:                  -0.432
REMARK UNBOUND:                -0.435
REMARK SMILES CC1=CC[C@@H]2[C@H]3[C@H](C(C)C)CC[C@]2(C)[C@@H]13
REMARK SMILES IDX 1 1 2 2 3 3 4 4 5 5 6 6 15 7 13 8 12 9 11 10 7 11 14 12 8 13
REMARK SMILES IDX 9 14 10 15
REMARK H PARENT
REMARK Flexibility Score: inf
ROOT
ATOM      1  C   UNL     1     165.778 160.233 141.909  1.00  0.00     0.039 C 
ATOM      2  C   UNL     1     166.105 159.143 140.933  1.00  0.00    -0.073 C 
ATOM      3  C   UNL     1     167.388 158.887 140.568  1.00  0.00    -0.027 C 
ATOM      4  C   UNL     1     167.664 157.744 139.583  1.00  0.00     0.031 C 
ATOM      5  C   UNL     1     166.323 157.077 139.135  1.00  0.00     0.003 C 
ATOM      6  C   UNL     1     165.333 158.211 138.780  1.00  0.00     0.004 C 
ATOM      7  C   UNL     1     165.013 158.282 140.293  1.00  0.00     0.024 C 
ATOM      8  C   UNL     1     165.408 156.784 140.347  1.00  0.00    -0.022 C 
ATOM      9  C   UNL     1     164.233 155.880 139.872  1.00  0.00     0.008 C 
ATOM     10  C   UNL     1     163.369 156.558 138.780  1.00  0.00     0.005 C 
ATOM     11  C   UNL     1     164.137 157.642 137.951  1.00  0.00    -0.005 C 
ATOM     12  C   UNL     1     166.044 156.224 141.641  1.00  0.00     0.012 C 
ENDROOT
BRANCH  11  13
ATOM     13  C   UNL     1     163.170 158.760 137.444  1.00  0.00    -0.014 C 
ATOM     14  C   UNL     1     163.904 160.104 137.285  1.00  0.00     0.007 C 
ATOM     15  C   UNL     1     161.966 158.965 138.383  1.00  0.00     0.007 C 
ENDBRANCH  11  13
TORSDOF 1
ENDMDL
MODEL 9
REMARK VINA RESULT:    -2.217      1.469      3.192
REMARK INTER + INTRA:          -2.781
REMARK INTER:                  -2.346
REMARK INTRA:                  -0.435
REMARK UNBOUND:                -0.435
REMARK SMILES CC1=CC[C@@H]2[C@H]3[C@H](C(C)C)CC[C@]2(C)[C@@H]13
REMARK SMILES IDX 1 1 2 2 3 3 4 4 5 5 6 6 15 7 13 8 12 9 11 10 7 11 14 12 8 13
REMARK SMILES IDX 9 14 10 15
REMARK H PARENT
REMARK Flexibility Score: inf
ROOT
ATOM      1  C   UNL     1     168.151 173.258 143.333  1.00  0.00     0.039 C 
ATOM      2  C   UNL     1     168.455 172.660 141.992  1.00  0.00    -0.073 C 
ATOM      3  C   UNL     1     169.555 171.886 141.799  1.00  0.00    -0.027 C 
ATOM      4  C   UNL     1     169.803 171.284 140.411  1.00  0.00     0.031 C 
ATOM      5  C   UNL     1     168.687 171.737 139.414  1.00  0.00     0.003 C 
ATOM      6  C   UNL     1     168.490 173.261 139.596  1.00  0.00     0.004 C 
ATOM      7  C   UNL     1     167.554 172.906 140.779  1.00  0.00     0.024 C 
ATOM      8  C   UNL     1     167.279 171.575 140.034  1.00  0.00    -0.022 C 
ATOM      9  C   UNL     1     166.219 171.773 138.912  1.00  0.00     0.008 C 
ATOM     10  C   UNL     1     166.293 173.180 138.270  1.00  0.00     0.005 C 
ATOM     11  C   UNL     1     167.704 173.851 138.382  1.00  0.00    -0.005 C 
ATOM     12  C   UNL     1     166.973 170.304 140.863  1.00  0.00     0.012 C 
ENDROOT
BRANCH  11  13
ATOM     13  C   UNL     1     167.589 175.408 138.437  1.00  0.00    -0.014 C 
ATOM     14  C   UNL     1     168.696 176.018 139.318  1.00  0.00     0.007 C 
ATOM     15  C   UNL     1     166.222 175.877 138.971  1.00  0.00     0.007 C 
ENDBRANCH  11  13
TORSDOF 1
ENDMDL
