MODEL 1
REMARK VINA RESULT:     3.736      0.000      0.000
REMARK INTER + INTRA:           4.087
REMARK INTER:                   4.172
REMARK INTRA:                  -0.086
REMARK UNBOUND:                -0.086
REMARK SMILES CCc1ccc(O)cc1O
REMARK SMILES IDX 3 1 9 2 8 3 6 4 5 5 4 6 2 7 1 8 10 9 7 11
REMARK H PARENT 10 10 7 12
REMARK Flexibility Score: inf
ROOT
ATOM      1  C   UNL     1       7.519  42.148  23.876  1.00  0.00    -0.006 A 
ATOM      2  C   UNL     1       6.621  43.226  23.737  1.00  0.00     0.122 A 
ATOM      3  C   UNL     1       5.321  43.123  24.252  1.00  0.00     0.092 A 
ATOM      4  C   UNL     1       4.904  41.949  24.894  1.00  0.00     0.119 A 
ATOM      5  C   UNL     1       5.790  40.875  25.018  1.00  0.00     0.047 A 
ATOM      6  C   UNL     1       7.088  40.971  24.510  1.00  0.00     0.011 A 
ENDROOT
BRANCH   1   7
ATOM      7  C   UNL     1       8.913  42.222  23.305  1.00  0.00     0.036 C 
ATOM      8  C   UNL     1       9.630  40.885  23.455  1.00  0.00     0.009 C 
ENDBRANCH   1   7
BRANCH   2   9
ATOM      9  O   UNL     1       7.022  44.395  23.088  1.00  0.00    -0.508 OA
ATOM     10  H   UNL     1       6.940  44.499  22.084  1.00  0.00     0.293 HD
ENDBRANCH   2   9
BRANCH   4  11
ATOM     11  O   UNL     1       3.615  41.839  25.408  1.00  0.00    -0.508 OA
ATOM     12  H   UNL     1       3.204  40.937  25.621  1.00  0.00     0.293 HD
ENDBRANCH   4  11
TORSDOF 3
ENDMDL
MODEL 2
REMARK VINA RESULT:     4.427      1.581      3.707
REMARK INTER + INTRA:           4.859
REMARK INTER:                   4.770
REMARK INTRA:                   0.089
REMARK UNBOUND:                -0.086
REMARK SMILES CCc1ccc(O)cc1O
REMARK SMILES IDX 3 1 9 2 8 3 6 4 5 5 4 6 2 7 1 8 10 9 7 11
REMARK H PARENT 10 10 7 12
REMARK Flexibility Score: inf
ROOT
ATOM      1  C   UNL     1       5.849  42.219  24.597  1.00  0.00    -0.006 A 
ATOM      2  C   UNL     1       6.522  43.206  23.847  1.00  0.00     0.122 A 
ATOM      3  C   UNL     1       7.861  43.011  23.479  1.00  0.00     0.092 A 
ATOM      4  C   UNL     1       8.538  41.846  23.862  1.00  0.00     0.119 A 
ATOM      5  C   UNL     1       7.876  40.875  24.617  1.00  0.00     0.047 A 
ATOM      6  C   UNL     1       6.541  41.060  24.987  1.00  0.00     0.011 A 
ENDROOT
BRANCH   1   7
ATOM      7  C   UNL     1       4.419  42.417  25.032  1.00  0.00     0.036 C 
ATOM      8  C   UNL     1       3.476  42.359  23.835  1.00  0.00     0.009 C 
ENDBRANCH   1   7
BRANCH   2   9
ATOM      9  O   UNL     1       5.859  44.375  23.472  1.00  0.00    -0.508 OA
ATOM     10  H   UNL     1       5.508  44.507  22.531  1.00  0.00     0.293 HD
ENDBRANCH   2   9
BRANCH   4  11
ATOM     11  O   UNL     1       9.868  41.646  23.500  1.00  0.00    -0.508 OA
ATOM     12  H   UNL     1      10.124  41.352  22.564  1.00  0.00     0.293 HD
ENDBRANCH   4  11
TORSDOF 3
ENDMDL
MODEL 3
REMARK VINA RESULT:     5.026      1.704      1.835
REMARK INTER + INTRA:           5.528
REMARK INTER:                   5.624
REMARK INTRA:                  -0.096
REMARK UNBOUND:                -0.086
REMARK SMILES CCc1ccc(O)cc1O
REMARK SMILES IDX 3 1 9 2 8 3 6 4 5 5 4 6 2 7 1 8 10 9 7 11
REMARK H PARENT 10 10 7 12
REMARK Flexibility Score: inf
ROOT
ATOM      1  C   UNL     1       7.206  41.344  24.660  1.00  0.00    -0.006 A 
ATOM      2  C   UNL     1       6.657  42.258  25.583  1.00  0.00     0.122 A 
ATOM      3  C   UNL     1       5.322  42.668  25.451  1.00  0.00     0.092 A 
ATOM      4  C   UNL     1       4.534  42.184  24.398  1.00  0.00     0.119 A 
ATOM      5  C   UNL     1       5.083  41.290  23.475  1.00  0.00     0.047 A 
ATOM      6  C   UNL     1       6.411  40.875  23.600  1.00  0.00     0.011 A 
ENDROOT
BRANCH   1   7
ATOM      7  C   UNL     1       8.646  40.910  24.762  1.00  0.00     0.036 C 
ATOM      8  C   UNL     1       9.403  41.241  23.480  1.00  0.00     0.009 C 
ENDBRANCH   1   7
BRANCH   2   9
ATOM      9  O   UNL     1       7.438  42.754  26.627  1.00  0.00    -0.508 OA
ATOM     10  H   UNL     1       7.575  42.230  27.483  1.00  0.00     0.293 HD
ENDBRANCH   2   9
BRANCH   4  11
ATOM     11  O   UNL     1       3.209  42.587  24.260  1.00  0.00    -0.508 OA
ATOM     12  H   UNL     1       2.447  42.052  24.662  1.00  0.00     0.293 HD
ENDBRANCH   4  11
TORSDOF 3
ENDMDL
