MODEL 1
REMARK VINA RESULT:    -3.431      0.000      0.000
REMARK INTER + INTRA:          -5.171
REMARK INTER:                  -4.635
REMARK INTRA:                  -0.537
REMARK UNBOUND:                -0.537
REMARK SMILES CCCCCCC=CC(=O)[O-]
REMARK SMILES IDX 5 1 6 2 7 3 8 4 9 5 10 6 11 7 4 8 3 9 2 10 1 11
REMARK H PARENT
REMARK Flexibility Score: inf
ROOT
ATOM      1  C   UNL     1       5.304  24.980  72.476  1.00  0.00     0.004 C 
ENDROOT
BRANCH   1   2
ATOM      2  C   UNL     1       4.027  25.626  73.037  1.00  0.00     0.027 C 
BRANCH   2   3
ATOM      3  C   UNL     1       2.819  25.213  72.246  1.00  0.00    -0.025 C 
ATOM      4  C   UNL     1       1.741  26.000  72.156  1.00  0.00     0.020 C 
BRANCH   4   5
ATOM      5  C   UNL     1       0.552  25.622  71.377  1.00  0.00     0.064 C 
ATOM      6  O   UNL     1      -0.327  24.858  71.859  1.00  0.00    -0.545 OA
ATOM      7  O   UNL     1       0.394  26.117  70.089  1.00  0.00    -0.545 OA
ENDBRANCH   4   5
ENDBRANCH   2   3
ENDBRANCH   1   2
BRANCH   1   8
ATOM      8  C   UNL     1       5.415  23.489  72.833  1.00  0.00     0.000 C 
BRANCH   8   9
ATOM      9  C   UNL     1       5.529  22.592  71.588  1.00  0.00    -0.000 C 
BRANCH   9  10
ATOM     10  C   UNL     1       5.389  23.382  70.278  1.00  0.00    -0.003 C 
ATOM     11  C   UNL     1       4.148  22.984  69.479  1.00  0.00     0.004 C 
ENDBRANCH   9  10
ENDBRANCH   8   9
ENDBRANCH   1   8
TORSDOF 6
ENDMDL
MODEL 2
REMARK VINA RESULT:    -3.403      1.454      2.232
REMARK INTER + INTRA:          -5.133
REMARK INTER:                  -4.782
REMARK INTRA:                  -0.351
REMARK UNBOUND:                -0.537
REMARK SMILES CCCCCCC=CC(=O)[O-]
REMARK SMILES IDX 5 1 6 2 7 3 8 4 9 5 10 6 11 7 4 8 3 9 2 10 1 11
REMARK H PARENT
REMARK Flexibility Score: inf
ROOT
ATOM      1  C   UNL     1       4.645  24.145  71.432  1.00  0.00     0.004 C 
ENDROOT
BRANCH   1   2
ATOM      2  C   UNL     1       4.505  25.123  72.609  1.00  0.00     0.027 C 
BRANCH   2   3
ATOM      3  C   UNL     1       3.128  25.718  72.658  1.00  0.00    -0.025 C 
ATOM      4  C   UNL     1       2.158  25.302  71.835  1.00  0.00     0.020 C 
BRANCH   4   5
ATOM      5  C   UNL     1       0.798  25.862  71.874  1.00  0.00     0.064 C 
ATOM      6  O   UNL     1       0.603  27.106  71.845  1.00  0.00    -0.545 OA
ATOM      7  O   UNL     1      -0.292  25.003  71.944  1.00  0.00    -0.545 OA
ENDBRANCH   4   5
ENDBRANCH   2   3
ENDBRANCH   1   2
BRANCH   1   8
ATOM      8  C   UNL     1       5.510  22.924  71.780  1.00  0.00     0.000 C 
BRANCH   8   9
ATOM      9  C   UNL     1       6.360  23.142  73.044  1.00  0.00    -0.000 C 
BRANCH   9  10
ATOM     10  C   UNL     1       7.855  22.885  72.798  1.00  0.00    -0.003 C 
ATOM     11  C   UNL     1       8.103  21.839  71.712  1.00  0.00     0.004 C 
ENDBRANCH   9  10
ENDBRANCH   8   9
ENDBRANCH   1   8
TORSDOF 6
ENDMDL
MODEL 3
REMARK VINA RESULT:    -3.402     13.230     14.309
REMARK INTER + INTRA:          -5.132
REMARK INTER:                  -4.846
REMARK INTRA:                  -0.286
REMARK UNBOUND:                -0.537
REMARK SMILES CCCCCCC=CC(=O)[O-]
REMARK SMILES IDX 5 1 6 2 7 3 8 4 9 5 10 6 11 7 4 8 3 9 2 10 1 11
REMARK H PARENT
REMARK Flexibility Score: inf
ROOT
ATOM      1  C   UNL     1      14.006  24.894  82.379  1.00  0.00     0.004 C 
ENDROOT
BRANCH   1   2
ATOM      2  C   UNL     1      12.615  25.175  82.968  1.00  0.00     0.027 C 
BRANCH   2   3
ATOM      3  C   UNL     1      12.325  26.648  82.992  1.00  0.00    -0.025 C 
ATOM      4  C   UNL     1      11.320  27.151  83.718  1.00  0.00     0.020 C 
BRANCH   4   5
ATOM      5  C   UNL     1      11.026  28.591  83.767  1.00  0.00     0.064 C 
ATOM      6  O   UNL     1      10.713  29.157  84.849  1.00  0.00    -0.545 OA
ATOM      7  O   UNL     1      11.093  29.342  82.600  1.00  0.00    -0.545 OA
ENDBRANCH   4   5
ENDBRANCH   2   3
ENDBRANCH   1   2
BRANCH   1   8
ATOM      8  C   UNL     1      13.982  23.791  81.310  1.00  0.00     0.000 C 
BRANCH   8   9
ATOM      9  C   UNL     1      12.627  23.701  80.585  1.00  0.00    -0.000 C 
BRANCH   9  10
ATOM     10  C   UNL     1      12.227  22.253  80.263  1.00  0.00    -0.003 C 
ATOM     11  C   UNL     1      13.251  21.541  79.379  1.00  0.00     0.004 C 
ENDBRANCH   9  10
ENDBRANCH   8   9
ENDBRANCH   1   8
TORSDOF 6
ENDMDL
MODEL 4
REMARK VINA RESULT:    -3.398      1.530      2.129
REMARK INTER + INTRA:          -5.126
REMARK INTER:                  -4.940
REMARK INTRA:                  -0.186
REMARK UNBOUND:                -0.537
REMARK SMILES CCCCCCC=CC(=O)[O-]
REMARK SMILES IDX 5 1 6 2 7 3 8 4 9 5 10 6 11 7 4 8 3 9 2 10 1 11
REMARK H PARENT
REMARK Flexibility Score: inf
ROOT
ATOM      1  C   UNL     1       3.337  24.983  71.977  1.00  0.00     0.004 C 
ENDROOT
BRANCH   1   2
ATOM      2  C   UNL     1       2.614  26.270  72.402  1.00  0.00     0.027 C 
BRANCH   2   3
ATOM      3  C   UNL     1       1.212  26.306  71.865  1.00  0.00    -0.025 C 
ATOM      4  C   UNL     1       0.517  25.183  71.653  1.00  0.00     0.020 C 
BRANCH   4   5
ATOM      5  C   UNL     1      -0.862  25.194  71.140  1.00  0.00     0.064 C 
ATOM      6  O   UNL     1      -1.734  24.406  71.595  1.00  0.00    -0.545 OA
ATOM      7  O   UNL     1      -1.210  26.089  70.136  1.00  0.00    -0.545 OA
ENDBRANCH   4   5
ENDBRANCH   2   3
ENDBRANCH   1   2
BRANCH   1   8
ATOM      8  C   UNL     1       4.487  24.612  72.927  1.00  0.00     0.000 C 
BRANCH   8   9
ATOM      9  C   UNL     1       5.152  23.275  72.554  1.00  0.00    -0.000 C 
BRANCH   9  10
ATOM     10  C   UNL     1       6.660  23.266  72.850  1.00  0.00    -0.003 C 
ATOM     11  C   UNL     1       7.422  22.250  71.999  1.00  0.00     0.004 C 
ENDBRANCH   9  10
ENDBRANCH   8   9
ENDBRANCH   1   8
TORSDOF 6
ENDMDL
MODEL 5
REMARK VINA RESULT:    -3.379     12.822     14.613
REMARK INTER + INTRA:          -5.100
REMARK INTER:                  -4.892
REMARK INTRA:                  -0.208
REMARK UNBOUND:                -0.537
REMARK SMILES CCCCCCC=CC(=O)[O-]
REMARK SMILES IDX 5 1 6 2 7 3 8 4 9 5 10 6 11 7 4 8 3 9 2 10 1 11
REMARK H PARENT
REMARK Flexibility Score: inf
ROOT
ATOM      1  C   UNL     1      12.665  25.336  82.952  1.00  0.00     0.004 C 
ENDROOT
BRANCH   1   2
ATOM      2  C   UNL     1      13.949  24.931  82.214  1.00  0.00     0.027 C 
BRANCH   2   3
ATOM      3  C   UNL     1      13.650  23.990  81.083  1.00  0.00    -0.025 C 
ATOM      4  C   UNL     1      12.491  23.326  81.015  1.00  0.00     0.020 C 
BRANCH   4   5
ATOM      5  C   UNL     1      12.170  22.409  79.909  1.00  0.00     0.064 C 
ATOM      6  O   UNL     1      11.167  22.602  79.172  1.00  0.00    -0.545 OA
ATOM      7  O   UNL     1      12.989  21.312  79.674  1.00  0.00    -0.545 OA
ENDBRANCH   4   5
ENDBRANCH   2   3
ENDBRANCH   1   2
BRANCH   1   8
ATOM      8  C   UNL     1      12.422  26.853  82.925  1.00  0.00     0.000 C 
BRANCH   8   9
ATOM      9  C   UNL     1      11.152  27.262  83.692  1.00  0.00    -0.000 C 
BRANCH   9  10
ATOM     10  C   UNL     1      10.840  28.760  83.555  1.00  0.00    -0.003 C 
ATOM     11  C   UNL     1      10.780  29.476  84.904  1.00  0.00     0.004 C 
ENDBRANCH   9  10
ENDBRANCH   8   9
ENDBRANCH   1   8
TORSDOF 6
ENDMDL
MODEL 6
REMARK VINA RESULT:    -3.322     11.986     13.440
REMARK INTER + INTRA:          -5.024
REMARK INTER:                  -4.534
REMARK INTRA:                  -0.489
REMARK UNBOUND:                -0.537
REMARK SMILES CCCCCCC=CC(=O)[O-]
REMARK SMILES IDX 5 1 6 2 7 3 8 4 9 5 10 6 11 7 4 8 3 9 2 10 1 11
REMARK H PARENT
REMARK Flexibility Score: inf
ROOT
ATOM      1  C   UNL     1      12.316  22.739  80.711  1.00  0.00     0.004 C 
ENDROOT
BRANCH   1   2
ATOM      2  C   UNL     1      13.470  23.721  80.965  1.00  0.00     0.027 C 
BRANCH   2   3
ATOM      3  C   UNL     1      12.953  25.060  81.408  1.00  0.00    -0.025 C 
ATOM      4  C   UNL     1      12.706  25.321  82.697  1.00  0.00     0.020 C 
BRANCH   4   5
ATOM      5  C   UNL     1      12.213  26.628  83.156  1.00  0.00     0.064 C 
ATOM      6  O   UNL     1      11.138  26.728  83.807  1.00  0.00    -0.545 OA
ATOM      7  O   UNL     1      12.943  27.774  82.867  1.00  0.00    -0.545 OA
ENDBRANCH   4   5
ENDBRANCH   2   3
ENDBRANCH   1   2
BRANCH   1   8
ATOM      8  C   UNL     1      12.612  21.768  79.557  1.00  0.00     0.000 C 
BRANCH   8   9
ATOM      9  C   UNL     1      12.615  22.464  78.185  1.00  0.00    -0.000 C 
BRANCH   9  10
ATOM     10  C   UNL     1      11.339  23.285  77.940  1.00  0.00    -0.003 C 
ATOM     11  C   UNL     1      11.631  24.759  77.662  1.00  0.00     0.004 C 
ENDBRANCH   9  10
ENDBRANCH   8   9
ENDBRANCH   1   8
TORSDOF 6
ENDMDL
MODEL 7
REMARK VINA RESULT:    -3.278     12.065     13.607
REMARK INTER + INTRA:          -4.965
REMARK INTER:                  -4.277
REMARK INTRA:                  -0.688
REMARK UNBOUND:                -0.537
REMARK SMILES CCCCCCC=CC(=O)[O-]
REMARK SMILES IDX 5 1 6 2 7 3 8 4 9 5 10 6 11 7 4 8 3 9 2 10 1 11
REMARK H PARENT
REMARK Flexibility Score: inf
ROOT
ATOM      1  C   UNL     1      12.477  25.204  78.764  1.00  0.00     0.004 C 
ENDROOT
BRANCH   1   2
ATOM      2  C   UNL     1      13.891  25.223  79.365  1.00  0.00     0.027 C 
BRANCH   2   3
ATOM      3  C   UNL     1      13.842  25.323  80.862  1.00  0.00    -0.025 C 
ATOM      4  C   UNL     1      12.699  25.579  81.508  1.00  0.00     0.020 C 
BRANCH   4   5
ATOM      5  C   UNL     1      12.625  25.669  82.975  1.00  0.00     0.064 C 
ATOM      6  O   UNL     1      11.749  26.377  83.541  1.00  0.00    -0.545 OA
ATOM      7  O   UNL     1      13.536  24.962  83.749  1.00  0.00    -0.545 OA
ENDBRANCH   4   5
ENDBRANCH   2   3
ENDBRANCH   1   2
BRANCH   1   8
ATOM      8  C   UNL     1      12.156  23.881  78.052  1.00  0.00     0.000 C 
BRANCH   8   9
ATOM      9  C   UNL     1      11.181  23.000  78.853  1.00  0.00    -0.000 C 
BRANCH   9  10
ATOM     10  C   UNL     1      11.875  22.249  80.000  1.00  0.00    -0.003 C 
ATOM     11  C   UNL     1      13.091  21.450  79.532  1.00  0.00     0.004 C 
ENDBRANCH   9  10
ENDBRANCH   8   9
ENDBRANCH   1   8
TORSDOF 6
ENDMDL
MODEL 8
REMARK VINA RESULT:    -3.226     13.122     14.053
REMARK INTER + INTRA:          -4.894
REMARK INTER:                  -4.569
REMARK INTRA:                  -0.325
REMARK UNBOUND:                -0.537
REMARK SMILES CCCCCCC=CC(=O)[O-]
REMARK SMILES IDX 5 1 6 2 7 3 8 4 9 5 10 6 11 7 4 8 3 9 2 10 1 11
REMARK H PARENT
REMARK Flexibility Score: inf
ROOT
ATOM      1  C   UNL     1      12.527  23.675  80.251  1.00  0.00     0.004 C 
ENDROOT
BRANCH   1   2
ATOM      2  C   UNL     1      13.537  23.915  81.383  1.00  0.00     0.027 C 
BRANCH   2   3
ATOM      3  C   UNL     1      12.984  24.858  82.412  1.00  0.00    -0.025 C 
ATOM      4  C   UNL     1      12.604  26.099  82.089  1.00  0.00     0.020 C 
BRANCH   4   5
ATOM      5  C   UNL     1      12.047  27.036  83.077  1.00  0.00     0.064 C 
ATOM      6  O   UNL     1      11.125  26.684  83.861  1.00  0.00    -0.545 OA
ATOM      7  O   UNL     1      12.546  28.331  83.148  1.00  0.00    -0.545 OA
ENDBRANCH   4   5
ENDBRANCH   2   3
ENDBRANCH   1   2
BRANCH   1   8
ATOM      8  C   UNL     1      12.199  22.186  80.059  1.00  0.00     0.000 C 
BRANCH   8   9
ATOM      9  C   UNL     1      12.923  21.573  78.848  1.00  0.00    -0.000 C 
BRANCH   9  10
ATOM     10  C   UNL     1      13.848  20.411  79.242  1.00  0.00    -0.003 C 
ATOM     11  C   UNL     1      15.270  20.872  79.562  1.00  0.00     0.004 C 
ENDBRANCH   9  10
ENDBRANCH   8   9
ENDBRANCH   1   8
TORSDOF 6
ENDMDL
MODEL 9
REMARK VINA RESULT:    -3.184     12.861     14.390
REMARK INTER + INTRA:          -4.837
REMARK INTER:                  -4.400
REMARK INTRA:                  -0.436
REMARK UNBOUND:                -0.537
REMARK SMILES CCCCCCC=CC(=O)[O-]
REMARK SMILES IDX 5 1 6 2 7 3 8 4 9 5 10 6 11 7 4 8 3 9 2 10 1 11
REMARK H PARENT
REMARK Flexibility Score: inf
ROOT
ATOM      1  C   UNL     1      15.635  22.939  81.065  1.00  0.00     0.004 C 
ENDROOT
BRANCH   1   2
ATOM      2  C   UNL     1      15.434  23.779  82.336  1.00  0.00     0.027 C 
BRANCH   2   3
ATOM      3  C   UNL     1      14.447  24.886  82.102  1.00  0.00    -0.025 C 
ATOM      4  C   UNL     1      13.336  24.997  82.839  1.00  0.00     0.020 C 
BRANCH   4   5
ATOM      5  C   UNL     1      12.361  26.081  82.637  1.00  0.00     0.064 C 
ATOM      6  O   UNL     1      12.273  26.681  81.532  1.00  0.00    -0.545 OA
ATOM      7  O   UNL     1      11.524  26.450  83.682  1.00  0.00    -0.545 OA
ENDBRANCH   4   5
ENDBRANCH   2   3
ENDBRANCH   1   2
BRANCH   1   8
ATOM      8  C   UNL     1      14.525  23.164  80.027  1.00  0.00     0.000 C 
BRANCH   8   9
ATOM      9  C   UNL     1      13.764  21.870  79.687  1.00  0.00    -0.000 C 
BRANCH   9  10
ATOM     10  C   UNL     1      12.265  21.967  80.013  1.00  0.00    -0.003 C 
ATOM     11  C   UNL     1      11.531  22.967  79.121  1.00  0.00     0.004 C 
ENDBRANCH   9  10
ENDBRANCH   8   9
ENDBRANCH   1   8
TORSDOF 6
ENDMDL
