MODEL 1
REMARK VINA RESULT:    -5.023      0.000      0.000
REMARK INTER + INTRA:          -6.197
REMARK INTER:                  -5.904
REMARK INTRA:                  -0.293
REMARK UNBOUND:                -0.293
REMARK SMILES O=c1cc(-c2ccc(O)c(O)c2)oc2cc(O)cc(O)c12
REMARK SMILES IDX 4 1 3 2 2 3 1 4 21 5 19 6 18 7 16 8 15 9 14 10 13 11 5 12
REMARK SMILES IDX 6 13 7 14 8 15 12 16 10 17 9 18 11 20 20 22 17 24
REMARK H PARENT 9 19 11 21 20 23 17 25
REMARK Flexibility Score: inf
ROOT
ATOM      1  C   UNL     1      -7.238   0.092  -3.413  1.00  0.00     0.138 A 
ATOM      2  C   UNL     1      -6.716   0.952  -4.388  1.00  0.00     0.100 A 
ATOM      3  C   UNL     1      -6.947   2.326  -4.294  1.00  0.00     0.197 A 
ATOM      4  O   UNL     1      -6.519   3.065  -5.217  1.00  0.00    -0.289 OA
ATOM      5  C   UNL     1      -7.679   2.841  -3.197  1.00  0.00     0.107 A 
ATOM      6  C   UNL     1      -7.941   4.226  -2.975  1.00  0.00     0.134 A 
ATOM      7  C   UNL     1      -8.775   4.610  -1.918  1.00  0.00     0.093 A 
ATOM      8  C   UNL     1      -9.308   3.661  -1.040  1.00  0.00     0.123 A 
ATOM      9  C   UNL     1      -9.014   2.311  -1.216  1.00  0.00     0.094 A 
ATOM     10  C   UNL     1      -8.213   1.895  -2.282  1.00  0.00     0.146 A 
ATOM     11  O   UNL     1      -7.969   0.597  -2.424  1.00  0.00    -0.456 OA
ENDROOT
BRANCH   1  12
ATOM     12  C   UNL     1      -7.022  -1.376  -3.465  1.00  0.00     0.021 A 
ATOM     13  C   UNL     1      -7.770  -2.262  -2.666  1.00  0.00     0.016 A 
ATOM     14  C   UNL     1      -7.553  -3.640  -2.743  1.00  0.00     0.051 A 
ATOM     15  C   UNL     1      -6.593  -4.158  -3.620  1.00  0.00     0.157 A 
ATOM     16  C   UNL     1      -6.069  -1.905  -4.353  1.00  0.00     0.062 A 
ATOM     17  C   UNL     1      -5.849  -3.285  -4.431  1.00  0.00     0.158 A 
BRANCH  15  18
ATOM     18  O   UNL     1      -6.378  -5.533  -3.692  1.00  0.00    -0.504 OA
ATOM     19  H   UNL     1      -7.142  -6.195  -3.611  1.00  0.00     0.293 HD
ENDBRANCH  15  18
BRANCH  17  20
ATOM     20  O   UNL     1      -4.888  -3.769  -5.318  1.00  0.00    -0.504 OA
ATOM     21  H   UNL     1      -4.043  -3.251  -5.533  1.00  0.00     0.293 HD
ENDBRANCH  17  20
ENDBRANCH   1  12
BRANCH   6  22
ATOM     22  O   UNL     1      -7.390   5.258  -3.741  1.00  0.00    -0.507 OA
ATOM     23  H   UNL     1      -7.899   5.814  -4.411  1.00  0.00     0.293 HD
ENDBRANCH   6  22
BRANCH   8  24
ATOM     24  O   UNL     1     -10.125   4.054   0.019  1.00  0.00    -0.508 OA
ATOM     25  H   UNL     1     -10.733   4.861  -0.052  1.00  0.00     0.293 HD
ENDBRANCH   8  24
TORSDOF 5
ENDMDL
MODEL 2
REMARK VINA RESULT:    -4.896      1.475      7.287
REMARK INTER + INTRA:          -6.047
REMARK INTER:                  -5.732
REMARK INTRA:                  -0.315
REMARK UNBOUND:                -0.293
REMARK SMILES O=c1cc(-c2ccc(O)c(O)c2)oc2cc(O)cc(O)c12
REMARK SMILES IDX 4 1 3 2 2 3 1 4 21 5 19 6 18 7 16 8 15 9 14 10 13 11 5 12
REMARK SMILES IDX 6 13 7 14 8 15 12 16 10 17 9 18 11 20 20 22 17 24
REMARK H PARENT 9 19 11 21 20 23 17 25
REMARK Flexibility Score: inf
ROOT
ATOM      1  C   UNL     1      -7.788  -0.124  -3.264  1.00  0.00     0.138 A 
ATOM      2  C   UNL     1      -8.783  -0.864  -2.611  1.00  0.00     0.100 A 
ATOM      3  C   UNL     1      -8.764  -2.258  -2.680  1.00  0.00     0.197 A 
ATOM      4  O   UNL     1      -9.705  -2.892  -2.136  1.00  0.00    -0.289 OA
ATOM      5  C   UNL     1      -7.723  -2.913  -3.380  1.00  0.00     0.107 A 
ATOM      6  C   UNL     1      -7.579  -4.329  -3.482  1.00  0.00     0.134 A 
ATOM      7  C   UNL     1      -6.576  -4.863  -4.299  1.00  0.00     0.093 A 
ATOM      8  C   UNL     1      -5.674  -4.032  -4.970  1.00  0.00     0.123 A 
ATOM      9  C   UNL     1      -5.773  -2.649  -4.834  1.00  0.00     0.094 A 
ATOM     10  C   UNL     1      -6.785  -2.086  -4.053  1.00  0.00     0.146 A 
ATOM     11  O   UNL     1      -6.854  -0.762  -3.961  1.00  0.00    -0.456 OA
ENDROOT
BRANCH   1  12
ATOM     12  C   UNL     1      -7.760   1.360  -3.223  1.00  0.00     0.021 A 
ATOM     13  C   UNL     1      -8.498   2.088  -2.269  1.00  0.00     0.016 A 
ATOM     14  C   UNL     1      -8.445   3.484  -2.247  1.00  0.00     0.051 A 
ATOM     15  C   UNL     1      -7.652   4.177  -3.170  1.00  0.00     0.157 A 
ATOM     16  C   UNL     1      -6.956   2.063  -4.137  1.00  0.00     0.062 A 
ATOM     17  C   UNL     1      -6.902   3.462  -4.118  1.00  0.00     0.158 A 
BRANCH  15  18
ATOM     18  O   UNL     1      -7.603   5.569  -3.145  1.00  0.00    -0.504 OA
ATOM     19  H   UNL     1      -8.206   6.132  -3.734  1.00  0.00     0.293 HD
ENDBRANCH  15  18
BRANCH  17  20
ATOM     20  O   UNL     1      -6.098   4.121  -5.048  1.00  0.00    -0.504 OA
ATOM     21  H   UNL     1      -5.243   4.594  -4.780  1.00  0.00     0.293 HD
ENDBRANCH  17  20
ENDBRANCH   1  12
BRANCH   6  22
ATOM     22  O   UNL     1      -8.373  -5.247  -2.788  1.00  0.00    -0.507 OA
ATOM     23  H   UNL     1      -9.273  -5.042  -2.384  1.00  0.00     0.293 HD
ENDBRANCH   6  22
BRANCH   8  24
ATOM     24  O   UNL     1      -4.668  -4.574  -5.769  1.00  0.00    -0.508 OA
ATOM     25  H   UNL     1      -4.839  -4.832  -6.734  1.00  0.00     0.293 HD
ENDBRANCH   8  24
TORSDOF 5
ENDMDL
MODEL 3
REMARK VINA RESULT:    -4.829      1.363      6.931
REMARK INTER + INTRA:          -5.969
REMARK INTER:                  -5.674
REMARK INTRA:                  -0.295
REMARK UNBOUND:                -0.293
REMARK SMILES O=c1cc(-c2ccc(O)c(O)c2)oc2cc(O)cc(O)c12
REMARK SMILES IDX 4 1 3 2 2 3 1 4 21 5 19 6 18 7 16 8 15 9 14 10 13 11 5 12
REMARK SMILES IDX 6 13 7 14 8 15 12 16 10 17 9 18 11 20 20 22 17 24
REMARK H PARENT 9 19 11 21 20 23 17 25
REMARK Flexibility Score: inf
ROOT
ATOM      1  C   UNL     1      -7.129  -0.765  -3.426  1.00  0.00     0.138 A 
ATOM      2  C   UNL     1      -6.234  -1.320  -4.350  1.00  0.00     0.100 A 
ATOM      3  C   UNL     1      -6.061  -2.704  -4.399  1.00  0.00     0.197 A 
ATOM      4  O   UNL     1      -5.205  -3.168  -5.196  1.00  0.00    -0.289 OA
ATOM      5  C   UNL     1      -6.814  -3.538  -3.537  1.00  0.00     0.107 A 
ATOM      6  C   UNL     1      -6.751  -4.963  -3.526  1.00  0.00     0.134 A 
ATOM      7  C   UNL     1      -7.456  -5.677  -2.550  1.00  0.00     0.093 A 
ATOM      8  C   UNL     1      -8.268  -5.020  -1.622  1.00  0.00     0.123 A 
ATOM      9  C   UNL     1      -8.379  -3.632  -1.658  1.00  0.00     0.094 A 
ATOM     10  C   UNL     1      -7.661  -2.889  -2.599  1.00  0.00     0.146 A 
ATOM     11  O   UNL     1      -7.783  -1.566  -2.590  1.00  0.00    -0.456 OA
ENDROOT
BRANCH   1  12
ATOM     12  C   UNL     1      -7.352   0.700  -3.332  1.00  0.00     0.021 A 
ATOM     13  C   UNL     1      -8.306   1.248  -2.454  1.00  0.00     0.016 A 
ATOM     14  C   UNL     1      -8.488   2.631  -2.378  1.00  0.00     0.051 A 
ATOM     15  C   UNL     1      -7.719   3.491  -3.171  1.00  0.00     0.157 A 
ATOM     16  C   UNL     1      -6.574   1.571  -4.115  1.00  0.00     0.062 A 
ATOM     17  C   UNL     1      -6.755   2.957  -4.042  1.00  0.00     0.158 A 
BRANCH  15  18
ATOM     18  O   UNL     1      -7.904   4.870  -3.094  1.00  0.00    -0.504 OA
ATOM     19  H   UNL     1      -7.473   5.502  -3.759  1.00  0.00     0.293 HD
ENDBRANCH  15  18
BRANCH  17  20
ATOM     20  O   UNL     1      -5.969   3.785  -4.842  1.00  0.00    -0.504 OA
ATOM     21  H   UNL     1      -4.984   3.938  -4.656  1.00  0.00     0.293 HD
ENDBRANCH  17  20
ENDBRANCH   1  12
BRANCH   6  22
ATOM     22  O   UNL     1      -6.038  -5.720  -4.460  1.00  0.00    -0.507 OA
ATOM     23  H   UNL     1      -5.199  -5.416  -4.929  1.00  0.00     0.293 HD
ENDBRANCH   6  22
BRANCH   8  24
ATOM     24  O   UNL     1      -8.979  -5.741  -0.663  1.00  0.00    -0.508 OA
ATOM     25  H   UNL     1      -9.990  -5.803  -0.689  1.00  0.00     0.293 HD
ENDBRANCH   8  24
TORSDOF 5
ENDMDL
MODEL 4
REMARK VINA RESULT:    -4.705     11.252     12.808
REMARK INTER + INTRA:          -5.823
REMARK INTER:                  -5.553
REMARK INTRA:                  -0.270
REMARK UNBOUND:                -0.293
REMARK SMILES O=c1cc(-c2ccc(O)c(O)c2)oc2cc(O)cc(O)c12
REMARK SMILES IDX 4 1 3 2 2 3 1 4 21 5 19 6 18 7 16 8 15 9 14 10 13 11 5 12
REMARK SMILES IDX 6 13 7 14 8 15 12 16 10 17 9 18 11 20 20 22 17 24
REMARK H PARENT 9 19 11 21 20 23 17 25
REMARK Flexibility Score: inf
ROOT
ATOM      1  C   UNL     1       1.193   7.233   1.024  1.00  0.00     0.138 A 
ATOM      2  C   UNL     1      -0.113   7.344   1.518  1.00  0.00     0.100 A 
ATOM      3  C   UNL     1      -0.341   8.008   2.724  1.00  0.00     0.197 A 
ATOM      4  O   UNL     1      -1.517   8.037   3.173  1.00  0.00    -0.289 OA
ATOM      5  C   UNL     1       0.743   8.592   3.421  1.00  0.00     0.107 A 
ATOM      6  C   UNL     1       0.625   9.328   4.638  1.00  0.00     0.134 A 
ATOM      7  C   UNL     1       1.781   9.760   5.298  1.00  0.00     0.093 A 
ATOM      8  C   UNL     1       3.048   9.534   4.754  1.00  0.00     0.123 A 
ATOM      9  C   UNL     1       3.172   8.863   3.540  1.00  0.00     0.094 A 
ATOM     10  C   UNL     1       2.039   8.390   2.874  1.00  0.00     0.146 A 
ATOM     11  O   UNL     1       2.200   7.742   1.726  1.00  0.00    -0.456 OA
ENDROOT
BRANCH   1  12
ATOM     12  C   UNL     1       1.493   6.538  -0.254  1.00  0.00     0.021 A 
ATOM     13  C   UNL     1       2.436   5.494  -0.325  1.00  0.00     0.016 A 
ATOM     14  C   UNL     1       2.691   4.850  -1.538  1.00  0.00     0.051 A 
ATOM     15  C   UNL     1       2.006   5.231  -2.699  1.00  0.00     0.157 A 
ATOM     16  C   UNL     1       0.800   6.904  -1.421  1.00  0.00     0.062 A 
ATOM     17  C   UNL     1       1.054   6.262  -2.638  1.00  0.00     0.158 A 
BRANCH  15  18
ATOM     18  O   UNL     1       2.264   4.587  -3.908  1.00  0.00    -0.504 OA
ATOM     19  H   UNL     1       3.128   4.082  -4.066  1.00  0.00     0.293 HD
ENDBRANCH  15  18
BRANCH  17  20
ATOM     20  O   UNL     1       0.351   6.662  -3.775  1.00  0.00    -0.504 OA
ATOM     21  H   UNL     1      -0.572   7.077  -3.719  1.00  0.00     0.293 HD
ENDBRANCH  17  20
ENDBRANCH   1  12
BRANCH   6  22
ATOM     22  O   UNL     1      -0.596   9.681   5.221  1.00  0.00    -0.507 OA
ATOM     23  H   UNL     1      -0.727  10.441   5.869  1.00  0.00     0.293 HD
ENDBRANCH   6  22
BRANCH   8  24
ATOM     24  O   UNL     1       4.194   9.981   5.412  1.00  0.00    -0.508 OA
ATOM     25  H   UNL     1       4.136  10.579   6.228  1.00  0.00     0.293 HD
ENDBRANCH   8  24
TORSDOF 5
ENDMDL
MODEL 5
REMARK VINA RESULT:    -4.703     10.885     12.210
REMARK INTER + INTRA:          -5.822
REMARK INTER:                  -5.522
REMARK INTRA:                  -0.300
REMARK UNBOUND:                -0.293
REMARK SMILES O=c1cc(-c2ccc(O)c(O)c2)oc2cc(O)cc(O)c12
REMARK SMILES IDX 4 1 3 2 2 3 1 4 21 5 19 6 18 7 16 8 15 9 14 10 13 11 5 12
REMARK SMILES IDX 6 13 7 14 8 15 12 16 10 17 9 18 11 20 20 22 17 24
REMARK H PARENT 9 19 11 21 20 23 17 25
REMARK Flexibility Score: inf
ROOT
ATOM      1  C   UNL     1       2.354   6.802  -0.155  1.00  0.00     0.138 A 
ATOM      2  C   UNL     1       3.406   7.481   0.474  1.00  0.00     0.100 A 
ATOM      3  C   UNL     1       3.168   8.172   1.663  1.00  0.00     0.197 A 
ATOM      4  O   UNL     1       4.117   8.824   2.171  1.00  0.00    -0.289 OA
ATOM      5  C   UNL     1       1.876   8.154   2.241  1.00  0.00     0.107 A 
ATOM      6  C   UNL     1       1.527   8.788   3.470  1.00  0.00     0.134 A 
ATOM      7  C   UNL     1       0.190   8.802   3.885  1.00  0.00     0.093 A 
ATOM      8  C   UNL     1      -0.801   8.152   3.143  1.00  0.00     0.123 A 
ATOM      9  C   UNL     1      -0.462   7.485   1.969  1.00  0.00     0.094 A 
ATOM     10  C   UNL     1       0.858   7.483   1.512  1.00  0.00     0.146 A 
ATOM     11  O   UNL     1       1.138   6.847   0.379  1.00  0.00    -0.456 OA
ENDROOT
BRANCH   1  12
ATOM     12  C   UNL     1       2.551   6.050  -1.420  1.00  0.00     0.021 A 
ATOM     13  C   UNL     1       3.715   5.295  -1.659  1.00  0.00     0.016 A 
ATOM     14  C   UNL     1       3.870   4.589  -2.854  1.00  0.00     0.051 A 
ATOM     15  C   UNL     1       2.865   4.619  -3.829  1.00  0.00     0.157 A 
ATOM     16  C   UNL     1       1.541   6.064  -2.399  1.00  0.00     0.062 A 
ATOM     17  C   UNL     1       1.694   5.359  -3.598  1.00  0.00     0.158 A 
BRANCH  15  18
ATOM     18  O   UNL     1       3.024   3.915  -5.021  1.00  0.00    -0.504 OA
ATOM     19  H   UNL     1       2.248   3.432  -5.460  1.00  0.00     0.293 HD
ENDBRANCH  15  18
BRANCH  17  20
ATOM     20  O   UNL     1       0.672   5.406  -4.546  1.00  0.00    -0.504 OA
ATOM     21  H   UNL     1       0.492   4.638  -5.183  1.00  0.00     0.293 HD
ENDBRANCH  17  20
ENDBRANCH   1  12
BRANCH   6  22
ATOM     22  O   UNL     1       2.452   9.392   4.328  1.00  0.00    -0.507 OA
ATOM     23  H   UNL     1       3.205   9.993   4.033  1.00  0.00     0.293 HD
ENDBRANCH   6  22
BRANCH   8  24
ATOM     24  O   UNL     1      -2.127   8.158   3.572  1.00  0.00    -0.508 OA
ATOM     25  H   UNL     1      -2.752   7.386   3.370  1.00  0.00     0.293 HD
ENDBRANCH   8  24
TORSDOF 5
ENDMDL
MODEL 6
REMARK VINA RESULT:    -4.597     11.324     13.669
REMARK INTER + INTRA:          -5.697
REMARK INTER:                  -5.379
REMARK INTRA:                  -0.318
REMARK UNBOUND:                -0.293
REMARK SMILES O=c1cc(-c2ccc(O)c(O)c2)oc2cc(O)cc(O)c12
REMARK SMILES IDX 4 1 3 2 2 3 1 4 21 5 19 6 18 7 16 8 15 9 14 10 13 11 5 12
REMARK SMILES IDX 6 13 7 14 8 15 12 16 10 17 9 18 11 20 20 22 17 24
REMARK H PARENT 9 19 11 21 20 23 17 25
REMARK Flexibility Score: inf
ROOT
ATOM      1  C   UNL     1       2.376   7.097   0.775  1.00  0.00     0.138 A 
ATOM      2  C   UNL     1       3.700   7.527   0.931  1.00  0.00     0.100 A 
ATOM      3  C   UNL     1       4.679   7.084   0.041  1.00  0.00     0.197 A 
ATOM      4  O   UNL     1       5.870   7.438   0.244  1.00  0.00    -0.289 OA
ATOM      5  C   UNL     1       4.321   6.231  -1.031  1.00  0.00     0.107 A 
ATOM      6  C   UNL     1       5.227   5.750  -2.023  1.00  0.00     0.134 A 
ATOM      7  C   UNL     1       4.783   4.817  -2.968  1.00  0.00     0.093 A 
ATOM      8  C   UNL     1       3.451   4.395  -2.993  1.00  0.00     0.123 A 
ATOM      9  C   UNL     1       2.546   4.900  -2.062  1.00  0.00     0.094 A 
ATOM     10  C   UNL     1       2.967   5.805  -1.085  1.00  0.00     0.146 A 
ATOM     11  O   UNL     1       2.077   6.252  -0.206  1.00  0.00    -0.456 OA
ENDROOT
BRANCH   1  12
ATOM     12  C   UNL     1       1.294   7.537   1.693  1.00  0.00     0.021 A 
ATOM     13  C   UNL     1       1.562   8.334   2.822  1.00  0.00     0.016 A 
ATOM     14  C   UNL     1       0.524   8.743   3.663  1.00  0.00     0.051 A 
ATOM     15  C   UNL     1      -0.798   8.370   3.390  1.00  0.00     0.157 A 
ATOM     16  C   UNL     1      -0.037   7.178   1.417  1.00  0.00     0.062 A 
ATOM     17  C   UNL     1      -1.079   7.585   2.259  1.00  0.00     0.158 A 
BRANCH  15  18
ATOM     18  O   UNL     1      -1.830   8.778   4.232  1.00  0.00    -0.504 OA
ATOM     19  H   UNL     1      -2.533   8.128   4.564  1.00  0.00     0.293 HD
ENDBRANCH  15  18
BRANCH  17  20
ATOM     20  O   UNL     1      -2.384   7.200   1.956  1.00  0.00    -0.504 OA
ATOM     21  H   UNL     1      -3.186   7.589   2.438  1.00  0.00     0.293 HD
ENDBRANCH  17  20
ENDBRANCH   1  12
BRANCH   6  22
ATOM     22  O   UNL     1       6.555   6.172  -2.139  1.00  0.00    -0.507 OA
ATOM     23  H   UNL     1       7.326   5.582  -2.407  1.00  0.00     0.293 HD
ENDBRANCH   6  22
BRANCH   8  24
ATOM     24  O   UNL     1       3.014   3.478  -3.948  1.00  0.00    -0.508 OA
ATOM     25  H   UNL     1       2.104   3.562  -4.385  1.00  0.00     0.293 HD
ENDBRANCH   8  24
TORSDOF 5
ENDMDL
MODEL 7
REMARK VINA RESULT:    -4.565     11.930     12.407
REMARK INTER + INTRA:          -5.659
REMARK INTER:                  -5.379
REMARK INTRA:                  -0.280
REMARK UNBOUND:                -0.293
REMARK SMILES O=c1cc(-c2ccc(O)c(O)c2)oc2cc(O)cc(O)c12
REMARK SMILES IDX 4 1 3 2 2 3 1 4 21 5 19 6 18 7 16 8 15 9 14 10 13 11 5 12
REMARK SMILES IDX 6 13 7 14 8 15 12 16 10 17 9 18 11 20 20 22 17 24
REMARK H PARENT 9 19 11 21 20 23 17 25
REMARK Flexibility Score: inf
ROOT
ATOM      1  C   UNL     1      -0.730  -1.406   7.132  1.00  0.00     0.138 A 
ATOM      2  C   UNL     1      -0.006  -0.265   6.763  1.00  0.00     0.100 A 
ATOM      3  C   UNL     1      -0.688   0.899   6.404  1.00  0.00     0.197 A 
ATOM      4  O   UNL     1      -0.012   1.888   6.018  1.00  0.00    -0.289 OA
ATOM      5  C   UNL     1      -2.102   0.927   6.446  1.00  0.00     0.107 A 
ATOM      6  C   UNL     1      -2.902   2.069   6.141  1.00  0.00     0.134 A 
ATOM      7  C   UNL     1      -4.296   1.945   6.104  1.00  0.00     0.093 A 
ATOM      8  C   UNL     1      -4.920   0.735   6.420  1.00  0.00     0.123 A 
ATOM      9  C   UNL     1      -4.151  -0.371   6.771  1.00  0.00     0.094 A 
ATOM     10  C   UNL     1      -2.756  -0.288   6.784  1.00  0.00     0.146 A 
ATOM     11  O   UNL     1      -2.058  -1.371   7.109  1.00  0.00    -0.456 OA
ENDROOT
BRANCH   1  12
ATOM     12  C   UNL     1      -0.056  -2.670   7.523  1.00  0.00     0.021 A 
ATOM     13  C   UNL     1      -0.540  -3.926   7.109  1.00  0.00     0.016 A 
ATOM     14  C   UNL     1       0.120  -5.099   7.483  1.00  0.00     0.051 A 
ATOM     15  C   UNL     1       1.276  -5.040   8.271  1.00  0.00     0.157 A 
ATOM     16  C   UNL     1       1.114  -2.619   8.302  1.00  0.00     0.062 A 
ATOM     17  C   UNL     1       1.776  -3.793   8.680  1.00  0.00     0.158 A 
BRANCH  15  18
ATOM     18  O   UNL     1       1.930  -6.213   8.643  1.00  0.00    -0.504 OA
ATOM     19  H   UNL     1       2.278  -6.351   9.586  1.00  0.00     0.293 HD
ENDBRANCH  15  18
BRANCH  17  20
ATOM     20  O   UNL     1       2.928  -3.699   9.460  1.00  0.00    -0.504 OA
ATOM     21  H   UNL     1       2.906  -3.806  10.468  1.00  0.00     0.293 HD
ENDBRANCH  17  20
ENDBRANCH   1  12
BRANCH   6  22
ATOM     22  O   UNL     1      -2.381   3.343   5.895  1.00  0.00    -0.507 OA
ATOM     23  H   UNL     1      -1.540   3.532   5.373  1.00  0.00     0.293 HD
ENDBRANCH   6  22
BRANCH   8  24
ATOM     24  O   UNL     1      -6.310   0.626   6.395  1.00  0.00    -0.508 OA
ATOM     25  H   UNL     1      -6.860   0.676   7.245  1.00  0.00     0.293 HD
ENDBRANCH   8  24
TORSDOF 5
ENDMDL
MODEL 8
REMARK VINA RESULT:    -4.562     11.126     13.595
REMARK INTER + INTRA:          -5.655
REMARK INTER:                  -5.354
REMARK INTRA:                  -0.301
REMARK UNBOUND:                -0.293
REMARK SMILES O=c1cc(-c2ccc(O)c(O)c2)oc2cc(O)cc(O)c12
REMARK SMILES IDX 4 1 3 2 2 3 1 4 21 5 19 6 18 7 16 8 15 9 14 10 13 11 5 12
REMARK SMILES IDX 6 13 7 14 8 15 12 16 10 17 9 18 11 20 20 22 17 24
REMARK H PARENT 9 19 11 21 20 23 17 25
REMARK Flexibility Score: inf
ROOT
ATOM      1  C   UNL     1       1.691   7.365   0.187  1.00  0.00     0.138 A 
ATOM      2  C   UNL     1       0.612   7.641  -0.663  1.00  0.00     0.100 A 
ATOM      3  C   UNL     1       0.563   7.057  -1.929  1.00  0.00     0.197 A 
ATOM      4  O   UNL     1      -0.386   7.372  -2.693  1.00  0.00    -0.289 OA
ATOM      5  C   UNL     1       1.587   6.166  -2.332  1.00  0.00     0.107 A 
ATOM      6  C   UNL     1       1.621   5.480  -3.583  1.00  0.00     0.134 A 
ATOM      7  C   UNL     1       2.743   4.714  -3.920  1.00  0.00     0.093 A 
ATOM      8  C   UNL     1       3.805   4.560  -3.025  1.00  0.00     0.123 A 
ATOM      9  C   UNL     1       3.758   5.182  -1.780  1.00  0.00     0.094 A 
ATOM     10  C   UNL     1       2.667   5.981  -1.429  1.00  0.00     0.146 A 
ATOM     11  O   UNL     1       2.667   6.569  -0.237  1.00  0.00    -0.456 OA
ENDROOT
BRANCH   1  12
ATOM     12  C   UNL     1       1.793   7.959   1.544  1.00  0.00     0.021 A 
ATOM     13  C   UNL     1       0.660   8.137   2.361  1.00  0.00     0.016 A 
ATOM     14  C   UNL     1       0.786   8.689   3.638  1.00  0.00     0.051 A 
ATOM     15  C   UNL     1       2.043   9.066   4.125  1.00  0.00     0.157 A 
ATOM     16  C   UNL     1       3.054   8.328   2.046  1.00  0.00     0.062 A 
ATOM     17  C   UNL     1       3.183   8.882   3.325  1.00  0.00     0.158 A 
BRANCH  15  18
ATOM     18  O   UNL     1       2.164   9.618   5.399  1.00  0.00    -0.504 OA
ATOM     19  H   UNL     1       2.982   9.453   5.974  1.00  0.00     0.293 HD
ENDBRANCH  15  18
BRANCH  17  20
ATOM     20  O   UNL     1       4.450   9.244   3.782  1.00  0.00    -0.504 OA
ATOM     21  H   UNL     1       5.279   9.138   3.209  1.00  0.00     0.293 HD
ENDBRANCH  17  20
ENDBRANCH   1  12
BRANCH   6  22
ATOM     22  O   UNL     1       0.575   5.498  -4.512  1.00  0.00    -0.507 OA
ATOM     23  H   UNL     1      -0.126   4.781  -4.604  1.00  0.00     0.293 HD
ENDBRANCH   6  22
BRANCH   8  24
ATOM     24  O   UNL     1       4.912   3.782  -3.363  1.00  0.00    -0.508 OA
ATOM     25  H   UNL     1       5.370   3.875  -4.261  1.00  0.00     0.293 HD
ENDBRANCH   8  24
TORSDOF 5
ENDMDL
MODEL 9
REMARK VINA RESULT:    -4.535      1.196      2.795
REMARK INTER + INTRA:          -5.624
REMARK INTER:                  -5.310
REMARK INTRA:                  -0.314
REMARK UNBOUND:                -0.293
REMARK SMILES O=c1cc(-c2ccc(O)c(O)c2)oc2cc(O)cc(O)c12
REMARK SMILES IDX 4 1 3 2 2 3 1 4 21 5 19 6 18 7 16 8 15 9 14 10 13 11 5 12
REMARK SMILES IDX 6 13 7 14 8 15 12 16 10 17 9 18 11 20 20 22 17 24
REMARK H PARENT 9 19 11 21 20 23 17 25
REMARK Flexibility Score: inf
ROOT
ATOM      1  C   UNL     1      -7.593  -1.082  -2.892  1.00  0.00     0.138 A 
ATOM      2  C   UNL     1      -8.332  -0.825  -1.730  1.00  0.00     0.100 A 
ATOM      3  C   UNL     1      -8.652   0.491  -1.392  1.00  0.00     0.197 A 
ATOM      4  O   UNL     1      -9.263   0.695  -0.311  1.00  0.00    -0.289 OA
ATOM      5  C   UNL     1      -8.256   1.551  -2.243  1.00  0.00     0.107 A 
ATOM      6  C   UNL     1      -8.562   2.927  -2.021  1.00  0.00     0.134 A 
ATOM      7  C   UNL     1      -8.018   3.900  -2.868  1.00  0.00     0.093 A 
ATOM      8  C   UNL     1      -7.229   3.541  -3.964  1.00  0.00     0.123 A 
ATOM      9  C   UNL     1      -6.968   2.197  -4.220  1.00  0.00     0.094 A 
ATOM     10  C   UNL     1      -7.469   1.205  -3.373  1.00  0.00     0.146 A 
ATOM     11  O   UNL     1      -7.185  -0.064  -3.644  1.00  0.00    -0.456 OA
ENDROOT
BRANCH   1  12
ATOM     12  C   UNL     1      -7.225  -2.462  -3.298  1.00  0.00     0.021 A 
ATOM     13  C   UNL     1      -7.906  -3.588  -2.796  1.00  0.00     0.016 A 
ATOM     14  C   UNL     1      -7.546  -4.875  -3.204  1.00  0.00     0.051 A 
ATOM     15  C   UNL     1      -6.506  -5.061  -4.122  1.00  0.00     0.157 A 
ATOM     16  C   UNL     1      -6.191  -2.657  -4.231  1.00  0.00     0.062 A 
ATOM     17  C   UNL     1      -5.827  -3.945  -4.640  1.00  0.00     0.158 A 
BRANCH  15  18
ATOM     18  O   UNL     1      -6.149  -6.346  -4.525  1.00  0.00    -0.504 OA
ATOM     19  H   UNL     1      -5.573  -6.505  -5.344  1.00  0.00     0.293 HD
ENDBRANCH  15  18
BRANCH  17  20
ATOM     20  O   UNL     1      -4.790  -4.096  -5.560  1.00  0.00    -0.504 OA
ATOM     21  H   UNL     1      -4.864  -4.717  -6.358  1.00  0.00     0.293 HD
ENDBRANCH  17  20
ENDBRANCH   1  12
BRANCH   6  22
ATOM     22  O   UNL     1      -9.409   3.386  -1.007  1.00  0.00    -0.507 OA
ATOM     23  H   UNL     1      -9.392   4.315  -0.618  1.00  0.00     0.293 HD
ENDBRANCH   6  22
BRANCH   8  24
ATOM     24  O   UNL     1      -6.704   4.516  -4.812  1.00  0.00    -0.508 OA
ATOM     25  H   UNL     1      -7.304   5.101  -5.381  1.00  0.00     0.293 HD
ENDBRANCH   8  24
TORSDOF 5
ENDMDL
