MODEL 1
REMARK VINA RESULT:    -4.657      0.000      0.000
REMARK INTER + INTRA:          -4.657
REMARK INTER:                  -4.657
REMARK INTRA:                   0.000
REMARK UNBOUND:                 0.000
REMARK SMILES O=c1ccc2ccccc2o1
REMARK SMILES IDX 7 1 8 2 9 3 10 4 5 5 6 6 4 7 3 8 2 9 1 10 11 11
REMARK H PARENT
REMARK Flexibility Score: inf
ROOT
ATOM      1  C   UNL     1      -7.444  -1.545  10.000  1.00  0.00     0.001 A 
ATOM      2  C   UNL     1      -6.514  -1.216   9.007  1.00  0.00     0.004 A 
ATOM      3  C   UNL     1      -6.936  -0.998   7.692  1.00  0.00     0.048 A 
ATOM      4  C   UNL     1      -8.291  -1.108   7.362  1.00  0.00     0.138 A 
ATOM      5  C   UNL     1      -9.231  -1.442   8.364  1.00  0.00     0.018 A 
ATOM      6  C   UNL     1      -8.803  -1.660   9.681  1.00  0.00     0.012 A 
ATOM      7  C   UNL     1     -10.579  -1.546   8.005  1.00  0.00     0.019 A 
ATOM      8  C   UNL     1     -10.953  -1.320   6.681  1.00  0.00     0.094 A 
ATOM      9  C   UNL     1      -9.967  -0.994   5.743  1.00  0.00     0.336 A 
ATOM     10  O   UNL     1     -10.286  -0.786   4.543  1.00  0.00    -0.246 OA
ATOM     11  O   UNL     1      -8.691  -0.901   6.110  1.00  0.00    -0.423 OA
ENDROOT
TORSDOF 0
ENDMDL
MODEL 2
REMARK VINA RESULT:    -4.562      1.243      2.146
REMARK INTER + INTRA:          -4.562
REMARK INTER:                  -4.562
REMARK INTRA:                   0.000
REMARK UNBOUND:                 0.000
REMARK SMILES O=c1ccc2ccccc2o1
REMARK SMILES IDX 7 1 8 2 9 3 10 4 5 5 6 6 4 7 3 8 2 9 1 10 11 11
REMARK H PARENT
REMARK Flexibility Score: inf
ROOT
ATOM      1  C   UNL     1      -6.560  -1.212   9.190  1.00  0.00     0.001 A 
ATOM      2  C   UNL     1      -7.554  -1.527  10.123  1.00  0.00     0.004 A 
ATOM      3  C   UNL     1      -8.878  -1.707   9.709  1.00  0.00     0.048 A 
ATOM      4  C   UNL     1      -9.213  -1.572   8.356  1.00  0.00     0.138 A 
ATOM      5  C   UNL     1      -8.210  -1.252   7.414  1.00  0.00     0.018 A 
ATOM      6  C   UNL     1      -6.884  -1.073   7.836  1.00  0.00     0.012 A 
ATOM      7  C   UNL     1      -8.574  -1.123   6.070  1.00  0.00     0.019 A 
ATOM      8  C   UNL     1      -9.906  -1.311   5.702  1.00  0.00     0.094 A 
ATOM      9  C   UNL     1     -10.846  -1.626   6.690  1.00  0.00     0.336 A 
ATOM     10  O   UNL     1     -12.052  -1.799   6.378  1.00  0.00    -0.246 OA
ATOM     11  O   UNL     1     -10.473  -1.742   7.963  1.00  0.00    -0.423 OA
ENDROOT
TORSDOF 0
ENDMDL
MODEL 3
REMARK VINA RESULT:    -3.949      2.252      2.465
REMARK INTER + INTRA:          -3.949
REMARK INTER:                  -3.949
REMARK INTRA:                   0.000
REMARK UNBOUND:                 0.000
REMARK SMILES O=c1ccc2ccccc2o1
REMARK SMILES IDX 7 1 8 2 9 3 10 4 5 5 6 6 4 7 3 8 2 9 1 10 11 11
REMARK H PARENT
REMARK Flexibility Score: inf
ROOT
ATOM      1  C   UNL     1      -6.591  -1.405   9.348  1.00  0.00     0.001 A 
ATOM      2  C   UNL     1      -6.668  -0.244  10.125  1.00  0.00     0.004 A 
ATOM      3  C   UNL     1      -7.736   0.644   9.960  1.00  0.00     0.048 A 
ATOM      4  C   UNL     1      -8.733   0.374   9.016  1.00  0.00     0.138 A 
ATOM      5  C   UNL     1      -8.655  -0.798   8.230  1.00  0.00     0.018 A 
ATOM      6  C   UNL     1      -7.582  -1.685   8.400  1.00  0.00     0.012 A 
ATOM      7  C   UNL     1      -9.665  -1.042   7.294  1.00  0.00     0.019 A 
ATOM      8  C   UNL     1     -10.710  -0.129   7.164  1.00  0.00     0.094 A 
ATOM      9  C   UNL     1     -10.722   1.011   7.976  1.00  0.00     0.336 A 
ATOM     10  O   UNL     1     -11.657   1.847   7.873  1.00  0.00    -0.246 OA
ATOM     11  O   UNL     1      -9.748   1.220   8.859  1.00  0.00    -0.423 OA
ENDROOT
TORSDOF 0
ENDMDL
MODEL 4
REMARK VINA RESULT:    -3.933      2.979      3.353
REMARK INTER + INTRA:          -3.933
REMARK INTER:                  -3.933
REMARK INTRA:                   0.000
REMARK UNBOUND:                 0.000
REMARK SMILES O=c1ccc2ccccc2o1
REMARK SMILES IDX 7 1 8 2 9 3 10 4 5 5 6 6 4 7 3 8 2 9 1 10 11 11
REMARK H PARENT
REMARK Flexibility Score: inf
ROOT
ATOM      1  C   UNL     1      -6.748  -1.035   9.674  1.00  0.00     0.001 A 
ATOM      2  C   UNL     1      -7.494  -1.622   8.647  1.00  0.00     0.004 A 
ATOM      3  C   UNL     1      -8.557  -0.925   8.062  1.00  0.00     0.048 A 
ATOM      4  C   UNL     1      -8.879   0.363   8.504  1.00  0.00     0.138 A 
ATOM      5  C   UNL     1      -8.127   0.956   9.543  1.00  0.00     0.018 A 
ATOM      6  C   UNL     1      -7.061   0.253  10.125  1.00  0.00     0.012 A 
ATOM      7  C   UNL     1      -8.471   2.244   9.964  1.00  0.00     0.019 A 
ATOM      8  C   UNL     1      -9.538   2.900   9.353  1.00  0.00     0.094 A 
ATOM      9  C   UNL     1     -10.239   2.251   8.330  1.00  0.00     0.336 A 
ATOM     10  O   UNL     1     -11.205   2.827   7.767  1.00  0.00    -0.246 OA
ATOM     11  O   UNL     1      -9.891   1.025   7.948  1.00  0.00    -0.423 OA
ENDROOT
TORSDOF 0
ENDMDL
MODEL 5
REMARK VINA RESULT:    -3.707     19.367     19.705
REMARK INTER + INTRA:          -3.707
REMARK INTER:                  -3.707
REMARK INTRA:                   0.000
REMARK UNBOUND:                 0.000
REMARK SMILES O=c1ccc2ccccc2o1
REMARK SMILES IDX 7 1 8 2 9 3 10 4 5 5 6 6 4 7 3 8 2 9 1 10 11 11
REMARK H PARENT
REMARK Flexibility Score: inf
ROOT
ATOM      1  C   UNL     1       3.986  -3.824  -6.965  1.00  0.00     0.001 A 
ATOM      2  C   UNL     1       4.615  -2.620  -6.629  1.00  0.00     0.004 A 
ATOM      3  C   UNL     1       5.514  -2.570  -5.558  1.00  0.00     0.048 A 
ATOM      4  C   UNL     1       5.785  -3.726  -4.817  1.00  0.00     0.138 A 
ATOM      5  C   UNL     1       5.149  -4.942  -5.155  1.00  0.00     0.018 A 
ATOM      6  C   UNL     1       4.250  -4.986  -6.230  1.00  0.00     0.012 A 
ATOM      7  C   UNL     1       5.440  -6.080  -4.397  1.00  0.00     0.019 A 
ATOM      8  C   UNL     1       6.341  -5.984  -3.338  1.00  0.00     0.094 A 
ATOM      9  C   UNL     1       6.934  -4.747  -3.060  1.00  0.00     0.336 A 
ATOM     10  O   UNL     1       7.750  -4.640  -2.108  1.00  0.00    -0.246 OA
ATOM     11  O   UNL     1       6.639  -3.678  -3.797  1.00  0.00    -0.423 OA
ENDROOT
TORSDOF 0
ENDMDL
MODEL 6
REMARK VINA RESULT:    -3.681      2.244      2.491
REMARK INTER + INTRA:          -3.681
REMARK INTER:                  -3.681
REMARK INTRA:                   0.000
REMARK UNBOUND:                 0.000
REMARK SMILES O=c1ccc2ccccc2o1
REMARK SMILES IDX 7 1 8 2 9 3 10 4 5 5 6 6 4 7 3 8 2 9 1 10 11 11
REMARK H PARENT
REMARK Flexibility Score: inf
ROOT
ATOM      1  C   UNL     1      -7.890   1.333  10.125  1.00  0.00     0.001 A 
ATOM      2  C   UNL     1      -8.811   2.266   9.636  1.00  0.00     0.004 A 
ATOM      3  C   UNL     1      -9.681   1.920   8.597  1.00  0.00     0.048 A 
ATOM      4  C   UNL     1      -9.633   0.636   8.041  1.00  0.00     0.138 A 
ATOM      5  C   UNL     1      -8.702  -0.306   8.534  1.00  0.00     0.018 A 
ATOM      6  C   UNL     1      -7.833   0.046   9.576  1.00  0.00     0.012 A 
ATOM      7  C   UNL     1      -8.677  -1.581   7.959  1.00  0.00     0.019 A 
ATOM      8  C   UNL     1      -9.563  -1.882   6.925  1.00  0.00     0.094 A 
ATOM      9  C   UNL     1     -10.457  -0.898   6.488  1.00  0.00     0.336 A 
ATOM     10  O   UNL     1     -11.263  -1.151   5.556  1.00  0.00    -0.246 OA
ATOM     11  O   UNL     1     -10.460   0.308   7.052  1.00  0.00    -0.423 OA
ENDROOT
TORSDOF 0
ENDMDL
MODEL 7
REMARK VINA RESULT:    -3.610     18.565     19.578
REMARK INTER + INTRA:          -3.610
REMARK INTER:                  -3.610
REMARK INTRA:                   0.000
REMARK UNBOUND:                 0.000
REMARK SMILES O=c1ccc2ccccc2o1
REMARK SMILES IDX 7 1 8 2 9 3 10 4 5 5 6 6 4 7 3 8 2 9 1 10 11 11
REMARK H PARENT
REMARK Flexibility Score: inf
ROOT
ATOM      1  C   UNL     1       7.187  -6.090  -3.219  1.00  0.00     0.001 A 
ATOM      2  C   UNL     1       5.796  -6.124  -3.374  1.00  0.00     0.004 A 
ATOM      3  C   UNL     1       5.110  -4.992  -3.826  1.00  0.00     0.048 A 
ATOM      4  C   UNL     1       5.813  -3.820  -4.125  1.00  0.00     0.138 A 
ATOM      5  C   UNL     1       7.217  -3.784  -3.968  1.00  0.00     0.018 A 
ATOM      6  C   UNL     1       7.899  -4.923  -3.515  1.00  0.00     0.012 A 
ATOM      7  C   UNL     1       7.892  -2.599  -4.274  1.00  0.00     0.019 A 
ATOM      8  C   UNL     1       7.167  -1.495  -4.721  1.00  0.00     0.094 A 
ATOM      9  C   UNL     1       5.778  -1.603  -4.853  1.00  0.00     0.336 A 
ATOM     10  O   UNL     1       5.107  -0.617  -5.255  1.00  0.00    -0.246 OA
ATOM     11  O   UNL     1       5.159  -2.743  -4.554  1.00  0.00    -0.423 OA
ENDROOT
TORSDOF 0
ENDMDL
MODEL 8
REMARK VINA RESULT:    -3.582     10.604     12.727
REMARK INTER + INTRA:          -3.582
REMARK INTER:                  -3.582
REMARK INTRA:                   0.000
REMARK UNBOUND:                 0.000
REMARK SMILES O=c1ccc2ccccc2o1
REMARK SMILES IDX 7 1 8 2 9 3 10 4 5 5 6 6 4 7 3 8 2 9 1 10 11 11
REMARK H PARENT
REMARK Flexibility Score: inf
ROOT
ATOM      1  C   UNL     1     -12.088   7.097  -4.033  1.00  0.00     0.001 A 
ATOM      2  C   UNL     1     -12.116   7.375  -2.662  1.00  0.00     0.004 A 
ATOM      3  C   UNL     1     -12.125   6.330  -1.732  1.00  0.00     0.048 A 
ATOM      4  C   UNL     1     -12.106   5.001  -2.171  1.00  0.00     0.138 A 
ATOM      5  C   UNL     1     -12.080   4.720  -3.555  1.00  0.00     0.018 A 
ATOM      6  C   UNL     1     -12.070   5.772  -4.483  1.00  0.00     0.012 A 
ATOM      7  C   UNL     1     -12.062   3.383  -3.964  1.00  0.00     0.019 A 
ATOM      8  C   UNL     1     -12.072   2.374  -3.002  1.00  0.00     0.094 A 
ATOM      9  C   UNL     1     -12.099   2.727  -1.648  1.00  0.00     0.336 A 
ATOM     10  O   UNL     1     -12.108   1.831  -0.765  1.00  0.00    -0.246 OA
ATOM     11  O   UNL     1     -12.116   4.008  -1.285  1.00  0.00    -0.423 OA
ENDROOT
TORSDOF 0
ENDMDL
MODEL 9
REMARK VINA RESULT:    -2.958     12.157     13.761
REMARK INTER + INTRA:          -2.958
REMARK INTER:                  -2.958
REMARK INTRA:                   0.000
REMARK UNBOUND:                 0.000
REMARK SMILES O=c1ccc2ccccc2o1
REMARK SMILES IDX 7 1 8 2 9 3 10 4 5 5 6 6 4 7 3 8 2 9 1 10 11 11
REMARK H PARENT
REMARK Flexibility Score: inf
ROOT
ATOM      1  C   UNL     1     -11.772   2.800  -5.496  1.00  0.00     0.001 A 
ATOM      2  C   UNL     1     -11.518   2.343  -4.198  1.00  0.00     0.004 A 
ATOM      3  C   UNL     1     -11.467   3.246  -3.130  1.00  0.00     0.048 A 
ATOM      4  C   UNL     1     -11.671   4.612  -3.358  1.00  0.00     0.138 A 
ATOM      5  C   UNL     1     -11.926   5.074  -4.669  1.00  0.00     0.018 A 
ATOM      6  C   UNL     1     -11.976   4.164  -5.735  1.00  0.00     0.012 A 
ATOM      7  C   UNL     1     -12.125   6.444  -4.866  1.00  0.00     0.019 A 
ATOM      8  C   UNL     1     -12.065   7.307  -3.773  1.00  0.00     0.094 A 
ATOM      9  C   UNL     1     -11.807   6.779  -2.503  1.00  0.00     0.336 A 
ATOM     10  O   UNL     1     -11.750   7.543  -1.505  1.00  0.00    -0.246 OA
ATOM     11  O   UNL     1     -11.622   5.471  -2.343  1.00  0.00    -0.423 OA
ENDROOT
TORSDOF 0
ENDMDL
