MODEL 1
REMARK VINA RESULT:    -2.627      0.000      0.000
REMARK INTER + INTRA:          -3.117
REMARK INTER:                  -3.088
REMARK INTRA:                  -0.029
REMARK UNBOUND:                -0.029
REMARK SMILES CCCCC(=O)[O-]
REMARK SMILES IDX 4 1 5 2 6 3 7 4 3 5 2 6 1 7
REMARK H PARENT
REMARK Flexibility Score: inf
ROOT
ATOM      1  C   UNL     1      15.963  -9.397  27.910  1.00  0.00     0.053 C 
ENDROOT
BRANCH   1   2
ATOM      2  C   UNL     1      16.697  -9.567  29.204  1.00  0.00     0.041 C 
ATOM      3  O   UNL     1      17.719  -8.873  29.451  1.00  0.00    -0.550 OA
ATOM      4  O   UNL     1      16.272 -10.517  30.125  1.00  0.00    -0.550 OA
ENDBRANCH   1   2
BRANCH   1   5
ATOM      5  C   UNL     1      16.592  -8.304  27.038  1.00  0.00     0.006 C 
BRANCH   5   6
ATOM      6  C   UNL     1      16.583  -8.673  25.548  1.00  0.00    -0.003 C 
ATOM      7  C   UNL     1      17.893  -8.271  24.874  1.00  0.00     0.004 C 
ENDBRANCH   5   6
ENDBRANCH   1   5
TORSDOF 3
ENDMDL
MODEL 2
REMARK VINA RESULT:    -2.550      1.445      2.118
REMARK INTER + INTRA:          -3.026
REMARK INTER:                  -2.999
REMARK INTRA:                  -0.027
REMARK UNBOUND:                -0.029
REMARK SMILES CCCCC(=O)[O-]
REMARK SMILES IDX 4 1 5 2 6 3 7 4 3 5 2 6 1 7
REMARK H PARENT
REMARK Flexibility Score: inf
ROOT
ATOM      1  C   UNL     1      16.169  -9.103  29.717  1.00  0.00     0.053 C 
ENDROOT
BRANCH   1   2
ATOM      2  C   UNL     1      17.241  -8.062  29.832  1.00  0.00     0.041 C 
ATOM      3  O   UNL     1      18.451  -8.380  29.695  1.00  0.00    -0.550 OA
ATOM      4  O   UNL     1      16.903  -6.747  30.125  1.00  0.00    -0.550 OA
ENDBRANCH   1   2
BRANCH   1   5
ATOM      5  C   UNL     1      15.918  -9.501  28.258  1.00  0.00     0.006 C 
BRANCH   5   6
ATOM      6  C   UNL     1      16.035  -8.306  27.301  1.00  0.00    -0.003 C 
ATOM      7  C   UNL     1      16.808  -8.684  26.041  1.00  0.00     0.004 C 
ENDBRANCH   5   6
ENDBRANCH   1   5
TORSDOF 3
ENDMDL
MODEL 3
REMARK VINA RESULT:    -2.249      2.811      3.927
REMARK INTER + INTRA:          -2.672
REMARK INTER:                  -2.612
REMARK INTRA:                  -0.060
REMARK UNBOUND:                -0.029
REMARK SMILES CCCCC(=O)[O-]
REMARK SMILES IDX 4 1 5 2 6 3 7 4 3 5 2 6 1 7
REMARK H PARENT
REMARK Flexibility Score: inf
ROOT
ATOM      1  C   UNL     1      16.494  -8.979  27.040  1.00  0.00     0.053 C 
ENDROOT
BRANCH   1   2
ATOM      2  C   UNL     1      16.847  -8.574  25.642  1.00  0.00     0.041 C 
ATOM      3  O   UNL     1      15.946  -8.434  24.774  1.00  0.00    -0.550 OA
ATOM      4  O   UNL     1      18.178  -8.385  25.289  1.00  0.00    -0.550 OA
ENDBRANCH   1   2
BRANCH   1   5
ATOM      5  C   UNL     1      15.908  -7.808  27.839  1.00  0.00     0.006 C 
BRANCH   5   6
ATOM      6  C   UNL     1      16.475  -7.736  29.264  1.00  0.00    -0.003 C 
ATOM      7  C   UNL     1      17.806  -8.476  29.364  1.00  0.00     0.004 C 
ENDBRANCH   5   6
ENDBRANCH   1   5
TORSDOF 3
ENDMDL
MODEL 4
REMARK VINA RESULT:    -0.489     17.345     18.459
REMARK INTER + INTRA:          -0.603
REMARK INTER:                  -0.520
REMARK INTRA:                  -0.083
REMARK UNBOUND:                -0.029
REMARK SMILES CCCCC(=O)[O-]
REMARK SMILES IDX 4 1 5 2 6 3 7 4 3 5 2 6 1 7
REMARK H PARENT
REMARK Flexibility Score: inf
ROOT
ATOM      1  C   UNL     1      28.627 -15.036  15.530  1.00  0.00     0.053 C 
ENDROOT
BRANCH   1   2
ATOM      2  C   UNL     1      29.006 -15.241  16.965  1.00  0.00     0.041 C 
ATOM      3  O   UNL     1      28.963 -16.392  17.475  1.00  0.00    -0.550 OA
ATOM      4  O   UNL     1      29.376 -14.154  17.748  1.00  0.00    -0.550 OA
ENDBRANCH   1   2
BRANCH   1   5
ATOM      5  C   UNL     1      27.979 -16.289  14.929  1.00  0.00     0.006 C 
BRANCH   5   6
ATOM      6  C   UNL     1      28.572 -16.649  13.559  1.00  0.00    -0.003 C 
ATOM      7  C   UNL     1      30.002 -17.164  13.697  1.00  0.00     0.004 C 
ENDBRANCH   5   6
ENDBRANCH   1   5
TORSDOF 3
ENDMDL
MODEL 5
REMARK VINA RESULT:    -0.380     18.270     19.207
REMARK INTER + INTRA:          -0.476
REMARK INTER:                  -0.430
REMARK INTRA:                  -0.046
REMARK UNBOUND:                -0.029
REMARK SMILES CCCCC(=O)[O-]
REMARK SMILES IDX 4 1 5 2 6 3 7 4 3 5 2 6 1 7
REMARK H PARENT
REMARK Flexibility Score: inf
ROOT
ATOM      1  C   UNL     1      27.896 -16.351  14.822  1.00  0.00     0.053 C 
ENDROOT
BRANCH   1   2
ATOM      2  C   UNL     1      28.658 -16.734  13.590  1.00  0.00     0.041 C 
ATOM      3  O   UNL     1      28.091 -16.726  12.466  1.00  0.00    -0.550 OA
ATOM      4  O   UNL     1      29.986 -17.131  13.689  1.00  0.00    -0.550 OA
ENDBRANCH   1   2
BRANCH   1   5
ATOM      5  C   UNL     1      28.620 -15.261  15.622  1.00  0.00     0.006 C 
BRANCH   5   6
ATOM      6  C   UNL     1      29.038 -15.746  17.018  1.00  0.00    -0.003 C 
ATOM      7  C   UNL     1      29.424 -14.573  17.914  1.00  0.00     0.004 C 
ENDBRANCH   5   6
ENDBRANCH   1   5
TORSDOF 3
ENDMDL
