MODEL 1
REMARK VINA RESULT:    -2.706      0.000      0.000
REMARK INTER + INTRA:          -2.706
REMARK INTER:                  -2.706
REMARK INTRA:                   0.000
REMARK UNBOUND:                 0.000
REMARK SMILES CC(=O)[O-]
REMARK SMILES IDX 1 1 2 2 3 3 4 4
REMARK H PARENT
REMARK Flexibility Score: inf
ROOT
ATOM      1  C   UNL     1      46.382  -6.900   0.598  1.00  0.00     0.063 C 
ATOM      2  C   UNL     1      44.913  -6.848   0.351  1.00  0.00     0.038 C 
ATOM      3  O   UNL     1      44.409  -7.499  -0.601  1.00  0.00    -0.550 OA
ATOM      4  O   UNL     1      44.089  -6.126   1.205  1.00  0.00    -0.550 OA
ENDROOT
TORSDOF 0
ENDMDL
MODEL 2
REMARK VINA RESULT:    -2.604     16.666     16.972
REMARK INTER + INTRA:          -2.604
REMARK INTER:                  -2.604
REMARK INTRA:                   0.000
REMARK UNBOUND:                 0.000
REMARK SMILES CC(=O)[O-]
REMARK SMILES IDX 1 1 2 2 3 3 4 4
REMARK H PARENT
REMARK Flexibility Score: inf
ROOT
ATOM      1  C   UNL     1      59.602   1.387  -3.582  1.00  0.00     0.063 C 
ATOM      2  C   UNL     1      58.659   2.458  -3.149  1.00  0.00     0.038 C 
ATOM      3  O   UNL     1      58.854   3.651  -3.501  1.00  0.00    -0.550 OA
ATOM      4  O   UNL     1      57.534   2.134  -2.404  1.00  0.00    -0.550 OA
ENDROOT
TORSDOF 0
ENDMDL
MODEL 3
REMARK VINA RESULT:    -2.541      2.544      2.820
REMARK INTER + INTRA:          -2.541
REMARK INTER:                  -2.541
REMARK INTRA:                   0.000
REMARK UNBOUND:                 0.000
REMARK SMILES CC(=O)[O-]
REMARK SMILES IDX 1 1 2 2 3 3 4 4
REMARK H PARENT
REMARK Flexibility Score: inf
ROOT
ATOM      1  C   UNL     1      45.925  -6.850   0.595  1.00  0.00     0.063 C 
ATOM      2  C   UNL     1      46.976  -7.384  -0.317  1.00  0.00     0.038 C 
ATOM      3  O   UNL     1      46.851  -8.531  -0.821  1.00  0.00    -0.550 OA
ATOM      4  O   UNL     1      48.069  -6.597  -0.656  1.00  0.00    -0.550 OA
ENDROOT
TORSDOF 0
ENDMDL
MODEL 4
REMARK VINA RESULT:    -2.537      1.844      2.608
REMARK INTER + INTRA:          -2.537
REMARK INTER:                  -2.537
REMARK INTRA:                   0.000
REMARK UNBOUND:                 0.000
REMARK SMILES CC(=O)[O-]
REMARK SMILES IDX 1 1 2 2 3 3 4 4
REMARK H PARENT
REMARK Flexibility Score: inf
ROOT
ATOM      1  C   UNL     1      48.186  -6.807  -0.327  1.00  0.00     0.063 C 
ATOM      2  C   UNL     1      46.799  -7.293  -0.079  1.00  0.00     0.038 C 
ATOM      3  O   UNL     1      46.108  -6.786   0.843  1.00  0.00    -0.550 OA
ATOM      4  O   UNL     1      46.246  -8.267  -0.899  1.00  0.00    -0.550 OA
ENDROOT
TORSDOF 0
ENDMDL
MODEL 5
REMARK VINA RESULT:    -2.529      2.623      2.931
REMARK INTER + INTRA:          -2.529
REMARK INTER:                  -2.529
REMARK INTRA:                   0.000
REMARK UNBOUND:                 0.000
REMARK SMILES CC(=O)[O-]
REMARK SMILES IDX 1 1 2 2 3 3 4 4
REMARK H PARENT
REMARK Flexibility Score: inf
ROOT
ATOM      1  C   UNL     1      46.944  -8.421  -0.940  1.00  0.00     0.063 C 
ATOM      2  C   UNL     1      47.093  -7.243  -0.038  1.00  0.00     0.038 C 
ATOM      3  O   UNL     1      46.109  -6.833   0.632  1.00  0.00    -0.550 OA
ATOM      4  O   UNL     1      48.330  -6.630   0.108  1.00  0.00    -0.550 OA
ENDROOT
TORSDOF 0
ENDMDL
MODEL 6
REMARK VINA RESULT:    -2.524     16.710     17.030
REMARK INTER + INTRA:          -2.524
REMARK INTER:                  -2.524
REMARK INTRA:                   0.000
REMARK UNBOUND:                 0.000
REMARK SMILES CC(=O)[O-]
REMARK SMILES IDX 1 1 2 2 3 3 4 4
REMARK H PARENT
REMARK Flexibility Score: inf
ROOT
ATOM      1  C   UNL     1      57.774   2.040  -2.025  1.00  0.00     0.063 C 
ATOM      2  C   UNL     1      58.690   2.388  -3.149  1.00  0.00     0.038 C 
ATOM      3  O   UNL     1      58.851   3.590  -3.484  1.00  0.00    -0.550 OA
ATOM      4  O   UNL     1      59.411   1.391  -3.794  1.00  0.00    -0.550 OA
ENDROOT
TORSDOF 0
ENDMDL
MODEL 7
REMARK VINA RESULT:    -2.437     13.641     14.145
REMARK INTER + INTRA:          -2.437
REMARK INTER:                  -2.437
REMARK INTRA:                   0.000
REMARK UNBOUND:                 0.000
REMARK SMILES CC(=O)[O-]
REMARK SMILES IDX 1 1 2 2 3 3 4 4
REMARK H PARENT
REMARK Flexibility Score: inf
ROOT
ATOM      1  C   UNL     1      51.424   2.902   8.866  1.00  0.00     0.063 C 
ATOM      2  C   UNL     1      49.961   3.180   8.937  1.00  0.00     0.038 C 
ATOM      3  O   UNL     1      49.539   4.364   8.875  1.00  0.00    -0.550 OA
ATOM      4  O   UNL     1      49.057   2.129   9.015  1.00  0.00    -0.550 OA
ENDROOT
TORSDOF 0
ENDMDL
MODEL 8
REMARK VINA RESULT:    -2.356     14.337     14.824
REMARK INTER + INTRA:          -2.356
REMARK INTER:                  -2.356
REMARK INTRA:                   0.000
REMARK UNBOUND:                 0.000
REMARK SMILES CC(=O)[O-]
REMARK SMILES IDX 1 1 2 2 3 3 4 4
REMARK H PARENT
REMARK Flexibility Score: inf
ROOT
ATOM      1  C   UNL     1      50.009   3.591   8.796  1.00  0.00     0.063 C 
ATOM      2  C   UNL     1      51.206   2.925   9.382  1.00  0.00     0.038 C 
ATOM      3  O   UNL     1      51.396   2.948  10.626  1.00  0.00    -0.550 OA
ATOM      4  O   UNL     1      52.086   2.229   8.563  1.00  0.00    -0.550 OA
ENDROOT
TORSDOF 0
ENDMDL
MODEL 9
REMARK VINA RESULT:    -2.266     14.549     14.859
REMARK INTER + INTRA:          -2.266
REMARK INTER:                  -2.266
REMARK INTRA:                   0.000
REMARK UNBOUND:                 0.000
REMARK SMILES CC(=O)[O-]
REMARK SMILES IDX 1 1 2 2 3 3 4 4
REMARK H PARENT
REMARK Flexibility Score: inf
ROOT
ATOM      1  C   UNL     1      51.898   2.779  10.650  1.00  0.00     0.063 C 
ATOM      2  C   UNL     1      51.972   2.642   9.168  1.00  0.00     0.038 C 
ATOM      3  O   UNL     1      51.287   3.397   8.429  1.00  0.00    -0.550 OA
ATOM      4  O   UNL     1      52.838   1.720   8.596  1.00  0.00    -0.550 OA
ENDROOT
TORSDOF 0
ENDMDL
