MODEL 1
REMARK VINA RESULT:    13.318      0.000      0.000
REMARK INTER + INTRA:          29.718
REMARK INTER:                  30.446
REMARK INTRA:                  -0.729
REMARK UNBOUND:                -0.729
REMARK SMILES CCCCCCCCCCCCCCCCCCCCCCCC(=O)[O-]
REMARK SMILES IDX 13 1 14 2 15 3 16 4 17 5 18 6 19 7 20 8 21 9 22 10 23 11
REMARK SMILES IDX 24 12 25 13 26 14 12 15 11 16 10 17 9 18 8 19 7 20 6 21 5 22
REMARK SMILES IDX 4 23 3 24 2 25 1 26
REMARK H PARENT
REMARK Flexibility Score: inf
ROOT
ATOM      1  C   UNL     1      55.930 146.171  -2.622  1.00  0.00     0.000 C 
ENDROOT
BRANCH   1   2
ATOM      2  C   UNL     1      55.426 146.852  -3.912  1.00  0.00     0.000 C 
BRANCH   2   3
ATOM      3  C   UNL     1      54.482 148.048  -3.692  1.00  0.00     0.000 C 
BRANCH   3   4
ATOM      4  C   UNL     1      53.924 148.108  -2.260  1.00  0.00     0.000 C 
BRANCH   4   5
ATOM      5  C   UNL     1      52.452 147.669  -2.182  1.00  0.00     0.000 C 
BRANCH   5   6
ATOM      6  C   UNL     1      52.086 147.061  -0.816  1.00  0.00     0.000 C 
BRANCH   6   7
ATOM      7  C   UNL     1      51.740 148.125   0.240  1.00  0.00     0.000 C 
BRANCH   7   8
ATOM      8  C   UNL     1      51.450 147.579   1.651  1.00  0.00     0.000 C 
BRANCH   8   9
ATOM      9  C   UNL     1      49.973 147.199   1.851  1.00  0.00     0.000 C 
BRANCH   9  10
ATOM     10  C   UNL     1      49.067 147.709   0.714  1.00  0.00     0.006 C 
BRANCH  10  11
ATOM     11  C   UNL     1      47.804 146.865   0.479  1.00  0.00     0.053 C 
BRANCH  11  12
ATOM     12  C   UNL     1      47.297 146.988  -0.924  1.00  0.00     0.041 C 
ATOM     13  O   UNL     1      47.205 148.120  -1.468  1.00  0.00    -0.550 OA
ATOM     14  O   UNL     1      46.884 145.857  -1.617  1.00  0.00    -0.550 OA
ENDBRANCH  11  12
ENDBRANCH  10  11
ENDBRANCH   9  10
ENDBRANCH   8   9
ENDBRANCH   7   8
ENDBRANCH   6   7
ENDBRANCH   5   6
ENDBRANCH   4   5
ENDBRANCH   3   4
ENDBRANCH   2   3
ENDBRANCH   1   2
BRANCH   1  15
ATOM     15  C   UNL     1      54.922 145.221  -1.941  1.00  0.00     0.000 C 
BRANCH  15  16
ATOM     16  C   UNL     1      55.397 143.766  -1.776  1.00  0.00     0.000 C 
BRANCH  16  17
ATOM     17  C   UNL     1      54.954 143.135  -0.444  1.00  0.00     0.000 C 
BRANCH  17  18
ATOM     18  C   UNL     1      55.567 141.743  -0.209  1.00  0.00    -0.000 C 
BRANCH  18  19
ATOM     19  C   UNL     1      55.357 140.733  -1.353  1.00  0.00    -0.000 C 
BRANCH  19  20
ATOM     20  C   UNL     1      54.724 139.414  -0.877  1.00  0.00    -0.000 C 
BRANCH  20  21
ATOM     21  C   UNL     1      53.701 139.633   0.248  1.00  0.00    -0.000 C 
BRANCH  21  22
ATOM     22  C   UNL     1      52.502 138.671   0.153  1.00  0.00    -0.000 C 
BRANCH  22  23
ATOM     23  C   UNL     1      51.197 139.321   0.655  1.00  0.00    -0.000 C 
BRANCH  23  24
ATOM     24  C   UNL     1      49.961 138.417   0.498  1.00  0.00    -0.000 C 
BRANCH  24  25
ATOM     25  C   UNL     1      50.316 136.927   0.425  1.00  0.00    -0.003 C 
ATOM     26  C   UNL     1      49.083 136.055   0.646  1.00  0.00     0.004 C 
ENDBRANCH  24  25
ENDBRANCH  23  24
ENDBRANCH  22  23
ENDBRANCH  21  22
ENDBRANCH  20  21
ENDBRANCH  19  20
ENDBRANCH  18  19
ENDBRANCH  17  18
ENDBRANCH  16  17
ENDBRANCH  15  16
ENDBRANCH   1  15
TORSDOF 22
ENDMDL
MODEL 2
REMARK VINA RESULT:    14.591      3.441      8.674
REMARK INTER + INTRA:          32.627
REMARK INTER:                  33.745
REMARK INTRA:                  -1.118
REMARK UNBOUND:                -0.729
REMARK SMILES CCCCCCCCCCCCCCCCCCCCCCCC(=O)[O-]
REMARK SMILES IDX 13 1 14 2 15 3 16 4 17 5 18 6 19 7 20 8 21 9 22 10 23 11
REMARK SMILES IDX 24 12 25 13 26 14 12 15 11 16 10 17 9 18 8 19 7 20 6 21 5 22
REMARK SMILES IDX 4 23 3 24 2 25 1 26
REMARK H PARENT
REMARK Flexibility Score: inf
ROOT
ATOM      1  C   UNL     1      54.730 144.105  -1.301  1.00  0.00     0.000 C 
ENDROOT
BRANCH   1   2
ATOM      2  C   UNL     1      55.620 143.123  -2.091  1.00  0.00     0.000 C 
BRANCH   2   3
ATOM      3  C   UNL     1      56.622 142.322  -1.239  1.00  0.00     0.000 C 
BRANCH   3   4
ATOM      4  C   UNL     1      56.048 140.981  -0.752  1.00  0.00     0.000 C 
BRANCH   4   5
ATOM      5  C   UNL     1      54.591 140.766  -1.196  1.00  0.00     0.000 C 
BRANCH   5   6
ATOM      6  C   UNL     1      53.686 140.286  -0.048  1.00  0.00     0.000 C 
BRANCH   6   7
ATOM      7  C   UNL     1      54.130 138.936   0.541  1.00  0.00     0.000 C 
BRANCH   7   8
ATOM      8  C   UNL     1      52.985 138.001   0.975  1.00  0.00     0.000 C 
BRANCH   8   9
ATOM      9  C   UNL     1      51.599 138.653   0.842  1.00  0.00     0.000 C 
BRANCH   9  10
ATOM     10  C   UNL     1      50.590 137.760   0.094  1.00  0.00     0.006 C 
BRANCH  10  11
ATOM     11  C   UNL     1      49.319 137.429   0.893  1.00  0.00     0.053 C 
BRANCH  11  12
ATOM     12  C   UNL     1      48.766 136.083   0.538  1.00  0.00     0.041 C 
ATOM     13  O   UNL     1      47.521 135.896   0.512  1.00  0.00    -0.550 OA
ATOM     14  O   UNL     1      49.626 135.024   0.279  1.00  0.00    -0.550 OA
ENDBRANCH  11  12
ENDBRANCH  10  11
ENDBRANCH   9  10
ENDBRANCH   8   9
ENDBRANCH   7   8
ENDBRANCH   6   7
ENDBRANCH   5   6
ENDBRANCH   4   5
ENDBRANCH   3   4
ENDBRANCH   2   3
ENDBRANCH   1   2
BRANCH   1  15
ATOM     15  C   UNL     1      54.848 145.585  -1.721  1.00  0.00     0.000 C 
BRANCH  15  16
ATOM     16  C   UNL     1      54.268 146.602  -0.721  1.00  0.00     0.000 C 
BRANCH  16  17
ATOM     17  C   UNL     1      53.428 145.943   0.388  1.00  0.00     0.000 C 
BRANCH  17  18
ATOM     18  C   UNL     1      52.670 146.968   1.252  1.00  0.00    -0.000 C 
BRANCH  18  19
ATOM     19  C   UNL     1      52.016 148.124   0.473  1.00  0.00    -0.000 C 
BRANCH  19  20
ATOM     20  C   UNL     1      50.716 147.708  -0.237  1.00  0.00    -0.000 C 
BRANCH  20  21
ATOM     21  C   UNL     1      49.472 147.981   0.622  1.00  0.00    -0.000 C 
BRANCH  21  22
ATOM     22  C   UNL     1      48.225 147.239   0.109  1.00  0.00    -0.000 C 
BRANCH  22  23
ATOM     23  C   UNL     1      47.374 148.115  -0.832  1.00  0.00    -0.000 C 
BRANCH  23  24
ATOM     24  C   UNL     1      46.977 147.408  -2.139  1.00  0.00    -0.000 C 
BRANCH  24  25
ATOM     25  C   UNL     1      47.785 147.892  -3.350  1.00  0.00    -0.003 C 
ATOM     26  C   UNL     1      49.218 147.370  -3.300  1.00  0.00     0.004 C 
ENDBRANCH  24  25
ENDBRANCH  23  24
ENDBRANCH  22  23
ENDBRANCH  21  22
ENDBRANCH  20  21
ENDBRANCH  19  20
ENDBRANCH  18  19
ENDBRANCH  17  18
ENDBRANCH  16  17
ENDBRANCH  15  16
ENDBRANCH   1  15
TORSDOF 22
ENDMDL
MODEL 3
REMARK VINA RESULT:    14.760      3.317      9.022
REMARK INTER + INTRA:          33.015
REMARK INTER:                  33.843
REMARK INTRA:                  -0.828
REMARK UNBOUND:                -0.729
REMARK SMILES CCCCCCCCCCCCCCCCCCCCCCCC(=O)[O-]
REMARK SMILES IDX 13 1 14 2 15 3 16 4 17 5 18 6 19 7 20 8 21 9 22 10 23 11
REMARK SMILES IDX 24 12 25 13 26 14 12 15 11 16 10 17 9 18 8 19 7 20 6 21 5 22
REMARK SMILES IDX 4 23 3 24 2 25 1 26
REMARK H PARENT
REMARK Flexibility Score: inf
ROOT
ATOM      1  C   UNL     1      52.767 143.869   0.859  1.00  0.00     0.000 C 
ENDROOT
BRANCH   1   2
ATOM      2  C   UNL     1      54.049 143.023   0.702  1.00  0.00     0.000 C 
BRANCH   2   3
ATOM      3  C   UNL     1      54.045 142.051  -0.491  1.00  0.00     0.000 C 
BRANCH   3   4
ATOM      4  C   UNL     1      55.446 141.509  -0.821  1.00  0.00     0.000 C 
BRANCH   4   5
ATOM      5  C   UNL     1      55.603 140.022  -0.463  1.00  0.00     0.000 C 
BRANCH   5   6
ATOM      6  C   UNL     1      54.534 139.535   0.531  1.00  0.00     0.000 C 
BRANCH   6   7
ATOM      7  C   UNL     1      53.885 138.205   0.111  1.00  0.00     0.000 C 
BRANCH   7   8
ATOM      8  C   UNL     1      53.185 137.429   1.243  1.00  0.00     0.000 C 
BRANCH   8   9
ATOM      9  C   UNL     1      52.052 138.232   1.904  1.00  0.00     0.000 C 
BRANCH   9  10
ATOM     10  C   UNL     1      50.803 138.348   1.009  1.00  0.00     0.006 C 
BRANCH  10  11
ATOM     11  C   UNL     1      50.477 137.079   0.204  1.00  0.00     0.053 C 
BRANCH  11  12
ATOM     12  C   UNL     1      49.042 136.674   0.348  1.00  0.00     0.041 C 
ATOM     13  O   UNL     1      48.131 137.543   0.303  1.00  0.00    -0.550 OA
ATOM     14  O   UNL     1      48.714 135.345   0.576  1.00  0.00    -0.550 OA
ENDBRANCH  11  12
ENDBRANCH  10  11
ENDBRANCH   9  10
ENDBRANCH   8   9
ENDBRANCH   7   8
ENDBRANCH   6   7
ENDBRANCH   5   6
ENDBRANCH   4   5
ENDBRANCH   3   4
ENDBRANCH   2   3
ENDBRANCH   1   2
BRANCH   1  15
ATOM     15  C   UNL     1      52.989 145.320   1.336  1.00  0.00     0.000 C 
BRANCH  15  16
ATOM     16  C   UNL     1      51.821 146.286   1.069  1.00  0.00     0.000 C 
BRANCH  16  17
ATOM     17  C   UNL     1      52.219 147.766   1.211  1.00  0.00     0.000 C 
BRANCH  17  18
ATOM     18  C   UNL     1      53.672 147.951   1.686  1.00  0.00    -0.000 C 
BRANCH  18  19
ATOM     19  C   UNL     1      54.722 148.032   0.563  1.00  0.00    -0.000 C 
BRANCH  19  20
ATOM     20  C   UNL     1      54.106 147.921  -0.842  1.00  0.00    -0.000 C 
BRANCH  20  21
ATOM     21  C   UNL     1      55.149 148.120  -1.951  1.00  0.00    -0.000 C 
BRANCH  21  22
ATOM     22  C   UNL     1      54.830 147.305  -3.218  1.00  0.00    -0.000 C 
BRANCH  22  23
ATOM     23  C   UNL     1      53.800 148.014  -4.120  1.00  0.00    -0.000 C 
BRANCH  23  24
ATOM     24  C   UNL     1      53.038 147.057  -5.053  1.00  0.00    -0.000 C 
BRANCH  24  25
ATOM     25  C   UNL     1      52.467 147.758  -6.292  1.00  0.00    -0.003 C 
ATOM     26  C   UNL     1      51.435 146.882  -6.995  1.00  0.00     0.004 C 
ENDBRANCH  24  25
ENDBRANCH  23  24
ENDBRANCH  22  23
ENDBRANCH  21  22
ENDBRANCH  20  21
ENDBRANCH  19  20
ENDBRANCH  18  19
ENDBRANCH  17  18
ENDBRANCH  16  17
ENDBRANCH  15  16
ENDBRANCH   1  15
TORSDOF 22
ENDMDL
MODEL 4
REMARK VINA RESULT:    14.973      3.213      8.437
REMARK INTER + INTRA:          33.501
REMARK INTER:                  32.301
REMARK INTRA:                   1.200
REMARK UNBOUND:                -0.729
REMARK SMILES CCCCCCCCCCCCCCCCCCCCCCCC(=O)[O-]
REMARK SMILES IDX 13 1 14 2 15 3 16 4 17 5 18 6 19 7 20 8 21 9 22 10 23 11
REMARK SMILES IDX 24 12 25 13 26 14 12 15 11 16 10 17 9 18 8 19 7 20 6 21 5 22
REMARK SMILES IDX 4 23 3 24 2 25 1 26
REMARK H PARENT
REMARK Flexibility Score: inf
ROOT
ATOM      1  C   UNL     1      55.670 142.243  -1.142  1.00  0.00     0.000 C 
ENDROOT
BRANCH   1   2
ATOM      2  C   UNL     1      56.297 141.110  -1.981  1.00  0.00     0.000 C 
BRANCH   2   3
ATOM      3  C   UNL     1      56.076 139.691  -1.427  1.00  0.00     0.000 C 
BRANCH   3   4
ATOM      4  C   UNL     1      55.094 139.662  -0.243  1.00  0.00     0.000 C 
BRANCH   4   5
ATOM      5  C   UNL     1      53.978 140.711  -0.376  1.00  0.00     0.000 C 
BRANCH   5   6
ATOM      6  C   UNL     1      53.319 141.050   0.972  1.00  0.00     0.000 C 
BRANCH   6   7
ATOM      7  C   UNL     1      51.916 140.437   1.125  1.00  0.00     0.000 C 
BRANCH   7   8
ATOM      8  C   UNL     1      51.735 139.504   2.338  1.00  0.00     0.000 C 
BRANCH   8   9
ATOM      9  C   UNL     1      51.611 138.024   1.939  1.00  0.00     0.000 C 
BRANCH   9  10
ATOM     10  C   UNL     1      51.021 137.835   0.528  1.00  0.00     0.006 C 
BRANCH  10  11
ATOM     11  C   UNL     1      50.607 136.391   0.199  1.00  0.00     0.053 C 
BRANCH  11  12
ATOM     12  C   UNL     1      49.169 136.130   0.527  1.00  0.00     0.041 C 
ATOM     13  O   UNL     1      48.586 136.812   1.411  1.00  0.00    -0.550 OA
ATOM     14  O   UNL     1      48.486 135.104  -0.111  1.00  0.00    -0.550 OA
ENDBRANCH  11  12
ENDBRANCH  10  11
ENDBRANCH   9  10
ENDBRANCH   8   9
ENDBRANCH   7   8
ENDBRANCH   6   7
ENDBRANCH   5   6
ENDBRANCH   4   5
ENDBRANCH   3   4
ENDBRANCH   2   3
ENDBRANCH   1   2
BRANCH   1  15
ATOM     15  C   UNL     1      55.457 143.577  -1.889  1.00  0.00     0.000 C 
BRANCH  15  16
ATOM     16  C   UNL     1      55.533 144.841  -1.014  1.00  0.00     0.000 C 
BRANCH  16  17
ATOM     17  C   UNL     1      56.192 146.032  -1.732  1.00  0.00     0.000 C 
BRANCH  17  18
ATOM     18  C   UNL     1      55.169 147.070  -2.231  1.00  0.00    -0.000 C 
BRANCH  18  19
ATOM     19  C   UNL     1      54.309 147.722  -1.133  1.00  0.00    -0.000 C 
BRANCH  19  20
ATOM     20  C   UNL     1      53.716 146.697  -0.150  1.00  0.00    -0.000 C 
BRANCH  20  21
ATOM     21  C   UNL     1      52.188 146.813  -0.042  1.00  0.00    -0.000 C 
BRANCH  21  22
ATOM     22  C   UNL     1      51.742 148.073   0.722  1.00  0.00    -0.000 C 
BRANCH  22  23
ATOM     23  C   UNL     1      51.026 147.728   2.043  1.00  0.00    -0.000 C 
BRANCH  23  24
ATOM     24  C   UNL     1      49.540 148.124   2.059  1.00  0.00    -0.000 C 
BRANCH  24  25
ATOM     25  C   UNL     1      48.843 147.883   0.714  1.00  0.00    -0.003 C 
ATOM     26  C   UNL     1      47.326 147.944   0.861  1.00  0.00     0.004 C 
ENDBRANCH  24  25
ENDBRANCH  23  24
ENDBRANCH  22  23
ENDBRANCH  21  22
ENDBRANCH  20  21
ENDBRANCH  19  20
ENDBRANCH  18  19
ENDBRANCH  17  18
ENDBRANCH  16  17
ENDBRANCH  15  16
ENDBRANCH   1  15
TORSDOF 22
ENDMDL
MODEL 5
REMARK VINA RESULT:    15.380      3.609      8.846
REMARK INTER + INTRA:          34.431
REMARK INTER:                  34.968
REMARK INTRA:                  -0.537
REMARK UNBOUND:                -0.729
REMARK SMILES CCCCCCCCCCCCCCCCCCCCCCCC(=O)[O-]
REMARK SMILES IDX 13 1 14 2 15 3 16 4 17 5 18 6 19 7 20 8 21 9 22 10 23 11
REMARK SMILES IDX 24 12 25 13 26 14 12 15 11 16 10 17 9 18 8 19 7 20 6 21 5 22
REMARK SMILES IDX 4 23 3 24 2 25 1 26
REMARK H PARENT
REMARK Flexibility Score: inf
ROOT
ATOM      1  C   UNL     1      53.623 144.030  -0.235  1.00  0.00     0.000 C 
ENDROOT
BRANCH   1   2
ATOM      2  C   UNL     1      54.593 142.831  -0.199  1.00  0.00     0.000 C 
BRANCH   2   3
ATOM      3  C   UNL     1      55.304 142.528  -1.531  1.00  0.00     0.000 C 
BRANCH   3   4
ATOM      4  C   UNL     1      56.609 141.737  -1.341  1.00  0.00     0.000 C 
BRANCH   4   5
ATOM      5  C   UNL     1      56.539 140.327  -1.951  1.00  0.00     0.000 C 
BRANCH   5   6
ATOM      6  C   UNL     1      55.833 139.317  -1.029  1.00  0.00     0.000 C 
BRANCH   6   7
ATOM      7  C   UNL     1      54.301 139.460  -1.046  1.00  0.00     0.000 C 
BRANCH   7   8
ATOM      8  C   UNL     1      53.564 138.770   0.118  1.00  0.00     0.000 C 
BRANCH   8   9
ATOM      9  C   UNL     1      52.575 139.705   0.835  1.00  0.00     0.000 C 
BRANCH   9  10
ATOM     10  C   UNL     1      51.219 139.030   1.120  1.00  0.00     0.006 C 
BRANCH  10  11
ATOM     11  C   UNL     1      51.071 137.621   0.524  1.00  0.00     0.053 C 
BRANCH  11  12
ATOM     12  C   UNL     1      49.643 137.172   0.488  1.00  0.00     0.041 C 
ATOM     13  O   UNL     1      48.711 138.019   0.514  1.00  0.00    -0.550 OA
ATOM     14  O   UNL     1      49.340 135.817   0.471  1.00  0.00    -0.550 OA
ENDBRANCH  11  12
ENDBRANCH  10  11
ENDBRANCH   9  10
ENDBRANCH   8   9
ENDBRANCH   7   8
ENDBRANCH   6   7
ENDBRANCH   5   6
ENDBRANCH   4   5
ENDBRANCH   3   4
ENDBRANCH   2   3
ENDBRANCH   1   2
BRANCH   1  15
ATOM     15  C   UNL     1      54.261 145.383  -0.613  1.00  0.00     0.000 C 
BRANCH  15  16
ATOM     16  C   UNL     1      53.523 146.628  -0.089  1.00  0.00     0.000 C 
BRANCH  16  17
ATOM     17  C   UNL     1      54.273 147.940  -0.380  1.00  0.00     0.000 C 
BRANCH  17  18
ATOM     18  C   UNL     1      55.524 147.732  -1.254  1.00  0.00    -0.000 C 
BRANCH  18  19
ATOM     19  C   UNL     1      55.242 147.352  -2.720  1.00  0.00    -0.000 C 
BRANCH  19  20
ATOM     20  C   UNL     1      53.891 147.885  -3.227  1.00  0.00    -0.000 C 
BRANCH  20  21
ATOM     21  C   UNL     1      53.500 147.280  -4.584  1.00  0.00    -0.000 C 
BRANCH  21  22
ATOM     22  C   UNL     1      52.357 148.050  -5.268  1.00  0.00    -0.000 C 
BRANCH  22  23
ATOM     23  C   UNL     1      51.062 147.216  -5.350  1.00  0.00    -0.000 C 
BRANCH  23  24
ATOM     24  C   UNL     1      49.882 147.973  -5.982  1.00  0.00    -0.000 C 
BRANCH  24  25
ATOM     25  C   UNL     1      49.634 147.579  -7.444  1.00  0.00    -0.003 C 
ATOM     26  C   UNL     1      48.298 148.124  -7.942  1.00  0.00     0.004 C 
ENDBRANCH  24  25
ENDBRANCH  23  24
ENDBRANCH  22  23
ENDBRANCH  21  22
ENDBRANCH  20  21
ENDBRANCH  19  20
ENDBRANCH  18  19
ENDBRANCH  17  18
ENDBRANCH  16  17
ENDBRANCH  15  16
ENDBRANCH   1  15
TORSDOF 22
ENDMDL
MODEL 6
REMARK VINA RESULT:    16.021      2.783      4.464
REMARK INTER + INTRA:          35.896
REMARK INTER:                  36.556
REMARK INTRA:                  -0.660
REMARK UNBOUND:                -0.729
REMARK SMILES CCCCCCCCCCCCCCCCCCCCCCCC(=O)[O-]
REMARK SMILES IDX 13 1 14 2 15 3 16 4 17 5 18 6 19 7 20 8 21 9 22 10 23 11
REMARK SMILES IDX 24 12 25 13 26 14 12 15 11 16 10 17 9 18 8 19 7 20 6 21 5 22
REMARK SMILES IDX 4 23 3 24 2 25 1 26
REMARK H PARENT
REMARK Flexibility Score: inf
ROOT
ATOM      1  C   UNL     1      55.013 143.771  -1.744  1.00  0.00     0.000 C 
ENDROOT
BRANCH   1   2
ATOM      2  C   UNL     1      54.096 144.365  -0.654  1.00  0.00     0.000 C 
BRANCH   2   3
ATOM      3  C   UNL     1      53.387 145.675  -1.042  1.00  0.00     0.000 C 
BRANCH   3   4
ATOM      4  C   UNL     1      53.655 146.813  -0.043  1.00  0.00     0.000 C 
BRANCH   4   5
ATOM      5  C   UNL     1      54.075 148.120  -0.736  1.00  0.00     0.000 C 
BRANCH   5   6
ATOM      6  C   UNL     1      53.821 148.094  -2.254  1.00  0.00     0.000 C 
BRANCH   6   7
ATOM      7  C   UNL     1      54.979 147.459  -3.044  1.00  0.00     0.000 C 
BRANCH   7   8
ATOM      8  C   UNL     1      55.286 148.118  -4.402  1.00  0.00     0.000 C 
BRANCH   8   9
ATOM      9  C   UNL     1      54.443 147.538  -5.550  1.00  0.00     0.000 C 
BRANCH   9  10
ATOM     10  C   UNL     1      52.935 147.804  -5.375  1.00  0.00     0.006 C 
BRANCH  10  11
ATOM     11  C   UNL     1      52.188 148.120  -6.681  1.00  0.00     0.053 C 
BRANCH  11  12
ATOM     12  C   UNL     1      50.723 147.826  -6.577  1.00  0.00     0.041 C 
ATOM     13  O   UNL     1      50.042 147.622  -7.617  1.00  0.00    -0.550 OA
ATOM     14  O   UNL     1      50.101 147.822  -5.336  1.00  0.00    -0.550 OA
ENDBRANCH  11  12
ENDBRANCH  10  11
ENDBRANCH   9  10
ENDBRANCH   8   9
ENDBRANCH   7   8
ENDBRANCH   6   7
ENDBRANCH   5   6
ENDBRANCH   4   5
ENDBRANCH   3   4
ENDBRANCH   2   3
ENDBRANCH   1   2
BRANCH   1  15
ATOM     15  C   UNL     1      55.497 142.329  -1.485  1.00  0.00     0.000 C 
BRANCH  15  16
ATOM     16  C   UNL     1      55.562 141.913  -0.004  1.00  0.00     0.000 C 
BRANCH  16  17
ATOM     17  C   UNL     1      54.277 141.222   0.486  1.00  0.00     0.000 C 
BRANCH  17  18
ATOM     18  C   UNL     1      53.862 140.034  -0.403  1.00  0.00    -0.000 C 
BRANCH  18  19
ATOM     19  C   UNL     1      53.423 138.770   0.359  1.00  0.00    -0.000 C 
BRANCH  19  20
ATOM     20  C   UNL     1      53.399 138.968   1.884  1.00  0.00    -0.000 C 
BRANCH  20  21
ATOM     21  C   UNL     1      51.979 139.218   2.415  1.00  0.00    -0.000 C 
BRANCH  21  22
ATOM     22  C   UNL     1      51.021 138.051   2.114  1.00  0.00    -0.000 C 
BRANCH  22  23
ATOM     23  C   UNL     1      50.141 138.327   0.878  1.00  0.00    -0.000 C 
BRANCH  23  24
ATOM     24  C   UNL     1      49.954 137.099  -0.030  1.00  0.00    -0.000 C 
BRANCH  24  25
ATOM     25  C   UNL     1      48.739 136.248   0.357  1.00  0.00    -0.003 C 
ATOM     26  C   UNL     1      49.019 134.762   0.153  1.00  0.00     0.004 C 
ENDBRANCH  24  25
ENDBRANCH  23  24
ENDBRANCH  22  23
ENDBRANCH  21  22
ENDBRANCH  20  21
ENDBRANCH  19  20
ENDBRANCH  18  19
ENDBRANCH  17  18
ENDBRANCH  16  17
ENDBRANCH  15  16
ENDBRANCH   1  15
TORSDOF 22
ENDMDL
