MODEL 1
REMARK VINA RESULT:    -4.276      0.000      0.000
REMARK INTER + INTRA:          -5.608
REMARK INTER:                  -5.525
REMARK INTRA:                  -0.083
REMARK UNBOUND:                -0.083
REMARK SMILES CCCCCCC(=O)[O-]
REMARK SMILES IDX 5 1 6 2 7 3 8 4 9 5 4 6 3 7 2 8 1 9
REMARK H PARENT
REMARK Flexibility Score: inf
ROOT
ATOM      1  C   UNL     1      51.769 -40.962  -2.899  1.00  0.00     0.006 C 
ENDROOT
BRANCH   1   2
ATOM      2  C   UNL     1      52.642 -41.535  -1.774  1.00  0.00     0.053 C 
BRANCH   2   3
ATOM      3  C   UNL     1      54.036 -41.002  -1.874  1.00  0.00     0.041 C 
ATOM      4  O   UNL     1      54.236 -39.766  -2.006  1.00  0.00    -0.550 OA
ATOM      5  O   UNL     1      55.118 -41.867  -1.773  1.00  0.00    -0.550 OA
ENDBRANCH   2   3
ENDBRANCH   1   2
BRANCH   1   6
ATOM      6  C   UNL     1      50.622 -41.913  -3.286  1.00  0.00     0.000 C 
BRANCH   6   7
ATOM      7  C   UNL     1      49.230 -41.244  -3.236  1.00  0.00    -0.000 C 
BRANCH   7   8
ATOM      8  C   UNL     1      48.727 -40.772  -4.612  1.00  0.00    -0.003 C 
ATOM      9  C   UNL     1      47.365 -40.085  -4.543  1.00  0.00     0.004 C 
ENDBRANCH   7   8
ENDBRANCH   6   7
ENDBRANCH   1   6
TORSDOF 5
ENDMDL
MODEL 2
REMARK VINA RESULT:    -4.050      0.933      1.378
REMARK INTER + INTRA:          -5.317
REMARK INTER:                  -5.147
REMARK INTRA:                  -0.170
REMARK UNBOUND:                -0.083
REMARK SMILES CCCCCCC(=O)[O-]
REMARK SMILES IDX 5 1 6 2 7 3 8 4 9 5 4 6 3 7 2 8 1 9
REMARK H PARENT
REMARK Flexibility Score: inf
ROOT
ATOM      1  C   UNL     1      50.951 -41.905  -3.274  1.00  0.00     0.006 C 
ENDROOT
BRANCH   1   2
ATOM      2  C   UNL     1      51.593 -40.563  -2.898  1.00  0.00     0.053 C 
BRANCH   2   3
ATOM      3  C   UNL     1      52.891 -40.788  -2.188  1.00  0.00     0.041 C 
ATOM      4  O   UNL     1      53.768 -39.884  -2.168  1.00  0.00    -0.550 OA
ATOM      5  O   UNL     1      53.114 -41.978  -1.508  1.00  0.00    -0.550 OA
ENDBRANCH   2   3
ENDBRANCH   1   2
BRANCH   1   6
ATOM      6  C   UNL     1      49.427 -41.790  -3.453  1.00  0.00     0.000 C 
BRANCH   6   7
ATOM      7  C   UNL     1      49.016 -41.096  -4.771  1.00  0.00    -0.000 C 
BRANCH   7   8
ATOM      8  C   UNL     1      47.940 -40.013  -4.584  1.00  0.00    -0.003 C 
ATOM      9  C   UNL     1      46.770 -40.481  -3.721  1.00  0.00     0.004 C 
ENDBRANCH   7   8
ENDBRANCH   6   7
ENDBRANCH   1   6
TORSDOF 5
ENDMDL
MODEL 3
REMARK VINA RESULT:    -3.996      3.059      5.302
REMARK INTER + INTRA:          -5.248
REMARK INTER:                  -5.137
REMARK INTRA:                  -0.111
REMARK UNBOUND:                -0.083
REMARK SMILES CCCCCCC(=O)[O-]
REMARK SMILES IDX 5 1 6 2 7 3 8 4 9 5 4 6 3 7 2 8 1 9
REMARK H PARENT
REMARK Flexibility Score: inf
ROOT
ATOM      1  C   UNL     1      50.429 -41.056  -2.628  1.00  0.00     0.006 C 
ENDROOT
BRANCH   1   2
ATOM      2  C   UNL     1      49.790 -41.767  -3.828  1.00  0.00     0.053 C 
BRANCH   2   3
ATOM      3  C   UNL     1      49.279 -40.766  -4.816  1.00  0.00     0.041 C 
ATOM      4  O   UNL     1      50.061 -40.247  -5.655  1.00  0.00    -0.550 OA
ATOM      5  O   UNL     1      47.929 -40.443  -4.841  1.00  0.00    -0.550 OA
ENDBRANCH   2   3
ENDBRANCH   1   2
BRANCH   1   6
ATOM      6  C   UNL     1      51.929 -40.787  -2.842  1.00  0.00     0.000 C 
BRANCH   6   7
ATOM      7  C   UNL     1      52.834 -41.542  -1.844  1.00  0.00    -0.000 C 
BRANCH   7   8
ATOM      8  C   UNL     1      54.292 -41.050  -1.845  1.00  0.00    -0.003 C 
ATOM      9  C   UNL     1      54.407 -39.534  -1.984  1.00  0.00     0.004 C 
ENDBRANCH   7   8
ENDBRANCH   6   7
ENDBRANCH   1   6
TORSDOF 5
ENDMDL
MODEL 4
REMARK VINA RESULT:    -3.930      0.998      1.312
REMARK INTER + INTRA:          -5.162
REMARK INTER:                  -4.944
REMARK INTRA:                  -0.219
REMARK UNBOUND:                -0.083
REMARK SMILES CCCCCCC(=O)[O-]
REMARK SMILES IDX 5 1 6 2 7 3 8 4 9 5 4 6 3 7 2 8 1 9
REMARK H PARENT
REMARK Flexibility Score: inf
ROOT
ATOM      1  C   UNL     1      52.137 -39.496  -3.077  1.00  0.00     0.006 C 
ENDROOT
BRANCH   1   2
ATOM      2  C   UNL     1      52.630 -40.772  -2.382  1.00  0.00     0.053 C 
BRANCH   2   3
ATOM      3  C   UNL     1      54.042 -40.601  -1.917  1.00  0.00     0.041 C 
ATOM      4  O   UNL     1      54.469 -39.462  -1.593  1.00  0.00    -0.550 OA
ATOM      5  O   UNL     1      54.872 -41.708  -1.796  1.00  0.00    -0.550 OA
ENDBRANCH   2   3
ENDBRANCH   1   2
BRANCH   1   6
ATOM      6  C   UNL     1      50.654 -39.587  -3.477  1.00  0.00     0.000 C 
BRANCH   6   7
ATOM      7  C   UNL     1      49.893 -40.717  -2.748  1.00  0.00    -0.000 C 
BRANCH   7   8
ATOM      8  C   UNL     1      49.151 -41.669  -3.701  1.00  0.00    -0.003 C 
ATOM      9  C   UNL     1      48.866 -41.043  -5.065  1.00  0.00     0.004 C 
ENDBRANCH   7   8
ENDBRANCH   6   7
ENDBRANCH   1   6
TORSDOF 5
ENDMDL
MODEL 5
REMARK VINA RESULT:    -3.894      1.373      2.385
REMARK INTER + INTRA:          -5.116
REMARK INTER:                  -4.960
REMARK INTRA:                  -0.156
REMARK UNBOUND:                -0.083
REMARK SMILES CCCCCCC(=O)[O-]
REMARK SMILES IDX 5 1 6 2 7 3 8 4 9 5 4 6 3 7 2 8 1 9
REMARK H PARENT
REMARK Flexibility Score: inf
ROOT
ATOM      1  C   UNL     1      49.632 -41.401  -3.025  1.00  0.00     0.006 C 
ENDROOT
BRANCH   1   2
ATOM      2  C   UNL     1      51.013 -42.045  -3.203  1.00  0.00     0.053 C 
BRANCH   2   3
ATOM      3  C   UNL     1      52.068 -41.203  -2.557  1.00  0.00     0.041 C 
ATOM      4  O   UNL     1      52.865 -41.712  -1.726  1.00  0.00    -0.550 OA
ATOM      5  O   UNL     1      52.202 -39.867  -2.910  1.00  0.00    -0.550 OA
ENDBRANCH   2   3
ENDBRANCH   1   2
BRANCH   1   6
ATOM      6  C   UNL     1      48.883 -41.251  -4.361  1.00  0.00     0.000 C 
BRANCH   6   7
ATOM      7  C   UNL     1      48.228 -39.863  -4.542  1.00  0.00    -0.000 C 
BRANCH   7   8
ATOM      8  C   UNL     1      46.691 -39.913  -4.580  1.00  0.00    -0.003 C 
ATOM      9  C   UNL     1      46.076 -40.332  -3.246  1.00  0.00     0.004 C 
ENDBRANCH   7   8
ENDBRANCH   6   7
ENDBRANCH   1   6
TORSDOF 5
ENDMDL
MODEL 6
REMARK VINA RESULT:    -3.821     11.769     12.773
REMARK INTER + INTRA:          -5.021
REMARK INTER:                  -4.817
REMARK INTRA:                  -0.205
REMARK UNBOUND:                -0.083
REMARK SMILES CCCCCCC(=O)[O-]
REMARK SMILES IDX 5 1 6 2 7 3 8 4 9 5 4 6 3 7 2 8 1 9
REMARK H PARENT
REMARK Flexibility Score: inf
ROOT
ATOM      1  C   UNL     1      50.797 -38.521   8.727  1.00  0.00     0.006 C 
ENDROOT
BRANCH   1   2
ATOM      2  C   UNL     1      51.831 -37.467   9.148  1.00  0.00     0.053 C 
BRANCH   2   3
ATOM      3  C   UNL     1      51.164 -36.148   9.384  1.00  0.00     0.041 C 
ATOM      4  O   UNL     1      51.124 -35.655  10.542  1.00  0.00    -0.550 OA
ATOM      5  O   UNL     1      50.629 -35.440   8.316  1.00  0.00    -0.550 OA
ENDBRANCH   2   3
ENDBRANCH   1   2
BRANCH   1   6
ATOM      6  C   UNL     1      49.981 -39.045   9.921  1.00  0.00     0.000 C 
BRANCH   6   7
ATOM      7  C   UNL     1      49.534 -40.515   9.759  1.00  0.00    -0.000 C 
BRANCH   7   8
ATOM      8  C   UNL     1      49.161 -40.885   8.313  1.00  0.00    -0.003 C 
ATOM      9  C   UNL     1      49.785 -42.202   7.857  1.00  0.00     0.004 C 
ENDBRANCH   7   8
ENDBRANCH   6   7
ENDBRANCH   1   6
TORSDOF 5
ENDMDL
MODEL 7
REMARK VINA RESULT:    -3.807     11.795     12.793
REMARK INTER + INTRA:          -5.003
REMARK INTER:                  -4.779
REMARK INTRA:                  -0.224
REMARK UNBOUND:                -0.083
REMARK SMILES CCCCCCC(=O)[O-]
REMARK SMILES IDX 5 1 6 2 7 3 8 4 9 5 4 6 3 7 2 8 1 9
REMARK H PARENT
REMARK Flexibility Score: inf
ROOT
ATOM      1  C   UNL     1      51.371 -37.944   8.259  1.00  0.00     0.006 C 
ENDROOT
BRANCH   1   2
ATOM      2  C   UNL     1      51.393 -37.348   9.673  1.00  0.00     0.053 C 
BRANCH   2   3
ATOM      3  C   UNL     1      51.071 -35.887   9.628  1.00  0.00     0.041 C 
ATOM      4  O   UNL     1      50.748 -35.342   8.540  1.00  0.00    -0.550 OA
ATOM      5  O   UNL     1      51.082 -35.138  10.797  1.00  0.00    -0.550 OA
ENDBRANCH   2   3
ENDBRANCH   1   2
BRANCH   1   6
ATOM      6  C   UNL     1      50.259 -38.994   8.089  1.00  0.00     0.000 C 
BRANCH   6   7
ATOM      7  C   UNL     1      49.798 -39.619   9.425  1.00  0.00    -0.000 C 
BRANCH   7   8
ATOM      8  C   UNL     1      49.246 -41.047   9.275  1.00  0.00    -0.003 C 
ATOM      9  C   UNL     1      49.680 -41.719   7.974  1.00  0.00     0.004 C 
ENDBRANCH   7   8
ENDBRANCH   6   7
ENDBRANCH   1   6
TORSDOF 5
ENDMDL
MODEL 8
REMARK VINA RESULT:    -3.733     12.955     13.953
REMARK INTER + INTRA:          -4.907
REMARK INTER:                  -4.654
REMARK INTRA:                  -0.253
REMARK UNBOUND:                -0.083
REMARK SMILES CCCCCCC(=O)[O-]
REMARK SMILES IDX 5 1 6 2 7 3 8 4 9 5 4 6 3 7 2 8 1 9
REMARK H PARENT
REMARK Flexibility Score: inf
ROOT
ATOM      1  C   UNL     1      49.861 -36.118   9.869  1.00  0.00     0.006 C 
ENDROOT
BRANCH   1   2
ATOM      2  C   UNL     1      50.660 -34.906   9.369  1.00  0.00     0.053 C 
BRANCH   2   3
ATOM      3  C   UNL     1      50.872 -33.928  10.481  1.00  0.00     0.041 C 
ATOM      4  O   UNL     1      49.919 -33.209  10.884  1.00  0.00    -0.550 OA
ATOM      5  O   UNL     1      52.109 -33.843  11.106  1.00  0.00    -0.550 OA
ENDBRANCH   2   3
ENDBRANCH   1   2
BRANCH   1   6
ATOM      6  C   UNL     1      50.770 -37.309  10.221  1.00  0.00     0.000 C 
BRANCH   6   7
ATOM      7  C   UNL     1      51.662 -37.766   9.045  1.00  0.00    -0.000 C 
BRANCH   7   8
ATOM      8  C   UNL     1      50.867 -38.359   7.869  1.00  0.00    -0.003 C 
ATOM      9  C   UNL     1      50.017 -39.562   8.272  1.00  0.00     0.004 C 
ENDBRANCH   7   8
ENDBRANCH   6   7
ENDBRANCH   1   6
TORSDOF 5
ENDMDL
MODEL 9
REMARK VINA RESULT:    -3.683      2.493      3.764
REMARK INTER + INTRA:          -4.842
REMARK INTER:                  -4.486
REMARK INTRA:                  -0.356
REMARK UNBOUND:                -0.083
REMARK SMILES CCCCCCC(=O)[O-]
REMARK SMILES IDX 5 1 6 2 7 3 8 4 9 5 4 6 3 7 2 8 1 9
REMARK H PARENT
REMARK Flexibility Score: inf
ROOT
ATOM      1  C   UNL     1      48.800 -40.628  -4.984  1.00  0.00     0.006 C 
ENDROOT
BRANCH   1   2
ATOM      2  C   UNL     1      50.088 -40.266  -4.232  1.00  0.00     0.053 C 
BRANCH   2   3
ATOM      3  C   UNL     1      50.523 -41.405  -3.364  1.00  0.00     0.041 C 
ATOM      4  O   UNL     1      49.862 -42.477  -3.347  1.00  0.00    -0.550 OA
ATOM      5  O   UNL     1      51.685 -41.300  -2.611  1.00  0.00    -0.550 OA
ENDBRANCH   2   3
ENDBRANCH   1   2
BRANCH   1   6
ATOM      6  C   UNL     1      47.600 -39.784  -4.519  1.00  0.00     0.000 C 
BRANCH   6   7
ATOM      7  C   UNL     1      46.526 -40.608  -3.773  1.00  0.00    -0.000 C 
BRANCH   7   8
ATOM      8  C   UNL     1      46.218 -40.078  -2.362  1.00  0.00    -0.003 C 
ATOM      9  C   UNL     1      47.474 -39.862  -1.521  1.00  0.00     0.004 C 
ENDBRANCH   7   8
ENDBRANCH   6   7
ENDBRANCH   1   6
TORSDOF 5
ENDMDL
