MODEL 1
REMARK VINA RESULT:    -4.085      0.000      0.000
REMARK INTER + INTRA:          -7.297
REMARK INTER:                  -6.235
REMARK INTRA:                  -1.062
REMARK UNBOUND:                -1.062
REMARK SMILES CCCCCCCCCCC(=O)[O-]
REMARK SMILES IDX 7 1 8 2 9 3 10 4 11 5 12 6 13 7 6 8 5 9 4 10 3 11 2 12 1 13
REMARK H PARENT
REMARK Flexibility Score: inf
ROOT
ATOM      1  C   UNL     1      -5.008  10.108  -4.538  1.00  0.00     0.000 C 
ENDROOT
BRANCH   1   2
ATOM      2  C   UNL     1      -6.057   8.983  -4.585  1.00  0.00     0.000 C 
BRANCH   2   3
ATOM      3  C   UNL     1      -5.890   8.068  -5.807  1.00  0.00     0.006 C 
BRANCH   3   4
ATOM      4  C   UNL     1      -6.007   6.594  -5.408  1.00  0.00     0.053 C 
BRANCH   4   5
ATOM      5  C   UNL     1      -7.212   5.972  -6.041  1.00  0.00     0.041 C 
ATOM      6  O   UNL     1      -8.314   5.964  -5.432  1.00  0.00    -0.550 OA
ATOM      7  O   UNL     1      -7.106   5.357  -7.282  1.00  0.00    -0.550 OA
ENDBRANCH   4   5
ENDBRANCH   3   4
ENDBRANCH   2   3
ENDBRANCH   1   2
BRANCH   1   8
ATOM      8  C   UNL     1      -4.157  10.066  -3.257  1.00  0.00     0.000 C 
BRANCH   8   9
ATOM      9  C   UNL     1      -2.988   9.068  -3.347  1.00  0.00    -0.000 C 
BRANCH   9  10
ATOM     10  C   UNL     1      -1.732   9.593  -4.065  1.00  0.00    -0.000 C 
BRANCH  10  11
ATOM     11  C   UNL     1      -1.112   8.562  -5.021  1.00  0.00    -0.000 C 
BRANCH  11  12
ATOM     12  C   UNL     1      -2.188   7.902  -5.890  1.00  0.00    -0.003 C 
ATOM     13  C   UNL     1      -2.483   8.737  -7.132  1.00  0.00     0.004 C 
ENDBRANCH  11  12
ENDBRANCH  10  11
ENDBRANCH   9  10
ENDBRANCH   8   9
ENDBRANCH   1   8
TORSDOF 9
ENDMDL
MODEL 2
REMARK VINA RESULT:    -3.987      2.947      4.252
REMARK INTER + INTRA:          -7.147
REMARK INTER:                  -6.747
REMARK INTRA:                  -0.400
REMARK UNBOUND:                -1.062
REMARK SMILES CCCCCCCCCCC(=O)[O-]
REMARK SMILES IDX 7 1 8 2 9 3 10 4 11 5 12 6 13 7 6 8 5 9 4 10 3 11 2 12 1 13
REMARK H PARENT
REMARK Flexibility Score: inf
ROOT
ATOM      1  C   UNL     1      -1.286   8.758  -4.283  1.00  0.00     0.000 C 
ENDROOT
BRANCH   1   2
ATOM      2  C   UNL     1      -2.318   9.871  -4.038  1.00  0.00     0.000 C 
BRANCH   2   3
ATOM      3  C   UNL     1      -3.589   9.360  -3.345  1.00  0.00     0.006 C 
BRANCH   3   4
ATOM      4  C   UNL     1      -4.845   9.903  -4.032  1.00  0.00     0.053 C 
BRANCH   4   5
ATOM      5  C   UNL     1      -5.499   8.836  -4.852  1.00  0.00     0.041 C 
ATOM      6  O   UNL     1      -6.639   8.405  -4.538  1.00  0.00    -0.550 OA
ATOM      7  O   UNL     1      -4.827   8.281  -5.934  1.00  0.00    -0.550 OA
ENDBRANCH   4   5
ENDBRANCH   3   4
ENDBRANCH   2   3
ENDBRANCH   1   2
BRANCH   1   8
ATOM      8  C   UNL     1      -1.280   8.269  -5.741  1.00  0.00     0.000 C 
BRANCH   8   9
ATOM      9  C   UNL     1      -0.250   9.007  -6.616  1.00  0.00    -0.000 C 
BRANCH   9  10
ATOM     10  C   UNL     1       1.091   8.275  -6.807  1.00  0.00    -0.000 C 
BRANCH  10  11
ATOM     11  C   UNL     1       1.752   8.577  -8.161  1.00  0.00    -0.000 C 
BRANCH  11  12
ATOM     12  C   UNL     1       2.921   7.621  -8.426  1.00  0.00    -0.003 C 
ATOM     13  C   UNL     1       3.098   6.634  -7.277  1.00  0.00     0.004 C 
ENDBRANCH  11  12
ENDBRANCH  10  11
ENDBRANCH   9  10
ENDBRANCH   8   9
ENDBRANCH   1   8
TORSDOF 9
ENDMDL
MODEL 3
REMARK VINA RESULT:    -3.983      2.810      5.435
REMARK INTER + INTRA:          -7.141
REMARK INTER:                  -6.424
REMARK INTRA:                  -0.717
REMARK UNBOUND:                -1.062
REMARK SMILES CCCCCCCCCCC(=O)[O-]
REMARK SMILES IDX 7 1 8 2 9 3 10 4 11 5 12 6 13 7 6 8 5 9 4 10 3 11 2 12 1 13
REMARK H PARENT
REMARK Flexibility Score: inf
ROOT
ATOM      1  C   UNL     1      -4.847  10.040  -4.557  1.00  0.00     0.000 C 
ENDROOT
BRANCH   1   2
ATOM      2  C   UNL     1      -4.162   9.888  -3.189  1.00  0.00     0.000 C 
BRANCH   2   3
ATOM      3  C   UNL     1      -2.784   9.218  -3.286  1.00  0.00     0.006 C 
BRANCH   3   4
ATOM      4  C   UNL     1      -2.081   9.601  -4.592  1.00  0.00     0.053 C 
BRANCH   4   5
ATOM      5  C   UNL     1      -1.430   8.403  -5.209  1.00  0.00     0.041 C 
ATOM      6  O   UNL     1      -2.042   7.727  -6.076  1.00  0.00    -0.550 OA
ATOM      7  O   UNL     1      -0.168   8.004  -4.788  1.00  0.00    -0.550 OA
ENDBRANCH   4   5
ENDBRANCH   3   4
ENDBRANCH   2   3
ENDBRANCH   1   2
BRANCH   1   8
ATOM      8  C   UNL     1      -5.955   8.996  -4.781  1.00  0.00     0.000 C 
BRANCH   8   9
ATOM      9  C   UNL     1      -5.520   7.851  -5.714  1.00  0.00    -0.000 C 
BRANCH   9  10
ATOM     10  C   UNL     1      -6.062   6.460  -5.342  1.00  0.00    -0.000 C 
BRANCH  10  11
ATOM     11  C   UNL     1      -7.147   5.960  -6.310  1.00  0.00    -0.000 C 
BRANCH  11  12
ATOM     12  C   UNL     1      -8.482   5.764  -5.584  1.00  0.00    -0.003 C 
ATOM     13  C   UNL     1      -9.263   7.071  -5.504  1.00  0.00     0.004 C 
ENDBRANCH  11  12
ENDBRANCH  10  11
ENDBRANCH   9  10
ENDBRANCH   8   9
ENDBRANCH   1   8
TORSDOF 9
ENDMDL
MODEL 4
REMARK VINA RESULT:    -3.782      2.948      5.695
REMARK INTER + INTRA:          -6.834
REMARK INTER:                  -6.198
REMARK INTRA:                  -0.636
REMARK UNBOUND:                -1.062
REMARK SMILES CCCCCCCCCCC(=O)[O-]
REMARK SMILES IDX 7 1 8 2 9 3 10 4 11 5 12 6 13 7 6 8 5 9 4 10 3 11 2 12 1 13
REMARK H PARENT
REMARK Flexibility Score: inf
ROOT
ATOM      1  C   UNL     1      -5.116   9.514  -4.986  1.00  0.00     0.000 C 
ENDROOT
BRANCH   1   2
ATOM      2  C   UNL     1      -4.453   9.899  -3.653  1.00  0.00     0.000 C 
BRANCH   2   3
ATOM      3  C   UNL     1      -3.111   9.186  -3.430  1.00  0.00     0.006 C 
BRANCH   3   4
ATOM      4  C   UNL     1      -2.098   9.574  -4.511  1.00  0.00     0.053 C 
BRANCH   4   5
ATOM      5  C   UNL     1      -1.539   8.353  -5.170  1.00  0.00     0.041 C 
ATOM      6  O   UNL     1      -0.347   8.010  -4.960  1.00  0.00    -0.550 OA
ATOM      7  O   UNL     1      -2.320   7.621  -6.055  1.00  0.00    -0.550 OA
ENDBRANCH   4   5
ENDBRANCH   3   4
ENDBRANCH   2   3
ENDBRANCH   1   2
BRANCH   1   8
ATOM      8  C   UNL     1      -6.317   8.571  -4.795  1.00  0.00     0.000 C 
BRANCH   8   9
ATOM      9  C   UNL     1      -5.984   7.103  -5.119  1.00  0.00    -0.000 C 
BRANCH   9  10
ATOM     10  C   UNL     1      -7.177   6.246  -5.577  1.00  0.00    -0.000 C 
BRANCH  10  11
ATOM     11  C   UNL     1      -8.237   7.053  -6.342  1.00  0.00    -0.000 C 
BRANCH  11  12
ATOM     12  C   UNL     1      -9.616   6.904  -5.689  1.00  0.00    -0.003 C 
ATOM     13  C   UNL     1     -10.004   8.166  -4.926  1.00  0.00     0.004 C 
ENDBRANCH  11  12
ENDBRANCH  10  11
ENDBRANCH   9  10
ENDBRANCH   8   9
ENDBRANCH   1   8
TORSDOF 9
ENDMDL
MODEL 5
REMARK VINA RESULT:    -3.759      4.909      7.010
REMARK INTER + INTRA:          -6.799
REMARK INTER:                  -6.385
REMARK INTRA:                  -0.414
REMARK UNBOUND:                -1.062
REMARK SMILES CCCCCCCCCCC(=O)[O-]
REMARK SMILES IDX 7 1 8 2 9 3 10 4 11 5 12 6 13 7 6 8 5 9 4 10 3 11 2 12 1 13
REMARK H PARENT
REMARK Flexibility Score: inf
ROOT
ATOM      1  C   UNL     1      -0.670   9.881  -6.086  1.00  0.00     0.000 C 
ENDROOT
BRANCH   1   2
ATOM      2  C   UNL     1       0.116   9.522  -7.358  1.00  0.00     0.000 C 
BRANCH   2   3
ATOM      3  C   UNL     1       1.125   8.387  -7.131  1.00  0.00     0.006 C 
BRANCH   3   4
ATOM      4  C   UNL     1       2.185   8.367  -8.237  1.00  0.00     0.053 C 
BRANCH   4   5
ATOM      5  C   UNL     1       3.178   7.275  -7.993  1.00  0.00     0.041 C 
ATOM      6  O   UNL     1       3.065   6.530  -6.985  1.00  0.00    -0.550 OA
ATOM      7  O   UNL     1       4.258   7.113  -8.851  1.00  0.00    -0.550 OA
ENDBRANCH   4   5
ENDBRANCH   3   4
ENDBRANCH   2   3
ENDBRANCH   1   2
BRANCH   1   8
ATOM      8  C   UNL     1      -0.994   8.648  -5.226  1.00  0.00     0.000 C 
BRANCH   8   9
ATOM      9  C   UNL     1      -1.981   8.956  -4.085  1.00  0.00    -0.000 C 
BRANCH   9  10
ATOM     10  C   UNL     1      -2.946  10.125  -4.351  1.00  0.00    -0.000 C 
BRANCH  10  11
ATOM     11  C   UNL     1      -4.299   9.960  -3.643  1.00  0.00    -0.000 C 
BRANCH  11  12
ATOM     12  C   UNL     1      -5.422   9.710  -4.657  1.00  0.00    -0.003 C 
ATOM     13  C   UNL     1      -5.446   8.252  -5.104  1.00  0.00     0.004 C 
ENDBRANCH  11  12
ENDBRANCH  10  11
ENDBRANCH   9  10
ENDBRANCH   8   9
ENDBRANCH   1   8
TORSDOF 9
ENDMDL
MODEL 6
REMARK VINA RESULT:    -3.736      3.605      5.518
REMARK INTER + INTRA:          -6.765
REMARK INTER:                  -5.951
REMARK INTRA:                  -0.814
REMARK UNBOUND:                -1.062
REMARK SMILES CCCCCCCCCCC(=O)[O-]
REMARK SMILES IDX 7 1 8 2 9 3 10 4 11 5 12 6 13 7 6 8 5 9 4 10 3 11 2 12 1 13
REMARK H PARENT
REMARK Flexibility Score: inf
ROOT
ATOM      1  C   UNL     1      -3.073   9.034  -3.378  1.00  0.00     0.000 C 
ENDROOT
BRANCH   1   2
ATOM      2  C   UNL     1      -1.941   9.482  -4.317  1.00  0.00     0.000 C 
BRANCH   2   3
ATOM      3  C   UNL     1      -1.582   8.418  -5.364  1.00  0.00     0.006 C 
BRANCH   3   4
ATOM      4  C   UNL     1      -0.064   8.231  -5.457  1.00  0.00     0.053 C 
BRANCH   4   5
ATOM      5  C   UNL     1       0.455   8.780  -6.748  1.00  0.00     0.041 C 
ATOM      6  O   UNL     1       1.420   8.221  -7.331  1.00  0.00    -0.550 OA
ATOM      7  O   UNL     1      -0.094   9.939  -7.281  1.00  0.00    -0.550 OA
ENDBRANCH   4   5
ENDBRANCH   3   4
ENDBRANCH   2   3
ENDBRANCH   1   2
BRANCH   1   8
ATOM      8  C   UNL     1      -4.353   9.869  -3.557  1.00  0.00     0.000 C 
BRANCH   8   9
ATOM      9  C   UNL     1      -5.038   9.632  -4.915  1.00  0.00    -0.000 C 
BRANCH   9  10
ATOM     10  C   UNL     1      -6.257   8.694  -4.879  1.00  0.00    -0.000 C 
BRANCH  10  11
ATOM     11  C   UNL     1      -5.888   7.221  -5.114  1.00  0.00    -0.000 C 
BRANCH  11  12
ATOM     12  C   UNL     1      -5.291   7.021  -6.511  1.00  0.00    -0.003 C 
ATOM     13  C   UNL     1      -4.106   6.060  -6.472  1.00  0.00     0.004 C 
ENDBRANCH  11  12
ENDBRANCH  10  11
ENDBRANCH   9  10
ENDBRANCH   8   9
ENDBRANCH   1   8
TORSDOF 9
ENDMDL
MODEL 7
REMARK VINA RESULT:    -3.614     19.848     20.952
REMARK INTER + INTRA:          -6.578
REMARK INTER:                  -5.841
REMARK INTRA:                  -0.737
REMARK UNBOUND:                -1.062
REMARK SMILES CCCCCCCCCCC(=O)[O-]
REMARK SMILES IDX 7 1 8 2 9 3 10 4 11 5 12 6 13 7 6 8 5 9 4 10 3 11 2 12 1 13
REMARK H PARENT
REMARK Flexibility Score: inf
ROOT
ATOM      1  C   UNL     1      -1.299  -6.746   8.620  1.00  0.00     0.000 C 
ENDROOT
BRANCH   1   2
ATOM      2  C   UNL     1      -1.268  -8.264   8.380  1.00  0.00     0.000 C 
BRANCH   2   3
ATOM      3  C   UNL     1      -1.608  -8.642   6.930  1.00  0.00     0.006 C 
BRANCH   3   4
ATOM      4  C   UNL     1      -2.442  -7.546   6.260  1.00  0.00     0.053 C 
BRANCH   4   5
ATOM      5  C   UNL     1      -2.141  -7.480   4.796  1.00  0.00     0.041 C 
ATOM      6  O   UNL     1      -2.498  -6.479   4.121  1.00  0.00    -0.550 OA
ATOM      7  O   UNL     1      -1.512  -8.546   4.166  1.00  0.00    -0.550 OA
ENDBRANCH   4   5
ENDBRANCH   3   4
ENDBRANCH   2   3
ENDBRANCH   1   2
BRANCH   1   8
ATOM      8  C   UNL     1      -2.183  -6.356   9.817  1.00  0.00     0.000 C 
BRANCH   8   9
ATOM      9  C   UNL     1      -3.356  -7.329  10.037  1.00  0.00    -0.000 C 
BRANCH   9  10
ATOM     10  C   UNL     1      -4.745  -6.672  10.124  1.00  0.00    -0.000 C 
BRANCH  10  11
ATOM     11  C   UNL     1      -5.744  -7.238   9.103  1.00  0.00    -0.000 C 
BRANCH  11  12
ATOM     12  C   UNL     1      -5.883  -8.757   9.257  1.00  0.00    -0.003 C 
ATOM     13  C   UNL     1      -7.336  -9.156   9.499  1.00  0.00     0.004 C 
ENDBRANCH  11  12
ENDBRANCH  10  11
ENDBRANCH   9  10
ENDBRANCH   8   9
ENDBRANCH   1   8
TORSDOF 9
ENDMDL
MODEL 8
REMARK VINA RESULT:    -3.600      2.465      3.360
REMARK INTER + INTRA:          -6.557
REMARK INTER:                  -6.208
REMARK INTRA:                  -0.349
REMARK UNBOUND:                -1.062
REMARK SMILES CCCCCCCCCCC(=O)[O-]
REMARK SMILES IDX 7 1 8 2 9 3 10 4 11 5 12 6 13 7 6 8 5 9 4 10 3 11 2 12 1 13
REMARK H PARENT
REMARK Flexibility Score: inf
ROOT
ATOM      1  C   UNL     1      -2.774   9.091  -3.353  1.00  0.00     0.000 C 
ENDROOT
BRANCH   1   2
ATOM      2  C   UNL     1      -4.070   9.864  -3.057  1.00  0.00     0.000 C 
BRANCH   2   3
ATOM      3  C   UNL     1      -4.909  10.118  -4.318  1.00  0.00     0.006 C 
BRANCH   3   4
ATOM      4  C   UNL     1      -5.636   8.843  -4.758  1.00  0.00     0.053 C 
BRANCH   4   5
ATOM      5  C   UNL     1      -6.690   9.162  -5.771  1.00  0.00     0.041 C 
ATOM      6  O   UNL     1      -6.366   9.623  -6.897  1.00  0.00    -0.550 OA
ATOM      7  O   UNL     1      -8.032   8.997  -5.454  1.00  0.00    -0.550 OA
ENDBRANCH   4   5
ENDBRANCH   3   4
ENDBRANCH   2   3
ENDBRANCH   1   2
BRANCH   1   8
ATOM      8  C   UNL     1      -1.808   9.882  -4.252  1.00  0.00     0.000 C 
BRANCH   8   9
ATOM      9  C   UNL     1      -1.549   9.192  -5.604  1.00  0.00    -0.000 C 
BRANCH   9  10
ATOM     10  C   UNL     1      -0.178   8.505  -5.737  1.00  0.00    -0.000 C 
BRANCH  10  11
ATOM     11  C   UNL     1       0.490   8.754  -7.098  1.00  0.00    -0.000 C 
BRANCH  11  12
ATOM     12  C   UNL     1       1.792   7.957  -7.225  1.00  0.00    -0.003 C 
ATOM     13  C   UNL     1       2.545   8.328  -8.499  1.00  0.00     0.004 C 
ENDBRANCH  11  12
ENDBRANCH  10  11
ENDBRANCH   9  10
ENDBRANCH   8   9
ENDBRANCH   1   8
TORSDOF 9
ENDMDL
MODEL 9
REMARK VINA RESULT:    -3.446     19.906     20.748
REMARK INTER + INTRA:          -6.321
REMARK INTER:                  -5.310
REMARK INTRA:                  -1.012
REMARK UNBOUND:                -1.062
REMARK SMILES CCCCCCCCCCC(=O)[O-]
REMARK SMILES IDX 7 1 8 2 9 3 10 4 11 5 12 6 13 7 6 8 5 9 4 10 3 11 2 12 1 13
REMARK H PARENT
REMARK Flexibility Score: inf
ROOT
ATOM      1  C   UNL     1      -3.965  -7.875   8.114  1.00  0.00     0.000 C 
ENDROOT
BRANCH   1   2
ATOM      2  C   UNL     1      -3.718  -9.290   7.564  1.00  0.00     0.000 C 
BRANCH   2   3
ATOM      3  C   UNL     1      -3.032  -9.280   6.190  1.00  0.00     0.006 C 
BRANCH   3   4
ATOM      4  C   UNL     1      -2.619  -7.859   5.794  1.00  0.00     0.053 C 
BRANCH   4   5
ATOM      5  C   UNL     1      -1.873  -7.871   4.497  1.00  0.00     0.041 C 
ATOM      6  O   UNL     1      -1.204  -8.883   4.161  1.00  0.00    -0.550 OA
ATOM      7  O   UNL     1      -1.877  -6.746   3.682  1.00  0.00    -0.550 OA
ENDBRANCH   4   5
ENDBRANCH   3   4
ENDBRANCH   2   3
ENDBRANCH   1   2
BRANCH   1   8
ATOM      8  C   UNL     1      -3.757  -7.791   9.637  1.00  0.00     0.000 C 
BRANCH   8   9
ATOM      9  C   UNL     1      -2.684  -6.762  10.039  1.00  0.00    -0.000 C 
BRANCH   9  10
ATOM     10  C   UNL     1      -1.506  -6.628   9.058  1.00  0.00    -0.000 C 
BRANCH  10  11
ATOM     11  C   UNL     1      -0.138  -6.631   9.758  1.00  0.00    -0.000 C 
BRANCH  11  12
ATOM     12  C   UNL     1       0.651  -7.900   9.414  1.00  0.00    -0.003 C 
ATOM     13  C   UNL     1       0.010  -8.649   8.251  1.00  0.00     0.004 C 
ENDBRANCH  11  12
ENDBRANCH  10  11
ENDBRANCH   9  10
ENDBRANCH   8   9
ENDBRANCH   1   8
TORSDOF 9
ENDMDL
