MODEL 1
REMARK VINA RESULT:    -5.289      0.000      0.000
REMARK INTER + INTRA:          -6.151
REMARK INTER:                  -5.907
REMARK INTRA:                  -0.244
REMARK UNBOUND:                -0.244
REMARK SMILES COc1cc(C)ccc1C(C)C
REMARK SMILES IDX 6 1 5 2 4 3 3 4 9 5 8 6 7 7 2 8 1 9 10 10 11 11 12 12
REMARK H PARENT
REMARK Flexibility Score: inf
ROOT
ATOM      1  C   UNL     1       9.351  24.462  74.006  1.00  0.00     0.044 C 
ATOM      2  C   UNL     1       9.922  25.841  73.849  1.00  0.00    -0.047 A 
ATOM      3  C   UNL     1      11.302  26.050  73.970  1.00  0.00     0.050 A 
ATOM      4  C   UNL     1      11.848  27.346  73.861  1.00  0.00     0.122 A 
ATOM      5  C   UNL     1      10.987  28.446  73.638  1.00  0.00    -0.003 A 
ATOM      6  C   UNL     1       9.600  28.223  73.540  1.00  0.00     0.008 A 
ATOM      7  C   UNL     1       9.075  26.935  73.650  1.00  0.00     0.004 A 
ENDROOT
BRANCH   4   8
ATOM      8  O   UNL     1      13.231  27.568  73.972  1.00  0.00    -0.496 OA
ATOM      9  C   UNL     1      14.237  26.638  73.582  1.00  0.00     0.278 C 
ENDBRANCH   4   8
BRANCH   5  10
ATOM     10  C   UNL     1      11.537  29.862  73.515  1.00  0.00     0.017 C 
ATOM     11  C   UNL     1      10.806  30.823  74.460  1.00  0.00     0.012 C 
ATOM     12  C   UNL     1      11.470  30.357  72.065  1.00  0.00     0.012 C 
ENDBRANCH   5  10
TORSDOF 2
ENDMDL
MODEL 2
REMARK VINA RESULT:    -5.127      1.292      4.161
REMARK INTER + INTRA:          -5.971
REMARK INTER:                  -5.921
REMARK INTRA:                  -0.050
REMARK UNBOUND:                -0.244
REMARK SMILES COc1cc(C)ccc1C(C)C
REMARK SMILES IDX 6 1 5 2 4 3 3 4 9 5 8 6 7 7 2 8 1 9 10 10 11 11 12 12
REMARK H PARENT
REMARK Flexibility Score: inf
ROOT
ATOM      1  C   UNL     1      10.796  32.870  73.638  1.00  0.00     0.044 C 
ATOM      2  C   UNL     1      10.679  31.375  73.691  1.00  0.00    -0.047 A 
ATOM      3  C   UNL     1      11.736  30.568  73.248  1.00  0.00     0.050 A 
ATOM      4  C   UNL     1      11.625  29.162  73.260  1.00  0.00     0.122 A 
ATOM      5  C   UNL     1      10.426  28.563  73.714  1.00  0.00    -0.003 A 
ATOM      6  C   UNL     1       9.365  29.388  74.136  1.00  0.00     0.008 A 
ATOM      7  C   UNL     1       9.490  30.777  74.119  1.00  0.00     0.004 A 
ENDROOT
BRANCH   4   8
ATOM      8  O   UNL     1      12.681  28.343  72.825  1.00  0.00    -0.496 OA
ATOM      9  C   UNL     1      13.555  27.620  73.685  1.00  0.00     0.278 C 
ENDBRANCH   4   8
BRANCH   5  10
ATOM     10  C   UNL     1      10.266  27.048  73.741  1.00  0.00     0.017 C 
ATOM     11  C   UNL     1       8.904  26.626  73.178  1.00  0.00     0.012 C 
ATOM     12  C   UNL     1      10.473  26.495  75.156  1.00  0.00     0.012 C 
ENDBRANCH   5  10
TORSDOF 2
ENDMDL
MODEL 3
REMARK VINA RESULT:    -5.107      1.770      3.397
REMARK INTER + INTRA:          -5.948
REMARK INTER:                  -5.697
REMARK INTRA:                  -0.251
REMARK UNBOUND:                -0.244
REMARK SMILES COc1cc(C)ccc1C(C)C
REMARK SMILES IDX 6 1 5 2 4 3 3 4 9 5 8 6 7 7 2 8 1 9 10 10 11 11 12 12
REMARK H PARENT
REMARK Flexibility Score: inf
ROOT
ATOM      1  C   UNL     1      13.953  26.415  73.906  1.00  0.00     0.044 C 
ATOM      2  C   UNL     1      12.732  27.277  73.764  1.00  0.00    -0.047 A 
ATOM      3  C   UNL     1      11.458  26.696  73.739  1.00  0.00     0.050 A 
ATOM      4  C   UNL     1      10.305  27.491  73.569  1.00  0.00     0.122 A 
ATOM      5  C   UNL     1      10.443  28.891  73.411  1.00  0.00    -0.003 A 
ATOM      6  C   UNL     1      11.732  29.457  73.418  1.00  0.00     0.008 A 
ATOM      7  C   UNL     1      12.863  28.658  73.586  1.00  0.00     0.004 A 
ENDROOT
BRANCH   4   8
ATOM      8  O   UNL     1       9.021  26.921  73.551  1.00  0.00    -0.496 OA
ATOM      9  C   UNL     1       8.655  25.766  72.803  1.00  0.00     0.278 C 
ENDBRANCH   4   8
BRANCH   5  10
ATOM     10  C   UNL     1       9.223  29.784  73.225  1.00  0.00     0.017 C 
ATOM     11  C   UNL     1       9.104  30.261  71.772  1.00  0.00     0.012 C 
ATOM     12  C   UNL     1       9.254  30.972  74.194  1.00  0.00     0.012 C 
ENDBRANCH   5  10
TORSDOF 2
ENDMDL
MODEL 4
REMARK VINA RESULT:    -4.946      8.776     11.765
REMARK INTER + INTRA:          -5.768
REMARK INTER:                  -5.741
REMARK INTRA:                  -0.027
REMARK UNBOUND:                -0.244
REMARK SMILES COc1cc(C)ccc1C(C)C
REMARK SMILES IDX 6 1 5 2 4 3 3 4 9 5 8 6 7 7 2 8 1 9 10 10 11 11 12 12
REMARK H PARENT
REMARK Flexibility Score: inf
ROOT
ATOM      1  C   UNL     1      13.159  40.766  73.567  1.00  0.00     0.044 C 
ATOM      2  C   UNL     1      12.401  40.023  72.506  1.00  0.00    -0.047 A 
ATOM      3  C   UNL     1      12.251  38.632  72.589  1.00  0.00     0.050 A 
ATOM      4  C   UNL     1      11.572  37.917  71.580  1.00  0.00     0.122 A 
ATOM      5  C   UNL     1      11.048  38.616  70.467  1.00  0.00    -0.003 A 
ATOM      6  C   UNL     1      11.225  40.011  70.387  1.00  0.00     0.008 A 
ATOM      7  C   UNL     1      11.899  40.704  71.392  1.00  0.00     0.004 A 
ENDROOT
BRANCH   4   8
ATOM      8  O   UNL     1      11.409  36.524  71.656  1.00  0.00    -0.496 OA
ATOM      9  C   UNL     1      11.608  35.746  72.831  1.00  0.00     0.278 C 
ENDBRANCH   4   8
BRANCH   5  10
ATOM     10  C   UNL     1      10.309  37.881  69.356  1.00  0.00     0.017 C 
ATOM     11  C   UNL     1      10.074  38.797  68.148  1.00  0.00     0.012 C 
ATOM     12  C   UNL     1       8.989  37.290  69.866  1.00  0.00     0.012 C 
ENDBRANCH   5  10
TORSDOF 2
ENDMDL
MODEL 5
REMARK VINA RESULT:    -4.937      2.327      3.895
REMARK INTER + INTRA:          -5.758
REMARK INTER:                  -6.399
REMARK INTRA:                   0.641
REMARK UNBOUND:                -0.244
REMARK SMILES COc1cc(C)ccc1C(C)C
REMARK SMILES IDX 6 1 5 2 4 3 3 4 9 5 8 6 7 7 2 8 1 9 10 10 11 11 12 12
REMARK H PARENT
REMARK Flexibility Score: inf
ROOT
ATOM      1  C   UNL     1      10.711  27.092  74.109  1.00  0.00     0.044 C 
ATOM      2  C   UNL     1      10.973  28.490  73.633  1.00  0.00    -0.047 A 
ATOM      3  C   UNL     1      10.537  29.587  74.388  1.00  0.00     0.050 A 
ATOM      4  C   UNL     1      10.746  30.906  73.934  1.00  0.00     0.122 A 
ATOM      5  C   UNL     1      11.393  31.119  72.694  1.00  0.00    -0.003 A 
ATOM      6  C   UNL     1      11.807  30.007  71.936  1.00  0.00     0.008 A 
ATOM      7  C   UNL     1      11.594  28.708  72.398  1.00  0.00     0.004 A 
ENDROOT
BRANCH   4   8
ATOM      8  O   UNL     1      10.321  32.013  74.687  1.00  0.00    -0.496 OA
ATOM      9  C   UNL     1      10.946  32.473  75.880  1.00  0.00     0.278 C 
ENDBRANCH   4   8
BRANCH   5  10
ATOM     10  C   UNL     1      11.637  32.528  72.168  1.00  0.00     0.017 C 
ATOM     11  C   UNL     1      12.403  33.376  73.191  1.00  0.00     0.012 C 
ATOM     12  C   UNL     1      10.320  33.205  71.767  1.00  0.00     0.012 C 
ENDBRANCH   5  10
TORSDOF 2
ENDMDL
MODEL 6
REMARK VINA RESULT:    -4.880      7.890     10.502
REMARK INTER + INTRA:          -5.695
REMARK INTER:                  -5.430
REMARK INTRA:                  -0.265
REMARK UNBOUND:                -0.244
REMARK SMILES COc1cc(C)ccc1C(C)C
REMARK SMILES IDX 6 1 5 2 4 3 3 4 9 5 8 6 7 7 2 8 1 9 10 10 11 11 12 12
REMARK H PARENT
REMARK Flexibility Score: inf
ROOT
ATOM      1  C   UNL     1       8.459  37.716  67.783  1.00  0.00     0.044 C 
ATOM      2  C   UNL     1       9.144  37.374  69.074  1.00  0.00    -0.047 A 
ATOM      3  C   UNL     1      10.242  38.127  69.512  1.00  0.00     0.050 A 
ATOM      4  C   UNL     1      10.917  37.794  70.704  1.00  0.00     0.122 A 
ATOM      5  C   UNL     1      10.485  36.677  71.458  1.00  0.00    -0.003 A 
ATOM      6  C   UNL     1       9.394  35.917  70.995  1.00  0.00     0.008 A 
ATOM      7  C   UNL     1       8.736  36.259  69.813  1.00  0.00     0.004 A 
ENDROOT
BRANCH   4   8
ATOM      8  O   UNL     1      12.014  38.546  71.157  1.00  0.00    -0.496 OA
ATOM      9  C   UNL     1      12.003  39.955  71.363  1.00  0.00     0.278 C 
ENDBRANCH   4   8
BRANCH   5  10
ATOM     10  C   UNL     1      11.189  36.283  72.751  1.00  0.00     0.017 C 
ATOM     11  C   UNL     1      11.264  34.758  72.897  1.00  0.00     0.012 C 
ATOM     12  C   UNL     1      10.506  36.920  73.968  1.00  0.00     0.012 C 
ENDBRANCH   5  10
TORSDOF 2
ENDMDL
MODEL 7
REMARK VINA RESULT:    -4.734      1.845      2.940
REMARK INTER + INTRA:          -5.531
REMARK INTER:                  -5.906
REMARK INTRA:                   0.374
REMARK UNBOUND:                -0.244
REMARK SMILES COc1cc(C)ccc1C(C)C
REMARK SMILES IDX 6 1 5 2 4 3 3 4 9 5 8 6 7 7 2 8 1 9 10 10 11 11 12 12
REMARK H PARENT
REMARK Flexibility Score: inf
ROOT
ATOM      1  C   UNL     1       9.597  25.029  73.328  1.00  0.00     0.044 C 
ATOM      2  C   UNL     1      10.056  26.449  73.493  1.00  0.00    -0.047 A 
ATOM      3  C   UNL     1       9.266  27.505  73.020  1.00  0.00     0.050 A 
ATOM      4  C   UNL     1       9.703  28.841  73.137  1.00  0.00     0.122 A 
ATOM      5  C   UNL     1      10.959  29.112  73.729  1.00  0.00    -0.003 A 
ATOM      6  C   UNL     1      11.751  28.039  74.181  1.00  0.00     0.008 A 
ATOM      7  C   UNL     1      11.305  26.723  74.059  1.00  0.00     0.004 A 
ENDROOT
BRANCH   4   8
ATOM      8  O   UNL     1       8.917  29.910  72.674  1.00  0.00    -0.496 OA
ATOM      9  C   UNL     1       8.592  30.147  71.309  1.00  0.00     0.278 C 
ENDBRANCH   4   8
BRANCH   5  10
ATOM     10  C   UNL     1      11.467  30.542  73.873  1.00  0.00     0.017 C 
ATOM     11  C   UNL     1      10.514  31.383  74.731  1.00  0.00     0.012 C 
ATOM     12  C   UNL     1      11.691  31.190  72.501  1.00  0.00     0.012 C 
ENDBRANCH   5  10
TORSDOF 2
ENDMDL
MODEL 8
REMARK VINA RESULT:    -4.730      2.945      6.095
REMARK INTER + INTRA:          -5.526
REMARK INTER:                  -5.896
REMARK INTRA:                   0.369
REMARK UNBOUND:                -0.244
REMARK SMILES COc1cc(C)ccc1C(C)C
REMARK SMILES IDX 6 1 5 2 4 3 3 4 9 5 8 6 7 7 2 8 1 9 10 10 11 11 12 12
REMARK H PARENT
REMARK Flexibility Score: inf
ROOT
ATOM      1  C   UNL     1      10.644  35.429  72.018  1.00  0.00     0.044 C 
ATOM      2  C   UNL     1      10.850  34.021  72.493  1.00  0.00    -0.047 A 
ATOM      3  C   UNL     1      10.363  32.944  71.742  1.00  0.00     0.050 A 
ATOM      4  C   UNL     1      10.519  31.617  72.195  1.00  0.00     0.122 A 
ATOM      5  C   UNL     1      11.165  31.377  73.431  1.00  0.00    -0.003 A 
ATOM      6  C   UNL     1      11.632  32.471  74.185  1.00  0.00     0.008 A 
ATOM      7  C   UNL     1      11.470  33.777  73.723  1.00  0.00     0.004 A 
ENDROOT
BRANCH   4   8
ATOM      8  O   UNL     1      10.041  30.529  71.447  1.00  0.00    -0.496 OA
ATOM      9  C   UNL     1       8.666  30.205  71.269  1.00  0.00     0.278 C 
ENDBRANCH   4   8
BRANCH   5  10
ATOM     10  C   UNL     1      11.353  29.959  73.956  1.00  0.00     0.017 C 
ATOM     11  C   UNL     1      12.032  29.067  72.910  1.00  0.00     0.012 C 
ATOM     12  C   UNL     1      10.018  29.357  74.411  1.00  0.00     0.012 C 
ENDBRANCH   5  10
TORSDOF 2
ENDMDL
MODEL 9
REMARK VINA RESULT:    -4.709      3.359      5.934
REMARK INTER + INTRA:          -5.503
REMARK INTER:                  -5.271
REMARK INTRA:                  -0.233
REMARK UNBOUND:                -0.244
REMARK SMILES COc1cc(C)ccc1C(C)C
REMARK SMILES IDX 6 1 5 2 4 3 3 4 9 5 8 6 7 7 2 8 1 9 10 10 11 11 12 12
REMARK H PARENT
REMARK Flexibility Score: inf
ROOT
ATOM      1  C   UNL     1      10.670  26.536  74.811  1.00  0.00     0.044 C 
ATOM      2  C   UNL     1       9.748  25.635  74.043  1.00  0.00    -0.047 A 
ATOM      3  C   UNL     1       9.687  24.267  74.342  1.00  0.00     0.050 A 
ATOM      4  C   UNL     1       8.852  23.403  73.604  1.00  0.00     0.122 A 
ATOM      5  C   UNL     1       8.077  23.925  72.542  1.00  0.00    -0.003 A 
ATOM      6  C   UNL     1       8.164  25.298  72.239  1.00  0.00     0.008 A 
ATOM      7  C   UNL     1       8.995  26.140  72.978  1.00  0.00     0.004 A 
ENDROOT
BRANCH   4   8
ATOM      8  O   UNL     1       8.776  22.032  73.901  1.00  0.00    -0.496 OA
ATOM      9  C   UNL     1       9.795  21.284  74.555  1.00  0.00     0.278 C 
ENDBRANCH   4   8
BRANCH   5  10
ATOM     10  C   UNL     1       7.163  23.024  71.720  1.00  0.00     0.017 C 
ATOM     11  C   UNL     1       7.086  23.497  70.263  1.00  0.00     0.012 C 
ATOM     12  C   UNL     1       5.765  22.936  72.346  1.00  0.00     0.012 C 
ENDBRANCH   5  10
TORSDOF 2
ENDMDL
