MODEL 1
REMARK VINA RESULT:    -5.036      0.000      0.000
REMARK INTER + INTRA:          -9.011
REMARK INTER:                  -6.655
REMARK INTRA:                  -2.356
REMARK UNBOUND:                -2.356
REMARK SMILES CC[C@@H](C=C[C@@H](C)[C@H]1CC[C@@H]2[C@H]3CC=C4C[C@H](O)CC[C@]4(C)[C@H]3CC[C@]21C)C(C)C
REMARK SMILES IDX 6 1 7 2 5 3 4 4 3 5 2 6 1 7 28 8 29 9 30 10 8 11 9 12 26 13
REMARK SMILES IDX 10 14 11 15 25 16 27 17 12 18 24 19 23 20 13 21 21 22 14 23
REMARK SMILES IDX 15 24 20 25 22 26 16 27 19 28 17 29 18 30
REMARK H PARENT 18 31
REMARK Flexibility Score: inf
ROOT
ATOM      1  C   UNL     1     125.090 136.469 120.843  1.00  0.00     0.012 C 
ATOM      2  C   UNL     1     124.999 138.008 120.880  1.00  0.00     0.012 C 
ENDROOT
BRANCH   1   3
ATOM      3  C   UNL     1     126.562 136.124 120.726  1.00  0.00    -0.028 C 
ATOM      4  C   UNL     1     127.104 135.080 121.374  1.00  0.00    -0.027 C 
BRANCH   4   5
ATOM      5  C   UNL     1     128.569 134.726 121.201  1.00  0.00     0.014 C 
BRANCH   5   6
ATOM      6  C   UNL     1     128.726 133.851 119.922  1.00  0.00     0.004 C 
ATOM      7  C   UNL     1     127.888 132.572 119.983  1.00  0.00     0.004 C 
ENDBRANCH   5   6
BRANCH   5   8
ATOM      8  C   UNL     1     129.120 134.027 122.486  1.00  0.00    -0.011 C 
ATOM      9  C   UNL     1     130.125 134.909 123.247  1.00  0.00     0.008 C 
ATOM     10  C   UNL     1     127.981 133.641 123.449  1.00  0.00     0.008 C 
ENDBRANCH   5   8
ENDBRANCH   4   5
ENDBRANCH   1   3
BRANCH   1  11
ATOM     11  C   UNL     1     124.276 135.876 119.646  1.00  0.00     0.002 C 
ATOM     12  C   UNL     1     125.058 135.936 118.299  1.00  0.00     0.005 C 
ATOM     13  C   UNL     1     123.772 134.377 119.758  1.00  0.00    -0.026 C 
ATOM     14  C   UNL     1     124.894 134.589 117.611  1.00  0.00     0.005 C 
ATOM     15  C   UNL     1     124.696 133.635 118.771  1.00  0.00    -0.001 C 
ATOM     16  C   UNL     1     123.854 133.634 121.139  1.00  0.00     0.007 C 
ATOM     17  C   UNL     1     122.280 134.378 119.295  1.00  0.00     0.012 C 
ATOM     18  C   UNL     1     124.202 132.208 118.431  1.00  0.00     0.000 C 
ATOM     19  C   UNL     1     124.269 132.138 121.042  1.00  0.00     0.005 C 
ATOM     20  C   UNL     1     123.813 131.412 119.738  1.00  0.00     0.003 C 
ATOM     21  C   UNL     1     125.228 131.462 117.569  1.00  0.00     0.031 C 
ATOM     22  C   UNL     1     124.174 129.857 119.730  1.00  0.00    -0.008 C 
ATOM     23  C   UNL     1     124.758 130.065 117.310  1.00  0.00    -0.027 C 
ATOM     24  C   UNL     1     124.224 129.315 118.292  1.00  0.00    -0.065 C 
ATOM     25  C   UNL     1     123.080 129.096 120.550  1.00  0.00     0.014 C 
ATOM     26  C   UNL     1     125.559 129.573 120.374  1.00  0.00     0.016 C 
ATOM     27  C   UNL     1     124.005 127.839 118.011  1.00  0.00     0.063 C 
ATOM     28  C   UNL     1     123.090 127.578 120.342  1.00  0.00     0.033 C 
ATOM     29  C   UNL     1     122.887 127.230 118.865  1.00  0.00     0.118 C 
BRANCH  29  30
ATOM     30  O   UNL     1     121.630 127.688 118.434  1.00  0.00    -0.393 OA
ATOM     31  H   UNL     1     121.424 128.503 118.963  1.00  0.00     0.210 HD
ENDBRANCH  29  30
ENDBRANCH   1  11
TORSDOF 6
ENDMDL
MODEL 2
REMARK VINA RESULT:    -4.883      1.637      4.686
REMARK INTER + INTRA:          -8.810
REMARK INTER:                  -6.327
REMARK INTRA:                  -2.483
REMARK UNBOUND:                -2.356
REMARK SMILES CC[C@@H](C=C[C@@H](C)[C@H]1CC[C@@H]2[C@H]3CC=C4C[C@H](O)CC[C@]4(C)[C@H]3CC[C@]21C)C(C)C
REMARK SMILES IDX 6 1 7 2 5 3 4 4 3 5 2 6 1 7 28 8 29 9 30 10 8 11 9 12 26 13
REMARK SMILES IDX 10 14 11 15 25 16 27 17 12 18 24 19 23 20 13 21 21 22 14 23
REMARK SMILES IDX 15 24 20 25 22 26 16 27 19 28 17 29 18 30
REMARK H PARENT 18 31
REMARK Flexibility Score: inf
ROOT
ATOM      1  C   UNL     1     128.921 136.893 119.773  1.00  0.00     0.012 C 
ATOM      2  C   UNL     1     130.057 137.885 120.096  1.00  0.00     0.012 C 
ENDROOT
BRANCH   1   3
ATOM      3  C   UNL     1     127.622 137.591 120.127  1.00  0.00    -0.028 C 
ATOM      4  C   UNL     1     126.523 137.484 119.363  1.00  0.00    -0.027 C 
BRANCH   4   5
ATOM      5  C   UNL     1     125.221 138.151 119.765  1.00  0.00     0.014 C 
BRANCH   5   6
ATOM      6  C   UNL     1     125.369 138.708 121.212  1.00  0.00     0.004 C 
ATOM      7  C   UNL     1     125.072 140.207 121.294  1.00  0.00     0.004 C 
ENDBRANCH   5   6
BRANCH   5   8
ATOM      8  C   UNL     1     124.026 137.155 119.619  1.00  0.00    -0.011 C 
ATOM      9  C   UNL     1     123.954 136.530 118.215  1.00  0.00     0.008 C 
ATOM     10  C   UNL     1     124.110 136.019 120.656  1.00  0.00     0.008 C 
ENDBRANCH   5   8
ENDBRANCH   4   5
ENDBRANCH   1   3
BRANCH   1  11
ATOM     11  C   UNL     1     129.080 135.560 120.575  1.00  0.00     0.002 C 
ATOM     12  C   UNL     1     128.672 135.707 122.072  1.00  0.00     0.005 C 
ATOM     13  C   UNL     1     128.294 134.283 120.063  1.00  0.00    -0.026 C 
ATOM     14  C   UNL     1     127.811 134.506 122.435  1.00  0.00     0.005 C 
ATOM     15  C   UNL     1     127.175 134.130 121.113  1.00  0.00    -0.001 C 
ATOM     16  C   UNL     1     127.616 134.309 118.646  1.00  0.00     0.007 C 
ATOM     17  C   UNL     1     129.310 133.097 120.093  1.00  0.00     0.012 C 
ATOM     18  C   UNL     1     126.458 132.760 121.043  1.00  0.00     0.000 C 
ATOM     19  C   UNL     1     126.232 133.605 118.581  1.00  0.00     0.005 C 
ATOM     20  C   UNL     1     126.059 132.400 119.558  1.00  0.00     0.003 C 
ATOM     21  C   UNL     1     125.263 132.715 122.003  1.00  0.00     0.031 C 
ATOM     22  C   UNL     1     124.661 131.649 119.384  1.00  0.00    -0.008 C 
ATOM     23  C   UNL     1     124.548 131.408 121.868  1.00  0.00    -0.027 C 
ATOM     24  C   UNL     1     124.295 130.872 120.659  1.00  0.00    -0.065 C 
ATOM     25  C   UNL     1     124.781 130.665 118.173  1.00  0.00     0.014 C 
ATOM     26  C   UNL     1     123.496 132.638 119.101  1.00  0.00     0.016 C 
ATOM     27  C   UNL     1     123.356 129.681 120.599  1.00  0.00     0.063 C 
ATOM     28  C   UNL     1     123.654 129.629 118.100  1.00  0.00     0.033 C 
ATOM     29  C   UNL     1     123.603 128.788 119.377  1.00  0.00     0.118 C 
BRANCH  29  30
ATOM     30  O   UNL     1     124.802 128.070 119.525  1.00  0.00    -0.393 OA
ATOM     31  H   UNL     1     125.372 128.587 120.153  1.00  0.00     0.210 HD
ENDBRANCH  29  30
ENDBRANCH   1  11
TORSDOF 6
ENDMDL
MODEL 3
REMARK VINA RESULT:    -4.742      2.298      4.439
REMARK INTER + INTRA:          -8.623
REMARK INTER:                  -7.561
REMARK INTRA:                  -1.063
REMARK UNBOUND:                -2.356
REMARK SMILES CC[C@@H](C=C[C@@H](C)[C@H]1CC[C@@H]2[C@H]3CC=C4C[C@H](O)CC[C@]4(C)[C@H]3CC[C@]21C)C(C)C
REMARK SMILES IDX 6 1 7 2 5 3 4 4 3 5 2 6 1 7 28 8 29 9 30 10 8 11 9 12 26 13
REMARK SMILES IDX 10 14 11 15 25 16 27 17 12 18 24 19 23 20 13 21 21 22 14 23
REMARK SMILES IDX 15 24 20 25 22 26 16 27 19 28 17 29 18 30
REMARK H PARENT 18 31
REMARK Flexibility Score: inf
ROOT
ATOM      1  C   UNL     1     127.603 135.987 119.995  1.00  0.00     0.012 C 
ATOM      2  C   UNL     1     129.036 136.242 120.504  1.00  0.00     0.012 C 
ENDROOT
BRANCH   1   3
ATOM      3  C   UNL     1     126.989 137.348 119.728  1.00  0.00    -0.028 C 
ATOM      4  C   UNL     1     127.393 138.453 120.375  1.00  0.00    -0.027 C 
BRANCH   4   5
ATOM      5  C   UNL     1     126.797 139.810 120.053  1.00  0.00     0.014 C 
BRANCH   5   6
ATOM      6  C   UNL     1     127.946 140.860 119.989  1.00  0.00     0.004 C 
ATOM      7  C   UNL     1     129.297 140.273 120.401  1.00  0.00     0.004 C 
ENDBRANCH   5   6
BRANCH   5   8
ATOM      8  C   UNL     1     125.691 140.185 121.092  1.00  0.00    -0.011 C 
ATOM      9  C   UNL     1     126.089 141.391 121.961  1.00  0.00     0.008 C 
ATOM     10  C   UNL     1     124.352 140.502 120.400  1.00  0.00     0.008 C 
ENDBRANCH   5   8
ENDBRANCH   4   5
ENDBRANCH   1   3
BRANCH   1  11
ATOM     11  C   UNL     1     126.759 135.184 121.040  1.00  0.00     0.002 C 
ATOM     12  C   UNL     1     125.232 135.477 120.932  1.00  0.00     0.005 C 
ATOM     13  C   UNL     1     126.872 133.604 121.033  1.00  0.00    -0.026 C 
ATOM     14  C   UNL     1     124.502 134.145 120.999  1.00  0.00     0.005 C 
ATOM     15  C   UNL     1     125.517 133.171 120.438  1.00  0.00    -0.001 C 
ATOM     16  C   UNL     1     128.004 132.912 120.192  1.00  0.00     0.007 C 
ATOM     17  C   UNL     1     127.038 133.166 122.524  1.00  0.00     0.012 C 
ATOM     18  C   UNL     1     125.223 131.662 120.628  1.00  0.00     0.000 C 
ATOM     19  C   UNL     1     127.566 131.606 119.472  1.00  0.00     0.005 C 
ATOM     20  C   UNL     1     126.467 130.782 120.214  1.00  0.00     0.003 C 
ATOM     21  C   UNL     1     123.941 131.255 119.892  1.00  0.00     0.031 C 
ATOM     22  C   UNL     1     126.123 129.403 119.488  1.00  0.00    -0.008 C 
ATOM     23  C   UNL     1     123.715 129.783 120.035  1.00  0.00    -0.027 C 
ATOM     24  C   UNL     1     124.726 128.905 119.894  1.00  0.00    -0.065 C 
ATOM     25  C   UNL     1     127.206 128.350 119.898  1.00  0.00     0.014 C 
ATOM     26  C   UNL     1     126.129 129.537 117.940  1.00  0.00     0.016 C 
ATOM     27  C   UNL     1     124.372 127.431 119.808  1.00  0.00     0.063 C 
ATOM     28  C   UNL     1     126.822 126.903 119.571  1.00  0.00     0.033 C 
ATOM     29  C   UNL     1     125.513 126.516 120.265  1.00  0.00     0.118 C 
BRANCH  29  30
ATOM     30  O   UNL     1     125.673 126.586 121.660  1.00  0.00    -0.393 OA
ATOM     31  H   UNL     1     126.437 125.996 121.892  1.00  0.00     0.210 HD
ENDBRANCH  29  30
ENDBRANCH   1  11
TORSDOF 6
ENDMDL
MODEL 4
REMARK VINA RESULT:    -4.729      3.177      7.651
REMARK INTER + INTRA:          -8.606
REMARK INTER:                  -7.576
REMARK INTRA:                  -1.030
REMARK UNBOUND:                -2.356
REMARK SMILES CC[C@@H](C=C[C@@H](C)[C@H]1CC[C@@H]2[C@H]3CC=C4C[C@H](O)CC[C@]4(C)[C@H]3CC[C@]21C)C(C)C
REMARK SMILES IDX 6 1 7 2 5 3 4 4 3 5 2 6 1 7 28 8 29 9 30 10 8 11 9 12 26 13
REMARK SMILES IDX 10 14 11 15 25 16 27 17 12 18 24 19 23 20 13 21 21 22 14 23
REMARK SMILES IDX 15 24 20 25 22 26 16 27 19 28 17 29 18 30
REMARK H PARENT 18 31
REMARK Flexibility Score: inf
ROOT
ATOM      1  C   UNL     1     124.876 127.931 118.863  1.00  0.00     0.012 C 
ATOM      2  C   UNL     1     123.581 127.097 118.908  1.00  0.00     0.012 C 
ENDROOT
BRANCH   1   3
ATOM      3  C   UNL     1     126.016 126.953 118.653  1.00  0.00    -0.028 C 
ATOM      4  C   UNL     1     126.705 126.897 117.501  1.00  0.00    -0.027 C 
BRANCH   4   5
ATOM      5  C   UNL     1     127.873 125.944 117.334  1.00  0.00     0.014 C 
BRANCH   5   6
ATOM      6  C   UNL     1     129.190 126.698 117.688  1.00  0.00     0.004 C 
ATOM      7  C   UNL     1     129.295 128.052 116.984  1.00  0.00     0.004 C 
ENDBRANCH   5   6
BRANCH   5   8
ATOM      8  C   UNL     1     127.889 125.343 115.891  1.00  0.00    -0.011 C 
ATOM      9  C   UNL     1     128.003 123.809 115.899  1.00  0.00     0.008 C 
ATOM     10  C   UNL     1     126.622 125.734 115.105  1.00  0.00     0.008 C 
ENDBRANCH   5   8
ENDBRANCH   4   5
ENDBRANCH   1   3
BRANCH   1  11
ATOM     11  C   UNL     1     125.074 128.752 120.180  1.00  0.00     0.002 C 
ATOM     12  C   UNL     1     126.568 129.108 120.447  1.00  0.00     0.005 C 
ATOM     13  C   UNL     1     124.296 130.124 120.327  1.00  0.00    -0.026 C 
ATOM     14  C   UNL     1     126.626 130.571 120.860  1.00  0.00     0.005 C 
ATOM     15  C   UNL     1     125.419 131.169 120.167  1.00  0.00    -0.001 C 
ATOM     16  C   UNL     1     123.161 130.485 119.303  1.00  0.00     0.007 C 
ATOM     17  C   UNL     1     123.675 130.128 121.761  1.00  0.00     0.012 C 
ATOM     18  C   UNL     1     124.992 132.593 120.603  1.00  0.00     0.000 C 
ATOM     19  C   UNL     1     123.123 131.981 118.883  1.00  0.00     0.005 C 
ATOM     20  C   UNL     1     123.596 132.985 119.980  1.00  0.00     0.003 C 
ATOM     21  C   UNL     1     126.089 133.616 120.286  1.00  0.00     0.031 C 
ATOM     22  C   UNL     1     123.445 134.512 119.537  1.00  0.00    -0.008 C 
ATOM     23  C   UNL     1     125.628 134.991 120.654  1.00  0.00    -0.027 C 
ATOM     24  C   UNL     1     124.385 135.413 120.353  1.00  0.00    -0.065 C 
ATOM     25  C   UNL     1     121.958 134.943 119.765  1.00  0.00     0.014 C 
ATOM     26  C   UNL     1     123.795 134.724 118.038  1.00  0.00     0.016 C 
ATOM     27  C   UNL     1     124.080 136.889 120.536  1.00  0.00     0.063 C 
ATOM     28  C   UNL     1     121.736 136.459 119.723  1.00  0.00     0.033 C 
ATOM     29  C   UNL     1     122.591 137.164 120.778  1.00  0.00     0.118 C 
BRANCH  29  30
ATOM     30  O   UNL     1     122.213 136.737 122.063  1.00  0.00    -0.393 OA
ATOM     31  H   UNL     1     123.050 136.613 122.583  1.00  0.00     0.210 HD
ENDBRANCH  29  30
ENDBRANCH   1  11
TORSDOF 6
ENDMDL
MODEL 5
REMARK VINA RESULT:    -4.707      1.951      4.397
REMARK INTER + INTRA:          -8.576
REMARK INTER:                  -5.958
REMARK INTRA:                  -2.618
REMARK UNBOUND:                -2.356
REMARK SMILES CC[C@@H](C=C[C@@H](C)[C@H]1CC[C@@H]2[C@H]3CC=C4C[C@H](O)CC[C@]4(C)[C@H]3CC[C@]21C)C(C)C
REMARK SMILES IDX 6 1 7 2 5 3 4 4 3 5 2 6 1 7 28 8 29 9 30 10 8 11 9 12 26 13
REMARK SMILES IDX 10 14 11 15 25 16 27 17 12 18 24 19 23 20 13 21 21 22 14 23
REMARK SMILES IDX 15 24 20 25 22 26 16 27 19 28 17 29 18 30
REMARK H PARENT 18 31
REMARK Flexibility Score: inf
ROOT
ATOM      1  C   UNL     1     126.380 136.060 119.739  1.00  0.00     0.012 C 
ATOM      2  C   UNL     1     126.529 137.513 120.232  1.00  0.00     0.012 C 
ENDROOT
BRANCH   1   3
ATOM      3  C   UNL     1     125.603 136.120 118.438  1.00  0.00    -0.028 C 
ATOM      4  C   UNL     1     125.768 135.209 117.466  1.00  0.00    -0.027 C 
BRANCH   4   5
ATOM      5  C   UNL     1     124.942 135.263 116.194  1.00  0.00     0.014 C 
BRANCH   5   6
ATOM      6  C   UNL     1     124.240 136.650 116.111  1.00  0.00     0.004 C 
ATOM      7  C   UNL     1     124.590 137.407 114.828  1.00  0.00     0.004 C 
ENDBRANCH   5   6
BRANCH   5   8
ATOM      8  C   UNL     1     123.935 134.069 116.144  1.00  0.00    -0.011 C 
ATOM      9  C   UNL     1     124.583 132.738 116.563  1.00  0.00     0.008 C 
ATOM     10  C   UNL     1     122.714 134.325 117.049  1.00  0.00     0.008 C 
ENDBRANCH   5   8
ENDBRANCH   4   5
ENDBRANCH   1   3
BRANCH   1  11
ATOM     11  C   UNL     1     125.644 135.170 120.795  1.00  0.00     0.002 C 
ATOM     12  C   UNL     1     124.092 135.255 120.674  1.00  0.00     0.005 C 
ATOM     13  C   UNL     1     125.965 133.619 120.815  1.00  0.00    -0.026 C 
ATOM     14  C   UNL     1     123.545 133.839 120.762  1.00  0.00     0.005 C 
ATOM     15  C   UNL     1     124.684 132.999 120.222  1.00  0.00    -0.001 C 
ATOM     16  C   UNL     1     127.185 133.070 119.992  1.00  0.00     0.007 C 
ATOM     17  C   UNL     1     126.179 133.232 122.314  1.00  0.00     0.012 C 
ATOM     18  C   UNL     1     124.592 131.468 120.437  1.00  0.00     0.000 C 
ATOM     19  C   UNL     1     126.929 131.704 119.294  1.00  0.00     0.005 C 
ATOM     20  C   UNL     1     125.945 130.755 120.045  1.00  0.00     0.003 C 
ATOM     21  C   UNL     1     123.380 130.882 119.703  1.00  0.00     0.031 C 
ATOM     22  C   UNL     1     125.792 129.330 119.342  1.00  0.00    -0.008 C 
ATOM     23  C   UNL     1     123.351 129.396 119.871  1.00  0.00    -0.027 C 
ATOM     24  C   UNL     1     124.471 128.658 119.750  1.00  0.00    -0.065 C 
ATOM     25  C   UNL     1     127.002 128.437 119.775  1.00  0.00     0.014 C 
ATOM     26  C   UNL     1     125.790 129.438 117.792  1.00  0.00     0.016 C 
ATOM     27  C   UNL     1     124.316 127.149 119.688  1.00  0.00     0.063 C 
ATOM     28  C   UNL     1     126.817 126.947 119.472  1.00  0.00     0.033 C 
ATOM     29  C   UNL     1     125.566 126.402 120.166  1.00  0.00     0.118 C 
BRANCH  29  30
ATOM     30  O   UNL     1     125.706 126.515 121.560  1.00  0.00    -0.393 OA
ATOM     31  H   UNL     1     125.848 125.597 121.911  1.00  0.00     0.210 HD
ENDBRANCH  29  30
ENDBRANCH   1  11
TORSDOF 6
ENDMDL
MODEL 6
REMARK VINA RESULT:    -4.673      2.792      7.237
REMARK INTER + INTRA:          -8.531
REMARK INTER:                  -6.331
REMARK INTRA:                  -2.200
REMARK UNBOUND:                -2.356
REMARK SMILES CC[C@@H](C=C[C@@H](C)[C@H]1CC[C@@H]2[C@H]3CC=C4C[C@H](O)CC[C@]4(C)[C@H]3CC[C@]21C)C(C)C
REMARK SMILES IDX 6 1 7 2 5 3 4 4 3 5 2 6 1 7 28 8 29 9 30 10 8 11 9 12 26 13
REMARK SMILES IDX 10 14 11 15 25 16 27 17 12 18 24 19 23 20 13 21 21 22 14 23
REMARK SMILES IDX 15 24 20 25 22 26 16 27 19 28 17 29 18 30
REMARK H PARENT 18 31
REMARK Flexibility Score: inf
ROOT
ATOM      1  C   UNL     1     123.153 128.545 117.594  1.00  0.00     0.012 C 
ATOM      2  C   UNL     1     121.949 127.735 117.074  1.00  0.00     0.012 C 
ENDROOT
BRANCH   1   3
ATOM      3  C   UNL     1     124.130 127.544 118.180  1.00  0.00    -0.028 C 
ATOM      4  C   UNL     1     125.460 127.690 118.061  1.00  0.00    -0.027 C 
BRANCH   4   5
ATOM      5  C   UNL     1     126.417 126.701 118.699  1.00  0.00     0.014 C 
BRANCH   5   6
ATOM      6  C   UNL     1     126.339 126.855 120.247  1.00  0.00     0.004 C 
ATOM      7  C   UNL     1     126.865 128.209 120.726  1.00  0.00     0.004 C 
ENDBRANCH   5   6
BRANCH   5   8
ATOM      8  C   UNL     1     127.863 126.899 118.142  1.00  0.00    -0.011 C 
ATOM      9  C   UNL     1     128.310 125.732 117.245  1.00  0.00     0.008 C 
ATOM     10  C   UNL     1     127.982 128.208 117.337  1.00  0.00     0.008 C 
ENDBRANCH   5   8
ENDBRANCH   4   5
ENDBRANCH   1   3
BRANCH   1  11
ATOM     11  C   UNL     1     122.715 129.597 118.667  1.00  0.00     0.002 C 
ATOM     12  C   UNL     1     122.722 129.018 120.114  1.00  0.00     0.005 C 
ATOM     13  C   UNL     1     123.537 130.948 118.765  1.00  0.00    -0.026 C 
ATOM     14  C   UNL     1     123.388 130.045 121.017  1.00  0.00     0.005 C 
ATOM     15  C   UNL     1     124.329 130.768 120.075  1.00  0.00    -0.001 C 
ATOM     16  C   UNL     1     124.564 131.313 117.634  1.00  0.00     0.007 C 
ATOM     17  C   UNL     1     122.484 132.099 118.854  1.00  0.00     0.012 C 
ATOM     18  C   UNL     1     124.962 132.085 120.589  1.00  0.00     0.000 C 
ATOM     19  C   UNL     1     125.876 131.974 118.144  1.00  0.00     0.005 C 
ATOM     20  C   UNL     1     125.718 132.844 119.430  1.00  0.00     0.003 C 
ATOM     21  C   UNL     1     125.858 131.824 121.806  1.00  0.00     0.031 C 
ATOM     22  C   UNL     1     127.069 133.581 119.856  1.00  0.00    -0.008 C 
ATOM     23  C   UNL     1     126.510 133.099 122.242  1.00  0.00    -0.027 C 
ATOM     24  C   UNL     1     127.042 133.952 121.347  1.00  0.00    -0.065 C 
ATOM     25  C   UNL     1     127.218 134.873 118.985  1.00  0.00     0.014 C 
ATOM     26  C   UNL     1     128.320 132.687 119.629  1.00  0.00     0.016 C 
ATOM     27  C   UNL     1     127.896 135.089 121.879  1.00  0.00     0.063 C 
ATOM     28  C   UNL     1     128.265 135.860 119.511  1.00  0.00     0.033 C 
ATOM     29  C   UNL     1     127.931 136.299 120.939  1.00  0.00     0.118 C 
BRANCH  29  30
ATOM     30  O   UNL     1     126.697 136.972 120.956  1.00  0.00    -0.393 OA
ATOM     31  H   UNL     1     126.752 137.655 121.675  1.00  0.00     0.210 HD
ENDBRANCH  29  30
ENDBRANCH   1  11
TORSDOF 6
ENDMDL
MODEL 7
REMARK VINA RESULT:    -4.576      2.092      4.058
REMARK INTER + INTRA:          -8.403
REMARK INTER:                  -5.780
REMARK INTRA:                  -2.623
REMARK UNBOUND:                -2.356
REMARK SMILES CC[C@@H](C=C[C@@H](C)[C@H]1CC[C@@H]2[C@H]3CC=C4C[C@H](O)CC[C@]4(C)[C@H]3CC[C@]21C)C(C)C
REMARK SMILES IDX 6 1 7 2 5 3 4 4 3 5 2 6 1 7 28 8 29 9 30 10 8 11 9 12 26 13
REMARK SMILES IDX 10 14 11 15 25 16 27 17 12 18 24 19 23 20 13 21 21 22 14 23
REMARK SMILES IDX 15 24 20 25 22 26 16 27 19 28 17 29 18 30
REMARK H PARENT 18 31
REMARK Flexibility Score: inf
ROOT
ATOM      1  C   UNL     1     128.516 133.109 120.551  1.00  0.00     0.012 C 
ATOM      2  C   UNL     1     129.523 134.084 121.193  1.00  0.00     0.012 C 
ENDROOT
BRANCH   1   3
ATOM      3  C   UNL     1     128.732 133.184 119.052  1.00  0.00    -0.028 C 
ATOM      4  C   UNL     1     128.451 132.154 118.237  1.00  0.00    -0.027 C 
BRANCH   4   5
ATOM      5  C   UNL     1     128.629 132.272 116.736  1.00  0.00     0.014 C 
BRANCH   5   6
ATOM      6  C   UNL     1     129.428 133.573 116.426  1.00  0.00     0.004 C 
ATOM      7  C   UNL     1     130.047 133.560 115.028  1.00  0.00     0.004 C 
ENDBRANCH   5   6
BRANCH   5   8
ATOM      8  C   UNL     1     127.244 132.226 116.014  1.00  0.00    -0.011 C 
ATOM      9  C   UNL     1     126.341 131.102 116.553  1.00  0.00     0.008 C 
ATOM     10  C   UNL     1     126.493 133.564 116.150  1.00  0.00     0.008 C 
ENDBRANCH   5   8
ENDBRANCH   4   5
ENDBRANCH   1   3
BRANCH   1  11
ATOM     11  C   UNL     1     127.043 133.479 120.927  1.00  0.00     0.002 C 
ATOM     12  C   UNL     1     126.441 134.572 119.994  1.00  0.00     0.005 C 
ATOM     13  C   UNL     1     125.964 132.318 120.942  1.00  0.00    -0.026 C 
ATOM     14  C   UNL     1     125.039 134.128 119.607  1.00  0.00     0.005 C 
ATOM     15  C   UNL     1     125.127 132.617 119.681  1.00  0.00    -0.001 C 
ATOM     16  C   UNL     1     126.434 130.822 120.857  1.00  0.00     0.007 C 
ATOM     17  C   UNL     1     125.144 132.495 122.260  1.00  0.00     0.012 C 
ATOM     18  C   UNL     1     123.794 131.832 119.636  1.00  0.00     0.000 C 
ATOM     19  C   UNL     1     125.530 129.911 119.981  1.00  0.00     0.005 C 
ATOM     20  C   UNL     1     124.019 130.304 119.962  1.00  0.00     0.003 C 
ATOM     21  C   UNL     1     123.074 132.050 118.299  1.00  0.00     0.031 C 
ATOM     22  C   UNL     1     123.117 129.282 119.131  1.00  0.00    -0.008 C 
ATOM     23  C   UNL     1     121.823 131.231 118.253  1.00  0.00    -0.027 C 
ATOM     24  C   UNL     1     121.810 129.952 118.676  1.00  0.00    -0.065 C 
ATOM     25  C   UNL     1     122.798 128.054 120.047  1.00  0.00     0.014 C 
ATOM     26  C   UNL     1     123.837 128.769 117.853  1.00  0.00     0.016 C 
ATOM     27  C   UNL     1     120.578 129.120 118.368  1.00  0.00     0.063 C 
ATOM     28  C   UNL     1     121.665 127.165 119.524  1.00  0.00     0.033 C 
ATOM     29  C   UNL     1     120.373 127.969 119.359  1.00  0.00     0.118 C 
BRANCH  29  30
ATOM     30  O   UNL     1     119.955 128.462 120.608  1.00  0.00    -0.393 OA
ATOM     31  H   UNL     1     120.551 129.225 120.831  1.00  0.00     0.210 HD
ENDBRANCH  29  30
ENDBRANCH   1  11
TORSDOF 6
ENDMDL
MODEL 8
REMARK VINA RESULT:    -4.373      4.045      6.977
REMARK INTER + INTRA:          -8.135
REMARK INTER:                  -5.548
REMARK INTRA:                  -2.587
REMARK UNBOUND:                -2.356
REMARK SMILES CC[C@@H](C=C[C@@H](C)[C@H]1CC[C@@H]2[C@H]3CC=C4C[C@H](O)CC[C@]4(C)[C@H]3CC[C@]21C)C(C)C
REMARK SMILES IDX 6 1 7 2 5 3 4 4 3 5 2 6 1 7 28 8 29 9 30 10 8 11 9 12 26 13
REMARK SMILES IDX 10 14 11 15 25 16 27 17 12 18 24 19 23 20 13 21 21 22 14 23
REMARK SMILES IDX 15 24 20 25 22 26 16 27 19 28 17 29 18 30
REMARK H PARENT 18 31
REMARK Flexibility Score: inf
ROOT
ATOM      1  C   UNL     1     125.738 126.755 119.495  1.00  0.00     0.012 C 
ATOM      2  C   UNL     1     126.709 125.981 120.409  1.00  0.00     0.012 C 
ENDROOT
BRANCH   1   3
ATOM      3  C   UNL     1     126.567 127.318 118.357  1.00  0.00    -0.028 C 
ATOM      4  C   UNL     1     126.083 127.430 117.109  1.00  0.00    -0.027 C 
BRANCH   4   5
ATOM      5  C   UNL     1     126.916 128.042 115.999  1.00  0.00     0.014 C 
BRANCH   5   6
ATOM      6  C   UNL     1     128.419 127.975 116.403  1.00  0.00     0.004 C 
ATOM      7  C   UNL     1     129.239 127.093 115.459  1.00  0.00     0.004 C 
ENDBRANCH   5   6
BRANCH   5   8
ATOM      8  C   UNL     1     126.436 129.498 115.692  1.00  0.00    -0.011 C 
ATOM      9  C   UNL     1     124.905 129.599 115.591  1.00  0.00     0.008 C 
ATOM     10  C   UNL     1     126.923 130.489 116.766  1.00  0.00     0.008 C 
ENDBRANCH   5   8
ENDBRANCH   4   5
ENDBRANCH   1   3
BRANCH   1  11
ATOM     11  C   UNL     1     125.005 127.897 120.275  1.00  0.00     0.002 C 
ATOM     12  C   UNL     1     125.849 129.205 120.359  1.00  0.00     0.005 C 
ATOM     13  C   UNL     1     123.584 128.363 119.753  1.00  0.00    -0.026 C 
ATOM     14  C   UNL     1     124.926 130.370 120.038  1.00  0.00     0.005 C 
ATOM     15  C   UNL     1     123.886 129.742 119.133  1.00  0.00    -0.001 C 
ATOM     16  C   UNL     1     122.838 127.506 118.669  1.00  0.00     0.007 C 
ATOM     17  C   UNL     1     122.662 128.461 121.012  1.00  0.00     0.012 C 
ATOM     18  C   UNL     1     122.611 130.572 118.845  1.00  0.00     0.000 C 
ATOM     19  C   UNL     1     122.084 128.339 117.595  1.00  0.00     0.005 C 
ATOM     20  C   UNL     1     121.523 129.706 118.097  1.00  0.00     0.003 C 
ATOM     21  C   UNL     1     122.955 131.865 118.096  1.00  0.00     0.031 C 
ATOM     22  C   UNL     1     120.673 130.479 116.988  1.00  0.00    -0.008 C 
ATOM     23  C   UNL     1     121.702 132.616 117.771  1.00  0.00    -0.027 C 
ATOM     24  C   UNL     1     120.613 131.984 117.295  1.00  0.00    -0.065 C 
ATOM     25  C   UNL     1     119.228 129.878 116.972  1.00  0.00     0.014 C 
ATOM     26  C   UNL     1     121.285 130.326 115.568  1.00  0.00     0.016 C 
ATOM     27  C   UNL     1     119.479 132.840 116.761  1.00  0.00     0.063 C 
ATOM     28  C   UNL     1     118.205 130.737 116.221  1.00  0.00     0.033 C 
ATOM     29  C   UNL     1     118.118 132.138 116.830  1.00  0.00     0.118 C 
BRANCH  29  30
ATOM     30  O   UNL     1     117.674 132.054 118.161  1.00  0.00    -0.393 OA
ATOM     31  H   UNL     1     118.484 131.987 118.731  1.00  0.00     0.210 HD
ENDBRANCH  29  30
ENDBRANCH   1  11
TORSDOF 6
ENDMDL
MODEL 9
REMARK VINA RESULT:    -4.370      2.929      7.551
REMARK INTER + INTRA:          -8.131
REMARK INTER:                  -5.858
REMARK INTRA:                  -2.273
REMARK UNBOUND:                -2.356
REMARK SMILES CC[C@@H](C=C[C@@H](C)[C@H]1CC[C@@H]2[C@H]3CC=C4C[C@H](O)CC[C@]4(C)[C@H]3CC[C@]21C)C(C)C
REMARK SMILES IDX 6 1 7 2 5 3 4 4 3 5 2 6 1 7 28 8 29 9 30 10 8 11 9 12 26 13
REMARK SMILES IDX 10 14 11 15 25 16 27 17 12 18 24 19 23 20 13 21 21 22 14 23
REMARK SMILES IDX 15 24 20 25 22 26 16 27 19 28 17 29 18 30
REMARK H PARENT 18 31
REMARK Flexibility Score: inf
ROOT
ATOM      1  C   UNL     1     125.376 128.002 120.154  1.00  0.00     0.012 C 
ATOM      2  C   UNL     1     126.163 126.706 120.430  1.00  0.00     0.012 C 
ENDROOT
BRANCH   1   3
ATOM      3  C   UNL     1     124.415 127.696 119.021  1.00  0.00    -0.028 C 
ATOM      4  C   UNL     1     123.180 128.221 118.970  1.00  0.00    -0.027 C 
BRANCH   4   5
ATOM      5  C   UNL     1     122.257 127.938 117.801  1.00  0.00     0.014 C 
BRANCH   5   6
ATOM      6  C   UNL     1     122.191 129.204 116.896  1.00  0.00     0.004 C 
ATOM      7  C   UNL     1     122.266 130.502 117.702  1.00  0.00     0.004 C 
ENDBRANCH   5   6
BRANCH   5   8
ATOM      8  C   UNL     1     120.851 127.482 118.309  1.00  0.00    -0.011 C 
ATOM      9  C   UNL     1     120.496 128.097 119.674  1.00  0.00     0.008 C 
ATOM     10  C   UNL     1     119.743 127.851 117.304  1.00  0.00     0.008 C 
ENDBRANCH   5   8
ENDBRANCH   4   5
ENDBRANCH   1   3
BRANCH   1  11
ATOM     11  C   UNL     1     126.331 129.183 119.778  1.00  0.00     0.002 C 
ATOM     12  C   UNL     1     126.669 129.222 118.257  1.00  0.00     0.005 C 
ATOM     13  C   UNL     1     125.868 130.657 120.130  1.00  0.00    -0.026 C 
ATOM     14  C   UNL     1     126.541 130.665 117.794  1.00  0.00     0.005 C 
ATOM     15  C   UNL     1     125.514 131.240 118.747  1.00  0.00    -0.001 C 
ATOM     16  C   UNL     1     124.630 130.876 121.071  1.00  0.00     0.007 C 
ATOM     17  C   UNL     1     127.102 131.364 120.779  1.00  0.00     0.012 C 
ATOM     18  C   UNL     1     125.350 132.780 118.759  1.00  0.00     0.000 C 
ATOM     19  C   UNL     1     123.706 132.056 120.656  1.00  0.00     0.005 C 
ATOM     20  C   UNL     1     124.433 133.247 119.956  1.00  0.00     0.003 C 
ATOM     21  C   UNL     1     124.854 133.290 117.401  1.00  0.00     0.031 C 
ATOM     22  C   UNL     1     123.461 134.473 119.640  1.00  0.00    -0.008 C 
ATOM     23  C   UNL     1     124.641 134.770 117.458  1.00  0.00    -0.027 C 
ATOM     24  C   UNL     1     124.033 135.347 118.512  1.00  0.00    -0.065 C 
ATOM     25  C   UNL     1     123.304 135.322 120.946  1.00  0.00     0.014 C 
ATOM     26  C   UNL     1     122.052 134.003 119.186  1.00  0.00     0.016 C 
ATOM     27  C   UNL     1     123.635 136.806 118.383  1.00  0.00     0.063 C 
ATOM     28  C   UNL     1     122.696 136.709 120.717  1.00  0.00     0.033 C 
ATOM     29  C   UNL     1     123.545 137.521 119.736  1.00  0.00     0.118 C 
BRANCH  29  30
ATOM     30  O   UNL     1     124.828 137.727 120.272  1.00  0.00    -0.393 OA
ATOM     31  H   UNL     1     125.475 137.586 119.531  1.00  0.00     0.210 HD
ENDBRANCH  29  30
ENDBRANCH   1  11
TORSDOF 6
ENDMDL
