MODEL 1
REMARK VINA RESULT:    -3.667      0.000      0.000
REMARK INTER + INTRA:          -4.084
REMARK INTER:                  -3.989
REMARK INTRA:                  -0.095
REMARK UNBOUND:                -0.095
REMARK SMILES C=C(C)[C@@H]1CC=C(C)[C@@H](O)C1
REMARK SMILES IDX 8 1 7 2 6 3 5 4 4 5 11 6 9 7 10 8 2 10 1 11 3 12
REMARK H PARENT 10 9
REMARK Flexibility Score: inf
ROOT
ATOM      1  C   UNL     1       8.536   2.280   0.102  1.00  0.00     0.042 C 
ATOM      2  C   UNL     1       7.621   2.941  -0.894  1.00  0.00    -0.049 C 
ATOM      3  C   UNL     1       8.158   3.514  -1.992  1.00  0.00    -0.025 C 
ATOM      4  C   UNL     1       7.328   4.142  -3.084  1.00  0.00     0.035 C 
ATOM      5  C   UNL     1       5.930   4.552  -2.590  1.00  0.00     0.021 C 
ATOM      6  C   UNL     1       5.293   3.394  -1.808  1.00  0.00     0.044 C 
ATOM      7  C   UNL     1       6.141   3.047  -0.570  1.00  0.00     0.140 C 
ENDROOT
BRANCH   7   8
ATOM      8  O   UNL     1       5.968   4.028   0.421  1.00  0.00    -0.389 OA
ATOM      9  H   UNL     1       6.087   3.575   1.297  1.00  0.00     0.211 HD
ENDBRANCH   7   8
BRANCH   5  10
ATOM     10  C   UNL     1       5.044   5.002  -3.745  1.00  0.00    -0.077 C 
ATOM     11  C   UNL     1       3.996   4.251  -4.122  1.00  0.00     0.008 C 
ATOM     12  C   UNL     1       5.306   6.292  -4.481  1.00  0.00     0.039 C 
ENDBRANCH   5  10
TORSDOF 2
ENDMDL
MODEL 2
REMARK VINA RESULT:    -3.636      1.771      5.100
REMARK INTER + INTRA:          -4.049
REMARK INTER:                  -3.964
REMARK INTRA:                  -0.085
REMARK UNBOUND:                -0.095
REMARK SMILES C=C(C)[C@@H]1CC=C(C)[C@@H](O)C1
REMARK SMILES IDX 8 1 7 2 6 3 5 4 4 5 11 6 9 7 10 8 2 10 1 11 3 12
REMARK H PARENT 10 9
REMARK Flexibility Score: inf
ROOT
ATOM      1  C   UNL     1       5.444   4.374  -3.073  1.00  0.00     0.042 C 
ATOM      2  C   UNL     1       6.025   3.604  -1.918  1.00  0.00    -0.049 C 
ATOM      3  C   UNL     1       5.268   3.416  -0.815  1.00  0.00    -0.025 C 
ATOM      4  C   UNL     1       5.726   2.605   0.372  1.00  0.00     0.035 C 
ATOM      5  C   UNL     1       7.259   2.493   0.443  1.00  0.00     0.021 C 
ATOM      6  C   UNL     1       7.818   2.097  -0.931  1.00  0.00     0.044 C 
ATOM      7  C   UNL     1       7.479   3.172  -1.981  1.00  0.00     0.140 C 
ENDROOT
BRANCH   7   8
ATOM      8  O   UNL     1       8.291   4.302  -1.793  1.00  0.00    -0.389 OA
ATOM      9  H   UNL     1       8.140   4.898  -2.573  1.00  0.00     0.211 HD
ENDBRANCH   7   8
BRANCH   5  10
ATOM     10  C   UNL     1       7.693   1.514   1.527  1.00  0.00    -0.077 C 
ATOM     11  C   UNL     1       7.836   1.934   2.795  1.00  0.00     0.008 C 
ATOM     12  C   UNL     1       7.961   0.063   1.215  1.00  0.00     0.039 C 
ENDBRANCH   5  10
TORSDOF 2
ENDMDL
MODEL 3
REMARK VINA RESULT:    -3.588      1.654      2.472
REMARK INTER + INTRA:          -3.998
REMARK INTER:                  -3.905
REMARK INTRA:                  -0.093
REMARK UNBOUND:                -0.095
REMARK SMILES C=C(C)[C@@H]1CC=C(C)[C@@H](O)C1
REMARK SMILES IDX 8 1 7 2 6 3 5 4 4 5 11 6 9 7 10 8 2 10 1 11 3 12
REMARK H PARENT 10 9
REMARK Flexibility Score: inf
ROOT
ATOM      1  C   UNL     1       7.608   1.889   1.853  1.00  0.00     0.042 C 
ATOM      2  C   UNL     1       7.292   2.527   0.527  1.00  0.00    -0.049 C 
ATOM      3  C   UNL     1       6.050   3.017   0.320  1.00  0.00    -0.025 C 
ATOM      4  C   UNL     1       5.648   3.736  -0.945  1.00  0.00     0.035 C 
ATOM      5  C   UNL     1       6.559   3.380  -2.132  1.00  0.00     0.021 C 
ATOM      6  C   UNL     1       8.032   3.484  -1.708  1.00  0.00     0.044 C 
ATOM      7  C   UNL     1       8.339   2.490  -0.572  1.00  0.00     0.140 C 
ENDROOT
BRANCH   7   8
ATOM      8  O   UNL     1       8.407   1.183  -1.082  1.00  0.00    -0.389 OA
ATOM      9  H   UNL     1       7.672   0.669  -0.655  1.00  0.00     0.211 HD
ENDBRANCH   7   8
BRANCH   5  10
ATOM     10  C   UNL     1       6.262   4.256  -3.342  1.00  0.00    -0.077 C 
ATOM     11  C   UNL     1       6.754   3.929  -4.547  1.00  0.00     0.008 C 
ATOM     12  C   UNL     1       5.407   5.494  -3.225  1.00  0.00     0.039 C 
ENDBRANCH   5  10
TORSDOF 2
ENDMDL
MODEL 4
REMARK VINA RESULT:    -3.498      2.102      2.901
REMARK INTER + INTRA:          -3.899
REMARK INTER:                  -3.804
REMARK INTRA:                  -0.096
REMARK UNBOUND:                -0.095
REMARK SMILES C=C(C)[C@@H]1CC=C(C)[C@@H](O)C1
REMARK SMILES IDX 8 1 7 2 6 3 5 4 4 5 11 6 9 7 10 8 2 10 1 11 3 12
REMARK H PARENT 10 9
REMARK Flexibility Score: inf
ROOT
ATOM      1  C   UNL     1       7.876   1.555   2.401  1.00  0.00     0.042 C 
ATOM      2  C   UNL     1       7.295   1.827   1.040  1.00  0.00    -0.049 C 
ATOM      3  C   UNL     1       6.688   3.013   0.816  1.00  0.00    -0.025 C 
ATOM      4  C   UNL     1       6.132   3.414  -0.529  1.00  0.00     0.035 C 
ATOM      5  C   UNL     1       5.831   2.197  -1.420  1.00  0.00     0.021 C 
ATOM      6  C   UNL     1       7.031   1.238  -1.419  1.00  0.00     0.044 C 
ATOM      7  C   UNL     1       7.302   0.716   0.004  1.00  0.00     0.140 C 
ENDROOT
BRANCH   7   8
ATOM      8  O   UNL     1       6.333  -0.236   0.360  1.00  0.00    -0.389 OA
ATOM      9  H   UNL     1       5.907  -0.542  -0.483  1.00  0.00     0.211 HD
ENDBRANCH   7   8
BRANCH   5  10
ATOM     10  C   UNL     1       5.458   2.625  -2.834  1.00  0.00    -0.077 C 
ATOM     11  C   UNL     1       5.503   1.736  -3.840  1.00  0.00     0.008 C 
ATOM     12  C   UNL     1       5.022   4.037  -3.140  1.00  0.00     0.039 C 
ENDBRANCH   5  10
TORSDOF 2
ENDMDL
MODEL 5
REMARK VINA RESULT:    -3.485     10.952     12.633
REMARK INTER + INTRA:          -3.886
REMARK INTER:                  -3.791
REMARK INTRA:                  -0.095
REMARK UNBOUND:                -0.095
REMARK SMILES C=C(C)[C@@H]1CC=C(C)[C@@H](O)C1
REMARK SMILES IDX 8 1 7 2 6 3 5 4 4 5 11 6 9 7 10 8 2 10 1 11 3 12
REMARK H PARENT 10 9
REMARK Flexibility Score: inf
ROOT
ATOM      1  C   UNL     1      -2.604  -2.155  -5.696  1.00  0.00     0.042 C 
ATOM      2  C   UNL     1      -1.847  -3.449  -5.572  1.00  0.00    -0.049 C 
ATOM      3  C   UNL     1      -2.530  -4.613  -5.637  1.00  0.00    -0.025 C 
ATOM      4  C   UNL     1      -1.863  -5.965  -5.592  1.00  0.00     0.035 C 
ATOM      5  C   UNL     1      -0.474  -5.907  -4.933  1.00  0.00     0.021 C 
ATOM      6  C   UNL     1       0.338  -4.748  -5.528  1.00  0.00     0.044 C 
ATOM      7  C   UNL     1      -0.362  -3.403  -5.257  1.00  0.00     0.140 C 
ENDROOT
BRANCH   7   8
ATOM      8  O   UNL     1      -0.200  -3.040  -3.910  1.00  0.00    -0.389 OA
ATOM      9  H   UNL     1      -1.110  -2.887  -3.542  1.00  0.00     0.211 HD
ENDBRANCH   7   8
BRANCH   5  10
ATOM     10  C   UNL     1       0.261  -7.234  -5.071  1.00  0.00    -0.077 C 
ATOM     11  C   UNL     1       1.477  -7.390  -4.524  1.00  0.00     0.008 C 
ATOM     12  C   UNL     1      -0.352  -8.400  -5.807  1.00  0.00     0.039 C 
ENDBRANCH   5  10
TORSDOF 2
ENDMDL
MODEL 6
REMARK VINA RESULT:    -3.460     12.110     13.263
REMARK INTER + INTRA:          -3.858
REMARK INTER:                  -3.765
REMARK INTRA:                  -0.092
REMARK UNBOUND:                -0.095
REMARK SMILES C=C(C)[C@@H]1CC=C(C)[C@@H](O)C1
REMARK SMILES IDX 8 1 7 2 6 3 5 4 4 5 11 6 9 7 10 8 2 10 1 11 3 12
REMARK H PARENT 10 9
REMARK Flexibility Score: inf
ROOT
ATOM      1  C   UNL     1       0.315  -8.277  -5.713  1.00  0.00     0.042 C 
ATOM      2  C   UNL     1      -0.518  -7.033  -5.871  1.00  0.00    -0.049 C 
ATOM      3  C   UNL     1      -0.212  -5.945  -5.132  1.00  0.00    -0.025 C 
ATOM      4  C   UNL     1      -0.938  -4.629  -5.261  1.00  0.00     0.035 C 
ATOM      5  C   UNL     1      -2.342  -4.796  -5.867  1.00  0.00     0.021 C 
ATOM      6  C   UNL     1      -2.268  -5.678  -7.122  1.00  0.00     0.044 C 
ATOM      7  C   UNL     1      -1.746  -7.082  -6.764  1.00  0.00     0.140 C 
ENDROOT
BRANCH   7   8
ATOM      8  O   UNL     1      -2.748  -7.816  -6.108  1.00  0.00    -0.389 OA
ATOM      9  H   UNL     1      -2.658  -7.622  -5.138  1.00  0.00     0.211 HD
ENDBRANCH   7   8
BRANCH   5  10
ATOM     10  C   UNL     1      -2.980  -3.446  -6.169  1.00  0.00    -0.077 C 
ATOM     11  C   UNL     1      -2.804  -2.415  -5.326  1.00  0.00     0.008 C 
ATOM     12  C   UNL     1      -3.806  -3.226  -7.412  1.00  0.00     0.039 C 
ENDBRANCH   5  10
TORSDOF 2
ENDMDL
MODEL 7
REMARK VINA RESULT:    -3.452      8.331      9.159
REMARK INTER + INTRA:          -3.850
REMARK INTER:                  -3.758
REMARK INTRA:                  -0.091
REMARK UNBOUND:                -0.095
REMARK SMILES C=C(C)[C@@H]1CC=C(C)[C@@H](O)C1
REMARK SMILES IDX 8 1 7 2 6 3 5 4 4 5 11 6 9 7 10 8 2 10 1 11 3 12
REMARK H PARENT 10 9
REMARK Flexibility Score: inf
ROOT
ATOM      1  C   UNL     1      -2.361   3.025  -3.635  1.00  0.00     0.042 C 
ATOM      2  C   UNL     1      -2.071   4.212  -2.757  1.00  0.00    -0.049 C 
ATOM      3  C   UNL     1      -1.525   4.004  -1.540  1.00  0.00    -0.025 C 
ATOM      4  C   UNL     1      -1.133   5.125  -0.609  1.00  0.00     0.035 C 
ATOM      5  C   UNL     1      -1.891   6.428  -0.916  1.00  0.00     0.021 C 
ATOM      6  C   UNL     1      -1.835   6.721  -2.423  1.00  0.00     0.044 C 
ATOM      7  C   UNL     1      -2.514   5.589  -3.217  1.00  0.00     0.140 C 
ENDROOT
BRANCH   7   8
ATOM      8  O   UNL     1      -3.910   5.679  -3.085  1.00  0.00    -0.389 OA
ATOM      9  H   UNL     1      -4.113   5.601  -2.116  1.00  0.00     0.211 HD
ENDBRANCH   7   8
BRANCH   5  10
ATOM     10  C   UNL     1      -1.344   7.593  -0.100  1.00  0.00    -0.077 C 
ATOM     11  C   UNL     1      -1.105   7.440   1.213  1.00  0.00     0.008 C 
ATOM     12  C   UNL     1      -1.050   8.929  -0.734  1.00  0.00     0.039 C 
ENDBRANCH   5  10
TORSDOF 2
ENDMDL
MODEL 8
REMARK VINA RESULT:    -3.369      8.333      9.509
REMARK INTER + INTRA:          -3.759
REMARK INTER:                  -3.673
REMARK INTRA:                  -0.086
REMARK UNBOUND:                -0.095
REMARK SMILES C=C(C)[C@@H]1CC=C(C)[C@@H](O)C1
REMARK SMILES IDX 8 1 7 2 6 3 5 4 4 5 11 6 9 7 10 8 2 10 1 11 3 12
REMARK H PARENT 10 9
REMARK Flexibility Score: inf
ROOT
ATOM      1  C   UNL     1      -3.906   2.977  -3.543  1.00  0.00     0.042 C 
ATOM      2  C   UNL     1      -3.282   4.100  -2.758  1.00  0.00    -0.049 C 
ATOM      3  C   UNL     1      -3.914   5.293  -2.714  1.00  0.00    -0.025 C 
ATOM      4  C   UNL     1      -3.412   6.462  -1.903  1.00  0.00     0.035 C 
ATOM      5  C   UNL     1      -1.906   6.360  -1.605  1.00  0.00     0.021 C 
ATOM      6  C   UNL     1      -1.572   4.955  -1.084  1.00  0.00     0.044 C 
ATOM      7  C   UNL     1      -1.909   3.891  -2.145  1.00  0.00     0.140 C 
ENDROOT
BRANCH   7   8
ATOM      8  O   UNL     1      -0.951   3.916  -3.173  1.00  0.00    -0.389 OA
ATOM      9  H   UNL     1      -0.276   3.221  -2.954  1.00  0.00     0.211 HD
ENDBRANCH   7   8
BRANCH   5  10
ATOM     10  C   UNL     1      -1.460   7.440  -0.628  1.00  0.00    -0.077 C 
ATOM     11  C   UNL     1      -1.361   8.716  -1.035  1.00  0.00     0.008 C 
ATOM     12  C   UNL     1      -1.133   7.115   0.809  1.00  0.00     0.039 C 
ENDBRANCH   5  10
TORSDOF 2
ENDMDL
MODEL 9
REMARK VINA RESULT:    -3.342     11.262     13.148
REMARK INTER + INTRA:          -3.729
REMARK INTER:                  -3.643
REMARK INTRA:                  -0.086
REMARK UNBOUND:                -0.095
REMARK SMILES C=C(C)[C@@H]1CC=C(C)[C@@H](O)C1
REMARK SMILES IDX 8 1 7 2 6 3 5 4 4 5 11 6 9 7 10 8 2 10 1 11 3 12
REMARK H PARENT 10 9
REMARK Flexibility Score: inf
ROOT
ATOM      1  C   UNL     1      -4.809  -2.346  -7.398  1.00  0.00     0.042 C 
ATOM      2  C   UNL     1      -3.682  -3.168  -6.834  1.00  0.00    -0.049 C 
ATOM      3  C   UNL     1      -3.236  -4.232  -7.537  1.00  0.00    -0.025 C 
ATOM      4  C   UNL     1      -2.070  -5.082  -7.097  1.00  0.00     0.035 C 
ATOM      5  C   UNL     1      -1.813  -4.979  -5.584  1.00  0.00     0.021 C 
ATOM      6  C   UNL     1      -1.802  -3.503  -5.156  1.00  0.00     0.044 C 
ATOM      7  C   UNL     1      -3.167  -2.849  -5.442  1.00  0.00     0.140 C 
ENDROOT
BRANCH   7   8
ATOM      8  O   UNL     1      -4.115  -3.284  -4.502  1.00  0.00    -0.389 OA
ATOM      9  H   UNL     1      -4.041  -4.274  -4.456  1.00  0.00     0.211 HD
ENDBRANCH   7   8
BRANCH   5  10
ATOM     10  C   UNL     1      -0.521  -5.684  -5.192  1.00  0.00    -0.077 C 
ATOM     11  C   UNL     1      -0.469  -7.026  -5.163  1.00  0.00     0.008 C 
ATOM     12  C   UNL     1       0.724  -4.908  -4.840  1.00  0.00     0.039 C 
ENDBRANCH   5  10
TORSDOF 2
ENDMDL
