MODEL 1
REMARK VINA RESULT:    -6.150      0.000      0.000
REMARK INTER + INTRA:          -7.549
REMARK INTER:                  -7.409
REMARK INTRA:                  -0.140
REMARK UNBOUND:                -0.140
REMARK SMILES O=c1c(O)c(-c2ccc(O)c(O)c2)oc2cc(O)cc(O)c12
REMARK SMILES IDX 5 1 3 2 2 3 1 4 22 5 20 6 19 7 17 8 16 9 15 10 14 11 6 12
REMARK SMILES IDX 7 13 8 14 9 15 13 16 11 17 10 18 12 20 4 22 21 24 18 26
REMARK H PARENT 10 19 12 21 4 23 21 25 18 27
REMARK Flexibility Score: inf
ROOT
ATOM      1  C   UNL     1      -3.826 -34.129   2.720  1.00  0.00     0.180 A 
ATOM      2  C   UNL     1      -2.585 -33.580   3.086  1.00  0.00     0.208 A 
ATOM      3  C   UNL     1      -2.561 -32.389   3.831  1.00  0.00     0.238 A 
ATOM      4  O   UNL     1      -1.446 -31.874   4.109  1.00  0.00    -0.285 OA
ATOM      5  C   UNL     1      -3.776 -31.773   4.215  1.00  0.00     0.111 A 
ATOM      6  C   UNL     1      -3.869 -30.587   5.004  1.00  0.00     0.134 A 
ATOM      7  C   UNL     1      -5.120 -29.993   5.213  1.00  0.00     0.093 A 
ATOM      8  C   UNL     1      -6.286 -30.577   4.715  1.00  0.00     0.123 A 
ATOM      9  C   UNL     1      -6.212 -31.767   3.994  1.00  0.00     0.094 A 
ATOM     10  C   UNL     1      -4.975 -32.364   3.739  1.00  0.00     0.146 A 
ATOM     11  O   UNL     1      -4.948 -33.492   3.038  1.00  0.00    -0.452 OA
ENDROOT
BRANCH   1  12
ATOM     12  C   UNL     1      -3.934 -35.393   1.957  1.00  0.00     0.025 A 
ATOM     13  C   UNL     1      -4.619 -35.405   0.732  1.00  0.00     0.016 A 
ATOM     14  C   UNL     1      -4.750 -36.590   0.005  1.00  0.00     0.051 A 
ATOM     15  C   UNL     1      -4.215 -37.784   0.498  1.00  0.00     0.157 A 
ATOM     16  C   UNL     1      -3.414 -36.600   2.461  1.00  0.00     0.062 A 
ATOM     17  C   UNL     1      -3.547 -37.791   1.734  1.00  0.00     0.158 A 
BRANCH  15  18
ATOM     18  O   UNL     1      -4.359 -38.952  -0.251  1.00  0.00    -0.504 OA
ATOM     19  H   UNL     1      -3.611 -39.629  -0.341  1.00  0.00     0.293 HD
ENDBRANCH  15  18
BRANCH  17  20
ATOM     20  O   UNL     1      -3.023 -38.980   2.237  1.00  0.00    -0.504 OA
ATOM     21  H   UNL     1      -2.597 -39.027   3.155  1.00  0.00     0.293 HD
ENDBRANCH  17  20
ENDBRANCH   1  12
BRANCH   2  22
ATOM     22  O   UNL     1      -1.398 -34.193   2.679  1.00  0.00    -0.502 OA
ATOM     23  H   UNL     1      -1.044 -34.120   1.733  1.00  0.00     0.293 HD
ENDBRANCH   2  22
BRANCH   6  24
ATOM     24  O   UNL     1      -2.776 -29.974   5.623  1.00  0.00    -0.507 OA
ATOM     25  H   UNL     1      -1.833 -29.984   5.265  1.00  0.00     0.293 HD
ENDBRANCH   6  24
BRANCH   8  26
ATOM     26  O   UNL     1      -7.529 -29.988   4.940  1.00  0.00    -0.508 OA
ATOM     27  H   UNL     1      -8.348 -30.260   4.408  1.00  0.00     0.293 HD
ENDBRANCH   8  26
TORSDOF 6
ENDMDL
MODEL 2
REMARK VINA RESULT:    -6.052      4.980      8.159
REMARK INTER + INTRA:          -7.430
REMARK INTER:                  -7.126
REMARK INTRA:                  -0.304
REMARK UNBOUND:                -0.140
REMARK SMILES O=c1c(O)c(-c2ccc(O)c(O)c2)oc2cc(O)cc(O)c12
REMARK SMILES IDX 5 1 3 2 2 3 1 4 22 5 20 6 19 7 17 8 16 9 15 10 14 11 6 12
REMARK SMILES IDX 7 13 8 14 9 15 13 16 11 17 10 18 12 20 4 22 21 24 18 26
REMARK H PARENT 10 19 12 21 4 23 21 25 18 27
REMARK Flexibility Score: inf
ROOT
ATOM      1  C   UNL     1      -6.568 -28.586   1.109  1.00  0.00     0.180 A 
ATOM      2  C   UNL     1      -5.412 -29.316   0.781  1.00  0.00     0.208 A 
ATOM      3  C   UNL     1      -5.060 -30.423   1.571  1.00  0.00     0.238 A 
ATOM      4  O   UNL     1      -3.996 -31.040   1.306  1.00  0.00    -0.285 OA
ATOM      5  C   UNL     1      -5.876 -30.795   2.666  1.00  0.00     0.111 A 
ATOM      6  C   UNL     1      -5.636 -31.922   3.509  1.00  0.00     0.134 A 
ATOM      7  C   UNL     1      -6.435 -32.119   4.643  1.00  0.00     0.093 A 
ATOM      8  C   UNL     1      -7.504 -31.266   4.927  1.00  0.00     0.123 A 
ATOM      9  C   UNL     1      -7.783 -30.198   4.078  1.00  0.00     0.094 A 
ATOM     10  C   UNL     1      -6.982 -29.955   2.959  1.00  0.00     0.146 A 
ATOM     11  O   UNL     1      -7.276 -28.919   2.182  1.00  0.00    -0.452 OA
ENDROOT
BRANCH   1  12
ATOM     12  C   UNL     1      -7.017 -27.423   0.309  1.00  0.00     0.025 A 
ATOM     13  C   UNL     1      -7.732 -27.637  -0.880  1.00  0.00     0.016 A 
ATOM     14  C   UNL     1      -8.148 -26.556  -1.661  1.00  0.00     0.051 A 
ATOM     15  C   UNL     1      -7.842 -25.247  -1.275  1.00  0.00     0.157 A 
ATOM     16  C   UNL     1      -6.693 -26.106   0.684  1.00  0.00     0.062 A 
ATOM     17  C   UNL     1      -7.107 -25.020  -0.099  1.00  0.00     0.158 A 
BRANCH  15  18
ATOM     18  O   UNL     1      -8.273 -24.188  -2.073  1.00  0.00    -0.504 OA
ATOM     19  H   UNL     1      -7.629 -23.633  -2.625  1.00  0.00     0.293 HD
ENDBRANCH  15  18
BRANCH  17  20
ATOM     20  O   UNL     1      -6.788 -23.718   0.283  1.00  0.00    -0.504 OA
ATOM     21  H   UNL     1      -5.923 -23.277  -0.006  1.00  0.00     0.293 HD
ENDBRANCH  17  20
ENDBRANCH   1  12
BRANCH   2  22
ATOM     22  O   UNL     1      -4.610 -28.919  -0.291  1.00  0.00    -0.502 OA
ATOM     23  H   UNL     1      -4.979 -28.421  -1.093  1.00  0.00     0.293 HD
ENDBRANCH   2  22
BRANCH   6  24
ATOM     24  O   UNL     1      -4.653 -32.884   3.264  1.00  0.00    -0.507 OA
ATOM     25  H   UNL     1      -4.797 -33.731   2.736  1.00  0.00     0.293 HD
ENDBRANCH   6  24
BRANCH   8  26
ATOM     26  O   UNL     1      -8.303 -31.478   6.049  1.00  0.00    -0.508 OA
ATOM     27  H   UNL     1      -9.183 -31.978   5.986  1.00  0.00     0.293 HD
ENDBRANCH   8  26
TORSDOF 6
ENDMDL
MODEL 3
REMARK VINA RESULT:    -5.961      0.725      1.443
REMARK INTER + INTRA:          -7.321
REMARK INTER:                  -7.001
REMARK INTRA:                  -0.320
REMARK UNBOUND:                -0.140
REMARK SMILES O=c1c(O)c(-c2ccc(O)c(O)c2)oc2cc(O)cc(O)c12
REMARK SMILES IDX 5 1 3 2 2 3 1 4 22 5 20 6 19 7 17 8 16 9 15 10 14 11 6 12
REMARK SMILES IDX 7 13 8 14 9 15 13 16 11 17 10 18 12 20 4 22 21 24 18 26
REMARK H PARENT 10 19 12 21 4 23 21 25 18 27
REMARK Flexibility Score: inf
ROOT
ATOM      1  C   UNL     1      -3.943 -34.106   2.594  1.00  0.00     0.180 A 
ATOM      2  C   UNL     1      -2.694 -33.653   3.052  1.00  0.00     0.208 A 
ATOM      3  C   UNL     1      -2.637 -32.481   3.825  1.00  0.00     0.238 A 
ATOM      4  O   UNL     1      -1.511 -32.050   4.186  1.00  0.00    -0.285 OA
ATOM      5  C   UNL     1      -3.829 -31.788   4.142  1.00  0.00     0.111 A 
ATOM      6  C   UNL     1      -3.893 -30.613   4.951  1.00  0.00     0.134 A 
ATOM      7  C   UNL     1      -5.111 -29.936   5.091  1.00  0.00     0.093 A 
ATOM      8  C   UNL     1      -6.279 -30.427   4.505  1.00  0.00     0.123 A 
ATOM      9  C   UNL     1      -6.239 -31.606   3.764  1.00  0.00     0.094 A 
ATOM     10  C   UNL     1      -5.032 -32.284   3.576  1.00  0.00     0.146 A 
ATOM     11  O   UNL     1      -5.036 -33.398   2.852  1.00  0.00    -0.452 OA
ENDROOT
BRANCH   1  12
ATOM     12  C   UNL     1      -4.086 -35.346   1.797  1.00  0.00     0.025 A 
ATOM     13  C   UNL     1      -4.191 -36.582   2.454  1.00  0.00     0.016 A 
ATOM     14  C   UNL     1      -4.306 -37.766   1.722  1.00  0.00     0.051 A 
ATOM     15  C   UNL     1      -4.302 -37.736   0.324  1.00  0.00     0.157 A 
ATOM     16  C   UNL     1      -4.062 -35.320   0.390  1.00  0.00     0.062 A 
ATOM     17  C   UNL     1      -4.175 -36.508  -0.346  1.00  0.00     0.158 A 
BRANCH  15  18
ATOM     18  O   UNL     1      -4.422 -38.933  -0.380  1.00  0.00    -0.504 OA
ATOM     19  H   UNL     1      -4.610 -39.814   0.084  1.00  0.00     0.293 HD
ENDBRANCH  15  18
BRANCH  17  20
ATOM     20  O   UNL     1      -4.157 -36.472  -1.739  1.00  0.00    -0.504 OA
ATOM     21  H   UNL     1      -4.217 -35.598  -2.249  1.00  0.00     0.293 HD
ENDBRANCH  17  20
ENDBRANCH   1  12
BRANCH   2  22
ATOM     22  O   UNL     1      -1.527 -34.341   2.710  1.00  0.00    -0.502 OA
ATOM     23  H   UNL     1      -1.462 -34.925   1.885  1.00  0.00     0.293 HD
ENDBRANCH   2  22
BRANCH   6  24
ATOM     24  O   UNL     1      -2.804 -30.090   5.654  1.00  0.00    -0.507 OA
ATOM     25  H   UNL     1      -2.691 -30.134   6.655  1.00  0.00     0.293 HD
ENDBRANCH   6  24
BRANCH   8  26
ATOM     26  O   UNL     1      -7.490 -29.757   4.662  1.00  0.00    -0.508 OA
ATOM     27  H   UNL     1      -7.744 -28.975   4.068  1.00  0.00     0.293 HD
ENDBRANCH   8  26
TORSDOF 6
ENDMDL
MODEL 4
REMARK VINA RESULT:    -5.926      3.231      3.722
REMARK INTER + INTRA:          -7.278
REMARK INTER:                  -7.154
REMARK INTRA:                  -0.125
REMARK UNBOUND:                -0.140
REMARK SMILES O=c1c(O)c(-c2ccc(O)c(O)c2)oc2cc(O)cc(O)c12
REMARK SMILES IDX 5 1 3 2 2 3 1 4 22 5 20 6 19 7 17 8 16 9 15 10 14 11 6 12
REMARK SMILES IDX 7 13 8 14 9 15 13 16 11 17 10 18 12 20 4 22 21 24 18 26
REMARK H PARENT 10 19 12 21 4 23 21 25 18 27
REMARK Flexibility Score: inf
ROOT
ATOM      1  C   UNL     1      -4.491 -33.666   0.814  1.00  0.00     0.180 A 
ATOM      2  C   UNL     1      -3.461 -32.754   0.522  1.00  0.00     0.208 A 
ATOM      3  C   UNL     1      -3.797 -31.430   0.198  1.00  0.00     0.238 A 
ATOM      4  O   UNL     1      -2.875 -30.632  -0.115  1.00  0.00    -0.285 OA
ATOM      5  C   UNL     1      -5.155 -31.030   0.185  1.00  0.00     0.111 A 
ATOM      6  C   UNL     1      -5.607 -29.704  -0.091  1.00  0.00     0.134 A 
ATOM      7  C   UNL     1      -6.979 -29.452  -0.206  1.00  0.00     0.093 A 
ATOM      8  C   UNL     1      -7.918 -30.464   0.009  1.00  0.00     0.123 A 
ATOM      9  C   UNL     1      -7.488 -31.748   0.337  1.00  0.00     0.094 A 
ATOM     10  C   UNL     1      -6.124 -32.038   0.423  1.00  0.00     0.146 A 
ATOM     11  O   UNL     1      -5.758 -33.278   0.728  1.00  0.00    -0.452 OA
ENDROOT
BRANCH   1  12
ATOM     12  C   UNL     1      -4.214 -35.072   1.189  1.00  0.00     0.025 A 
ATOM     13  C   UNL     1      -3.456 -35.344   2.339  1.00  0.00     0.016 A 
ATOM     14  C   UNL     1      -3.165 -36.661   2.700  1.00  0.00     0.051 A 
ATOM     15  C   UNL     1      -3.613 -37.725   1.911  1.00  0.00     0.157 A 
ATOM     16  C   UNL     1      -4.646 -36.143   0.386  1.00  0.00     0.062 A 
ATOM     17  C   UNL     1      -4.354 -37.466   0.746  1.00  0.00     0.158 A 
BRANCH  15  18
ATOM     18  O   UNL     1      -3.310 -39.030   2.299  1.00  0.00    -0.504 OA
ATOM     19  H   UNL     1      -2.713 -39.231   3.092  1.00  0.00     0.293 HD
ENDBRANCH  15  18
BRANCH  17  20
ATOM     20  O   UNL     1      -4.791 -38.522  -0.052  1.00  0.00    -0.504 OA
ATOM     21  H   UNL     1      -4.569 -38.569  -1.040  1.00  0.00     0.293 HD
ENDBRANCH  17  20
ENDBRANCH   1  12
BRANCH   2  22
ATOM     22  O   UNL     1      -2.129 -33.175   0.521  1.00  0.00    -0.502 OA
ATOM     23  H   UNL     1      -1.415 -32.725   1.082  1.00  0.00     0.293 HD
ENDBRANCH   2  22
BRANCH   6  24
ATOM     24  O   UNL     1      -4.756 -28.604  -0.232  1.00  0.00    -0.507 OA
ATOM     25  H   UNL     1      -3.789 -28.657  -0.512  1.00  0.00     0.293 HD
ENDBRANCH   6  24
BRANCH   8  26
ATOM     26  O   UNL     1      -9.282 -30.202  -0.092  1.00  0.00    -0.508 OA
ATOM     27  H   UNL     1      -9.856 -30.644  -0.802  1.00  0.00     0.293 HD
ENDBRANCH   8  26
TORSDOF 6
ENDMDL
MODEL 5
REMARK VINA RESULT:    -5.896      2.261      7.060
REMARK INTER + INTRA:          -7.242
REMARK INTER:                  -7.098
REMARK INTRA:                  -0.144
REMARK UNBOUND:                -0.140
REMARK SMILES O=c1c(O)c(-c2ccc(O)c(O)c2)oc2cc(O)cc(O)c12
REMARK SMILES IDX 5 1 3 2 2 3 1 4 22 5 20 6 19 7 17 8 16 9 15 10 14 11 6 12
REMARK SMILES IDX 7 13 8 14 9 15 13 16 11 17 10 18 12 20 4 22 21 24 18 26
REMARK H PARENT 10 19 12 21 4 23 21 25 18 27
REMARK Flexibility Score: inf
ROOT
ATOM      1  C   UNL     1      -3.600 -33.107   1.512  1.00  0.00     0.180 A 
ATOM      2  C   UNL     1      -3.281 -32.598   0.242  1.00  0.00     0.208 A 
ATOM      3  C   UNL     1      -3.304 -33.463  -0.864  1.00  0.00     0.238 A 
ATOM      4  O   UNL     1      -2.965 -33.014  -1.990  1.00  0.00    -0.285 OA
ATOM      5  C   UNL     1      -3.661 -34.822  -0.688  1.00  0.00     0.111 A 
ATOM      6  C   UNL     1      -3.756 -35.778  -1.744  1.00  0.00     0.134 A 
ATOM      7  C   UNL     1      -3.989 -37.125  -1.437  1.00  0.00     0.093 A 
ATOM      8  C   UNL     1      -4.196 -37.537  -0.119  1.00  0.00     0.123 A 
ATOM      9  C   UNL     1      -4.165 -36.602   0.912  1.00  0.00     0.094 A 
ATOM     10  C   UNL     1      -3.898 -35.257   0.641  1.00  0.00     0.146 A 
ATOM     11  O   UNL     1      -3.866 -34.401   1.656  1.00  0.00    -0.452 OA
ENDROOT
BRANCH   1  12
ATOM     12  C   UNL     1      -3.622 -32.252   2.721  1.00  0.00     0.025 A 
ATOM     13  C   UNL     1      -4.840 -32.014   3.377  1.00  0.00     0.016 A 
ATOM     14  C   UNL     1      -4.888 -31.193   4.506  1.00  0.00     0.051 A 
ATOM     15  C   UNL     1      -3.725 -30.585   4.987  1.00  0.00     0.157 A 
ATOM     16  C   UNL     1      -2.457 -31.622   3.195  1.00  0.00     0.062 A 
ATOM     17  C   UNL     1      -2.503 -30.796   4.327  1.00  0.00     0.158 A 
BRANCH  15  18
ATOM     18  O   UNL     1      -3.803 -29.773   6.119  1.00  0.00    -0.504 OA
ATOM     19  H   UNL     1      -4.570 -29.840   6.777  1.00  0.00     0.293 HD
ENDBRANCH  15  18
BRANCH  17  20
ATOM     20  O   UNL     1      -1.342 -30.183   4.794  1.00  0.00    -0.504 OA
ATOM     21  H   UNL     1      -1.373 -29.455   5.499  1.00  0.00     0.293 HD
ENDBRANCH  17  20
ENDBRANCH   1  12
BRANCH   2  22
ATOM     22  O   UNL     1      -2.911 -31.259   0.093  1.00  0.00    -0.502 OA
ATOM     23  H   UNL     1      -2.238 -30.953  -0.599  1.00  0.00     0.293 HD
ENDBRANCH   2  22
BRANCH   6  24
ATOM     24  O   UNL     1      -3.656 -35.455  -3.100  1.00  0.00    -0.507 OA
ATOM     25  H   UNL     1      -3.983 -34.594  -3.511  1.00  0.00     0.293 HD
ENDBRANCH   6  24
BRANCH   8  26
ATOM     26  O   UNL     1      -4.443 -38.876   0.176  1.00  0.00    -0.508 OA
ATOM     27  H   UNL     1      -4.188 -39.617  -0.468  1.00  0.00     0.293 HD
ENDBRANCH   8  26
TORSDOF 6
ENDMDL
MODEL 6
REMARK VINA RESULT:    -5.867      2.992      6.675
REMARK INTER + INTRA:          -7.207
REMARK INTER:                  -7.253
REMARK INTRA:                   0.046
REMARK UNBOUND:                -0.140
REMARK SMILES O=c1c(O)c(-c2ccc(O)c(O)c2)oc2cc(O)cc(O)c12
REMARK SMILES IDX 5 1 3 2 2 3 1 4 22 5 20 6 19 7 17 8 16 9 15 10 14 11 6 12
REMARK SMILES IDX 7 13 8 14 9 15 13 16 11 17 10 18 12 20 4 22 21 24 18 26
REMARK H PARENT 10 19 12 21 4 23 21 25 18 27
REMARK Flexibility Score: inf
ROOT
ATOM      1  C   UNL     1      -4.777 -32.988   1.188  1.00  0.00     0.180 A 
ATOM      2  C   UNL     1      -3.808 -32.914   2.204  1.00  0.00     0.208 A 
ATOM      3  C   UNL     1      -3.119 -34.081   2.573  1.00  0.00     0.238 A 
ATOM      4  O   UNL     1      -2.291 -34.020   3.520  1.00  0.00    -0.285 OA
ATOM      5  C   UNL     1      -3.395 -35.301   1.911  1.00  0.00     0.111 A 
ATOM      6  C   UNL     1      -2.729 -36.536   2.177  1.00  0.00     0.134 A 
ATOM      7  C   UNL     1      -3.174 -37.709   1.555  1.00  0.00     0.093 A 
ATOM      8  C   UNL     1      -4.220 -37.681   0.629  1.00  0.00     0.123 A 
ATOM      9  C   UNL     1      -4.837 -36.471   0.318  1.00  0.00     0.094 A 
ATOM     10  C   UNL     1      -4.439 -35.290   0.950  1.00  0.00     0.146 A 
ATOM     11  O   UNL     1      -5.062 -34.161   0.633  1.00  0.00    -0.452 OA
ENDROOT
BRANCH   1  12
ATOM     12  C   UNL     1      -5.527 -31.797   0.727  1.00  0.00     0.025 A 
ATOM     13  C   UNL     1      -6.905 -31.901   0.481  1.00  0.00     0.016 A 
ATOM     14  C   UNL     1      -7.629 -30.796   0.025  1.00  0.00     0.051 A 
ATOM     15  C   UNL     1      -6.985 -29.577  -0.206  1.00  0.00     0.157 A 
ATOM     16  C   UNL     1      -4.878 -30.575   0.475  1.00  0.00     0.062 A 
ATOM     17  C   UNL     1      -5.602 -29.465   0.015  1.00  0.00     0.158 A 
BRANCH  15  18
ATOM     18  O   UNL     1      -7.733 -28.490  -0.657  1.00  0.00    -0.504 OA
ATOM     19  H   UNL     1      -8.319 -27.945  -0.036  1.00  0.00     0.293 HD
ENDBRANCH  15  18
BRANCH  17  20
ATOM     20  O   UNL     1      -4.952 -28.256  -0.226  1.00  0.00    -0.504 OA
ATOM     21  H   UNL     1      -4.234 -27.906   0.398  1.00  0.00     0.293 HD
ENDBRANCH  17  20
ENDBRANCH   1  12
BRANCH   2  22
ATOM     22  O   UNL     1      -3.566 -31.704   2.858  1.00  0.00    -0.502 OA
ATOM     23  H   UNL     1      -2.765 -31.562   3.462  1.00  0.00     0.293 HD
ENDBRANCH   2  22
BRANCH   6  24
ATOM     24  O   UNL     1      -1.617 -36.657   3.015  1.00  0.00    -0.507 OA
ATOM     25  H   UNL     1      -0.736 -36.187   2.873  1.00  0.00     0.293 HD
ENDBRANCH   6  24
BRANCH   8  26
ATOM     26  O   UNL     1      -4.647 -38.849   0.003  1.00  0.00    -0.508 OA
ATOM     27  H   UNL     1      -3.989 -39.492  -0.425  1.00  0.00     0.293 HD
ENDBRANCH   8  26
TORSDOF 6
ENDMDL
MODEL 7
REMARK VINA RESULT:    -5.817      1.994      2.406
REMARK INTER + INTRA:          -7.148
REMARK INTER:                  -6.841
REMARK INTRA:                  -0.306
REMARK UNBOUND:                -0.140
REMARK SMILES O=c1c(O)c(-c2ccc(O)c(O)c2)oc2cc(O)cc(O)c12
REMARK SMILES IDX 5 1 3 2 2 3 1 4 22 5 20 6 19 7 17 8 16 9 15 10 14 11 6 12
REMARK SMILES IDX 7 13 8 14 9 15 13 16 11 17 10 18 12 20 4 22 21 24 18 26
REMARK H PARENT 10 19 12 21 4 23 21 25 18 27
REMARK Flexibility Score: inf
ROOT
ATOM      1  C   UNL     1      -4.534 -34.004   1.113  1.00  0.00     0.180 A 
ATOM      2  C   UNL     1      -3.792 -33.758   2.281  1.00  0.00     0.208 A 
ATOM      3  C   UNL     1      -4.151 -32.674   3.099  1.00  0.00     0.238 A 
ATOM      4  O   UNL     1      -3.450 -32.426   4.115  1.00  0.00    -0.285 OA
ATOM      5  C   UNL     1      -5.256 -31.862   2.748  1.00  0.00     0.111 A 
ATOM      6  C   UNL     1      -5.733 -30.763   3.525  1.00  0.00     0.134 A 
ATOM      7  C   UNL     1      -6.752 -29.949   3.016  1.00  0.00     0.093 A 
ATOM      8  C   UNL     1      -7.355 -30.233   1.788  1.00  0.00     0.123 A 
ATOM      9  C   UNL     1      -6.938 -31.338   1.051  1.00  0.00     0.094 A 
ATOM     10  C   UNL     1      -5.898 -32.148   1.516  1.00  0.00     0.146 A 
ATOM     11  O   UNL     1      -5.523 -33.185   0.776  1.00  0.00    -0.452 OA
ENDROOT
BRANCH   1  12
ATOM     12  C   UNL     1      -4.232 -35.142   0.214  1.00  0.00     0.025 A 
ATOM     13  C   UNL     1      -3.563 -34.906  -0.998  1.00  0.00     0.016 A 
ATOM     14  C   UNL     1      -3.286 -35.961  -1.871  1.00  0.00     0.051 A 
ATOM     15  C   UNL     1      -3.687 -37.263  -1.555  1.00  0.00     0.157 A 
ATOM     16  C   UNL     1      -4.652 -36.449   0.520  1.00  0.00     0.062 A 
ATOM     17  C   UNL     1      -4.377 -37.509  -0.357  1.00  0.00     0.158 A 
BRANCH  15  18
ATOM     18  O   UNL     1      -3.394 -38.296  -2.445  1.00  0.00    -0.504 OA
ATOM     19  H   UNL     1      -3.119 -39.218  -2.127  1.00  0.00     0.293 HD
ENDBRANCH  15  18
BRANCH  17  20
ATOM     20  O   UNL     1      -4.790 -38.802  -0.043  1.00  0.00    -0.504 OA
ATOM     21  H   UNL     1      -4.990 -39.485  -0.764  1.00  0.00     0.293 HD
ENDBRANCH  17  20
ENDBRANCH   1  12
BRANCH   2  22
ATOM     22  O   UNL     1      -2.692 -34.559   2.598  1.00  0.00    -0.502 OA
ATOM     23  H   UNL     1      -2.410 -34.743   3.553  1.00  0.00     0.293 HD
ENDBRANCH   2  22
BRANCH   6  24
ATOM     24  O   UNL     1      -5.262 -30.448   4.802  1.00  0.00    -0.507 OA
ATOM     25  H   UNL     1      -4.362 -30.721   5.166  1.00  0.00     0.293 HD
ENDBRANCH   6  24
BRANCH   8  26
ATOM     26  O   UNL     1      -8.379 -29.427   1.296  1.00  0.00    -0.508 OA
ATOM     27  H   UNL     1      -8.807 -29.605   0.394  1.00  0.00     0.293 HD
ENDBRANCH   8  26
TORSDOF 6
ENDMDL
MODEL 8
REMARK VINA RESULT:    -5.800      5.484      7.895
REMARK INTER + INTRA:          -7.126
REMARK INTER:                  -6.903
REMARK INTRA:                  -0.223
REMARK UNBOUND:                -0.140
REMARK SMILES O=c1c(O)c(-c2ccc(O)c(O)c2)oc2cc(O)cc(O)c12
REMARK SMILES IDX 5 1 3 2 2 3 1 4 22 5 20 6 19 7 17 8 16 9 15 10 14 11 6 12
REMARK SMILES IDX 7 13 8 14 9 15 13 16 11 17 10 18 12 20 4 22 21 24 18 26
REMARK H PARENT 10 19 12 21 4 23 21 25 18 27
REMARK Flexibility Score: inf
ROOT
ATOM      1  C   UNL     1      -7.829 -29.392   1.638  1.00  0.00     0.180 A 
ATOM      2  C   UNL     1      -8.094 -29.863   0.340  1.00  0.00     0.208 A 
ATOM      3  C   UNL     1      -8.056 -28.958  -0.733  1.00  0.00     0.238 A 
ATOM      4  O   UNL     1      -8.347 -29.375  -1.885  1.00  0.00    -0.285 OA
ATOM      5  C   UNL     1      -7.737 -27.599  -0.498  1.00  0.00     0.111 A 
ATOM      6  C   UNL     1      -7.631 -26.604  -1.516  1.00  0.00     0.134 A 
ATOM      7  C   UNL     1      -7.440 -25.264  -1.155  1.00  0.00     0.093 A 
ATOM      8  C   UNL     1      -7.287 -24.894   0.182  1.00  0.00     0.123 A 
ATOM      9  C   UNL     1      -7.329 -25.866   1.179  1.00  0.00     0.094 A 
ATOM     10  C   UNL     1      -7.555 -27.206   0.853  1.00  0.00     0.146 A 
ATOM     11  O   UNL     1      -7.599 -28.099   1.835  1.00  0.00    -0.452 OA
ENDROOT
BRANCH   1  12
ATOM     12  C   UNL     1      -7.826 -30.289   2.816  1.00  0.00     0.025 A 
ATOM     13  C   UNL     1      -6.604 -30.645   3.410  1.00  0.00     0.016 A 
ATOM     14  C   UNL     1      -6.576 -31.507   4.509  1.00  0.00     0.051 A 
ATOM     15  C   UNL     1      -7.763 -32.039   5.021  1.00  0.00     0.157 A 
ATOM     16  C   UNL     1      -9.017 -30.842   3.319  1.00  0.00     0.062 A 
ATOM     17  C   UNL     1      -8.991 -31.709   4.421  1.00  0.00     0.158 A 
BRANCH  15  18
ATOM     18  O   UNL     1      -7.704 -32.894   6.121  1.00  0.00    -0.504 OA
ATOM     19  H   UNL     1      -7.506 -32.556   7.055  1.00  0.00     0.293 HD
ENDBRANCH  15  18
BRANCH  17  20
ATOM     20  O   UNL     1     -10.176 -32.247   4.918  1.00  0.00    -0.504 OA
ATOM     21  H   UNL     1     -10.605 -33.064   4.500  1.00  0.00     0.293 HD
ENDBRANCH  17  20
ENDBRANCH   1  12
BRANCH   2  22
ATOM     22  O   UNL     1      -8.426 -31.204   0.133  1.00  0.00    -0.502 OA
ATOM     23  H   UNL     1      -7.726 -31.930   0.037  1.00  0.00     0.293 HD
ENDBRANCH   2  22
BRANCH   6  24
ATOM     24  O   UNL     1      -7.679 -26.881  -2.885  1.00  0.00    -0.507 OA
ATOM     25  H   UNL     1      -7.352 -27.735  -3.311  1.00  0.00     0.293 HD
ENDBRANCH   6  24
BRANCH   8  26
ATOM     26  O   UNL     1      -7.081 -23.561   0.532  1.00  0.00    -0.508 OA
ATOM     27  H   UNL     1      -6.877 -22.855  -0.166  1.00  0.00     0.293 HD
ENDBRANCH   8  26
TORSDOF 6
ENDMDL
MODEL 9
REMARK VINA RESULT:    -4.711      3.938      6.719
REMARK INTER + INTRA:          -5.815
REMARK INTER:                  -5.504
REMARK INTRA:                  -0.310
REMARK UNBOUND:                -0.140
REMARK SMILES O=c1c(O)c(-c2ccc(O)c(O)c2)oc2cc(O)cc(O)c12
REMARK SMILES IDX 5 1 3 2 2 3 1 4 22 5 20 6 19 7 17 8 16 9 15 10 14 11 6 12
REMARK SMILES IDX 7 13 8 14 9 15 13 16 11 17 10 18 12 20 4 22 21 24 18 26
REMARK H PARENT 10 19 12 21 4 23 21 25 18 27
REMARK Flexibility Score: inf
ROOT
ATOM      1  C   UNL     1      -6.466 -30.240   4.347  1.00  0.00     0.180 A 
ATOM      2  C   UNL     1      -7.480 -30.772   5.162  1.00  0.00     0.208 A 
ATOM      3  C   UNL     1      -8.791 -30.291   5.017  1.00  0.00     0.238 A 
ATOM      4  O   UNL     1      -9.685 -30.731   5.786  1.00  0.00    -0.285 OA
ATOM      5  C   UNL     1      -9.074 -29.297   4.049  1.00  0.00     0.111 A 
ATOM      6  C   UNL     1     -10.374 -28.766   3.789  1.00  0.00     0.134 A 
ATOM      7  C   UNL     1     -10.516 -27.693   2.900  1.00  0.00     0.093 A 
ATOM      8  C   UNL     1      -9.415 -27.176   2.214  1.00  0.00     0.123 A 
ATOM      9  C   UNL     1      -8.152 -27.727   2.416  1.00  0.00     0.094 A 
ATOM     10  C   UNL     1      -7.973 -28.774   3.323  1.00  0.00     0.146 A 
ATOM     11  O   UNL     1      -6.750 -29.262   3.495  1.00  0.00    -0.452 OA
ENDROOT
BRANCH   1  12
ATOM     12  C   UNL     1      -5.065 -30.714   4.424  1.00  0.00     0.025 A 
ATOM     13  C   UNL     1      -4.692 -31.881   3.737  1.00  0.00     0.016 A 
ATOM     14  C   UNL     1      -3.381 -32.359   3.812  1.00  0.00     0.051 A 
ATOM     15  C   UNL     1      -2.428 -31.688   4.586  1.00  0.00     0.157 A 
ATOM     16  C   UNL     1      -4.110 -30.053   5.217  1.00  0.00     0.062 A 
ATOM     17  C   UNL     1      -2.794 -30.532   5.296  1.00  0.00     0.158 A 
BRANCH  15  18
ATOM     18  O   UNL     1      -1.127 -32.186   4.639  1.00  0.00    -0.504 OA
ATOM     19  H   UNL     1      -0.341 -31.610   4.917  1.00  0.00     0.293 HD
ENDBRANCH  15  18
BRANCH  17  20
ATOM     20  O   UNL     1      -1.852 -29.867   6.079  1.00  0.00    -0.504 OA
ATOM     21  H   UNL     1      -2.121 -29.132   6.722  1.00  0.00     0.293 HD
ENDBRANCH  17  20
ENDBRANCH   1  12
BRANCH   2  22
ATOM     22  O   UNL     1      -7.175 -31.736   6.125  1.00  0.00    -0.502 OA
ATOM     23  H   UNL     1      -7.604 -31.744   7.043  1.00  0.00     0.293 HD
ENDBRANCH   2  22
BRANCH   6  24
ATOM     24  O   UNL     1     -11.550 -29.271   4.352  1.00  0.00    -0.507 OA
ATOM     25  H   UNL     1     -12.353 -29.577   3.826  1.00  0.00     0.293 HD
ENDBRANCH   6  24
BRANCH   8  26
ATOM     26  O   UNL     1      -9.568 -26.118   1.320  1.00  0.00    -0.508 OA
ATOM     27  H   UNL     1      -9.311 -25.170   1.571  1.00  0.00     0.293 HD
ENDBRANCH   8  26
TORSDOF 6
ENDMDL
