MODEL 1
REMARK VINA RESULT:    -3.734      0.000      0.000
REMARK INTER + INTRA:          -6.012
REMARK INTER:                  -6.462
REMARK INTRA:                   0.450
REMARK UNBOUND:                 0.450
REMARK SMILES OC[C@H]1O[C@@H](O[C@H]2[C@H](O)[C@@H](O)[C@@H](O[C@H]3[C@@H](O)[C@H](O)[C@@H](O)O[C@@H]3CO)O[C@@H]2CO)[C@@H](O)[C@H](O)[C@H]1O
REMARK SMILES IDX 7 1 26 2 25 3 12 4 10 5 8 6 6 7 5 8 3 9 33 10 4 11 31 12
REMARK SMILES IDX 29 13 2 14 1 15 34 17 32 19 30 21 27 23 28 24 9 26 11 28
REMARK SMILES IDX 13 30 14 31 22 32 15 33 21 34 17 35 19 36 23 37 24 38 16 40
REMARK SMILES IDX 18 42 20 44
REMARK H PARENT 1 16 34 18 32 20 30 22 28 25 9 27 11 29 24 39 16 41 18 43
REMARK H PARENT 20 45
REMARK Flexibility Score: inf
ROOT
ATOM      1  C   UNL     1       6.491   7.269  12.747  1.00  0.00     0.184 C 
ATOM      2  C   UNL     1       5.172   6.974  13.502  1.00  0.00     0.178 C 
ATOM      3  O   UNL     1       5.208   5.690  14.103  1.00  0.00    -0.341 OA
ATOM      4  C   UNL     1       6.200   5.605  15.114  1.00  0.00     0.282 C 
ATOM      5  C   UNL     1       7.606   5.864  14.536  1.00  0.00     0.202 C 
ATOM      6  C   UNL     1       7.647   7.199  13.774  1.00  0.00     0.180 C 
ENDROOT
BRANCH   1   7
ATOM      7  O   UNL     1       6.401   8.567  12.178  1.00  0.00    -0.341 OA
BRANCH   7   8
ATOM      8  C   UNL     1       7.267   8.760  11.065  1.00  0.00     0.282 C 
ATOM      9  C   UNL     1       5.649   9.917   9.727  1.00  0.00     0.178 C 
ATOM     10  C   UNL     1       5.476   8.690   8.791  1.00  0.00     0.177 C 
ATOM     11  O   UNL     1       6.923   9.955  10.375  1.00  0.00    -0.341 OA
ATOM     12  C   UNL     1       5.840   7.385   9.502  1.00  0.00     0.179 C 
ATOM     13  C   UNL     1       7.237   7.543  10.121  1.00  0.00     0.202 C 
BRANCH   9  14
ATOM     14  C   UNL     1       4.473  10.125  10.707  1.00  0.00     0.191 C 
BRANCH  14  15
ATOM     15  O   UNL     1       3.581   9.047  10.644  1.00  0.00    -0.394 OA
ATOM     16  H   UNL     1       2.674   9.420  10.789  1.00  0.00     0.210 HD
ENDBRANCH  14  15
ENDBRANCH   9  14
BRANCH  10  17
ATOM     17  O   UNL     1       4.162   8.609   8.303  1.00  0.00    -0.387 OA
ATOM     18  H   UNL     1       3.972   9.471   7.847  1.00  0.00     0.211 HD
ENDBRANCH  10  17
BRANCH  12  19
ATOM     19  O   UNL     1       5.847   6.334   8.572  1.00  0.00    -0.387 OA
ATOM     20  H   UNL     1       4.925   5.973   8.542  1.00  0.00     0.211 HD
ENDBRANCH  12  19
BRANCH  13  21
ATOM     21  O   UNL     1       7.655   6.371  10.773  1.00  0.00    -0.385 OA
ATOM     22  H   UNL     1       8.368   5.952  10.232  1.00  0.00     0.211 HD
ENDBRANCH  13  21
ENDBRANCH   7   8
ENDBRANCH   1   7
BRANCH   2  23
ATOM     23  C   UNL     1       3.961   7.036  12.564  1.00  0.00     0.191 C 
BRANCH  23  24
ATOM     24  O   UNL     1       2.961   7.858  13.107  1.00  0.00    -0.394 OA
ATOM     25  H   UNL     1       2.475   7.314  13.780  1.00  0.00     0.210 HD
ENDBRANCH  23  24
ENDBRANCH   2  23
BRANCH   6  26
ATOM     26  O   UNL     1       8.899   7.380  13.161  1.00  0.00    -0.387 OA
ATOM     27  H   UNL     1       8.744   7.829  12.285  1.00  0.00     0.211 HD
ENDBRANCH   6  26
BRANCH   5  28
ATOM     28  O   UNL     1       8.573   5.875  15.556  1.00  0.00    -0.385 OA
ATOM     29  H   UNL     1       9.457   5.958  15.115  1.00  0.00     0.211 HD
ENDBRANCH   5  28
BRANCH   4  30
ATOM     30  O   UNL     1       5.917   6.494  16.193  1.00  0.00    -0.341 OA
BRANCH  30  31
ATOM     31  C   UNL     1       4.530   6.498  16.505  1.00  0.00     0.184 C 
ATOM     32  C   UNL     1       4.129   7.818  17.213  1.00  0.00     0.178 C 
ATOM     33  C   UNL     1       4.189   5.314  17.445  1.00  0.00     0.180 C 
ATOM     34  O   UNL     1       2.732   7.819  17.479  1.00  0.00    -0.342 OA
ATOM     35  C   UNL     1       2.713   5.397  17.874  1.00  0.00     0.201 C 
ATOM     36  C   UNL     1       2.373   6.808  18.408  1.00  0.00     0.279 C 
BRANCH  32  37
ATOM     37  C   UNL     1       4.455   9.048  16.356  1.00  0.00     0.191 C 
BRANCH  37  38
ATOM     38  O   UNL     1       3.392   9.318  15.487  1.00  0.00    -0.394 OA
ATOM     39  H   UNL     1       3.793   9.741  14.683  1.00  0.00     0.210 HD
ENDBRANCH  37  38
ENDBRANCH  32  37
BRANCH  33  40
ATOM     40  O   UNL     1       5.006   5.331  18.590  1.00  0.00    -0.387 OA
ATOM     41  H   UNL     1       4.435   5.620  19.350  1.00  0.00     0.211 HD
ENDBRANCH  33  40
BRANCH  35  42
ATOM     42  O   UNL     1       1.875   5.115  16.781  1.00  0.00    -0.385 OA
ATOM     43  H   UNL     1       2.270   4.336  16.306  1.00  0.00     0.211 HD
ENDBRANCH  35  42
BRANCH  36  44
ATOM     44  O   UNL     1       2.970   7.051  19.659  1.00  0.00    -0.366 OA
ATOM     45  H   UNL     1       3.200   6.163  20.043  1.00  0.00     0.213 HD
ENDBRANCH  36  44
ENDBRANCH  30  31
ENDBRANCH   4  30
TORSDOF 18
ENDMDL
MODEL 2
REMARK VINA RESULT:    -3.677      1.570      2.083
REMARK INTER + INTRA:          -5.914
REMARK INTER:                  -3.710
REMARK INTRA:                  -2.204
REMARK UNBOUND:                 0.450
REMARK SMILES OC[C@H]1O[C@@H](O[C@H]2[C@H](O)[C@@H](O)[C@@H](O[C@H]3[C@@H](O)[C@H](O)[C@@H](O)O[C@@H]3CO)O[C@@H]2CO)[C@@H](O)[C@H](O)[C@H]1O
REMARK SMILES IDX 7 1 26 2 25 3 12 4 10 5 8 6 6 7 5 8 3 9 33 10 4 11 31 12
REMARK SMILES IDX 29 13 2 14 1 15 34 17 32 19 30 21 27 23 28 24 9 26 11 28
REMARK SMILES IDX 13 30 14 31 22 32 15 33 21 34 17 35 19 36 23 37 24 38 16 40
REMARK SMILES IDX 18 42 20 44
REMARK H PARENT 1 16 34 18 32 20 30 22 28 25 9 27 11 29 24 39 16 41 18 43
REMARK H PARENT 20 45
REMARK Flexibility Score: inf
ROOT
ATOM      1  C   UNL     1       6.322   6.420  12.015  1.00  0.00     0.184 C 
ATOM      2  C   UNL     1       4.877   6.610  12.536  1.00  0.00     0.178 C 
ATOM      3  O   UNL     1       4.613   5.743  13.627  1.00  0.00    -0.341 OA
ATOM      4  C   UNL     1       5.420   6.046  14.753  1.00  0.00     0.282 C 
ATOM      5  C   UNL     1       6.918   5.897  14.421  1.00  0.00     0.202 C 
ATOM      6  C   UNL     1       7.289   6.730  13.182  1.00  0.00     0.180 C 
ENDROOT
BRANCH   1   7
ATOM      7  O   UNL     1       6.531   7.319  10.935  1.00  0.00    -0.341 OA
BRANCH   7   8
ATOM      8  C   UNL     1       6.582   8.684  11.334  1.00  0.00     0.282 C 
ATOM      9  C   UNL     1       5.293   9.499   9.484  1.00  0.00     0.178 C 
ATOM     10  C   UNL     1       6.551  10.125   8.822  1.00  0.00     0.177 C 
ATOM     11  O   UNL     1       5.411   9.367  10.902  1.00  0.00    -0.341 OA
ATOM     12  C   UNL     1       7.831   9.414   9.266  1.00  0.00     0.179 C 
ATOM     13  C   UNL     1       7.854   9.370  10.801  1.00  0.00     0.202 C 
BRANCH   9  14
ATOM     14  C   UNL     1       4.808   8.201   8.800  1.00  0.00     0.191 C 
BRANCH  14  15
ATOM     15  O   UNL     1       4.026   8.498   7.677  1.00  0.00    -0.394 OA
ATOM     16  H   UNL     1       3.725   7.630   7.303  1.00  0.00     0.210 HD
ENDBRANCH  14  15
ENDBRANCH   9  14
BRANCH  10  17
ATOM     17  O   UNL     1       6.454  10.089   7.422  1.00  0.00    -0.387 OA
ATOM     18  H   UNL     1       6.476   9.132   7.157  1.00  0.00     0.211 HD
ENDBRANCH  10  17
BRANCH  12  19
ATOM     19  O   UNL     1       8.946  10.125   8.792  1.00  0.00    -0.387 OA
ATOM     20  H   UNL     1       9.660   9.458   8.625  1.00  0.00     0.211 HD
ENDBRANCH  12  19
BRANCH  13  21
ATOM     21  O   UNL     1       9.019   8.752  11.288  1.00  0.00    -0.385 OA
ATOM     22  H   UNL     1       8.852   8.468  12.220  1.00  0.00     0.211 HD
ENDBRANCH  13  21
ENDBRANCH   7   8
ENDBRANCH   1   7
BRANCH   2  23
ATOM     23  C   UNL     1       3.842   6.339  11.439  1.00  0.00     0.191 C 
BRANCH  23  24
ATOM     24  O   UNL     1       3.010   7.455  11.261  1.00  0.00    -0.394 OA
ATOM     25  H   UNL     1       3.132   8.035  12.056  1.00  0.00     0.210 HD
ENDBRANCH  23  24
ENDBRANCH   2  23
BRANCH   6  26
ATOM     26  O   UNL     1       8.629   6.508  12.821  1.00  0.00    -0.387 OA
ATOM     27  H   UNL     1       9.203   6.964  13.495  1.00  0.00     0.211 HD
ENDBRANCH   6  26
BRANCH   5  28
ATOM     28  O   UNL     1       7.715   6.292  15.509  1.00  0.00    -0.385 OA
ATOM     29  H   UNL     1       8.612   6.510  15.146  1.00  0.00     0.211 HD
ENDBRANCH   5  28
BRANCH   4  30
ATOM     30  O   UNL     1       5.134   7.349  15.260  1.00  0.00    -0.341 OA
BRANCH  30  31
ATOM     31  C   UNL     1       3.905   7.364  15.973  1.00  0.00     0.184 C 
ATOM     32  C   UNL     1       3.118   8.669  15.686  1.00  0.00     0.178 C 
ATOM     33  C   UNL     1       4.169   7.277  17.498  1.00  0.00     0.180 C 
ATOM     34  O   UNL     1       1.875   8.646  16.376  1.00  0.00    -0.342 OA
ATOM     35  C   UNL     1       2.843   7.416  18.267  1.00  0.00     0.201 C 
ATOM     36  C   UNL     1       2.055   8.656  17.785  1.00  0.00     0.279 C 
BRANCH  32  37
ATOM     37  C   UNL     1       2.832   8.846  14.190  1.00  0.00     0.191 C 
BRANCH  37  38
ATOM     38  O   UNL     1       3.847   9.604  13.597  1.00  0.00    -0.394 OA
ATOM     39  H   UNL     1       3.405  10.171  12.912  1.00  0.00     0.210 HD
ENDBRANCH  37  38
ENDBRANCH  32  37
BRANCH  33  40
ATOM     40  O   UNL     1       5.054   8.289  17.912  1.00  0.00    -0.387 OA
ATOM     41  H   UNL     1       5.296   8.095  18.857  1.00  0.00     0.211 HD
ENDBRANCH  33  40
BRANCH  35  42
ATOM     42  O   UNL     1       2.049   6.273  18.072  1.00  0.00    -0.385 OA
ATOM     43  H   UNL     1       1.226   6.568  17.600  1.00  0.00     0.211 HD
ENDBRANCH  35  42
BRANCH  36  44
ATOM     44  O   UNL     1       2.665   9.855  18.196  1.00  0.00    -0.366 OA
ATOM     45  H   UNL     1       3.283  10.127  17.466  1.00  0.00     0.213 HD
ENDBRANCH  36  44
ENDBRANCH  30  31
ENDBRANCH   4  30
TORSDOF 18
ENDMDL
MODEL 3
REMARK VINA RESULT:    -2.348      1.588      7.290
REMARK INTER + INTRA:          -3.614
REMARK INTER:                  -4.552
REMARK INTRA:                   0.938
REMARK UNBOUND:                 0.450
REMARK SMILES OC[C@H]1O[C@@H](O[C@H]2[C@H](O)[C@@H](O)[C@@H](O[C@H]3[C@@H](O)[C@H](O)[C@@H](O)O[C@@H]3CO)O[C@@H]2CO)[C@@H](O)[C@H](O)[C@H]1O
REMARK SMILES IDX 7 1 26 2 25 3 12 4 10 5 8 6 6 7 5 8 3 9 33 10 4 11 31 12
REMARK SMILES IDX 29 13 2 14 1 15 34 17 32 19 30 21 27 23 28 24 9 26 11 28
REMARK SMILES IDX 13 30 14 31 22 32 15 33 21 34 17 35 19 36 23 37 24 38 16 40
REMARK SMILES IDX 18 42 20 44
REMARK H PARENT 1 16 34 18 32 20 30 22 28 25 9 27 11 29 24 39 16 41 18 43
REMARK H PARENT 20 45
REMARK Flexibility Score: inf
ROOT
ATOM      1  C   UNL     1       5.264   8.025  15.713  1.00  0.00     0.184 C 
ATOM      2  C   UNL     1       4.386   8.504  14.532  1.00  0.00     0.178 C 
ATOM      3  O   UNL     1       5.187   8.879  13.424  1.00  0.00    -0.341 OA
ATOM      4  C   UNL     1       5.899   7.775  12.887  1.00  0.00     0.282 C 
ATOM      5  C   UNL     1       6.850   7.164  13.936  1.00  0.00     0.202 C 
ATOM      6  C   UNL     1       6.089   6.810  15.225  1.00  0.00     0.180 C 
ENDROOT
BRANCH   1   7
ATOM      7  O   UNL     1       4.409   7.654  16.786  1.00  0.00    -0.341 OA
BRANCH   7   8
ATOM      8  C   UNL     1       3.244   6.953  16.367  1.00  0.00     0.282 C 
ATOM      9  C   UNL     1       1.875   7.700  18.188  1.00  0.00     0.178 C 
ATOM     10  C   UNL     1       1.917   6.299  18.857  1.00  0.00     0.177 C 
ATOM     11  O   UNL     1       2.075   7.654  16.774  1.00  0.00    -0.341 OA
ATOM     12  C   UNL     1       3.163   5.514  18.440  1.00  0.00     0.179 C 
ATOM     13  C   UNL     1       3.242   5.509  16.906  1.00  0.00     0.202 C 
BRANCH   9  14
ATOM     14  C   UNL     1       2.767   8.751  18.885  1.00  0.00     0.191 C 
BRANCH  14  15
ATOM     15  O   UNL     1       2.797   9.940  18.146  1.00  0.00    -0.394 OA
ATOM     16  H   UNL     1       3.746  10.099  17.902  1.00  0.00     0.210 HD
ENDBRANCH  14  15
ENDBRANCH   9  14
BRANCH  10  17
ATOM     17  O   UNL     1       1.875   6.407  20.256  1.00  0.00    -0.387 OA
ATOM     18  H   UNL     1       1.326   5.648  20.586  1.00  0.00     0.211 HD
ENDBRANCH  10  17
BRANCH  12  19
ATOM     19  O   UNL     1       3.066   4.198  18.917  1.00  0.00    -0.387 OA
ATOM     20  H   UNL     1       2.111   3.942  18.858  1.00  0.00     0.211 HD
ENDBRANCH  12  19
BRANCH  13  21
ATOM     21  O   UNL     1       4.353   4.783  16.443  1.00  0.00    -0.385 OA
ATOM     22  H   UNL     1       4.022   4.004  15.932  1.00  0.00     0.211 HD
ENDBRANCH  13  21
ENDBRANCH   7   8
ENDBRANCH   1   7
BRANCH   2  23
ATOM     23  C   UNL     1       3.515   9.702  14.928  1.00  0.00     0.191 C 
BRANCH  23  24
ATOM     24  O   UNL     1       2.242   9.598  14.345  1.00  0.00    -0.394 OA
ATOM     25  H   UNL     1       1.820  10.494  14.413  1.00  0.00     0.210 HD
ENDBRANCH  23  24
ENDBRANCH   2  23
BRANCH   6  26
ATOM     26  O   UNL     1       6.977   6.353  16.213  1.00  0.00    -0.387 OA
ATOM     27  H   UNL     1       7.892   6.351  15.819  1.00  0.00     0.211 HD
ENDBRANCH   6  26
BRANCH   5  28
ATOM     28  O   UNL     1       7.480   6.014  13.431  1.00  0.00    -0.385 OA
ATOM     29  H   UNL     1       8.182   5.759  14.084  1.00  0.00     0.211 HD
ENDBRANCH   5  28
BRANCH   4  30
ATOM     30  O   UNL     1       5.010   6.790  12.365  1.00  0.00    -0.341 OA
BRANCH  30  31
ATOM     31  C   UNL     1       4.638   7.091  11.027  1.00  0.00     0.184 C 
ATOM     32  C   UNL     1       5.858   7.599  10.216  1.00  0.00     0.178 C 
ATOM     33  C   UNL     1       3.546   8.192  11.009  1.00  0.00     0.180 C 
ATOM     34  O   UNL     1       5.473   7.856   8.872  1.00  0.00    -0.342 OA
ATOM     35  C   UNL     1       3.236   8.597   9.557  1.00  0.00     0.201 C 
ATOM     36  C   UNL     1       4.537   8.919   8.786  1.00  0.00     0.279 C 
BRANCH  32  37
ATOM     37  C   UNL     1       7.000   6.575  10.201  1.00  0.00     0.191 C 
BRANCH  37  38
ATOM     38  O   UNL     1       8.196   7.190  10.585  1.00  0.00    -0.394 OA
ATOM     39  H   UNL     1       8.581   7.587   9.760  1.00  0.00     0.210 HD
ENDBRANCH  37  38
ENDBRANCH  32  37
BRANCH  33  40
ATOM     40  O   UNL     1       3.965   9.325  11.728  1.00  0.00    -0.387 OA
ATOM     41  H   UNL     1       4.958   9.300  11.759  1.00  0.00     0.211 HD
ENDBRANCH  33  40
BRANCH  35  42
ATOM     42  O   UNL     1       2.567   7.552   8.895  1.00  0.00    -0.385 OA
ATOM     43  H   UNL     1       1.724   7.386   9.394  1.00  0.00     0.211 HD
ENDBRANCH  35  42
BRANCH  36  44
ATOM     44  O   UNL     1       5.118  10.125   9.223  1.00  0.00    -0.366 OA
ATOM     45  H   UNL     1       4.380  10.788   9.293  1.00  0.00     0.213 HD
ENDBRANCH  36  44
ENDBRANCH  30  31
ENDBRANCH   4  30
TORSDOF 18
ENDMDL
MODEL 4
REMARK VINA RESULT:    -1.939      1.629      3.357
REMARK INTER + INTRA:          -2.906
REMARK INTER:                  -3.436
REMARK INTRA:                   0.530
REMARK UNBOUND:                 0.450
REMARK SMILES OC[C@H]1O[C@@H](O[C@H]2[C@H](O)[C@@H](O)[C@@H](O[C@H]3[C@@H](O)[C@H](O)[C@@H](O)O[C@@H]3CO)O[C@@H]2CO)[C@@H](O)[C@H](O)[C@H]1O
REMARK SMILES IDX 7 1 26 2 25 3 12 4 10 5 8 6 6 7 5 8 3 9 33 10 4 11 31 12
REMARK SMILES IDX 29 13 2 14 1 15 34 17 32 19 30 21 27 23 28 24 9 26 11 28
REMARK SMILES IDX 13 30 14 31 22 32 15 33 21 34 17 35 19 36 23 37 24 38 16 40
REMARK SMILES IDX 18 42 20 44
REMARK H PARENT 1 16 34 18 32 20 30 22 28 25 9 27 11 29 24 39 16 41 18 43
REMARK H PARENT 20 45
REMARK Flexibility Score: inf
ROOT
ATOM      1  C   UNL     1       5.409   8.555  13.310  1.00  0.00     0.184 C 
ATOM      2  C   UNL     1       5.385   7.656  14.569  1.00  0.00     0.178 C 
ATOM      3  O   UNL     1       4.849   8.355  15.681  1.00  0.00    -0.341 OA
ATOM      4  C   UNL     1       3.486   8.696  15.487  1.00  0.00     0.282 C 
ATOM      5  C   UNL     1       3.314   9.616  14.260  1.00  0.00     0.202 C 
ATOM      6  C   UNL     1       3.953   8.987  13.011  1.00  0.00     0.180 C 
ENDROOT
BRANCH   1   7
ATOM      7  O   UNL     1       5.943   7.802  12.231  1.00  0.00    -0.341 OA
BRANCH   7   8
ATOM      8  C   UNL     1       6.899   8.517  11.457  1.00  0.00     0.282 C 
ATOM      9  C   UNL     1       6.533   7.264   9.447  1.00  0.00     0.178 C 
ATOM     10  C   UNL     1       7.892   6.529   9.601  1.00  0.00     0.177 C 
ATOM     11  O   UNL     1       6.508   8.540  10.090  1.00  0.00    -0.341 OA
ATOM     12  C   UNL     1       8.345   6.487  11.062  1.00  0.00     0.179 C 
ATOM     13  C   UNL     1       8.308   7.916  11.622  1.00  0.00     0.202 C 
BRANCH   9  14
ATOM     14  C   UNL     1       5.308   6.392   9.800  1.00  0.00     0.191 C 
BRANCH  14  15
ATOM     15  O   UNL     1       4.175   7.191  10.001  1.00  0.00    -0.394 OA
ATOM     16  H   UNL     1       4.093   7.326  10.980  1.00  0.00     0.210 HD
ENDBRANCH  14  15
ENDBRANCH   9  14
BRANCH  10  17
ATOM     17  O   UNL     1       7.818   5.222   9.093  1.00  0.00    -0.387 OA
ATOM     18  H   UNL     1       6.855   5.018   8.963  1.00  0.00     0.211 HD
ENDBRANCH  10  17
BRANCH  12  19
ATOM     19  O   UNL     1       9.653   5.981  11.129  1.00  0.00    -0.387 OA
ATOM     20  H   UNL     1       9.616   5.046  10.804  1.00  0.00     0.211 HD
ENDBRANCH  12  19
BRANCH  13  21
ATOM     21  O   UNL     1       8.738   7.963  12.960  1.00  0.00    -0.385 OA
ATOM     22  H   UNL     1       9.418   8.676  13.042  1.00  0.00     0.211 HD
ENDBRANCH  13  21
ENDBRANCH   7   8
ENDBRANCH   1   7
BRANCH   2  23
ATOM     23  C   UNL     1       6.789   7.164  14.937  1.00  0.00     0.191 C 
BRANCH  23  24
ATOM     24  O   UNL     1       7.044   5.918  14.342  1.00  0.00    -0.394 OA
ATOM     25  H   UNL     1       6.370   5.285  14.700  1.00  0.00     0.210 HD
ENDBRANCH  23  24
ENDBRANCH   2  23
BRANCH   6  26
ATOM     26  O   UNL     1       3.887   9.873  11.923  1.00  0.00    -0.387 OA
ATOM     27  H   UNL     1       4.816  10.022  11.598  1.00  0.00     0.211 HD
ENDBRANCH   6  26
BRANCH   5  28
ATOM     28  O   UNL     1       1.954   9.873  14.014  1.00  0.00    -0.385 OA
ATOM     29  H   UNL     1       1.585   9.069  13.565  1.00  0.00     0.211 HD
ENDBRANCH   5  28
BRANCH   4  30
ATOM     30  O   UNL     1       2.671   7.532  15.373  1.00  0.00    -0.341 OA
BRANCH  30  31
ATOM     31  C   UNL     1       2.500   6.900  16.635  1.00  0.00     0.184 C 
ATOM     32  C   UNL     1       3.027   7.803  17.780  1.00  0.00     0.178 C 
ATOM     33  C   UNL     1       3.276   5.559  16.672  1.00  0.00     0.180 C 
ATOM     34  O   UNL     1       2.810   7.171  19.034  1.00  0.00    -0.342 OA
ATOM     35  C   UNL     1       3.185   4.941  18.079  1.00  0.00     0.201 C 
ATOM     36  C   UNL     1       3.569   5.978  19.161  1.00  0.00     0.279 C 
BRANCH  32  37
ATOM     37  C   UNL     1       2.324   9.166  17.802  1.00  0.00     0.191 C 
BRANCH  37  38
ATOM     38  O   UNL     1       1.896   9.460  19.101  1.00  0.00    -0.394 OA
ATOM     39  H   UNL     1       0.907   9.370  19.093  1.00  0.00     0.210 HD
ENDBRANCH  37  38
ENDBRANCH  32  37
BRANCH  33  40
ATOM     40  O   UNL     1       4.628   5.753  16.337  1.00  0.00    -0.387 OA
ATOM     41  H   UNL     1       4.647   6.240  15.472  1.00  0.00     0.211 HD
ENDBRANCH  33  40
BRANCH  35  42
ATOM     42  O   UNL     1       1.876   4.494  18.327  1.00  0.00    -0.385 OA
ATOM     43  H   UNL     1       1.940   3.539  18.592  1.00  0.00     0.211 HD
ENDBRANCH  35  42
BRANCH  36  44
ATOM     44  O   UNL     1       4.946   6.264  19.144  1.00  0.00    -0.366 OA
ATOM     45  H   UNL     1       5.332   5.859  19.967  1.00  0.00     0.213 HD
ENDBRANCH  36  44
ENDBRANCH  30  31
ENDBRANCH   4  30
TORSDOF 18
ENDMDL
MODEL 5
REMARK VINA RESULT:    -1.127      1.680      7.587
REMARK INTER + INTRA:          -1.500
REMARK INTER:                  -2.064
REMARK INTRA:                   0.564
REMARK UNBOUND:                 0.450
REMARK SMILES OC[C@H]1O[C@@H](O[C@H]2[C@H](O)[C@@H](O)[C@@H](O[C@H]3[C@@H](O)[C@H](O)[C@@H](O)O[C@@H]3CO)O[C@@H]2CO)[C@@H](O)[C@H](O)[C@H]1O
REMARK SMILES IDX 7 1 26 2 25 3 12 4 10 5 8 6 6 7 5 8 3 9 33 10 4 11 31 12
REMARK SMILES IDX 29 13 2 14 1 15 34 17 32 19 30 21 27 23 28 24 9 26 11 28
REMARK SMILES IDX 13 30 14 31 22 32 15 33 21 34 17 35 19 36 23 37 24 38 16 40
REMARK SMILES IDX 18 42 20 44
REMARK H PARENT 1 16 34 18 32 20 30 22 28 25 9 27 11 29 24 39 16 41 18 43
REMARK H PARENT 20 45
REMARK Flexibility Score: inf
ROOT
ATOM      1  C   UNL     1       4.760   6.629  15.106  1.00  0.00     0.184 C 
ATOM      2  C   UNL     1       6.276   6.740  15.398  1.00  0.00     0.178 C 
ATOM      3  O   UNL     1       7.016   5.840  14.590  1.00  0.00    -0.341 OA
ATOM      4  C   UNL     1       6.915   6.160  13.212  1.00  0.00     0.282 C 
ATOM      5  C   UNL     1       5.452   6.089  12.730  1.00  0.00     0.202 C 
ATOM      6  C   UNL     1       4.543   6.963  13.610  1.00  0.00     0.180 C 
ENDROOT
BRANCH   1   7
ATOM      7  O   UNL     1       4.074   7.557  15.934  1.00  0.00    -0.341 OA
BRANCH   7   8
ATOM      8  C   UNL     1       2.669   7.341  15.985  1.00  0.00     0.282 C 
ATOM      9  C   UNL     1       2.176   9.390  17.129  1.00  0.00     0.178 C 
ATOM     10  C   UNL     1       1.875   8.635  18.452  1.00  0.00     0.177 C 
ATOM     11  O   UNL     1       1.979   8.585  15.964  1.00  0.00    -0.341 OA
ATOM     12  C   UNL     1       2.601   7.289  18.508  1.00  0.00     0.179 C 
ATOM     13  C   UNL     1       2.280   6.511  17.224  1.00  0.00     0.202 C 
BRANCH   9  14
ATOM     14  C   UNL     1       3.535  10.125  17.125  1.00  0.00     0.191 C 
BRANCH  14  15
ATOM     15  O   UNL     1       4.112  10.089  15.849  1.00  0.00    -0.394 OA
ATOM     16  H   UNL     1       3.600  10.728  15.288  1.00  0.00     0.210 HD
ENDBRANCH  14  15
ENDBRANCH   9  14
BRANCH  10  17
ATOM     17  O   UNL     1       2.233   9.410  19.567  1.00  0.00    -0.387 OA
ATOM     18  H   UNL     1       1.439   9.438  20.163  1.00  0.00     0.211 HD
ENDBRANCH  10  17
BRANCH  12  19
ATOM     19  O   UNL     1       2.157   6.567  19.627  1.00  0.00    -0.387 OA
ATOM     20  H   UNL     1       1.305   6.982  19.916  1.00  0.00     0.211 HD
ENDBRANCH  12  19
BRANCH  13  21
ATOM     21  O   UNL     1       2.893   5.246  17.213  1.00  0.00    -0.385 OA
ATOM     22  H   UNL     1       3.550   5.214  17.951  1.00  0.00     0.211 HD
ENDBRANCH  13  21
ENDBRANCH   7   8
ENDBRANCH   1   7
BRANCH   2  23
ATOM     23  C   UNL     1       6.589   6.440  16.869  1.00  0.00     0.191 C 
BRANCH  23  24
ATOM     24  O   UNL     1       5.564   5.672  17.443  1.00  0.00    -0.394 OA
ATOM     25  H   UNL     1       5.797   4.720  17.290  1.00  0.00     0.210 HD
ENDBRANCH  23  24
ENDBRANCH   2  23
BRANCH   6  26
ATOM     26  O   UNL     1       3.197   6.811  13.234  1.00  0.00    -0.387 OA
ATOM     27  H   UNL     1       3.054   7.345  12.405  1.00  0.00     0.211 HD
ENDBRANCH   6  26
BRANCH   5  28
ATOM     28  O   UNL     1       5.345   6.501  11.390  1.00  0.00    -0.385 OA
ATOM     29  H   UNL     1       5.585   5.720  10.828  1.00  0.00     0.211 HD
ENDBRANCH   5  28
BRANCH   4  30
ATOM     30  O   UNL     1       7.485   7.438  12.933  1.00  0.00    -0.341 OA
BRANCH  30  31
ATOM     31  C   UNL     1       7.246   7.824  11.586  1.00  0.00     0.184 C 
ATOM     32  C   UNL     1       8.515   7.616  10.720  1.00  0.00     0.178 C 
ATOM     33  C   UNL     1       6.848   9.321  11.520  1.00  0.00     0.180 C 
ATOM     34  O   UNL     1       8.244   7.968   9.370  1.00  0.00    -0.342 OA
ATOM     35  C   UNL     1       6.710   9.760  10.051  1.00  0.00     0.201 C 
ATOM     36  C   UNL     1       7.959   9.353   9.235  1.00  0.00     0.279 C 
BRANCH  32  37
ATOM     37  C   UNL     1       8.993   6.159  10.748  1.00  0.00     0.191 C 
BRANCH  37  38
ATOM     38  O   UNL     1       9.422   5.774   9.473  1.00  0.00    -0.394 OA
ATOM     39  H   UNL     1       8.611   5.462   8.991  1.00  0.00     0.210 HD
ENDBRANCH  37  38
ENDBRANCH  32  37
BRANCH  33  40
ATOM     40  O   UNL     1       7.811  10.124  12.155  1.00  0.00    -0.387 OA
ATOM     41  H   UNL     1       7.782  11.015  11.717  1.00  0.00     0.211 HD
ENDBRANCH  33  40
BRANCH  35  42
ATOM     42  O   UNL     1       5.578   9.160   9.472  1.00  0.00    -0.385 OA
ATOM     43  H   UNL     1       4.958   9.894   9.218  1.00  0.00     0.211 HD
ENDBRANCH  35  42
BRANCH  36  44
ATOM     44  O   UNL     1       9.083  10.125   9.581  1.00  0.00    -0.366 OA
ATOM     45  H   UNL     1       9.340  10.636   8.768  1.00  0.00     0.213 HD
ENDBRANCH  36  44
ENDBRANCH  30  31
ENDBRANCH   4  30
TORSDOF 18
ENDMDL
MODEL 6
REMARK VINA RESULT:    -0.958      1.873      7.475
REMARK INTER + INTRA:          -1.208
REMARK INTER:                  -1.112
REMARK INTRA:                  -0.096
REMARK UNBOUND:                 0.450
REMARK SMILES OC[C@H]1O[C@@H](O[C@H]2[C@H](O)[C@@H](O)[C@@H](O[C@H]3[C@@H](O)[C@H](O)[C@@H](O)O[C@@H]3CO)O[C@@H]2CO)[C@@H](O)[C@H](O)[C@H]1O
REMARK SMILES IDX 7 1 26 2 25 3 12 4 10 5 8 6 6 7 5 8 3 9 33 10 4 11 31 12
REMARK SMILES IDX 29 13 2 14 1 15 34 17 32 19 30 21 27 23 28 24 9 26 11 28
REMARK SMILES IDX 13 30 14 31 22 32 15 33 21 34 17 35 19 36 23 37 24 38 16 40
REMARK SMILES IDX 18 42 20 44
REMARK H PARENT 1 16 34 18 32 20 30 22 28 25 9 27 11 29 24 39 16 41 18 43
REMARK H PARENT 20 45
REMARK Flexibility Score: inf
ROOT
ATOM      1  C   UNL     1       3.741   6.805  13.684  1.00  0.00     0.184 C 
ATOM      2  C   UNL     1       5.254   6.526  13.516  1.00  0.00     0.178 C 
ATOM      3  O   UNL     1       5.501   5.753  12.352  1.00  0.00    -0.341 OA
ATOM      4  C   UNL     1       5.155   6.453  11.168  1.00  0.00     0.282 C 
ATOM      5  C   UNL     1       3.655   6.811  11.152  1.00  0.00     0.202 C 
ATOM      6  C   UNL     1       3.261   7.573  12.429  1.00  0.00     0.180 C 
ENDROOT
BRANCH   1   7
ATOM      7  O   UNL     1       3.557   7.588  14.855  1.00  0.00    -0.341 OA
BRANCH   7   8
ATOM      8  C   UNL     1       2.192   7.741  15.227  1.00  0.00     0.282 C 
ATOM      9  C   UNL     1       2.534   9.756  16.480  1.00  0.00     0.178 C 
ATOM     10  C   UNL     1       2.338   9.008  17.827  1.00  0.00     0.177 C 
ATOM     11  O   UNL     1       1.876   9.119  15.383  1.00  0.00    -0.341 OA
ATOM     12  C   UNL     1       2.668   7.520  17.696  1.00  0.00     0.179 C 
ATOM     13  C   UNL     1       1.876   6.950  16.511  1.00  0.00     0.202 C 
BRANCH   9  14
ATOM     14  C   UNL     1       4.005  10.112  16.172  1.00  0.00     0.191 C 
BRANCH  14  15
ATOM     15  O   UNL     1       4.874   9.274  16.883  1.00  0.00    -0.394 OA
ATOM     16  H   UNL     1       4.710   8.352  16.557  1.00  0.00     0.210 HD
ENDBRANCH  14  15
ENDBRANCH   9  14
BRANCH  10  17
ATOM     17  O   UNL     1       3.126   9.578  18.839  1.00  0.00    -0.387 OA
ATOM     18  H   UNL     1       3.628  10.328  18.424  1.00  0.00     0.211 HD
ENDBRANCH  10  17
BRANCH  12  19
ATOM     19  O   UNL     1       2.303   6.856  18.878  1.00  0.00    -0.387 OA
ATOM     20  H   UNL     1       1.375   7.133  19.087  1.00  0.00     0.211 HD
ENDBRANCH  12  19
BRANCH  13  21
ATOM     21  O   UNL     1       2.108   5.574  16.341  1.00  0.00    -0.385 OA
ATOM     22  H   UNL     1       3.062   5.446  16.115  1.00  0.00     0.211 HD
ENDBRANCH  13  21
ENDBRANCH   7   8
ENDBRANCH   1   7
BRANCH   2  23
ATOM     23  C   UNL     1       5.826   5.777  14.725  1.00  0.00     0.191 C 
BRANCH  23  24
ATOM     24  O   UNL     1       5.934   6.637  15.829  1.00  0.00    -0.394 OA
ATOM     25  H   UNL     1       6.898   6.697  16.055  1.00  0.00     0.210 HD
ENDBRANCH  23  24
ENDBRANCH   2  23
BRANCH   6  26
ATOM     26  O   UNL     1       1.875   7.804  12.459  1.00  0.00    -0.387 OA
ATOM     27  H   UNL     1       1.712   8.585  13.056  1.00  0.00     0.211 HD
ENDBRANCH   6  26
BRANCH   5  28
ATOM     28  O   UNL     1       3.336   7.588  10.025  1.00  0.00    -0.385 OA
ATOM     29  H   UNL     1       4.192   7.932   9.660  1.00  0.00     0.211 HD
ENDBRANCH   5  28
BRANCH   4  30
ATOM     30  O   UNL     1       5.962   7.616  10.999  1.00  0.00    -0.341 OA
BRANCH  30  31
ATOM     31  C   UNL     1       7.337   7.322  11.206  1.00  0.00     0.184 C 
ATOM     32  C   UNL     1       8.234   8.256  10.353  1.00  0.00     0.178 C 
ATOM     33  C   UNL     1       7.638   5.855  10.806  1.00  0.00     0.180 C 
ATOM     34  O   UNL     1       9.605   7.973  10.605  1.00  0.00    -0.342 OA
ATOM     35  C   UNL     1       9.148   5.582  10.919  1.00  0.00     0.201 C 
ATOM     36  C   UNL     1       9.960   6.668  10.176  1.00  0.00     0.279 C 
BRANCH  32  37
ATOM     37  C   UNL     1       7.984   9.735  10.670  1.00  0.00     0.191 C 
BRANCH  37  38
ATOM     38  O   UNL     1       6.704  10.105  10.242  1.00  0.00    -0.394 OA
ATOM     39  H   UNL     1       6.560   9.646   9.372  1.00  0.00     0.210 HD
ENDBRANCH  37  38
ENDBRANCH  32  37
BRANCH  33  40
ATOM     40  O   UNL     1       7.217   5.597   9.490  1.00  0.00    -0.387 OA
ATOM     41  H   UNL     1       6.251   5.365   9.533  1.00  0.00     0.211 HD
ENDBRANCH  33  40
BRANCH  35  42
ATOM     42  O   UNL     1       9.538   5.573  12.270  1.00  0.00    -0.385 OA
ATOM     43  H   UNL     1       9.739   4.629  12.508  1.00  0.00     0.211 HD
ENDBRANCH  35  42
BRANCH  36  44
ATOM     44  O   UNL     1       9.829   6.554   8.779  1.00  0.00    -0.366 OA
ATOM     45  H   UNL     1      10.060   7.442   8.397  1.00  0.00     0.213 HD
ENDBRANCH  36  44
ENDBRANCH  30  31
ENDBRANCH   4  30
TORSDOF 18
ENDMDL
