MODEL 1
REMARK VINA RESULT:    -5.903      0.000      0.000
REMARK INTER + INTRA:          -7.864
REMARK INTER:                  -7.629
REMARK INTRA:                  -0.235
REMARK UNBOUND:                -0.235
REMARK SMILES CCO[C@H]1O[C@H](CO)[C@@H](O)[C@@H](O)[C@@H]1O
REMARK SMILES IDX 4 1 13 2 11 3 9 4 6 5 5 6 3 7 2 8 1 9 14 10 12 12 7 14 8 15
REMARK SMILES IDX 10 17
REMARK H PARENT 14 11 12 13 8 16 10 18
REMARK Flexibility Score: inf
ROOT
ATOM      1  C   UNL     1      11.165 -10.964  36.434  1.00  0.00     0.281 C 
ATOM      2  C   UNL     1      11.584 -12.137  37.339  1.00  0.00     0.202 C 
ATOM      3  C   UNL     1      11.195 -13.488  36.704  1.00  0.00     0.179 C 
ATOM      4  C   UNL     1       9.722 -13.460  36.258  1.00  0.00     0.177 C 
ATOM      5  C   UNL     1       9.451 -12.203  35.402  1.00  0.00     0.178 C 
ATOM      6  O   UNL     1       9.778 -11.028  36.129  1.00  0.00    -0.341 OA
ENDROOT
BRANCH   1   7
ATOM      7  O   UNL     1      11.960 -10.947  35.258  1.00  0.00    -0.350 OA
BRANCH   7   8
ATOM      8  C   UNL     1      13.284 -10.564  35.567  1.00  0.00     0.160 C 
ATOM      9  C   UNL     1      14.235 -11.225  34.582  1.00  0.00     0.035 C 
ENDBRANCH   7   8
ENDBRANCH   1   7
BRANCH   2  10
ATOM     10  O   UNL     1      10.956 -11.997  38.588  1.00  0.00    -0.385 OA
ATOM     11  H   UNL     1       9.977 -12.027  38.423  1.00  0.00     0.211 HD
ENDBRANCH   2  10
BRANCH   3  12
ATOM     12  O   UNL     1      12.021 -13.762  35.599  1.00  0.00    -0.387 OA
ATOM     13  H   UNL     1      12.871 -14.127  35.960  1.00  0.00     0.211 HD
ENDBRANCH   3  12
BRANCH   5  14
ATOM     14  C   UNL     1       7.970 -12.128  35.001  1.00  0.00     0.191 C 
BRANCH  14  15
ATOM     15  O   UNL     1       7.833 -11.495  33.757  1.00  0.00    -0.394 OA
ATOM     16  H   UNL     1       7.599 -10.549  33.941  1.00  0.00     0.210 HD
ENDBRANCH  14  15
ENDBRANCH   5  14
BRANCH   4  17
ATOM     17  O   UNL     1       9.426 -14.618  35.518  1.00  0.00    -0.387 OA
ATOM     18  H   UNL     1       8.465 -14.562  35.272  1.00  0.00     0.211 HD
ENDBRANCH   4  17
TORSDOF 7
ENDMDL
MODEL 2
REMARK VINA RESULT:    -5.902      1.989      4.649
REMARK INTER + INTRA:          -7.862
REMARK INTER:                  -7.490
REMARK INTRA:                  -0.373
REMARK UNBOUND:                -0.235
REMARK SMILES CCO[C@H]1O[C@H](CO)[C@@H](O)[C@@H](O)[C@@H]1O
REMARK SMILES IDX 4 1 13 2 11 3 9 4 6 5 5 6 3 7 2 8 1 9 14 10 12 12 7 14 8 15
REMARK SMILES IDX 10 17
REMARK H PARENT 14 11 12 13 8 16 10 18
REMARK Flexibility Score: inf
ROOT
ATOM      1  C   UNL     1       9.013 -12.464  37.636  1.00  0.00     0.281 C 
ATOM      2  C   UNL     1       8.818 -11.844  36.239  1.00  0.00     0.202 C 
ATOM      3  C   UNL     1      10.177 -11.487  35.601  1.00  0.00     0.179 C 
ATOM      4  C   UNL     1      11.035 -10.683  36.594  1.00  0.00     0.177 C 
ATOM      5  C   UNL     1      11.093 -11.409  37.956  1.00  0.00     0.178 C 
ATOM      6  O   UNL     1       9.783 -11.607  38.469  1.00  0.00    -0.341 OA
ENDROOT
BRANCH   1   7
ATOM      7  O   UNL     1       9.602 -13.750  37.521  1.00  0.00    -0.350 OA
BRANCH   7   8
ATOM      8  C   UNL     1       9.119 -14.602  38.538  1.00  0.00     0.160 C 
ATOM      9  C   UNL     1       7.638 -14.331  38.751  1.00  0.00     0.035 C 
ENDBRANCH   7   8
ENDBRANCH   1   7
BRANCH   2  10
ATOM     10  O   UNL     1       8.028 -10.688  36.359  1.00  0.00    -0.385 OA
ATOM     11  H   UNL     1       8.588 -10.002  36.811  1.00  0.00     0.211 HD
ENDBRANCH   2  10
BRANCH   3  12
ATOM     12  O   UNL     1      10.859 -12.658  35.225  1.00  0.00    -0.387 OA
ATOM     13  H   UNL     1      10.837 -12.697  34.233  1.00  0.00     0.211 HD
ENDBRANCH   3  12
BRANCH   5  14
ATOM     14  C   UNL     1      11.893 -10.587  38.977  1.00  0.00     0.191 C 
BRANCH  14  15
ATOM     15  O   UNL     1      11.602  -9.221  38.840  1.00  0.00    -0.394 OA
ATOM     16  H   UNL     1      11.713  -8.813  39.737  1.00  0.00     0.210 HD
ENDBRANCH  14  15
ENDBRANCH   5  14
BRANCH   4  17
ATOM     17  O   UNL     1      12.334 -10.520  36.080  1.00  0.00    -0.387 OA
ATOM     18  H   UNL     1      12.288 -10.739  35.113  1.00  0.00     0.211 HD
ENDBRANCH   4  17
TORSDOF 7
ENDMDL
MODEL 3
REMARK VINA RESULT:    -5.842      2.056      2.395
REMARK INTER + INTRA:          -7.784
REMARK INTER:                  -7.428
REMARK INTRA:                  -0.356
REMARK UNBOUND:                -0.235
REMARK SMILES CCO[C@H]1O[C@H](CO)[C@@H](O)[C@@H](O)[C@@H]1O
REMARK SMILES IDX 4 1 13 2 11 3 9 4 6 5 5 6 3 7 2 8 1 9 14 10 12 12 7 14 8 15
REMARK SMILES IDX 10 17
REMARK H PARENT 14 11 12 13 8 16 10 18
REMARK Flexibility Score: inf
ROOT
ATOM      1  C   UNL     1       9.865 -12.550  38.288  1.00  0.00     0.281 C 
ATOM      2  C   UNL     1      10.191 -14.024  37.982  1.00  0.00     0.202 C 
ATOM      3  C   UNL     1      10.066 -14.312  36.471  1.00  0.00     0.179 C 
ATOM      4  C   UNL     1       8.721 -13.785  35.940  1.00  0.00     0.177 C 
ATOM      5  C   UNL     1       8.520 -12.315  36.370  1.00  0.00     0.178 C 
ATOM      6  O   UNL     1       8.582 -12.199  37.784  1.00  0.00    -0.341 OA
ENDROOT
BRANCH   1   7
ATOM      7  O   UNL     1      10.880 -11.706  37.767  1.00  0.00    -0.350 OA
BRANCH   7   8
ATOM      8  C   UNL     1      11.373 -10.852  38.779  1.00  0.00     0.160 C 
ATOM      9  C   UNL     1      12.831 -10.532  38.491  1.00  0.00     0.035 C 
ENDBRANCH   7   8
ENDBRANCH   1   7
BRANCH   2  10
ATOM     10  O   UNL     1       9.308 -14.846  38.701  1.00  0.00    -0.385 OA
ATOM     11  H   UNL     1       9.862 -15.527  39.166  1.00  0.00     0.211 HD
ENDBRANCH   2  10
BRANCH   3  12
ATOM     12  O   UNL     1      11.124 -13.706  35.771  1.00  0.00    -0.387 OA
ATOM     13  H   UNL     1      11.808 -14.410  35.618  1.00  0.00     0.211 HD
ENDBRANCH   3  12
BRANCH   5  14
ATOM     14  C   UNL     1       7.154 -11.793  35.901  1.00  0.00     0.191 C 
BRANCH  14  15
ATOM     15  O   UNL     1       7.234 -11.338  34.576  1.00  0.00    -0.394 OA
ATOM     16  H   UNL     1       6.702 -10.501  34.528  1.00  0.00     0.210 HD
ENDBRANCH  14  15
ENDBRANCH   5  14
BRANCH   4  17
ATOM     17  O   UNL     1       8.690 -13.884  34.537  1.00  0.00    -0.387 OA
ATOM     18  H   UNL     1       8.622 -14.851  34.320  1.00  0.00     0.211 HD
ENDBRANCH   4  17
TORSDOF 7
ENDMDL
MODEL 4
REMARK VINA RESULT:    -5.827      2.073      3.531
REMARK INTER + INTRA:          -7.766
REMARK INTER:                  -7.341
REMARK INTRA:                  -0.424
REMARK UNBOUND:                -0.235
REMARK SMILES CCO[C@H]1O[C@H](CO)[C@@H](O)[C@@H](O)[C@@H]1O
REMARK SMILES IDX 4 1 13 2 11 3 9 4 6 5 5 6 3 7 2 8 1 9 14 10 12 12 7 14 8 15
REMARK SMILES IDX 10 17
REMARK H PARENT 14 11 12 13 8 16 10 18
REMARK Flexibility Score: inf
ROOT
ATOM      1  C   UNL     1      11.274 -12.025  37.445  1.00  0.00     0.281 C 
ATOM      2  C   UNL     1      10.803 -11.738  36.008  1.00  0.00     0.202 C 
ATOM      3  C   UNL     1       9.262 -11.741  35.923  1.00  0.00     0.179 C 
ATOM      4  C   UNL     1       8.696 -13.008  36.589  1.00  0.00     0.177 C 
ATOM      5  C   UNL     1       9.300 -13.181  38.000  1.00  0.00     0.178 C 
ATOM      6  O   UNL     1      10.718 -13.240  37.930  1.00  0.00    -0.341 OA
ENDROOT
BRANCH   1   7
ATOM      7  O   UNL     1      10.956 -10.930  38.291  1.00  0.00    -0.350 OA
BRANCH   7   8
ATOM      8  C   UNL     1      11.998  -9.977  38.270  1.00  0.00     0.160 C 
ATOM      9  C   UNL     1      13.069 -10.389  39.268  1.00  0.00     0.035 C 
ENDBRANCH   7   8
ENDBRANCH   1   7
BRANCH   2  10
ATOM     10  O   UNL     1      11.331 -12.718  35.150  1.00  0.00    -0.385 OA
ATOM     11  H   UNL     1      11.002 -13.596  35.479  1.00  0.00     0.211 HD
ENDBRANCH   2  10
BRANCH   3  12
ATOM     12  O   UNL     1       8.738 -10.599  36.555  1.00  0.00    -0.387 OA
ATOM     13  H   UNL     1       8.505  -9.955  35.836  1.00  0.00     0.211 HD
ENDBRANCH   3  12
BRANCH   5  14
ATOM     14  C   UNL     1       8.794 -14.476  38.653  1.00  0.00     0.191 C 
BRANCH  14  15
ATOM     15  O   UNL     1       7.568 -14.251  39.297  1.00  0.00    -0.394 OA
ATOM     16  H   UNL     1       7.502 -13.273  39.453  1.00  0.00     0.210 HD
ENDBRANCH  14  15
ENDBRANCH   5  14
BRANCH   4  17
ATOM     17  O   UNL     1       7.296 -12.919  36.673  1.00  0.00    -0.387 OA
ATOM     18  H   UNL     1       6.950 -13.850  36.690  1.00  0.00     0.211 HD
ENDBRANCH   4  17
TORSDOF 7
ENDMDL
MODEL 5
REMARK VINA RESULT:    -5.798      1.664      3.229
REMARK INTER + INTRA:          -7.728
REMARK INTER:                  -7.463
REMARK INTRA:                  -0.264
REMARK UNBOUND:                -0.235
REMARK SMILES CCO[C@H]1O[C@H](CO)[C@@H](O)[C@@H](O)[C@@H]1O
REMARK SMILES IDX 4 1 13 2 11 3 9 4 6 5 5 6 3 7 2 8 1 9 14 10 12 12 7 14 8 15
REMARK SMILES IDX 10 17
REMARK H PARENT 14 11 12 13 8 16 10 18
REMARK Flexibility Score: inf
ROOT
ATOM      1  C   UNL     1      12.612 -13.087  36.533  1.00  0.00     0.281 C 
ATOM      2  C   UNL     1      11.244 -13.750  36.779  1.00  0.00     0.202 C 
ATOM      3  C   UNL     1      10.094 -12.786  36.419  1.00  0.00     0.179 C 
ATOM      4  C   UNL     1      10.321 -11.416  37.085  1.00  0.00     0.177 C 
ATOM      5  C   UNL     1      11.750 -10.912  36.786  1.00  0.00     0.178 C 
ATOM      6  O   UNL     1      12.713 -11.855  37.234  1.00  0.00    -0.341 OA
ENDROOT
BRANCH   1   7
ATOM      7  O   UNL     1      12.829 -12.917  35.141  1.00  0.00    -0.350 OA
BRANCH   7   8
ATOM      8  C   UNL     1      14.200 -12.690  34.883  1.00  0.00     0.160 C 
ATOM      9  C   UNL     1      14.381 -11.269  34.375  1.00  0.00     0.035 C 
ENDBRANCH   7   8
ENDBRANCH   1   7
BRANCH   2  10
ATOM     10  O   UNL     1      11.152 -14.120  38.131  1.00  0.00    -0.385 OA
ATOM     11  H   UNL     1      10.279 -13.783  38.464  1.00  0.00     0.211 HD
ENDBRANCH   2  10
BRANCH   3  12
ATOM     12  O   UNL     1      10.010 -12.627  35.024  1.00  0.00    -0.387 OA
ATOM     13  H   UNL     1       9.759 -11.681  34.857  1.00  0.00     0.211 HD
ENDBRANCH   3  12
BRANCH   5  14
ATOM     14  C   UNL     1      12.014  -9.576  37.497  1.00  0.00     0.191 C 
BRANCH  14  15
ATOM     15  O   UNL     1      11.413  -9.570  38.764  1.00  0.00    -0.394 OA
ATOM     16  H   UNL     1      12.091  -9.911  39.404  1.00  0.00     0.210 HD
ENDBRANCH  14  15
ENDBRANCH   5  14
BRANCH   4  17
ATOM     17  O   UNL     1       9.375 -10.491  36.609  1.00  0.00    -0.387 OA
ATOM     18  H   UNL     1       8.479 -10.868  36.814  1.00  0.00     0.211 HD
ENDBRANCH   4  17
TORSDOF 7
ENDMDL
MODEL 6
REMARK VINA RESULT:    -5.790      1.451      4.329
REMARK INTER + INTRA:          -7.717
REMARK INTER:                  -7.311
REMARK INTRA:                  -0.406
REMARK UNBOUND:                -0.235
REMARK SMILES CCO[C@H]1O[C@H](CO)[C@@H](O)[C@@H](O)[C@@H]1O
REMARK SMILES IDX 4 1 13 2 11 3 9 4 6 5 5 6 3 7 2 8 1 9 14 10 12 12 7 14 8 15
REMARK SMILES IDX 10 17
REMARK H PARENT 14 11 12 13 8 16 10 18
REMARK Flexibility Score: inf
ROOT
ATOM      1  C   UNL     1      10.438 -12.748  35.966  1.00  0.00     0.281 C 
ATOM      2  C   UNL     1      10.373 -11.905  37.253  1.00  0.00     0.202 C 
ATOM      3  C   UNL     1      11.217 -10.621  37.112  1.00  0.00     0.179 C 
ATOM      4  C   UNL     1      12.623 -10.964  36.589  1.00  0.00     0.177 C 
ATOM      5  C   UNL     1      12.518 -11.850  35.328  1.00  0.00     0.178 C 
ATOM      6  O   UNL     1      11.785 -13.033  35.612  1.00  0.00    -0.341 OA
ENDROOT
BRANCH   1   7
ATOM      7  O   UNL     1       9.749 -12.087  34.915  1.00  0.00    -0.350 OA
BRANCH   7   8
ATOM      8  C   UNL     1       8.365 -12.361  34.989  1.00  0.00     0.160 C 
ATOM      9  C   UNL     1       7.976 -13.269  33.833  1.00  0.00     0.035 C 
ENDBRANCH   7   8
ENDBRANCH   1   7
BRANCH   2  10
ATOM     10  O   UNL     1      10.850 -12.675  38.328  1.00  0.00    -0.385 OA
ATOM     11  H   UNL     1      10.915 -13.612  38.003  1.00  0.00     0.211 HD
ENDBRANCH   2  10
BRANCH   3  12
ATOM     12  O   UNL     1      10.589  -9.720  36.233  1.00  0.00    -0.387 OA
ATOM     13  H   UNL     1      10.167  -9.018  36.794  1.00  0.00     0.211 HD
ENDBRANCH   3  12
BRANCH   5  14
ATOM     14  C   UNL     1      13.913 -12.254  34.829  1.00  0.00     0.191 C 
BRANCH  14  15
ATOM     15  O   UNL     1      14.461 -11.236  34.034  1.00  0.00    -0.394 OA
ATOM     16  H   UNL     1      13.752 -10.552  33.915  1.00  0.00     0.210 HD
ENDBRANCH  14  15
ENDBRANCH   5  14
BRANCH   4  17
ATOM     17  O   UNL     1      13.322  -9.782  36.288  1.00  0.00    -0.387 OA
ATOM     18  H   UNL     1      12.646  -9.057  36.226  1.00  0.00     0.211 HD
ENDBRANCH   4  17
TORSDOF 7
ENDMDL
MODEL 7
REMARK VINA RESULT:    -5.715      1.712      4.331
REMARK INTER + INTRA:          -7.620
REMARK INTER:                  -7.214
REMARK INTRA:                  -0.406
REMARK UNBOUND:                -0.235
REMARK SMILES CCO[C@H]1O[C@H](CO)[C@@H](O)[C@@H](O)[C@@H]1O
REMARK SMILES IDX 4 1 13 2 11 3 9 4 6 5 5 6 3 7 2 8 1 9 14 10 12 12 7 14 8 15
REMARK SMILES IDX 10 17
REMARK H PARENT 14 11 12 13 8 16 10 18
REMARK Flexibility Score: inf
ROOT
ATOM      1  C   UNL     1      10.887 -12.766  36.508  1.00  0.00     0.281 C 
ATOM      2  C   UNL     1      10.576 -11.868  35.295  1.00  0.00     0.202 C 
ATOM      3  C   UNL     1      11.625 -10.745  35.160  1.00  0.00     0.179 C 
ATOM      4  C   UNL     1      11.814 -10.030  36.510  1.00  0.00     0.177 C 
ATOM      5  C   UNL     1      12.068 -11.065  37.627  1.00  0.00     0.178 C 
ATOM      6  O   UNL     1      10.996 -11.994  37.697  1.00  0.00    -0.341 OA
ENDROOT
BRANCH   1   7
ATOM      7  O   UNL     1      12.063 -13.523  36.266  1.00  0.00    -0.350 OA
BRANCH   7   8
ATOM      8  C   UNL     1      12.042 -14.715  37.024  1.00  0.00     0.160 C 
ATOM      9  C   UNL     1      10.702 -15.406  36.824  1.00  0.00     0.035 C 
ENDBRANCH   7   8
ENDBRANCH   1   7
BRANCH   2  10
ATOM     10  O   UNL     1       9.296 -11.311  35.456  1.00  0.00    -0.385 OA
ATOM     11  H   UNL     1       9.085 -11.349  36.426  1.00  0.00     0.211 HD
ENDBRANCH   2  10
BRANCH   3  12
ATOM     12  O   UNL     1      12.853 -11.275  34.727  1.00  0.00    -0.387 OA
ATOM     13  H   UNL     1      12.661 -11.822  33.921  1.00  0.00     0.211 HD
ENDBRANCH   3  12
BRANCH   5  14
ATOM     14  C   UNL     1      12.196 -10.371  38.992  1.00  0.00     0.191 C 
BRANCH  14  15
ATOM     15  O   UNL     1      11.408  -9.212  39.026  1.00  0.00    -0.394 OA
ATOM     16  H   UNL     1      11.593  -8.765  39.893  1.00  0.00     0.210 HD
ENDBRANCH  14  15
ENDBRANCH   5  14
BRANCH   4  17
ATOM     17  O   UNL     1      12.896  -9.135  36.429  1.00  0.00    -0.387 OA
ATOM     18  H   UNL     1      13.713  -9.654  36.650  1.00  0.00     0.211 HD
ENDBRANCH   4  17
TORSDOF 7
ENDMDL
MODEL 8
REMARK VINA RESULT:    -5.711      2.067      4.659
REMARK INTER + INTRA:          -7.615
REMARK INTER:                  -7.183
REMARK INTRA:                  -0.433
REMARK UNBOUND:                -0.235
REMARK SMILES CCO[C@H]1O[C@H](CO)[C@@H](O)[C@@H](O)[C@@H]1O
REMARK SMILES IDX 4 1 13 2 11 3 9 4 6 5 5 6 3 7 2 8 1 9 14 10 12 12 7 14 8 15
REMARK SMILES IDX 10 17
REMARK H PARENT 14 11 12 13 8 16 10 18
REMARK Flexibility Score: inf
ROOT
ATOM      1  C   UNL     1       9.393 -11.932  36.799  1.00  0.00     0.281 C 
ATOM      2  C   UNL     1      10.156 -13.104  36.154  1.00  0.00     0.202 C 
ATOM      3  C   UNL     1      11.391 -13.486  36.997  1.00  0.00     0.179 C 
ATOM      4  C   UNL     1      12.217 -12.230  37.328  1.00  0.00     0.177 C 
ATOM      5  C   UNL     1      11.303 -11.134  37.918  1.00  0.00     0.178 C 
ATOM      6  O   UNL     1      10.254 -10.821  37.013  1.00  0.00    -0.341 OA
ENDROOT
BRANCH   1   7
ATOM      7  O   UNL     1       8.775 -12.356  38.004  1.00  0.00    -0.350 OA
BRANCH   7   8
ATOM      8  C   UNL     1       7.710 -13.241  37.723  1.00  0.00     0.160 C 
ATOM      9  C   UNL     1       7.575 -14.234  38.866  1.00  0.00     0.035 C 
ENDBRANCH   7   8
ENDBRANCH   1   7
BRANCH   2  10
ATOM     10  O   UNL     1      10.558 -12.730  34.860  1.00  0.00    -0.385 OA
ATOM     11  H   UNL     1       9.892 -12.071  34.531  1.00  0.00     0.211 HD
ENDBRANCH   2  10
BRANCH   3  12
ATOM     12  O   UNL     1      10.990 -14.118  38.187  1.00  0.00    -0.387 OA
ATOM     13  H   UNL     1      10.246 -13.578  38.563  1.00  0.00     0.211 HD
ENDBRANCH   3  12
BRANCH   5  14
ATOM     14  C   UNL     1      12.102  -9.851  38.195  1.00  0.00     0.191 C 
BRANCH  14  15
ATOM     15  O   UNL     1      12.754  -9.941  39.434  1.00  0.00    -0.394 OA
ATOM     16  H   UNL     1      12.047  -9.951  40.130  1.00  0.00     0.210 HD
ENDBRANCH  14  15
ENDBRANCH   5  14
BRANCH   4  17
ATOM     17  O   UNL     1      13.233 -12.554  38.244  1.00  0.00    -0.387 OA
ATOM     18  H   UNL     1      13.685 -11.703  38.483  1.00  0.00     0.211 HD
ENDBRANCH   4  17
TORSDOF 7
ENDMDL
MODEL 9
REMARK VINA RESULT:    -5.702      2.079      4.532
REMARK INTER + INTRA:          -7.604
REMARK INTER:                  -7.189
REMARK INTRA:                  -0.415
REMARK UNBOUND:                -0.235
REMARK SMILES CCO[C@H]1O[C@H](CO)[C@@H](O)[C@@H](O)[C@@H]1O
REMARK SMILES IDX 4 1 13 2 11 3 9 4 6 5 5 6 3 7 2 8 1 9 14 10 12 12 7 14 8 15
REMARK SMILES IDX 10 17
REMARK H PARENT 14 11 12 13 8 16 10 18
REMARK Flexibility Score: inf
ROOT
ATOM      1  C   UNL     1       9.020 -13.835  36.248  1.00  0.00     0.281 C 
ATOM      2  C   UNL     1       8.493 -13.181  37.538  1.00  0.00     0.202 C 
ATOM      3  C   UNL     1       9.441 -12.061  38.014  1.00  0.00     0.179 C 
ATOM      4  C   UNL     1      10.892 -12.574  38.050  1.00  0.00     0.177 C 
ATOM      5  C   UNL     1      11.252 -13.243  36.706  1.00  0.00     0.178 C 
ATOM      6  O   UNL     1      10.351 -14.304  36.423  1.00  0.00    -0.341 OA
ENDROOT
BRANCH   1   7
ATOM      7  O   UNL     1       8.925 -12.924  35.164  1.00  0.00    -0.350 OA
BRANCH   7   8
ATOM      8  C   UNL     1       7.635 -12.978  34.591  1.00  0.00     0.160 C 
ATOM      9  C   UNL     1       7.714 -13.703  33.257  1.00  0.00     0.035 C 
ENDBRANCH   7   8
ENDBRANCH   1   7
BRANCH   2  10
ATOM     10  O   UNL     1       8.377 -14.166  38.535  1.00  0.00    -0.385 OA
ATOM     11  H   UNL     1       9.271 -14.591  38.624  1.00  0.00     0.211 HD
ENDBRANCH   2  10
BRANCH   3  12
ATOM     12  O   UNL     1       9.351 -10.950  37.157  1.00  0.00    -0.387 OA
ATOM     13  H   UNL     1       9.320 -11.305  36.230  1.00  0.00     0.211 HD
ENDBRANCH   3  12
BRANCH   5  14
ATOM     14  C   UNL     1      12.676 -13.816  36.748  1.00  0.00     0.191 C 
BRANCH  14  15
ATOM     15  O   UNL     1      13.043 -14.115  38.068  1.00  0.00    -0.394 OA
ATOM     16  H   UNL     1      13.777 -13.492  38.310  1.00  0.00     0.210 HD
ENDBRANCH  14  15
ENDBRANCH   5  14
BRANCH   4  17
ATOM     17  O   UNL     1      11.770 -11.505  38.305  1.00  0.00    -0.387 OA
ATOM     18  H   UNL     1      11.674 -11.280  39.268  1.00  0.00     0.211 HD
ENDBRANCH   4  17
TORSDOF 7
ENDMDL
