MODEL 1
REMARK VINA RESULT:    -4.932      0.000      0.000
REMARK INTER + INTRA:          -4.932
REMARK INTER:                  -4.932
REMARK INTRA:                   0.000
REMARK UNBOUND:                 0.000
REMARK SMILES CC(C)=C1CC[C@@H](C)CC1=O
REMARK SMILES IDX 8 1 7 2 6 3 5 4 4 5 2 6 1 7 3 8 10 9 11 10 9 11
REMARK H PARENT
REMARK Flexibility Score: inf
ROOT
ATOM      1  C   UNL     1     101.462 137.676 124.538  1.00  0.00     0.008 C 
ATOM      2  C   UNL     1     100.959 136.234 124.659  1.00  0.00    -0.006 C 
ATOM      3  C   UNL     1     101.244 135.677 126.063  1.00  0.00     0.008 C 
ATOM      4  C   UNL     1     100.655 134.271 126.236  1.00  0.00     0.039 C 
ATOM      5  C   UNL     1     101.089 133.317 125.131  1.00  0.00    -0.006 C 
ATOM      6  C   UNL     1     101.251 131.983 125.368  1.00  0.00    -0.070 C 
ATOM      7  C   UNL     1     100.990 131.392 126.735  1.00  0.00     0.039 C 
ATOM      8  C   UNL     1     101.735 131.036 124.294  1.00  0.00     0.039 C 
ATOM      9  C   UNL     1     101.208 133.908 123.764  1.00  0.00     0.159 C 
ATOM     10  O   UNL     1     100.962 133.227 122.733  1.00  0.00    -0.295 OA
ATOM     11  C   UNL     1     101.620 135.342 123.598  1.00  0.00     0.084 C 
ENDROOT
TORSDOF 0
ENDMDL
MODEL 2
REMARK VINA RESULT:    -4.469      1.075      4.054
REMARK INTER + INTRA:          -4.469
REMARK INTER:                  -4.469
REMARK INTRA:                   0.000
REMARK UNBOUND:                 0.000
REMARK SMILES CC(C)=C1CC[C@@H](C)CC1=O
REMARK SMILES IDX 8 1 7 2 6 3 5 4 4 5 2 6 1 7 3 8 10 9 11 10 9 11
REMARK H PARENT
REMARK Flexibility Score: inf
ROOT
ATOM      1  C   UNL     1     100.719 131.288 126.499  1.00  0.00     0.008 C 
ATOM      2  C   UNL     1     101.389 132.573 126.001  1.00  0.00    -0.006 C 
ATOM      3  C   UNL     1     100.568 133.806 126.411  1.00  0.00     0.008 C 
ATOM      4  C   UNL     1     101.276 135.107 126.012  1.00  0.00     0.039 C 
ATOM      5  C   UNL     1     101.668 135.129 124.541  1.00  0.00    -0.006 C 
ATOM      6  C   UNL     1     101.698 136.296 123.832  1.00  0.00    -0.070 C 
ATOM      7  C   UNL     1     101.361 137.618 124.484  1.00  0.00     0.039 C 
ATOM      8  C   UNL     1     102.032 136.324 122.358  1.00  0.00     0.039 C 
ATOM      9  C   UNL     1     102.125 133.830 123.964  1.00  0.00     0.159 C 
ATOM     10  O   UNL     1     102.992 133.788 123.051  1.00  0.00    -0.295 OA
ATOM     11  C   UNL     1     101.555 132.538 124.475  1.00  0.00     0.084 C 
ENDROOT
TORSDOF 0
ENDMDL
MODEL 3
REMARK VINA RESULT:    -4.408      3.991      6.554
REMARK INTER + INTRA:          -4.408
REMARK INTER:                  -4.408
REMARK INTRA:                   0.000
REMARK UNBOUND:                 0.000
REMARK SMILES CC(C)=C1CC[C@@H](C)CC1=O
REMARK SMILES IDX 8 1 7 2 6 3 5 4 4 5 2 6 1 7 3 8 10 9 11 10 9 11
REMARK H PARENT
REMARK Flexibility Score: inf
ROOT
ATOM      1  C   UNL     1     102.721 130.286 132.555  1.00  0.00     0.008 C 
ATOM      2  C   UNL     1     102.512 130.015 131.062  1.00  0.00    -0.006 C 
ATOM      3  C   UNL     1     103.763 130.405 130.260  1.00  0.00     0.008 C 
ATOM      4  C   UNL     1     103.611 130.045 128.776  1.00  0.00     0.039 C 
ATOM      5  C   UNL     1     102.331 130.603 128.170  1.00  0.00    -0.006 C 
ATOM      6  C   UNL     1     102.271 130.975 126.857  1.00  0.00    -0.070 C 
ATOM      7  C   UNL     1     103.469 130.831 125.946  1.00  0.00     0.039 C 
ATOM      8  C   UNL     1     101.023 131.581 126.257  1.00  0.00     0.039 C 
ATOM      9  C   UNL     1     101.131 130.606 129.058  1.00  0.00     0.159 C 
ATOM     10  O   UNL     1      99.970 130.451 128.592  1.00  0.00    -0.295 OA
ATOM     11  C   UNL     1     101.293 130.788 130.540  1.00  0.00     0.084 C 
ENDROOT
TORSDOF 0
ENDMDL
MODEL 4
REMARK VINA RESULT:    -4.395      1.643      2.565
REMARK INTER + INTRA:          -4.395
REMARK INTER:                  -4.395
REMARK INTRA:                   0.000
REMARK UNBOUND:                 0.000
REMARK SMILES CC(C)=C1CC[C@@H](C)CC1=O
REMARK SMILES IDX 8 1 7 2 6 3 5 4 4 5 2 6 1 7 3 8 10 9 11 10 9 11
REMARK H PARENT
REMARK Flexibility Score: inf
ROOT
ATOM      1  C   UNL     1     101.446 137.439 124.867  1.00  0.00     0.008 C 
ATOM      2  C   UNL     1     101.635 135.934 124.649  1.00  0.00    -0.006 C 
ATOM      3  C   UNL     1     101.406 135.568 123.175  1.00  0.00     0.008 C 
ATOM      4  C   UNL     1     101.692 134.082 122.918  1.00  0.00     0.039 C 
ATOM      5  C   UNL     1     100.932 133.169 123.871  1.00  0.00    -0.006 C 
ATOM      6  C   UNL     1     100.513 131.929 123.483  1.00  0.00    -0.070 C 
ATOM      7  C   UNL     1     100.801 131.403 122.096  1.00  0.00     0.039 C 
ATOM      8  C   UNL     1      99.711 131.036 124.402  1.00  0.00     0.039 C 
ATOM      9  C   UNL     1     100.782 133.663 125.273  1.00  0.00     0.159 C 
ATOM     10  O   UNL     1     100.750 132.867 126.248  1.00  0.00    -0.295 OA
ATOM     11  C   UNL     1     100.674 135.136 125.543  1.00  0.00     0.084 C 
ENDROOT
TORSDOF 0
ENDMDL
MODEL 5
REMARK VINA RESULT:    -4.388      1.518      4.219
REMARK INTER + INTRA:          -4.388
REMARK INTER:                  -4.388
REMARK INTRA:                   0.000
REMARK UNBOUND:                 0.000
REMARK SMILES CC(C)=C1CC[C@@H](C)CC1=O
REMARK SMILES IDX 8 1 7 2 6 3 5 4 4 5 2 6 1 7 3 8 10 9 11 10 9 11
REMARK H PARENT
REMARK Flexibility Score: inf
ROOT
ATOM      1  C   UNL     1     103.373 130.534 124.768  1.00  0.00     0.008 C 
ATOM      2  C   UNL     1     102.628 131.806 124.351  1.00  0.00    -0.006 C 
ATOM      3  C   UNL     1     103.357 133.055 124.870  1.00  0.00     0.008 C 
ATOM      4  C   UNL     1     102.683 134.342 124.375  1.00  0.00     0.039 C 
ATOM      5  C   UNL     1     101.191 134.370 124.675  1.00  0.00    -0.006 C 
ATOM      6  C   UNL     1     100.540 135.543 124.928  1.00  0.00    -0.070 C 
ATOM      7  C   UNL     1     101.271 136.866 124.905  1.00  0.00     0.039 C 
ATOM      8  C   UNL     1      99.071 135.579 125.282  1.00  0.00     0.039 C 
ATOM      9  C   UNL     1     100.473 133.065 124.558  1.00  0.00     0.159 C 
ATOM     10  O   UNL     1      99.270 133.010 124.187  1.00  0.00    -0.295 OA
ATOM     11  C   UNL     1     101.186 131.784 124.879  1.00  0.00     0.084 C 
ENDROOT
TORSDOF 0
ENDMDL
MODEL 6
REMARK VINA RESULT:    -4.339      5.698      7.619
REMARK INTER + INTRA:          -4.339
REMARK INTER:                  -4.339
REMARK INTRA:                   0.000
REMARK UNBOUND:                 0.000
REMARK SMILES CC(C)=C1CC[C@@H](C)CC1=O
REMARK SMILES IDX 8 1 7 2 6 3 5 4 4 5 2 6 1 7 3 8 10 9 11 10 9 11
REMARK H PARENT
REMARK Flexibility Score: inf
ROOT
ATOM      1  C   UNL     1     103.597 132.058 134.104  1.00  0.00     0.008 C 
ATOM      2  C   UNL     1     103.127 131.204 132.922  1.00  0.00    -0.006 C 
ATOM      3  C   UNL     1     104.159 131.239 131.785  1.00  0.00     0.008 C 
ATOM      4  C   UNL     1     103.755 130.307 130.634  1.00  0.00     0.039 C 
ATOM      5  C   UNL     1     102.336 130.568 130.145  1.00  0.00    -0.006 C 
ATOM      6  C   UNL     1     101.990 130.375 128.838  1.00  0.00    -0.070 C 
ATOM      7  C   UNL     1     102.997 129.877 127.826  1.00  0.00     0.039 C 
ATOM      8  C   UNL     1     100.601 130.683 128.328  1.00  0.00     0.039 C 
ATOM      9  C   UNL     1     101.336 130.928 131.193  1.00  0.00     0.159 C 
ATOM     10  O   UNL     1     100.126 130.594 131.086  1.00  0.00    -0.295 OA
ATOM     11  C   UNL     1     101.766 131.696 132.410  1.00  0.00     0.084 C 
ENDROOT
TORSDOF 0
ENDMDL
MODEL 7
REMARK VINA RESULT:    -4.338      3.251      5.335
REMARK INTER + INTRA:          -4.338
REMARK INTER:                  -4.338
REMARK INTRA:                   0.000
REMARK UNBOUND:                 0.000
REMARK SMILES CC(C)=C1CC[C@@H](C)CC1=O
REMARK SMILES IDX 8 1 7 2 6 3 5 4 4 5 2 6 1 7 3 8 10 9 11 10 9 11
REMARK H PARENT
REMARK Flexibility Score: inf
ROOT
ATOM      1  C   UNL     1     100.136 130.352 130.361  1.00  0.00     0.008 C 
ATOM      2  C   UNL     1     100.840 130.228 129.005  1.00  0.00    -0.006 C 
ATOM      3  C   UNL     1     102.366 130.223 129.187  1.00  0.00     0.008 C 
ATOM      4  C   UNL     1     103.087 129.995 127.851  1.00  0.00     0.039 C 
ATOM      5  C   UNL     1     102.630 130.966 126.770  1.00  0.00    -0.006 C 
ATOM      6  C   UNL     1     103.483 131.392 125.793  1.00  0.00    -0.070 C 
ATOM      7  C   UNL     1     104.913 130.904 125.733  1.00  0.00     0.039 C 
ATOM      8  C   UNL     1     103.058 132.398 124.747  1.00  0.00     0.039 C 
ATOM      9  C   UNL     1     101.180 131.322 126.778  1.00  0.00     0.159 C 
ATOM     10  O   UNL     1     100.561 131.575 125.710  1.00  0.00    -0.295 OA
ATOM     11  C   UNL     1     100.427 131.379 128.076  1.00  0.00     0.084 C 
ENDROOT
TORSDOF 0
ENDMDL
MODEL 8
REMARK VINA RESULT:    -4.327      1.798      4.237
REMARK INTER + INTRA:          -4.327
REMARK INTER:                  -4.327
REMARK INTRA:                   0.000
REMARK UNBOUND:                 0.000
REMARK SMILES CC(C)=C1CC[C@@H](C)CC1=O
REMARK SMILES IDX 8 1 7 2 6 3 5 4 4 5 2 6 1 7 3 8 10 9 11 10 9 11
REMARK H PARENT
REMARK Flexibility Score: inf
ROOT
ATOM      1  C   UNL     1     103.039 130.349 124.561  1.00  0.00     0.008 C 
ATOM      2  C   UNL     1     102.447 131.645 125.124  1.00  0.00    -0.006 C 
ATOM      3  C   UNL     1     100.940 131.722 124.835  1.00  0.00     0.008 C 
ATOM      4  C   UNL     1     100.311 132.964 125.481  1.00  0.00     0.039 C 
ATOM      5  C   UNL     1     101.043 134.247 125.112  1.00  0.00    -0.006 C 
ATOM      6  C   UNL     1     100.380 135.436 125.003  1.00  0.00    -0.070 C 
ATOM      7  C   UNL     1      98.893 135.531 125.261  1.00  0.00     0.039 C 
ATOM      8  C   UNL     1     101.085 136.706 124.584  1.00  0.00     0.039 C 
ATOM      9  C   UNL     1     102.528 134.145 124.996  1.00  0.00     0.159 C 
ATOM     10  O   UNL     1     103.277 135.114 125.293  1.00  0.00    -0.295 OA
ATOM     11  C   UNL     1     103.159 132.867 124.525  1.00  0.00     0.084 C 
ENDROOT
TORSDOF 0
ENDMDL
MODEL 9
REMARK VINA RESULT:    -4.239      1.359      4.108
REMARK INTER + INTRA:          -4.239
REMARK INTER:                  -4.239
REMARK INTRA:                   0.000
REMARK UNBOUND:                 0.000
REMARK SMILES CC(C)=C1CC[C@@H](C)CC1=O
REMARK SMILES IDX 8 1 7 2 6 3 5 4 4 5 2 6 1 7 3 8 10 9 11 10 9 11
REMARK H PARENT
REMARK Flexibility Score: inf
ROOT
ATOM      1  C   UNL     1      99.637 130.093 123.342  1.00  0.00     0.008 C 
ATOM      2  C   UNL     1     100.552 131.265 123.714  1.00  0.00    -0.006 C 
ATOM      3  C   UNL     1     100.042 131.969 124.981  1.00  0.00     0.008 C 
ATOM      4  C   UNL     1     101.002 133.080 125.429  1.00  0.00     0.039 C 
ATOM      5  C   UNL     1     101.324 134.057 124.306  1.00  0.00    -0.006 C 
ATOM      6  C   UNL     1     101.580 135.374 124.564  1.00  0.00    -0.070 C 
ATOM      7  C   UNL     1     101.571 135.912 125.977  1.00  0.00     0.039 C 
ATOM      8  C   UNL     1     101.847 136.365 123.455  1.00  0.00     0.039 C 
ATOM      9  C   UNL     1     101.458 133.468 122.941  1.00  0.00     0.159 C 
ATOM     10  O   UNL     1     102.254 133.953 122.093  1.00  0.00    -0.295 OA
ATOM     11  C   UNL     1     100.640 132.269 122.556  1.00  0.00     0.084 C 
ENDROOT
TORSDOF 0
ENDMDL
