MODEL 1
REMARK VINA RESULT:    -2.334      0.000      0.000
REMARK INTER + INTRA:          -3.024
REMARK INTER:                  -2.879
REMARK INTRA:                  -0.145
REMARK UNBOUND:                -0.145
REMARK SMILES CCCCCC(=O)[O-]
REMARK SMILES IDX 4 1 5 2 6 3 7 4 8 5 3 6 2 7 1 8
REMARK H PARENT
REMARK Flexibility Score: inf
ROOT
ATOM      1  C   UNL     1      -8.650  39.144  18.326  1.00  0.00     0.006 C 
ENDROOT
BRANCH   1   2
ATOM      2  C   UNL     1      -9.581  40.208  17.730  1.00  0.00     0.053 C 
BRANCH   2   3
ATOM      3  C   UNL     1      -9.854  39.963  16.277  1.00  0.00     0.041 C 
ATOM      4  O   UNL     1     -11.039  39.892  15.858  1.00  0.00    -0.550 OA
ATOM      5  O   UNL     1      -8.799  39.780  15.393  1.00  0.00    -0.550 OA
ENDBRANCH   2   3
ENDBRANCH   1   2
BRANCH   1   6
ATOM      6  C   UNL     1      -7.442  39.769  19.044  1.00  0.00     0.000 C 
BRANCH   6   7
ATOM      7  C   UNL     1      -6.542  40.573  18.093  1.00  0.00    -0.003 C 
ATOM      8  C   UNL     1      -5.056  40.280  18.295  1.00  0.00     0.004 C 
ENDBRANCH   6   7
ENDBRANCH   1   6
TORSDOF 4
ENDMDL
MODEL 2
REMARK VINA RESULT:    -2.294      1.838      2.683
REMARK INTER + INTRA:          -2.975
REMARK INTER:                  -2.782
REMARK INTRA:                  -0.194
REMARK UNBOUND:                -0.145
REMARK SMILES CCCCCC(=O)[O-]
REMARK SMILES IDX 4 1 5 2 6 3 7 4 8 5 3 6 2 7 1 8
REMARK H PARENT
REMARK Flexibility Score: inf
ROOT
ATOM      1  C   UNL     1      -9.053  39.779  15.732  1.00  0.00     0.006 C 
ENDROOT
BRANCH   1   2
ATOM      2  C   UNL     1     -10.263  40.526  15.154  1.00  0.00     0.053 C 
BRANCH   2   3
ATOM      3  C   UNL     1     -11.545  40.098  15.800  1.00  0.00     0.041 C 
ATOM      4  O   UNL     1     -11.656  40.106  17.054  1.00  0.00    -0.550 OA
ATOM      5  O   UNL     1     -12.606  39.660  15.018  1.00  0.00    -0.550 OA
ENDBRANCH   2   3
ENDBRANCH   1   2
BRANCH   1   6
ATOM      6  C   UNL     1      -8.042  40.734  16.389  1.00  0.00     0.000 C 
BRANCH   6   7
ATOM      7  C   UNL     1      -7.725  40.348  17.842  1.00  0.00    -0.003 C 
ATOM      8  C   UNL     1      -8.578  39.183  18.344  1.00  0.00     0.004 C 
ENDBRANCH   6   7
ENDBRANCH   1   6
TORSDOF 4
ENDMDL
MODEL 3
REMARK VINA RESULT:    -2.247      1.329      1.815
REMARK INTER + INTRA:          -2.917
REMARK INTER:                  -2.843
REMARK INTRA:                  -0.074
REMARK UNBOUND:                -0.145
REMARK SMILES CCCCCC(=O)[O-]
REMARK SMILES IDX 4 1 5 2 6 3 7 4 8 5 3 6 2 7 1 8
REMARK H PARENT
REMARK Flexibility Score: inf
ROOT
ATOM      1  C   UNL     1      -7.125  40.355  18.547  1.00  0.00     0.006 C 
ENDROOT
BRANCH   1   2
ATOM      2  C   UNL     1      -7.508  40.676  17.096  1.00  0.00     0.053 C 
BRANCH   2   3
ATOM      3  C   UNL     1      -8.733  39.931  16.664  1.00  0.00     0.041 C 
ATOM      4  O   UNL     1      -9.588  39.569  17.515  1.00  0.00    -0.550 OA
ATOM      5  O   UNL     1      -8.916  39.609  15.325  1.00  0.00    -0.550 OA
ENDBRANCH   2   3
ENDBRANCH   1   2
BRANCH   1   6
ATOM      6  C   UNL     1      -5.798  41.018  18.957  1.00  0.00     0.000 C 
BRANCH   6   7
ATOM      7  C   UNL     1      -4.643  40.657  18.009  1.00  0.00    -0.003 C 
ATOM      8  C   UNL     1      -3.308  40.502  18.737  1.00  0.00     0.004 C 
ENDBRANCH   6   7
ENDBRANCH   1   6
TORSDOF 4
ENDMDL
MODEL 4
REMARK VINA RESULT:    -2.235      2.707      4.432
REMARK INTER + INTRA:          -2.902
REMARK INTER:                  -2.825
REMARK INTRA:                  -0.077
REMARK UNBOUND:                -0.145
REMARK SMILES CCCCCC(=O)[O-]
REMARK SMILES IDX 4 1 5 2 6 3 7 4 8 5 3 6 2 7 1 8
REMARK H PARENT
REMARK Flexibility Score: inf
ROOT
ATOM      1  C   UNL     1      -8.591  39.911  16.937  1.00  0.00     0.006 C 
ENDROOT
BRANCH   1   2
ATOM      2  C   UNL     1      -7.378  40.812  17.205  1.00  0.00     0.053 C 
BRANCH   2   3
ATOM      3  C   UNL     1      -6.611  40.372  18.414  1.00  0.00     0.041 C 
ATOM      4  O   UNL     1      -7.173  40.328  19.540  1.00  0.00    -0.550 OA
ATOM      5  O   UNL     1      -5.267  40.040  18.303  1.00  0.00    -0.550 OA
ENDBRANCH   2   3
ENDBRANCH   1   2
BRANCH   1   6
ATOM      6  C   UNL     1      -8.950  39.853  15.442  1.00  0.00     0.000 C 
BRANCH   6   7
ATOM      7  C   UNL     1     -10.266  40.580  15.124  1.00  0.00    -0.003 C 
ATOM      8  C   UNL     1     -11.439  40.076  15.963  1.00  0.00     0.004 C 
ENDBRANCH   6   7
ENDBRANCH   1   6
TORSDOF 4
ENDMDL
MODEL 5
REMARK VINA RESULT:    -2.221     21.671     22.241
REMARK INTER + INTRA:          -2.885
REMARK INTER:                  -2.822
REMARK INTRA:                  -0.063
REMARK UNBOUND:                -0.145
REMARK SMILES CCCCCC(=O)[O-]
REMARK SMILES IDX 4 1 5 2 6 3 7 4 8 5 3 6 2 7 1 8
REMARK H PARENT
REMARK Flexibility Score: inf
ROOT
ATOM      1  C   UNL     1      -0.745  21.644   7.279  1.00  0.00     0.006 C 
ENDROOT
BRANCH   1   2
ATOM      2  C   UNL     1       0.544  22.367   6.867  1.00  0.00     0.053 C 
BRANCH   2   3
ATOM      3  C   UNL     1       0.533  22.749   5.419  1.00  0.00     0.041 C 
ATOM      4  O   UNL     1       1.592  22.692   4.741  1.00  0.00    -0.550 OA
ATOM      5  O   UNL     1      -0.640  23.198   4.827  1.00  0.00    -0.550 OA
ENDBRANCH   2   3
ENDBRANCH   1   2
BRANCH   1   6
ATOM      6  C   UNL     1      -0.716  21.200   8.752  1.00  0.00     0.000 C 
BRANCH   6   7
ATOM      7  C   UNL     1      -2.124  21.011   9.338  1.00  0.00    -0.003 C 
ATOM      8  C   UNL     1      -2.602  22.225  10.133  1.00  0.00     0.004 C 
ENDBRANCH   6   7
ENDBRANCH   1   6
TORSDOF 4
ENDMDL
MODEL 6
REMARK VINA RESULT:    -2.197      2.556      3.687
REMARK INTER + INTRA:          -2.855
REMARK INTER:                  -2.664
REMARK INTRA:                  -0.191
REMARK UNBOUND:                -0.145
REMARK SMILES CCCCCC(=O)[O-]
REMARK SMILES IDX 4 1 5 2 6 3 7 4 8 5 3 6 2 7 1 8
REMARK H PARENT
REMARK Flexibility Score: inf
ROOT
ATOM      1  C   UNL     1      -8.687  39.192  17.999  1.00  0.00     0.006 C 
ENDROOT
BRANCH   1   2
ATOM      2  C   UNL     1      -9.410  39.783  19.216  1.00  0.00     0.053 C 
BRANCH   2   3
ATOM      3  C   UNL     1     -10.789  39.221  19.375  1.00  0.00     0.041 C 
ATOM      4  O   UNL     1     -11.752  39.714  18.731  1.00  0.00    -0.550 OA
ATOM      5  O   UNL     1     -11.016  38.174  20.259  1.00  0.00    -0.550 OA
ENDBRANCH   2   3
ENDBRANCH   1   2
BRANCH   1   6
ATOM      6  C   UNL     1      -8.365  40.261  16.940  1.00  0.00     0.000 C 
BRANCH   6   7
ATOM      7  C   UNL     1      -8.948  39.917  15.560  1.00  0.00    -0.003 C 
ATOM      8  C   UNL     1     -10.449  40.190  15.467  1.00  0.00     0.004 C 
ENDBRANCH   6   7
ENDBRANCH   1   6
TORSDOF 4
ENDMDL
MODEL 7
REMARK VINA RESULT:    -2.185      2.008      2.507
REMARK INTER + INTRA:          -2.840
REMARK INTER:                  -2.692
REMARK INTRA:                  -0.149
REMARK UNBOUND:                -0.145
REMARK SMILES CCCCCC(=O)[O-]
REMARK SMILES IDX 4 1 5 2 6 3 7 4 8 5 3 6 2 7 1 8
REMARK H PARENT
REMARK Flexibility Score: inf
ROOT
ATOM      1  C   UNL     1      -8.391  40.058  17.177  1.00  0.00     0.006 C 
ENDROOT
BRANCH   1   2
ATOM      2  C   UNL     1      -8.704  39.143  18.369  1.00  0.00     0.053 C 
BRANCH   2   3
ATOM      3  C   UNL     1     -10.034  39.458  18.982  1.00  0.00     0.041 C 
ATOM      4  O   UNL     1     -10.616  40.540  18.710  1.00  0.00    -0.550 OA
ATOM      5  O   UNL     1     -10.615  38.570  19.878  1.00  0.00    -0.550 OA
ENDBRANCH   2   3
ENDBRANCH   1   2
BRANCH   1   6
ATOM      6  C   UNL     1      -7.077  40.833  17.370  1.00  0.00     0.000 C 
BRANCH   6   7
ATOM      7  C   UNL     1      -6.249  40.303  18.551  1.00  0.00    -0.003 C 
ATOM      8  C   UNL     1      -4.752  40.251  18.248  1.00  0.00     0.004 C 
ENDBRANCH   6   7
ENDBRANCH   1   6
TORSDOF 4
ENDMDL
MODEL 8
REMARK VINA RESULT:    -2.128     23.697     24.439
REMARK INTER + INTRA:          -2.770
REMARK INTER:                  -2.585
REMARK INTRA:                  -0.184
REMARK UNBOUND:                -0.145
REMARK SMILES CCCCCC(=O)[O-]
REMARK SMILES IDX 4 1 5 2 6 3 7 4 8 5 3 6 2 7 1 8
REMARK H PARENT
REMARK Flexibility Score: inf
ROOT
ATOM      1  C   UNL     1       6.121  24.637   6.772  1.00  0.00     0.006 C 
ENDROOT
BRANCH   1   2
ATOM      2  C   UNL     1       6.492  23.336   7.496  1.00  0.00     0.053 C 
BRANCH   2   3
ATOM      3  C   UNL     1       5.297  22.462   7.722  1.00  0.00     0.041 C 
ATOM      4  O   UNL     1       4.210  22.711   7.138  1.00  0.00    -0.550 OA
ATOM      5  O   UNL     1       5.374  21.390   8.602  1.00  0.00    -0.550 OA
ENDBRANCH   2   3
ENDBRANCH   1   2
BRANCH   1   6
ATOM      6  C   UNL     1       7.119  24.984   5.655  1.00  0.00     0.000 C 
BRANCH   6   7
ATOM      7  C   UNL     1       6.556  24.703   4.253  1.00  0.00    -0.003 C 
ATOM      8  C   UNL     1       5.031  24.591   4.239  1.00  0.00     0.004 C 
ENDBRANCH   6   7
ENDBRANCH   1   6
TORSDOF 4
ENDMDL
MODEL 9
REMARK VINA RESULT:    -2.097     23.569     24.247
REMARK INTER + INTRA:          -2.732
REMARK INTER:                  -2.501
REMARK INTRA:                  -0.231
REMARK UNBOUND:                -0.145
REMARK SMILES CCCCCC(=O)[O-]
REMARK SMILES IDX 4 1 5 2 6 3 7 4 8 5 3 6 2 7 1 8
REMARK H PARENT
REMARK Flexibility Score: inf
ROOT
ATOM      1  C   UNL     1       6.034  24.357   7.209  1.00  0.00     0.006 C 
ENDROOT
BRANCH   1   2
ATOM      2  C   UNL     1       6.004  24.630   5.699  1.00  0.00     0.053 C 
BRANCH   2   3
ATOM      3  C   UNL     1       4.678  24.283   5.094  1.00  0.00     0.041 C 
ATOM      4  O   UNL     1       3.845  23.599   5.744  1.00  0.00    -0.550 OA
ATOM      5  O   UNL     1       4.375  24.690   3.801  1.00  0.00    -0.550 OA
ENDBRANCH   2   3
ENDBRANCH   1   2
BRANCH   1   6
ATOM      6  C   UNL     1       7.079  23.294   7.585  1.00  0.00     0.000 C 
BRANCH   6   7
ATOM      7  C   UNL     1       6.554  21.861   7.401  1.00  0.00    -0.003 C 
ATOM      8  C   UNL     1       5.317  21.570   8.251  1.00  0.00     0.004 C 
ENDBRANCH   6   7
ENDBRANCH   1   6
TORSDOF 4
ENDMDL
