MODEL 1
REMARK VINA RESULT:    -8.003      0.000      0.000
REMARK INTER + INTRA:          -9.600
REMARK INTER:                  -9.641
REMARK INTRA:                   0.041
REMARK UNBOUND:                 0.041
REMARK SMILES O=c1c(O)c(-c2ccc(O)c(O)c2)oc2cc(O)cc(O)c12
REMARK SMILES IDX 5 1 3 2 2 3 1 4 22 5 20 6 19 7 17 8 16 9 15 10 14 11 6 12
REMARK SMILES IDX 7 13 8 14 9 15 13 16 11 17 10 18 12 20 4 22 21 24 18 26
REMARK H PARENT 10 19 12 21 4 23 21 25 18 27
REMARK Flexibility Score: inf
ROOT
ATOM      1  C   UNL     1     -52.747  34.768  22.031  1.00  0.00     0.180 A 
ATOM      2  C   UNL     1     -53.868  35.124  22.801  1.00  0.00     0.208 A 
ATOM      3  C   UNL     1     -53.730  36.120  23.783  1.00  0.00     0.238 A 
ATOM      4  O   UNL     1     -54.722  36.397  24.506  1.00  0.00    -0.285 OA
ATOM      5  C   UNL     1     -52.479  36.756  23.970  1.00  0.00     0.111 A 
ATOM      6  C   UNL     1     -52.236  37.804  24.908  1.00  0.00     0.134 A 
ATOM      7  C   UNL     1     -50.929  38.270  25.099  1.00  0.00     0.093 A 
ATOM      8  C   UNL     1     -49.869  37.771  24.342  1.00  0.00     0.123 A 
ATOM      9  C   UNL     1     -50.105  36.788  23.381  1.00  0.00     0.094 A 
ATOM     10  C   UNL     1     -51.393  36.278  23.193  1.00  0.00     0.146 A 
ATOM     11  O   UNL     1     -51.573  35.336  22.275  1.00  0.00    -0.452 OA
ENDROOT
BRANCH   1  12
ATOM     12  C   UNL     1     -52.821  33.746  20.961  1.00  0.00     0.025 A 
ATOM     13  C   UNL     1     -51.793  32.798  20.839  1.00  0.00     0.016 A 
ATOM     14  C   UNL     1     -51.831  31.839  19.824  1.00  0.00     0.051 A 
ATOM     15  C   UNL     1     -52.889  31.822  18.907  1.00  0.00     0.157 A 
ATOM     16  C   UNL     1     -53.871  33.738  20.026  1.00  0.00     0.062 A 
ATOM     17  C   UNL     1     -53.912  32.780  19.006  1.00  0.00     0.158 A 
BRANCH  15  18
ATOM     18  O   UNL     1     -52.925  30.862  17.897  1.00  0.00    -0.504 OA
ATOM     19  H   UNL     1     -53.683  30.827  17.225  1.00  0.00     0.293 HD
ENDBRANCH  15  18
BRANCH  17  20
ATOM     20  O   UNL     1     -54.972  32.799  18.101  1.00  0.00    -0.504 OA
ATOM     21  H   UNL     1     -54.856  32.528  17.132  1.00  0.00     0.293 HD
ENDBRANCH  17  20
ENDBRANCH   1  12
BRANCH   2  22
ATOM     22  O   UNL     1     -55.088  34.468  22.614  1.00  0.00    -0.502 OA
ATOM     23  H   UNL     1     -55.262  33.860  21.823  1.00  0.00     0.293 HD
ENDBRANCH   2  22
BRANCH   6  24
ATOM     24  O   UNL     1     -53.239  38.436  25.649  1.00  0.00    -0.507 OA
ATOM     25  H   UNL     1     -53.710  39.284  25.372  1.00  0.00     0.293 HD
ENDBRANCH   6  24
BRANCH   8  26
ATOM     26  O   UNL     1     -48.584  38.268  24.549  1.00  0.00    -0.508 OA
ATOM     27  H   UNL     1     -48.269  39.123  24.106  1.00  0.00     0.293 HD
ENDBRANCH   8  26
TORSDOF 6
ENDMDL
MODEL 2
REMARK VINA RESULT:    -7.896      1.371      6.856
REMARK INTER + INTRA:          -9.472
REMARK INTER:                  -9.484
REMARK INTRA:                   0.012
REMARK UNBOUND:                 0.041
REMARK SMILES O=c1c(O)c(-c2ccc(O)c(O)c2)oc2cc(O)cc(O)c12
REMARK SMILES IDX 5 1 3 2 2 3 1 4 22 5 20 6 19 7 17 8 16 9 15 10 14 11 6 12
REMARK SMILES IDX 7 13 8 14 9 15 13 16 11 17 10 18 12 20 4 22 21 24 18 26
REMARK H PARENT 10 19 12 21 4 23 21 25 18 27
REMARK Flexibility Score: inf
ROOT
ATOM      1  C   UNL     1     -52.547  35.643  22.235  1.00  0.00     0.180 A 
ATOM      2  C   UNL     1     -53.659  36.073  21.490  1.00  0.00     0.208 A 
ATOM      3  C   UNL     1     -54.141  35.257  20.453  1.00  0.00     0.238 A 
ATOM      4  O   UNL     1     -55.102  35.671  19.755  1.00  0.00    -0.285 OA
ATOM      5  C   UNL     1     -53.515  34.015  20.186  1.00  0.00     0.111 A 
ATOM      6  C   UNL     1     -53.944  33.091  19.186  1.00  0.00     0.134 A 
ATOM      7  C   UNL     1     -53.171  31.953  18.921  1.00  0.00     0.093 A 
ATOM      8  C   UNL     1     -52.023  31.673  19.662  1.00  0.00     0.123 A 
ATOM      9  C   UNL     1     -51.628  32.540  20.681  1.00  0.00     0.094 A 
ATOM     10  C   UNL     1     -52.358  33.702  20.944  1.00  0.00     0.146 A 
ATOM     11  O   UNL     1     -51.942  34.505  21.917  1.00  0.00    -0.452 OA
ENDROOT
BRANCH   1  12
ATOM     12  C   UNL     1     -51.998  36.436  23.358  1.00  0.00     0.025 A 
ATOM     13  C   UNL     1     -52.864  36.907  24.359  1.00  0.00     0.016 A 
ATOM     14  C   UNL     1     -52.371  37.676  25.417  1.00  0.00     0.051 A 
ATOM     15  C   UNL     1     -51.010  37.998  25.482  1.00  0.00     0.157 A 
ATOM     16  C   UNL     1     -50.636  36.780  23.416  1.00  0.00     0.062 A 
ATOM     17  C   UNL     1     -50.139  37.552  24.473  1.00  0.00     0.158 A 
BRANCH  15  18
ATOM     18  O   UNL     1     -50.521  38.764  26.540  1.00  0.00    -0.504 OA
ATOM     19  H   UNL     1     -50.529  39.777  26.509  1.00  0.00     0.293 HD
ENDBRANCH  15  18
BRANCH  17  20
ATOM     20  O   UNL     1     -48.782  37.868  24.501  1.00  0.00    -0.504 OA
ATOM     21  H   UNL     1     -48.078  37.253  24.111  1.00  0.00     0.293 HD
ENDBRANCH  17  20
ENDBRANCH   1  12
BRANCH   2  22
ATOM     22  O   UNL     1     -54.248  37.312  21.757  1.00  0.00    -0.502 OA
ATOM     23  H   UNL     1     -54.086  37.816  22.621  1.00  0.00     0.293 HD
ENDBRANCH   2  22
BRANCH   6  24
ATOM     24  O   UNL     1     -55.125  33.228  18.451  1.00  0.00    -0.507 OA
ATOM     25  H   UNL     1     -56.010  32.817  18.705  1.00  0.00     0.293 HD
ENDBRANCH   6  24
BRANCH   8  26
ATOM     26  O   UNL     1     -51.287  30.524  19.381  1.00  0.00    -0.508 OA
ATOM     27  H   UNL     1     -51.108  29.823  20.090  1.00  0.00     0.293 HD
ENDBRANCH   8  26
TORSDOF 6
ENDMDL
MODEL 3
REMARK VINA RESULT:    -7.834      1.776      6.880
REMARK INTER + INTRA:          -9.396
REMARK INTER:                  -9.765
REMARK INTRA:                   0.369
REMARK UNBOUND:                 0.041
REMARK SMILES O=c1c(O)c(-c2ccc(O)c(O)c2)oc2cc(O)cc(O)c12
REMARK SMILES IDX 5 1 3 2 2 3 1 4 22 5 20 6 19 7 17 8 16 9 15 10 14 11 6 12
REMARK SMILES IDX 7 13 8 14 9 15 13 16 11 17 10 18 12 20 4 22 21 24 18 26
REMARK H PARENT 10 19 12 21 4 23 21 25 18 27
REMARK Flexibility Score: inf
ROOT
ATOM      1  C   UNL     1     -51.495  36.123  22.451  1.00  0.00     0.180 A 
ATOM      2  C   UNL     1     -52.679  36.683  21.939  1.00  0.00     0.208 A 
ATOM      3  C   UNL     1     -53.474  35.919  21.070  1.00  0.00     0.238 A 
ATOM      4  O   UNL     1     -54.504  36.444  20.573  1.00  0.00    -0.285 OA
ATOM      5  C   UNL     1     -53.083  34.599  20.736  1.00  0.00     0.111 A 
ATOM      6  C   UNL     1     -53.833  33.721  19.896  1.00  0.00     0.134 A 
ATOM      7  C   UNL     1     -53.287  32.484  19.529  1.00  0.00     0.093 A 
ATOM      8  C   UNL     1     -52.051  32.068  20.021  1.00  0.00     0.123 A 
ATOM      9  C   UNL     1     -51.336  32.894  20.890  1.00  0.00     0.094 A 
ATOM     10  C   UNL     1     -51.839  34.148  21.245  1.00  0.00     0.146 A 
ATOM     11  O   UNL     1     -51.123  34.907  22.067  1.00  0.00    -0.452 OA
ENDROOT
BRANCH   1  12
ATOM     12  C   UNL     1     -50.619  36.858  23.392  1.00  0.00     0.025 A 
ATOM     13  C   UNL     1     -50.587  38.261  23.352  1.00  0.00     0.016 A 
ATOM     14  C   UNL     1     -49.752  38.974  24.216  1.00  0.00     0.051 A 
ATOM     15  C   UNL     1     -48.926  38.296  25.121  1.00  0.00     0.157 A 
ATOM     16  C   UNL     1     -49.774  36.180  24.288  1.00  0.00     0.062 A 
ATOM     17  C   UNL     1     -48.934  36.891  25.153  1.00  0.00     0.158 A 
BRANCH  15  18
ATOM     18  O   UNL     1     -48.096  39.011  25.983  1.00  0.00    -0.504 OA
ATOM     19  H   UNL     1     -48.117  40.023  26.022  1.00  0.00     0.293 HD
ENDBRANCH  15  18
BRANCH  17  20
ATOM     20  O   UNL     1     -48.114  36.186  26.033  1.00  0.00    -0.504 OA
ATOM     21  H   UNL     1     -47.707  35.291  25.788  1.00  0.00     0.293 HD
ENDBRANCH  17  20
ENDBRANCH   1  12
BRANCH   2  22
ATOM     22  O   UNL     1     -53.034  37.995  22.265  1.00  0.00    -0.502 OA
ATOM     23  H   UNL     1     -53.998  38.292  22.352  1.00  0.00     0.293 HD
ENDBRANCH   2  22
BRANCH   6  24
ATOM     24  O   UNL     1     -55.118  34.001  19.424  1.00  0.00    -0.507 OA
ATOM     25  H   UNL     1     -55.709  33.341  18.940  1.00  0.00     0.293 HD
ENDBRANCH   6  24
BRANCH   8  26
ATOM     26  O   UNL     1     -51.545  30.825  19.646  1.00  0.00    -0.508 OA
ATOM     27  H   UNL     1     -52.116  30.147  19.155  1.00  0.00     0.293 HD
ENDBRANCH   8  26
TORSDOF 6
ENDMDL
MODEL 4
REMARK VINA RESULT:    -7.673      1.772      6.857
REMARK INTER + INTRA:          -9.202
REMARK INTER:                  -9.463
REMARK INTRA:                   0.260
REMARK UNBOUND:                 0.041
REMARK SMILES O=c1c(O)c(-c2ccc(O)c(O)c2)oc2cc(O)cc(O)c12
REMARK SMILES IDX 5 1 3 2 2 3 1 4 22 5 20 6 19 7 17 8 16 9 15 10 14 11 6 12
REMARK SMILES IDX 7 13 8 14 9 15 13 16 11 17 10 18 12 20 4 22 21 24 18 26
REMARK H PARENT 10 19 12 21 4 23 21 25 18 27
REMARK Flexibility Score: inf
ROOT
ATOM      1  C   UNL     1     -51.314  36.262  22.742  1.00  0.00     0.180 A 
ATOM      2  C   UNL     1     -52.479  36.910  22.295  1.00  0.00     0.208 A 
ATOM      3  C   UNL     1     -53.337  36.236  21.410  1.00  0.00     0.238 A 
ATOM      4  O   UNL     1     -54.349  36.841  20.971  1.00  0.00    -0.285 OA
ATOM      5  C   UNL     1     -53.027  34.917  20.997  1.00  0.00     0.111 A 
ATOM      6  C   UNL     1     -53.844  34.126  20.135  1.00  0.00     0.134 A 
ATOM      7  C   UNL     1     -53.376  32.884  19.688  1.00  0.00     0.093 A 
ATOM      8  C   UNL     1     -52.151  32.378  20.122  1.00  0.00     0.123 A 
ATOM      9  C   UNL     1     -51.371  33.117  21.011  1.00  0.00     0.094 A 
ATOM     10  C   UNL     1     -51.795  34.376  21.446  1.00  0.00     0.146 A 
ATOM     11  O   UNL     1     -51.019  35.051  22.284  1.00  0.00    -0.452 OA
ENDROOT
BRANCH   1  12
ATOM     12  C   UNL     1     -50.376  36.899  23.694  1.00  0.00     0.025 A 
ATOM     13  C   UNL     1     -49.714  36.106  24.645  1.00  0.00     0.016 A 
ATOM     14  C   UNL     1     -48.841  36.689  25.568  1.00  0.00     0.051 A 
ATOM     15  C   UNL     1     -48.627  38.073  25.562  1.00  0.00     0.157 A 
ATOM     16  C   UNL     1     -50.175  38.291  23.705  1.00  0.00     0.062 A 
ATOM     17  C   UNL     1     -49.302  38.878  24.629  1.00  0.00     0.158 A 
BRANCH  15  18
ATOM     18  O   UNL     1     -47.754  38.651  26.482  1.00  0.00    -0.504 OA
ATOM     19  H   UNL     1     -47.375  38.122  27.259  1.00  0.00     0.293 HD
ENDBRANCH  15  18
BRANCH  17  20
ATOM     20  O   UNL     1     -49.123  40.260  24.607  1.00  0.00    -0.504 OA
ATOM     21  H   UNL     1     -49.490  40.838  23.860  1.00  0.00     0.293 HD
ENDBRANCH  17  20
ENDBRANCH   1  12
BRANCH   2  22
ATOM     22  O   UNL     1     -52.754  38.220  22.698  1.00  0.00    -0.502 OA
ATOM     23  H   UNL     1     -53.165  38.906  22.076  1.00  0.00     0.293 HD
ENDBRANCH   2  22
BRANCH   6  24
ATOM     24  O   UNL     1     -55.125  34.498  19.715  1.00  0.00    -0.507 OA
ATOM     25  H   UNL     1     -55.979  34.257  20.195  1.00  0.00     0.293 HD
ENDBRANCH   6  24
BRANCH   8  26
ATOM     26  O   UNL     1     -51.723  31.132  19.669  1.00  0.00    -0.508 OA
ATOM     27  H   UNL     1     -52.380  30.431  19.346  1.00  0.00     0.293 HD
ENDBRANCH   8  26
TORSDOF 6
ENDMDL
MODEL 5
REMARK VINA RESULT:    -7.122      7.168     11.845
REMARK INTER + INTRA:          -8.538
REMARK INTER:                  -8.211
REMARK INTRA:                  -0.328
REMARK UNBOUND:                 0.041
REMARK SMILES O=c1c(O)c(-c2ccc(O)c(O)c2)oc2cc(O)cc(O)c12
REMARK SMILES IDX 5 1 3 2 2 3 1 4 22 5 20 6 19 7 17 8 16 9 15 10 14 11 6 12
REMARK SMILES IDX 7 13 8 14 9 15 13 16 11 17 10 18 12 20 4 22 21 24 18 26
REMARK H PARENT 10 19 12 21 4 23 21 25 18 27
REMARK Flexibility Score: inf
ROOT
ATOM      1  C   UNL     1     -47.562  40.508  29.116  1.00  0.00     0.180 A 
ATOM      2  C   UNL     1     -47.209  39.408  28.313  1.00  0.00     0.208 A 
ATOM      3  C   UNL     1     -48.221  38.547  27.857  1.00  0.00     0.238 A 
ATOM      4  O   UNL     1     -47.894  37.535  27.184  1.00  0.00    -0.285 OA
ATOM      5  C   UNL     1     -49.571  38.805  28.195  1.00  0.00     0.111 A 
ATOM      6  C   UNL     1     -50.680  38.022  27.755  1.00  0.00     0.134 A 
ATOM      7  C   UNL     1     -51.960  38.292  28.257  1.00  0.00     0.093 A 
ATOM      8  C   UNL     1     -52.180  39.355  29.132  1.00  0.00     0.123 A 
ATOM      9  C   UNL     1     -51.112  40.164  29.522  1.00  0.00     0.094 A 
ATOM     10  C   UNL     1     -49.819  39.897  29.066  1.00  0.00     0.146 A 
ATOM     11  O   UNL     1     -48.829  40.685  29.470  1.00  0.00    -0.452 OA
ENDROOT
BRANCH   1  12
ATOM     12  C   UNL     1     -46.555  41.473  29.613  1.00  0.00     0.025 A 
ATOM     13  C   UNL     1     -45.936  41.248  30.854  1.00  0.00     0.016 A 
ATOM     14  C   UNL     1     -45.000  42.157  31.353  1.00  0.00     0.051 A 
ATOM     15  C   UNL     1     -44.678  43.311  30.627  1.00  0.00     0.157 A 
ATOM     16  C   UNL     1     -46.245  42.643  28.897  1.00  0.00     0.062 A 
ATOM     17  C   UNL     1     -45.308  43.557  29.395  1.00  0.00     0.158 A 
BRANCH  15  18
ATOM     18  O   UNL     1     -43.742  44.215  31.126  1.00  0.00    -0.504 OA
ATOM     19  H   UNL     1     -43.973  45.190  31.276  1.00  0.00     0.293 HD
ENDBRANCH  15  18
BRANCH  17  20
ATOM     20  O   UNL     1     -45.021  44.703  28.655  1.00  0.00    -0.504 OA
ATOM     21  H   UNL     1     -45.133  45.633  29.039  1.00  0.00     0.293 HD
ENDBRANCH  17  20
ENDBRANCH   1  12
BRANCH   2  22
ATOM     22  O   UNL     1     -45.868  39.161  28.009  1.00  0.00    -0.502 OA
ATOM     23  H   UNL     1     -45.128  39.262  28.694  1.00  0.00     0.293 HD
ENDBRANCH   2  22
BRANCH   6  24
ATOM     24  O   UNL     1     -50.585  36.994  26.812  1.00  0.00    -0.507 OA
ATOM     25  H   UNL     1     -49.722  36.560  26.520  1.00  0.00     0.293 HD
ENDBRANCH   6  24
BRANCH   8  26
ATOM     26  O   UNL     1     -53.468  39.605  29.600  1.00  0.00    -0.508 OA
ATOM     27  H   UNL     1     -54.176  38.880  29.613  1.00  0.00     0.293 HD
ENDBRANCH   8  26
TORSDOF 6
ENDMDL
MODEL 6
REMARK VINA RESULT:    -7.091      3.048      5.614
REMARK INTER + INTRA:          -8.501
REMARK INTER:                  -8.442
REMARK INTRA:                  -0.059
REMARK UNBOUND:                 0.041
REMARK SMILES O=c1c(O)c(-c2ccc(O)c(O)c2)oc2cc(O)cc(O)c12
REMARK SMILES IDX 5 1 3 2 2 3 1 4 22 5 20 6 19 7 17 8 16 9 15 10 14 11 6 12
REMARK SMILES IDX 7 13 8 14 9 15 13 16 11 17 10 18 12 20 4 22 21 24 18 26
REMARK H PARENT 10 19 12 21 4 23 21 25 18 27
REMARK Flexibility Score: inf
ROOT
ATOM      1  C   UNL     1     -50.901  37.623  25.244  1.00  0.00     0.180 A 
ATOM      2  C   UNL     1     -49.604  37.182  25.562  1.00  0.00     0.208 A 
ATOM      3  C   UNL     1     -49.043  37.552  26.796  1.00  0.00     0.238 A 
ATOM      4  O   UNL     1     -47.862  37.200  27.053  1.00  0.00    -0.285 OA
ATOM      5  C   UNL     1     -49.792  38.343  27.701  1.00  0.00     0.111 A 
ATOM      6  C   UNL     1     -49.338  38.742  28.994  1.00  0.00     0.134 A 
ATOM      7  C   UNL     1     -50.109  39.632  29.752  1.00  0.00     0.093 A 
ATOM      8  C   UNL     1     -51.345  40.086  29.293  1.00  0.00     0.123 A 
ATOM      9  C   UNL     1     -51.825  39.655  28.056  1.00  0.00     0.094 A 
ATOM     10  C   UNL     1     -51.062  38.796  27.261  1.00  0.00     0.146 A 
ATOM     11  O   UNL     1     -51.551  38.417  26.086  1.00  0.00    -0.452 OA
ENDROOT
BRANCH   1  12
ATOM     12  C   UNL     1     -51.568  37.253  23.975  1.00  0.00     0.025 A 
ATOM     13  C   UNL     1     -50.964  37.593  22.753  1.00  0.00     0.016 A 
ATOM     14  C   UNL     1     -51.586  37.274  21.544  1.00  0.00     0.051 A 
ATOM     15  C   UNL     1     -52.827  36.624  21.536  1.00  0.00     0.157 A 
ATOM     16  C   UNL     1     -52.823  36.619  23.964  1.00  0.00     0.062 A 
ATOM     17  C   UNL     1     -53.449  36.299  22.753  1.00  0.00     0.158 A 
BRANCH  15  18
ATOM     18  O   UNL     1     -53.443  36.304  20.328  1.00  0.00    -0.504 OA
ATOM     19  H   UNL     1     -53.300  36.864  19.495  1.00  0.00     0.293 HD
ENDBRANCH  15  18
BRANCH  17  20
ATOM     20  O   UNL     1     -54.690  35.664  22.781  1.00  0.00    -0.504 OA
ATOM     21  H   UNL     1     -54.947  34.955  22.105  1.00  0.00     0.293 HD
ENDBRANCH  17  20
ENDBRANCH   1  12
BRANCH   2  22
ATOM     22  O   UNL     1     -48.875  36.421  24.645  1.00  0.00    -0.502 OA
ATOM     23  H   UNL     1     -49.232  35.560  24.248  1.00  0.00     0.293 HD
ENDBRANCH   2  22
BRANCH   6  24
ATOM     24  O   UNL     1     -48.161  38.275  29.587  1.00  0.00    -0.507 OA
ATOM     25  H   UNL     1     -48.077  37.403  30.088  1.00  0.00     0.293 HD
ENDBRANCH   6  24
BRANCH   8  26
ATOM     26  O   UNL     1     -52.092  40.959  30.079  1.00  0.00    -0.508 OA
ATOM     27  H   UNL     1     -52.272  40.769  31.058  1.00  0.00     0.293 HD
ENDBRANCH   8  26
TORSDOF 6
ENDMDL
MODEL 7
REMARK VINA RESULT:    -7.086      6.518     11.903
REMARK INTER + INTRA:          -8.496
REMARK INTER:                  -8.261
REMARK INTRA:                  -0.234
REMARK UNBOUND:                 0.041
REMARK SMILES O=c1c(O)c(-c2ccc(O)c(O)c2)oc2cc(O)cc(O)c12
REMARK SMILES IDX 5 1 3 2 2 3 1 4 22 5 20 6 19 7 17 8 16 9 15 10 14 11 6 12
REMARK SMILES IDX 7 13 8 14 9 15 13 16 11 17 10 18 12 20 4 22 21 24 18 26
REMARK H PARENT 10 19 12 21 4 23 21 25 18 27
REMARK Flexibility Score: inf
ROOT
ATOM      1  C   UNL     1     -47.570  41.062  29.267  1.00  0.00     0.180 A 
ATOM      2  C   UNL     1     -48.794  40.998  29.957  1.00  0.00     0.208 A 
ATOM      3  C   UNL     1     -49.793  40.127  29.492  1.00  0.00     0.238 A 
ATOM      4  O   UNL     1     -50.905  40.113  30.080  1.00  0.00    -0.285 OA
ATOM      5  C   UNL     1     -49.549  39.321  28.353  1.00  0.00     0.111 A 
ATOM      6  C   UNL     1     -50.475  38.375  27.819  1.00  0.00     0.134 A 
ATOM      7  C   UNL     1     -50.180  37.726  26.612  1.00  0.00     0.093 A 
ATOM      8  C   UNL     1     -48.968  37.940  25.958  1.00  0.00     0.123 A 
ATOM      9  C   UNL     1     -48.031  38.819  26.503  1.00  0.00     0.094 A 
ATOM     10  C   UNL     1     -48.312  39.508  27.685  1.00  0.00     0.146 A 
ATOM     11  O   UNL     1     -47.398  40.342  28.166  1.00  0.00    -0.452 OA
ENDROOT
BRANCH   1  12
ATOM     12  C   UNL     1     -46.462  41.937  29.713  1.00  0.00     0.025 A 
ATOM     13  C   UNL     1     -45.757  41.616  30.884  1.00  0.00     0.016 A 
ATOM     14  C   UNL     1     -44.721  42.439  31.335  1.00  0.00     0.051 A 
ATOM     15  C   UNL     1     -44.385  43.602  30.630  1.00  0.00     0.157 A 
ATOM     16  C   UNL     1     -46.134  43.116  29.019  1.00  0.00     0.062 A 
ATOM     17  C   UNL     1     -45.099  43.944  29.469  1.00  0.00     0.158 A 
BRANCH  15  18
ATOM     18  O   UNL     1     -43.349  44.420  31.081  1.00  0.00    -0.504 OA
ATOM     19  H   UNL     1     -42.381  44.126  31.029  1.00  0.00     0.293 HD
ENDBRANCH  15  18
BRANCH  17  20
ATOM     20  O   UNL     1     -44.798  45.101  28.753  1.00  0.00    -0.504 OA
ATOM     21  H   UNL     1     -45.520  45.719  28.401  1.00  0.00     0.293 HD
ENDBRANCH  17  20
ENDBRANCH   1  12
BRANCH   2  22
ATOM     22  O   UNL     1     -49.020  41.819  31.065  1.00  0.00    -0.502 OA
ATOM     23  H   UNL     1     -48.841  41.512  32.014  1.00  0.00     0.293 HD
ENDBRANCH   2  22
BRANCH   6  24
ATOM     24  O   UNL     1     -51.674  38.018  28.441  1.00  0.00    -0.507 OA
ATOM     25  H   UNL     1     -51.773  37.813  29.424  1.00  0.00     0.293 HD
ENDBRANCH   6  24
BRANCH   8  26
ATOM     26  O   UNL     1     -48.701  37.267  24.768  1.00  0.00    -0.508 OA
ATOM     27  H   UNL     1     -47.755  37.155  24.422  1.00  0.00     0.293 HD
ENDBRANCH   8  26
TORSDOF 6
ENDMDL
MODEL 8
REMARK VINA RESULT:    -7.054      2.061      7.272
REMARK INTER + INTRA:          -8.456
REMARK INTER:                  -8.161
REMARK INTRA:                  -0.296
REMARK UNBOUND:                 0.041
REMARK SMILES O=c1c(O)c(-c2ccc(O)c(O)c2)oc2cc(O)cc(O)c12
REMARK SMILES IDX 5 1 3 2 2 3 1 4 22 5 20 6 19 7 17 8 16 9 15 10 14 11 6 12
REMARK SMILES IDX 7 13 8 14 9 15 13 16 11 17 10 18 12 20 4 22 21 24 18 26
REMARK H PARENT 10 19 12 21 4 23 21 25 18 27
REMARK Flexibility Score: inf
ROOT
ATOM      1  C   UNL     1     -51.021  37.469  24.105  1.00  0.00     0.180 A 
ATOM      2  C   UNL     1     -52.339  37.954  24.032  1.00  0.00     0.208 A 
ATOM      3  C   UNL     1     -53.267  37.284  23.219  1.00  0.00     0.238 A 
ATOM      4  O   UNL     1     -54.430  37.754  23.115  1.00  0.00    -0.285 OA
ATOM      5  C   UNL     1     -52.870  36.129  22.502  1.00  0.00     0.111 A 
ATOM      6  C   UNL     1     -53.738  35.349  21.679  1.00  0.00     0.134 A 
ATOM      7  C   UNL     1     -53.207  34.302  20.914  1.00  0.00     0.093 A 
ATOM      8  C   UNL     1     -51.856  33.968  20.991  1.00  0.00     0.123 A 
ATOM      9  C   UNL     1     -51.010  34.686  21.837  1.00  0.00     0.094 A 
ATOM     10  C   UNL     1     -51.504  35.759  22.585  1.00  0.00     0.146 A 
ATOM     11  O   UNL     1     -50.664  36.422  23.370  1.00  0.00    -0.452 OA
ENDROOT
BRANCH   1  12
ATOM     12  C   UNL     1     -49.995  38.106  24.961  1.00  0.00     0.025 A 
ATOM     13  C   UNL     1     -49.307  39.236  24.489  1.00  0.00     0.016 A 
ATOM     14  C   UNL     1     -48.319  39.841  25.269  1.00  0.00     0.051 A 
ATOM     15  C   UNL     1     -47.993  39.318  26.527  1.00  0.00     0.157 A 
ATOM     16  C   UNL     1     -49.650  37.572  26.215  1.00  0.00     0.062 A 
ATOM     17  C   UNL     1     -48.659  38.174  26.999  1.00  0.00     0.158 A 
BRANCH  15  18
ATOM     18  O   UNL     1     -47.008  39.925  27.305  1.00  0.00    -0.504 OA
ATOM     19  H   UNL     1     -46.049  39.596  27.298  1.00  0.00     0.293 HD
ENDBRANCH  15  18
BRANCH  17  20
ATOM     20  O   UNL     1     -48.348  37.620  28.240  1.00  0.00    -0.504 OA
ATOM     21  H   UNL     1     -47.396  37.398  28.507  1.00  0.00     0.293 HD
ENDBRANCH  17  20
ENDBRANCH   1  12
BRANCH   2  22
ATOM     22  O   UNL     1     -52.703  39.108  24.731  1.00  0.00    -0.502 OA
ATOM     23  H   UNL     1     -52.056  39.869  24.898  1.00  0.00     0.293 HD
ENDBRANCH   2  22
BRANCH   6  24
ATOM     24  O   UNL     1     -55.120  35.540  21.601  1.00  0.00    -0.507 OA
ATOM     25  H   UNL     1     -55.687  35.312  20.799  1.00  0.00     0.293 HD
ENDBRANCH   6  24
BRANCH   8  26
ATOM     26  O   UNL     1     -51.365  32.912  20.226  1.00  0.00    -0.508 OA
ATOM     27  H   UNL     1     -50.974  33.062  19.303  1.00  0.00     0.293 HD
ENDBRANCH   8  26
TORSDOF 6
ENDMDL
MODEL 9
REMARK VINA RESULT:    -7.005      1.824      3.545
REMARK INTER + INTRA:          -8.398
REMARK INTER:                  -8.072
REMARK INTRA:                  -0.326
REMARK UNBOUND:                 0.041
REMARK SMILES O=c1c(O)c(-c2ccc(O)c(O)c2)oc2cc(O)cc(O)c12
REMARK SMILES IDX 5 1 3 2 2 3 1 4 22 5 20 6 19 7 17 8 16 9 15 10 14 11 6 12
REMARK SMILES IDX 7 13 8 14 9 15 13 16 11 17 10 18 12 20 4 22 21 24 18 26
REMARK H PARENT 10 19 12 21 4 23 21 25 18 27
REMARK Flexibility Score: inf
ROOT
ATOM      1  C   UNL     1     -52.920  36.296  22.858  1.00  0.00     0.180 A 
ATOM      2  C   UNL     1     -51.791  37.116  22.687  1.00  0.00     0.208 A 
ATOM      3  C   UNL     1     -51.312  37.852  23.783  1.00  0.00     0.238 A 
ATOM      4  O   UNL     1     -50.334  38.625  23.612  1.00  0.00    -0.285 OA
ATOM      5  C   UNL     1     -51.958  37.746  25.039  1.00  0.00     0.111 A 
ATOM      6  C   UNL     1     -51.535  38.415  26.226  1.00  0.00     0.134 A 
ATOM      7  C   UNL     1     -52.326  38.340  27.381  1.00  0.00     0.093 A 
ATOM      8  C   UNL     1     -53.488  37.570  27.408  1.00  0.00     0.123 A 
ATOM      9  C   UNL     1     -53.879  36.864  26.270  1.00  0.00     0.094 A 
ATOM     10  C   UNL     1     -53.130  36.949  25.093  1.00  0.00     0.146 A 
ATOM     11  O   UNL     1     -53.543  36.269  24.030  1.00  0.00    -0.452 OA
ENDROOT
BRANCH   1  12
ATOM     12  C   UNL     1     -53.467  35.472  21.756  1.00  0.00     0.025 A 
ATOM     13  C   UNL     1     -54.570  35.942  21.024  1.00  0.00     0.016 A 
ATOM     14  C   UNL     1     -55.116  35.172  19.994  1.00  0.00     0.051 A 
ATOM     15  C   UNL     1     -54.579  33.914  19.690  1.00  0.00     0.157 A 
ATOM     16  C   UNL     1     -52.944  34.201  21.462  1.00  0.00     0.062 A 
ATOM     17  C   UNL     1     -53.490  33.425  20.432  1.00  0.00     0.158 A 
BRANCH  15  18
ATOM     18  O   UNL     1     -55.125  33.149  18.661  1.00  0.00    -0.504 OA
ATOM     19  H   UNL     1     -54.623  32.365  18.259  1.00  0.00     0.293 HD
ENDBRANCH  15  18
BRANCH  17  20
ATOM     20  O   UNL     1     -52.941  32.172  20.164  1.00  0.00    -0.504 OA
ATOM     21  H   UNL     1     -53.455  31.455  19.666  1.00  0.00     0.293 HD
ENDBRANCH  17  20
ENDBRANCH   1  12
BRANCH   2  22
ATOM     22  O   UNL     1     -51.182  37.222  21.434  1.00  0.00    -0.502 OA
ATOM     23  H   UNL     1     -51.547  37.818  20.700  1.00  0.00     0.293 HD
ENDBRANCH   2  22
BRANCH   6  24
ATOM     24  O   UNL     1     -50.342  39.136  26.333  1.00  0.00    -0.507 OA
ATOM     25  H   UNL     1     -49.818  39.257  27.187  1.00  0.00     0.293 HD
ENDBRANCH   6  24
BRANCH   8  26
ATOM     26  O   UNL     1     -54.242  37.507  28.577  1.00  0.00    -0.508 OA
ATOM     27  H   UNL     1     -54.321  36.649  29.112  1.00  0.00     0.293 HD
ENDBRANCH   8  26
TORSDOF 6
ENDMDL
