MODEL 1
REMARK VINA RESULT:    -6.858      0.000      0.000
REMARK INTER + INTRA:         -11.505
REMARK INTER:                 -10.066
REMARK INTRA:                  -1.439
REMARK UNBOUND:                -1.439
REMARK SMILES Cc1cc2c(C(C)C)c(O)c(O)c(C=O)c2c(O)c1-c1c(C)cc2c(C(C)C)c(O)c(O)c(C=O)c2c1O
REMARK SMILES IDX 1 1 2 2 3 3 4 4 16 5 13 6 11 7 9 8 5 9 17 10 19 11 20 12
REMARK SMILES IDX 37 13 21 14 36 15 23 16 22 17 24 18 33 19 25 20 31 21 29 22
REMARK SMILES IDX 38 23 34 25 35 26 26 27 27 28 28 29 32 30 30 32 18 34 6 36
REMARK SMILES IDX 7 37 8 38 14 39 15 40 10 41 12 43
REMARK H PARENT 38 24 32 31 30 33 18 35 10 42 12 44
REMARK Flexibility Score: inf
ROOT
ATOM      1  C   UNL     1      14.736 -14.441 -46.830  1.00  0.00     0.045 C 
ATOM      2  C   UNL     1      14.475 -15.481 -45.767  1.00  0.00    -0.039 A 
ATOM      3  C   UNL     1      15.238 -16.649 -45.747  1.00  0.00     0.013 A 
ATOM      4  C   UNL     1      15.040 -17.650 -44.771  1.00  0.00    -0.006 A 
ATOM      5  C   UNL     1      13.930 -17.529 -43.886  1.00  0.00     0.039 A 
ATOM      6  C   UNL     1      13.582 -18.639 -43.062  1.00  0.00     0.072 A 
ATOM      7  C   UNL     1      14.367 -19.808 -43.081  1.00  0.00     0.169 A 
ATOM      8  C   UNL     1      15.505 -19.890 -43.907  1.00  0.00     0.162 A 
ATOM      9  C   UNL     1      15.908 -18.779 -44.683  1.00  0.00     0.008 A 
ATOM     10  C   UNL     1      13.225 -16.290 -43.836  1.00  0.00     0.132 A 
ATOM     11  C   UNL     1      13.498 -15.275 -44.780  1.00  0.00     0.031 A 
ENDROOT
BRANCH  11  12
ATOM     12  C   UNL     1      12.759 -13.987 -44.733  1.00  0.00     0.031 A 
ATOM     13  C   UNL     1      11.482 -13.878 -45.324  1.00  0.00     0.132 A 
ATOM     14  C   UNL     1      13.322 -12.886 -44.067  1.00  0.00    -0.039 A 
ATOM     15  C   UNL     1      10.796 -12.626 -45.337  1.00  0.00     0.039 A 
ATOM     16  C   UNL     1      12.618 -11.683 -44.010  1.00  0.00     0.013 A 
ATOM     17  C   UNL     1      14.659 -12.999 -43.374  1.00  0.00     0.045 C 
ATOM     18  C   UNL     1      11.377 -11.511 -44.662  1.00  0.00    -0.006 A 
ATOM     19  C   UNL     1       9.525 -12.466 -45.964  1.00  0.00     0.072 A 
ATOM     20  C   UNL     1      10.686 -10.262 -44.613  1.00  0.00     0.008 A 
ATOM     21  C   UNL     1       8.787 -11.285 -45.759  1.00  0.00     0.169 A 
ATOM     22  C   UNL     1       9.334 -10.224 -45.019  1.00  0.00     0.162 A 
BRANCH  13  23
ATOM     23  O   UNL     1      10.879 -15.021 -45.859  1.00  0.00    -0.507 OA
ATOM     24  H   UNL     1      11.208 -15.965 -45.694  1.00  0.00     0.293 HD
ENDBRANCH  13  23
BRANCH  19  25
ATOM     25  C   UNL     1       8.976 -13.471 -46.906  1.00  0.00     0.264 C 
ATOM     26  O   UNL     1       8.002 -14.201 -46.583  1.00  0.00    -0.298 OA
ENDBRANCH  19  25
BRANCH  20  27
ATOM     27  C   UNL     1      11.360  -8.981 -44.089  1.00  0.00     0.017 C 
ATOM     28  C   UNL     1      10.780  -8.570 -42.732  1.00  0.00     0.012 C 
ATOM     29  C   UNL     1      11.329  -7.809 -45.089  1.00  0.00     0.012 C 
ENDBRANCH  20  27
BRANCH  21  30
ATOM     30  O   UNL     1       7.523 -11.172 -46.352  1.00  0.00    -0.504 OA
ATOM     31  H   UNL     1       6.824 -11.901 -46.337  1.00  0.00     0.293 HD
ENDBRANCH  21  30
BRANCH  22  32
ATOM     32  O   UNL     1       8.547  -9.123 -44.668  1.00  0.00    -0.504 OA
ATOM     33  H   UNL     1       7.641  -8.923 -45.066  1.00  0.00     0.293 HD
ENDBRANCH  22  32
ENDBRANCH  11  12
BRANCH  10  34
ATOM     34  O   UNL     1      12.286 -16.051 -42.827  1.00  0.00    -0.507 OA
ATOM     35  H   UNL     1      11.916 -16.770 -42.218  1.00  0.00     0.293 HD
ENDBRANCH  10  34
BRANCH   9  36
ATOM     36  C   UNL     1      17.263 -18.809 -45.414  1.00  0.00     0.017 C 
ATOM     37  C   UNL     1      17.235 -19.797 -46.584  1.00  0.00     0.012 C 
ATOM     38  C   UNL     1      18.462 -19.074 -44.484  1.00  0.00     0.012 C 
ENDBRANCH   9  36
BRANCH   6  39
ATOM     39  C   UNL     1      12.329 -18.667 -42.269  1.00  0.00     0.264 C 
ATOM     40  O   UNL     1      12.356 -18.618 -41.010  1.00  0.00    -0.298 OA
ENDBRANCH   6  39
BRANCH   8  41
ATOM     41  O   UNL     1      16.236 -21.077 -44.006  1.00  0.00    -0.504 OA
ATOM     42  H   UNL     1      16.828 -21.330 -44.783  1.00  0.00     0.293 HD
ENDBRANCH   8  41
BRANCH   7  43
ATOM     43  O   UNL     1      13.981 -20.879 -42.266  1.00  0.00    -0.504 OA
ATOM     44  H   UNL     1      14.261 -21.004 -41.304  1.00  0.00     0.293 HD
ENDBRANCH   7  43
TORSDOF 11
ENDMDL
MODEL 2
REMARK VINA RESULT:    -6.261      1.942      3.339
REMARK INTER + INTRA:         -10.628
REMARK INTER:                  -9.226
REMARK INTRA:                  -1.403
REMARK UNBOUND:                -1.439
REMARK SMILES Cc1cc2c(C(C)C)c(O)c(O)c(C=O)c2c(O)c1-c1c(C)cc2c(C(C)C)c(O)c(O)c(C=O)c2c1O
REMARK SMILES IDX 1 1 2 2 3 3 4 4 16 5 13 6 11 7 9 8 5 9 17 10 19 11 20 12
REMARK SMILES IDX 37 13 21 14 36 15 23 16 22 17 24 18 33 19 25 20 31 21 29 22
REMARK SMILES IDX 38 23 34 25 35 26 26 27 27 28 28 29 32 30 30 32 18 34 6 36
REMARK SMILES IDX 7 37 8 38 14 39 15 40 10 41 12 43
REMARK H PARENT 38 24 32 31 30 33 18 35 10 42 12 44
REMARK Flexibility Score: inf
ROOT
ATOM      1  C   UNL     1      12.593 -16.134 -43.131  1.00  0.00     0.045 C 
ATOM      2  C   UNL     1      13.577 -16.262 -44.269  1.00  0.00    -0.039 A 
ATOM      3  C   UNL     1      14.256 -17.466 -44.457  1.00  0.00     0.013 A 
ATOM      4  C   UNL     1      15.181 -17.642 -45.510  1.00  0.00    -0.006 A 
ATOM      5  C   UNL     1      15.541 -16.510 -46.296  1.00  0.00     0.039 A 
ATOM      6  C   UNL     1      16.641 -16.619 -47.197  1.00  0.00     0.072 A 
ATOM      7  C   UNL     1      17.312 -17.848 -47.349  1.00  0.00     0.169 A 
ATOM      8  C   UNL     1      16.901 -18.981 -46.619  1.00  0.00     0.162 A 
ATOM      9  C   UNL     1      15.773 -18.914 -45.770  1.00  0.00     0.008 A 
ATOM     10  C   UNL     1      14.770 -15.317 -46.174  1.00  0.00     0.132 A 
ATOM     11  C   UNL     1      13.796 -15.198 -45.158  1.00  0.00     0.031 A 
ENDROOT
BRANCH  11  12
ATOM     12  C   UNL     1      12.997 -13.952 -45.026  1.00  0.00     0.031 A 
ATOM     13  C   UNL     1      11.717 -13.862 -45.614  1.00  0.00     0.132 A 
ATOM     14  C   UNL     1      13.507 -12.874 -44.284  1.00  0.00    -0.039 A 
ATOM     15  C   UNL     1      10.973 -12.646 -45.544  1.00  0.00     0.039 A 
ATOM     16  C   UNL     1      12.747 -11.712 -44.147  1.00  0.00     0.013 A 
ATOM     17  C   UNL     1      14.846 -12.972 -43.594  1.00  0.00     0.045 C 
ATOM     18  C   UNL     1      11.500 -11.553 -44.791  1.00  0.00    -0.006 A 
ATOM     19  C   UNL     1       9.697 -12.502 -46.164  1.00  0.00     0.072 A 
ATOM     20  C   UNL     1      10.751 -10.345 -44.660  1.00  0.00     0.008 A 
ATOM     21  C   UNL     1       8.904 -11.374 -45.882  1.00  0.00     0.169 A 
ATOM     22  C   UNL     1       9.400 -10.342 -45.068  1.00  0.00     0.162 A 
BRANCH  13  23
ATOM     23  O   UNL     1      11.169 -14.993 -46.230  1.00  0.00    -0.507 OA
ATOM     24  H   UNL     1      11.614 -15.496 -46.988  1.00  0.00     0.293 HD
ENDBRANCH  13  23
BRANCH  19  25
ATOM     25  C   UNL     1       9.197 -13.465 -47.175  1.00  0.00     0.264 C 
ATOM     26  O   UNL     1       8.274 -14.276 -46.901  1.00  0.00    -0.298 OA
ENDBRANCH  19  25
BRANCH  20  27
ATOM     27  C   UNL     1      11.364  -9.073 -44.046  1.00  0.00     0.017 C 
ATOM     28  C   UNL     1      10.707  -8.740 -42.702  1.00  0.00     0.012 C 
ATOM     29  C   UNL     1      11.349  -7.857 -44.992  1.00  0.00     0.012 C 
ENDBRANCH  20  27
BRANCH  21  30
ATOM     30  O   UNL     1       7.637 -11.280 -46.471  1.00  0.00    -0.504 OA
ATOM     31  H   UNL     1       7.464 -11.381 -47.462  1.00  0.00     0.293 HD
ENDBRANCH  21  30
BRANCH  22  32
ATOM     32  O   UNL     1       8.561  -9.306 -44.646  1.00  0.00    -0.504 OA
ATOM     33  H   UNL     1       8.614  -8.357 -44.988  1.00  0.00     0.293 HD
ENDBRANCH  22  32
ENDBRANCH  11  12
BRANCH  10  34
ATOM     34  O   UNL     1      14.940 -14.268 -47.085  1.00  0.00    -0.507 OA
ATOM     35  H   UNL     1      14.503 -13.360 -46.988  1.00  0.00     0.293 HD
ENDBRANCH  10  34
BRANCH   9  36
ATOM     36  C   UNL     1      15.209 -20.204 -45.145  1.00  0.00     0.017 C 
ATOM     37  C   UNL     1      16.160 -20.759 -44.080  1.00  0.00     0.012 C 
ATOM     38  C   UNL     1      14.836 -21.282 -46.181  1.00  0.00     0.012 C 
ENDBRANCH   9  36
BRANCH   6  39
ATOM     39  C   UNL     1      17.204 -15.439 -47.897  1.00  0.00     0.264 C 
ATOM     40  O   UNL     1      17.018 -15.266 -49.131  1.00  0.00    -0.298 OA
ENDBRANCH   6  39
BRANCH   8  41
ATOM     41  O   UNL     1      17.617 -20.178 -46.690  1.00  0.00    -0.504 OA
ATOM     42  H   UNL     1      17.598 -20.820 -47.469  1.00  0.00     0.293 HD
ENDBRANCH   8  41
BRANCH   7  43
ATOM     43  O   UNL     1      18.394 -17.906 -48.235  1.00  0.00    -0.504 OA
ATOM     44  H   UNL     1      18.317 -17.992 -49.238  1.00  0.00     0.293 HD
ENDBRANCH   7  43
TORSDOF 11
ENDMDL
MODEL 3
REMARK VINA RESULT:    -6.204      8.917     10.810
REMARK INTER + INTRA:         -10.545
REMARK INTER:                  -9.126
REMARK INTRA:                  -1.419
REMARK UNBOUND:                -1.439
REMARK SMILES Cc1cc2c(C(C)C)c(O)c(O)c(C=O)c2c(O)c1-c1c(C)cc2c(C(C)C)c(O)c(O)c(C=O)c2c1O
REMARK SMILES IDX 1 1 2 2 3 3 4 4 16 5 13 6 11 7 9 8 5 9 17 10 19 11 20 12
REMARK SMILES IDX 37 13 21 14 36 15 23 16 22 17 24 18 33 19 25 20 31 21 29 22
REMARK SMILES IDX 38 23 34 25 35 26 26 27 27 28 28 29 32 30 30 32 18 34 6 36
REMARK SMILES IDX 7 37 8 38 14 39 15 40 10 41 12 43
REMARK H PARENT 38 24 32 31 30 33 18 35 10 42 12 44
REMARK Flexibility Score: inf
ROOT
ATOM      1  C   UNL     1       5.197 -21.530 -37.473  1.00  0.00     0.045 C 
ATOM      2  C   UNL     1       6.677 -21.251 -37.574  1.00  0.00    -0.039 A 
ATOM      3  C   UNL     1       7.577 -22.317 -37.603  1.00  0.00     0.013 A 
ATOM      4  C   UNL     1       8.970 -22.112 -37.703  1.00  0.00    -0.006 A 
ATOM      5  C   UNL     1       9.471 -20.781 -37.612  1.00  0.00     0.039 A 
ATOM      6  C   UNL     1      10.876 -20.582 -37.472  1.00  0.00     0.072 A 
ATOM      7  C   UNL     1      11.752 -21.684 -37.491  1.00  0.00     0.169 A 
ATOM      8  C   UNL     1      11.251 -22.991 -37.654  1.00  0.00     0.162 A 
ATOM      9  C   UNL     1       9.870 -23.207 -37.860  1.00  0.00     0.008 A 
ATOM     10  C   UNL     1       8.550 -19.695 -37.693  1.00  0.00     0.132 A 
ATOM     11  C   UNL     1       7.159 -19.936 -37.668  1.00  0.00     0.031 A 
ENDROOT
BRANCH  11  12
ATOM     12  C   UNL     1       6.199 -18.804 -37.746  1.00  0.00     0.031 A 
ATOM     13  C   UNL     1       5.826 -18.107 -36.577  1.00  0.00     0.132 A 
ATOM     14  C   UNL     1       5.690 -18.408 -38.993  1.00  0.00    -0.039 A 
ATOM     15  C   UNL     1       4.856 -17.061 -36.637  1.00  0.00     0.039 A 
ATOM     16  C   UNL     1       4.802 -17.334 -39.065  1.00  0.00     0.013 A 
ATOM     17  C   UNL     1       6.124 -19.099 -40.263  1.00  0.00     0.045 C 
ATOM     18  C   UNL     1       4.340 -16.668 -37.909  1.00  0.00    -0.006 A 
ATOM     19  C   UNL     1       4.420 -16.364 -35.472  1.00  0.00     0.072 A 
ATOM     20  C   UNL     1       3.410 -15.587 -38.002  1.00  0.00     0.008 A 
ATOM     21  C   UNL     1       3.641 -15.200 -35.602  1.00  0.00     0.169 A 
ATOM     22  C   UNL     1       3.209 -14.771 -36.868  1.00  0.00     0.162 A 
BRANCH  13  23
ATOM     23  O   UNL     1       6.449 -18.425 -35.365  1.00  0.00    -0.507 OA
ATOM     24  H   UNL     1       7.139 -17.838 -34.913  1.00  0.00     0.293 HD
ENDBRANCH  13  23
BRANCH  19  25
ATOM     25  C   UNL     1       4.687 -16.870 -34.103  1.00  0.00     0.264 C 
ATOM     26  O   UNL     1       5.411 -16.224 -33.300  1.00  0.00    -0.298 OA
ENDBRANCH  19  25
BRANCH  20  27
ATOM     27  C   UNL     1       2.667 -15.269 -39.312  1.00  0.00     0.017 C 
ATOM     28  C   UNL     1       3.277 -14.048 -40.007  1.00  0.00     0.012 C 
ATOM     29  C   UNL     1       1.143 -15.109 -39.139  1.00  0.00     0.012 C 
ENDBRANCH  20  27
BRANCH  21  30
ATOM     30  O   UNL     1       3.263 -14.511 -34.442  1.00  0.00    -0.504 OA
ATOM     31  H   UNL     1       3.293 -14.908 -33.513  1.00  0.00     0.293 HD
ENDBRANCH  21  30
BRANCH  22  32
ATOM     32  O   UNL     1       2.583 -13.531 -37.023  1.00  0.00    -0.504 OA
ATOM     33  H   UNL     1       2.751 -12.732 -36.427  1.00  0.00     0.293 HD
ENDBRANCH  22  32
ENDBRANCH  11  12
BRANCH  10  34
ATOM     34  O   UNL     1       9.015 -18.383 -37.840  1.00  0.00    -0.507 OA
ATOM     35  H   UNL     1       9.077 -17.902 -38.728  1.00  0.00     0.293 HD
ENDBRANCH  10  34
BRANCH   9  36
ATOM     36  C   UNL     1       9.366 -24.611 -38.247  1.00  0.00     0.017 C 
ATOM     37  C   UNL     1       8.463 -24.550 -39.483  1.00  0.00     0.012 C 
ATOM     38  C   UNL     1       8.682 -25.363 -37.089  1.00  0.00     0.012 C 
ENDBRANCH   9  36
BRANCH   6  39
ATOM     39  C   UNL     1      11.454 -19.251 -37.169  1.00  0.00     0.264 C 
ATOM     40  O   UNL     1      12.072 -18.595 -38.050  1.00  0.00    -0.298 OA
ENDBRANCH   6  39
BRANCH   8  41
ATOM     41  O   UNL     1      12.100 -24.099 -37.578  1.00  0.00    -0.504 OA
ATOM     42  H   UNL     1      11.958 -24.898 -36.979  1.00  0.00     0.293 HD
ENDBRANCH   8  41
BRANCH   7  43
ATOM     43  O   UNL     1      13.123 -21.444 -37.337  1.00  0.00    -0.504 OA
ATOM     44  H   UNL     1      13.857 -22.015 -37.727  1.00  0.00     0.293 HD
ENDBRANCH   7  43
TORSDOF 11
ENDMDL
MODEL 4
REMARK VINA RESULT:    -6.150      7.887     12.952
REMARK INTER + INTRA:         -10.465
REMARK INTER:                  -9.253
REMARK INTRA:                  -1.212
REMARK UNBOUND:                -1.439
REMARK SMILES Cc1cc2c(C(C)C)c(O)c(O)c(C=O)c2c(O)c1-c1c(C)cc2c(C(C)C)c(O)c(O)c(C=O)c2c1O
REMARK SMILES IDX 1 1 2 2 3 3 4 4 16 5 13 6 11 7 9 8 5 9 17 10 19 11 20 12
REMARK SMILES IDX 37 13 21 14 36 15 23 16 22 17 24 18 33 19 25 20 31 21 29 22
REMARK SMILES IDX 38 23 34 25 35 26 26 27 27 28 28 29 32 30 30 32 18 34 6 36
REMARK SMILES IDX 7 37 8 38 14 39 15 40 10 41 12 43
REMARK H PARENT 38 24 32 31 30 33 18 35 10 42 12 44
REMARK Flexibility Score: inf
ROOT
ATOM      1  C   UNL     1       8.071 -20.865 -35.303  1.00  0.00     0.045 C 
ATOM      2  C   UNL     1       7.722 -19.851 -36.366  1.00  0.00    -0.039 A 
ATOM      3  C   UNL     1       6.776 -18.863 -36.088  1.00  0.00     0.013 A 
ATOM      4  C   UNL     1       6.418 -17.887 -37.044  1.00  0.00    -0.006 A 
ATOM      5  C   UNL     1       6.922 -18.015 -38.370  1.00  0.00     0.039 A 
ATOM      6  C   UNL     1       6.384 -17.182 -39.395  1.00  0.00     0.072 A 
ATOM      7  C   UNL     1       5.419 -16.206 -39.079  1.00  0.00     0.169 A 
ATOM      8  C   UNL     1       4.980 -16.040 -37.750  1.00  0.00     0.162 A 
ATOM      9  C   UNL     1       5.547 -16.808 -36.708  1.00  0.00     0.008 A 
ATOM     10  C   UNL     1       7.967 -18.953 -38.619  1.00  0.00     0.132 A 
ATOM     11  C   UNL     1       8.358 -19.869 -37.617  1.00  0.00     0.031 A 
ENDROOT
BRANCH  11  12
ATOM     12  C   UNL     1       9.442 -20.851 -37.878  1.00  0.00     0.031 A 
ATOM     13  C   UNL     1      10.787 -20.510 -37.621  1.00  0.00     0.132 A 
ATOM     14  C   UNL     1       9.119 -22.133 -38.351  1.00  0.00    -0.039 A 
ATOM     15  C   UNL     1      11.836 -21.427 -37.930  1.00  0.00     0.039 A 
ATOM     16  C   UNL     1      10.137 -23.059 -38.580  1.00  0.00     0.013 A 
ATOM     17  C   UNL     1       7.682 -22.539 -38.574  1.00  0.00     0.045 C 
ATOM     18  C   UNL     1      11.500 -22.727 -38.415  1.00  0.00    -0.006 A 
ATOM     19  C   UNL     1      13.210 -21.103 -37.726  1.00  0.00     0.072 A 
ATOM     20  C   UNL     1      12.529 -23.682 -38.680  1.00  0.00     0.008 A 
ATOM     21  C   UNL     1      14.190 -22.107 -37.829  1.00  0.00     0.169 A 
ATOM     22  C   UNL     1      13.836 -23.408 -38.225  1.00  0.00     0.162 A 
BRANCH  13  23
ATOM     23  O   UNL     1      11.076 -19.281 -37.019  1.00  0.00    -0.507 OA
ATOM     24  H   UNL     1      10.705 -18.988 -36.123  1.00  0.00     0.293 HD
ENDBRANCH  13  23
BRANCH  19  25
ATOM     25  C   UNL     1      13.666 -19.711 -37.490  1.00  0.00     0.264 C 
ATOM     26  O   UNL     1      13.686 -18.865 -38.423  1.00  0.00    -0.298 OA
ENDBRANCH  19  25
BRANCH  20  27
ATOM     27  C   UNL     1      12.236 -25.010 -39.402  1.00  0.00     0.017 C 
ATOM     28  C   UNL     1      11.682 -24.761 -40.808  1.00  0.00     0.012 C 
ATOM     29  C   UNL     1      11.325 -25.963 -38.603  1.00  0.00     0.012 C 
ENDBRANCH  20  27
BRANCH  21  30
ATOM     30  O   UNL     1      15.527 -21.769 -37.582  1.00  0.00    -0.504 OA
ATOM     31  H   UNL     1      16.029 -22.024 -36.743  1.00  0.00     0.293 HD
ENDBRANCH  21  30
BRANCH  22  32
ATOM     32  O   UNL     1      14.770 -24.447 -38.164  1.00  0.00    -0.504 OA
ATOM     33  H   UNL     1      15.030 -25.023 -38.951  1.00  0.00     0.293 HD
ENDBRANCH  22  32
ENDBRANCH  11  12
BRANCH  10  34
ATOM     34  O   UNL     1       8.645 -18.948 -39.843  1.00  0.00    -0.507 OA
ATOM     35  H   UNL     1       8.189 -19.044 -40.742  1.00  0.00     0.293 HD
ENDBRANCH  10  34
BRANCH   9  36
ATOM     36  C   UNL     1       5.214 -16.471 -35.242  1.00  0.00     0.017 C 
ATOM     37  C   UNL     1       3.736 -16.734 -34.940  1.00  0.00     0.012 C 
ATOM     38  C   UNL     1       5.627 -15.047 -34.826  1.00  0.00     0.012 C 
ENDBRANCH   9  36
BRANCH   6  39
ATOM     39  C   UNL     1       6.705 -17.391 -40.827  1.00  0.00     0.264 C 
ATOM     40  O   UNL     1       7.470 -16.601 -41.443  1.00  0.00    -0.298 OA
ENDBRANCH   6  39
BRANCH   8  41
ATOM     41  O   UNL     1       3.955 -15.142 -37.441  1.00  0.00    -0.504 OA
ATOM     42  H   UNL     1       2.980 -15.275 -37.666  1.00  0.00     0.293 HD
ENDBRANCH   8  41
BRANCH   7  43
ATOM     43  O   UNL     1       4.908 -15.419 -40.118  1.00  0.00    -0.504 OA
ATOM     44  H   UNL     1       4.038 -14.908 -40.083  1.00  0.00     0.293 HD
ENDBRANCH   7  43
TORSDOF 11
ENDMDL
MODEL 5
REMARK VINA RESULT:    -6.082      4.115      7.362
REMARK INTER + INTRA:         -10.365
REMARK INTER:                  -9.099
REMARK INTRA:                  -1.265
REMARK UNBOUND:                -1.439
REMARK SMILES Cc1cc2c(C(C)C)c(O)c(O)c(C=O)c2c(O)c1-c1c(C)cc2c(C(C)C)c(O)c(O)c(C=O)c2c1O
REMARK SMILES IDX 1 1 2 2 3 3 4 4 16 5 13 6 11 7 9 8 5 9 17 10 19 11 20 12
REMARK SMILES IDX 37 13 21 14 36 15 23 16 22 17 24 18 33 19 25 20 31 21 29 22
REMARK SMILES IDX 38 23 34 25 35 26 26 27 27 28 28 29 32 30 30 32 18 34 6 36
REMARK SMILES IDX 7 37 8 38 14 39 15 40 10 41 12 43
REMARK H PARENT 38 24 32 31 30 33 18 35 10 42 12 44
REMARK Flexibility Score: inf
ROOT
ATOM      1  C   UNL     1       8.367 -14.381 -48.331  1.00  0.00     0.045 C 
ATOM      2  C   UNL     1       7.616 -15.105 -47.240  1.00  0.00    -0.039 A 
ATOM      3  C   UNL     1       6.814 -16.199 -47.568  1.00  0.00     0.013 A 
ATOM      4  C   UNL     1       6.096 -16.915 -46.585  1.00  0.00    -0.006 A 
ATOM      5  C   UNL     1       6.070 -16.407 -45.255  1.00  0.00     0.039 A 
ATOM      6  C   UNL     1       5.163 -16.981 -44.316  1.00  0.00     0.072 A 
ATOM      7  C   UNL     1       4.358 -18.075 -44.688  1.00  0.00     0.169 A 
ATOM      8  C   UNL     1       4.444 -18.616 -45.986  1.00  0.00     0.162 A 
ATOM      9  C   UNL     1       5.382 -18.106 -46.913  1.00  0.00     0.008 A 
ATOM     10  C   UNL     1       6.973 -15.361 -44.902  1.00  0.00     0.132 A 
ATOM     11  C   UNL     1       7.737 -14.713 -45.898  1.00  0.00     0.031 A 
ENDROOT
BRANCH  11  12
ATOM     12  C   UNL     1       8.673 -13.618 -45.532  1.00  0.00     0.031 A 
ATOM     13  C   UNL     1      10.013 -13.910 -45.200  1.00  0.00     0.132 A 
ATOM     14  C   UNL     1       8.227 -12.287 -45.551  1.00  0.00    -0.039 A 
ATOM     15  C   UNL     1      10.898 -12.869 -44.786  1.00  0.00     0.039 A 
ATOM     16  C   UNL     1       9.112 -11.259 -45.224  1.00  0.00     0.013 A 
ATOM     17  C   UNL     1       6.815 -11.947 -45.964  1.00  0.00     0.045 C 
ATOM     18  C   UNL     1      10.436 -11.518 -44.804  1.00  0.00    -0.006 A 
ATOM     19  C   UNL     1      12.246 -13.130 -44.399  1.00  0.00     0.072 A 
ATOM     20  C   UNL     1      11.318 -10.453 -44.447  1.00  0.00     0.008 A 
ATOM     21  C   UNL     1      13.143 -12.061 -44.218  1.00  0.00     0.169 A 
ATOM     22  C   UNL     1      12.696 -10.732 -44.323  1.00  0.00     0.162 A 
BRANCH  13  23
ATOM     23  O   UNL     1      10.475 -15.225 -45.321  1.00  0.00    -0.507 OA
ATOM     24  H   UNL     1      10.509 -15.885 -44.554  1.00  0.00     0.293 HD
ENDBRANCH  13  23
BRANCH  19  25
ATOM     25  C   UNL     1      12.728 -14.498 -44.092  1.00  0.00     0.264 C 
ATOM     26  O   UNL     1      13.510 -15.103 -44.873  1.00  0.00    -0.298 OA
ENDBRANCH  19  25
BRANCH  20  27
ATOM     27  C   UNL     1      10.811  -9.014 -44.244  1.00  0.00     0.017 C 
ATOM     28  C   UNL     1      11.615  -8.023 -45.093  1.00  0.00     0.012 C 
ATOM     29  C   UNL     1      10.763  -8.574 -42.768  1.00  0.00     0.012 C 
ENDBRANCH  20  27
BRANCH  21  30
ATOM     30  O   UNL     1      14.471 -12.348 -43.880  1.00  0.00    -0.504 OA
ATOM     31  H   UNL     1      15.129 -11.661 -43.538  1.00  0.00     0.293 HD
ENDBRANCH  21  30
BRANCH  22  32
ATOM     32  O   UNL     1      13.609  -9.674 -44.315  1.00  0.00    -0.504 OA
ATOM     33  H   UNL     1      13.995  -9.250 -45.147  1.00  0.00     0.293 HD
ENDBRANCH  22  32
ENDBRANCH  11  12
BRANCH  10  34
ATOM     34  O   UNL     1       7.143 -14.995 -43.562  1.00  0.00    -0.507 OA
ATOM     35  H   UNL     1       6.638 -14.240 -43.115  1.00  0.00     0.293 HD
ENDBRANCH  10  34
BRANCH   9  36
ATOM     36  C   UNL     1       5.612 -18.839 -48.248  1.00  0.00     0.017 C 
ATOM     37  C   UNL     1       4.415 -18.660 -49.187  1.00  0.00     0.012 C 
ATOM     38  C   UNL     1       5.979 -20.326 -48.083  1.00  0.00     0.012 C 
ENDBRANCH   9  36
BRANCH   6  39
ATOM     39  C   UNL     1       4.931 -16.381 -42.980  1.00  0.00     0.264 C 
ATOM     40  O   UNL     1       5.419 -16.902 -41.941  1.00  0.00    -0.298 OA
ENDBRANCH   6  39
BRANCH   8  41
ATOM     41  O   UNL     1       3.583 -19.638 -46.396  1.00  0.00    -0.504 OA
ATOM     42  H   UNL     1       2.999 -20.184 -45.781  1.00  0.00     0.293 HD
ENDBRANCH   8  41
BRANCH   7  43
ATOM     43  O   UNL     1       3.472 -18.599 -43.738  1.00  0.00    -0.504 OA
ATOM     44  H   UNL     1       3.336 -19.582 -43.556  1.00  0.00     0.293 HD
ENDBRANCH   7  43
TORSDOF 11
ENDMDL
MODEL 6
REMARK VINA RESULT:    -6.050      1.520      9.080
REMARK INTER + INTRA:         -10.318
REMARK INTER:                  -9.148
REMARK INTRA:                  -1.170
REMARK UNBOUND:                -1.439
REMARK SMILES Cc1cc2c(C(C)C)c(O)c(O)c(C=O)c2c(O)c1-c1c(C)cc2c(C(C)C)c(O)c(O)c(C=O)c2c1O
REMARK SMILES IDX 1 1 2 2 3 3 4 4 16 5 13 6 11 7 9 8 5 9 17 10 19 11 20 12
REMARK SMILES IDX 37 13 21 14 36 15 23 16 22 17 24 18 33 19 25 20 31 21 29 22
REMARK SMILES IDX 38 23 34 25 35 26 26 27 27 28 28 29 32 30 30 32 18 34 6 36
REMARK SMILES IDX 7 37 8 38 14 39 15 40 10 41 12 43
REMARK H PARENT 38 24 32 31 30 33 18 35 10 42 12 44
REMARK Flexibility Score: inf
ROOT
ATOM      1  C   UNL     1      10.936 -16.772 -47.016  1.00  0.00     0.045 C 
ATOM      2  C   UNL     1      10.938 -15.452 -46.282  1.00  0.00    -0.039 A 
ATOM      3  C   UNL     1       9.897 -14.547 -46.496  1.00  0.00     0.013 A 
ATOM      4  C   UNL     1       9.847 -13.302 -45.831  1.00  0.00    -0.006 A 
ATOM      5  C   UNL     1      10.967 -12.902 -45.048  1.00  0.00     0.039 A 
ATOM      6  C   UNL     1      11.031 -11.560 -44.571  1.00  0.00     0.072 A 
ATOM      7  C   UNL     1       9.968 -10.670 -44.819  1.00  0.00     0.169 A 
ATOM      8  C   UNL     1       8.831 -11.098 -45.533  1.00  0.00     0.162 A 
ATOM      9  C   UNL     1       8.717 -12.441 -45.958  1.00  0.00     0.008 A 
ATOM     10  C   UNL     1      11.972 -13.868 -44.745  1.00  0.00     0.132 A 
ATOM     11  C   UNL     1      11.954 -15.135 -45.368  1.00  0.00     0.031 A 
ENDROOT
BRANCH  11  12
ATOM     12  C   UNL     1      13.005 -16.139 -45.058  1.00  0.00     0.031 A 
ATOM     13  C   UNL     1      12.802 -17.087 -44.032  1.00  0.00     0.132 A 
ATOM     14  C   UNL     1      14.188 -16.163 -45.814  1.00  0.00    -0.039 A 
ATOM     15  C   UNL     1      13.834 -18.012 -43.689  1.00  0.00     0.039 A 
ATOM     16  C   UNL     1      15.166 -17.118 -45.532  1.00  0.00     0.013 A 
ATOM     17  C   UNL     1      14.399 -15.199 -46.956  1.00  0.00     0.045 C 
ATOM     18  C   UNL     1      15.036 -18.027 -44.459  1.00  0.00    -0.006 A 
ATOM     19  C   UNL     1      13.684 -18.954 -42.628  1.00  0.00     0.072 A 
ATOM     20  C   UNL     1      16.061 -18.979 -44.170  1.00  0.00     0.008 A 
ATOM     21  C   UNL     1      14.625 -19.989 -42.472  1.00  0.00     0.169 A 
ATOM     22  C   UNL     1      15.764 -20.044 -43.293  1.00  0.00     0.162 A 
BRANCH  13  23
ATOM     23  O   UNL     1      11.563 -17.137 -43.385  1.00  0.00    -0.507 OA
ATOM     24  H   UNL     1      10.765 -17.657 -43.730  1.00  0.00     0.293 HD
ENDBRANCH  13  23
BRANCH  19  25
ATOM     25  C   UNL     1      12.607 -18.839 -41.616  1.00  0.00     0.264 C 
ATOM     26  O   UNL     1      11.632 -19.636 -41.609  1.00  0.00    -0.298 OA
ENDBRANCH  19  25
BRANCH  20  27
ATOM     27  C   UNL     1      17.452 -18.896 -44.825  1.00  0.00     0.017 C 
ATOM     28  C   UNL     1      17.609 -19.958 -45.918  1.00  0.00     0.012 C 
ATOM     29  C   UNL     1      18.617 -18.954 -43.818  1.00  0.00     0.012 C 
ENDBRANCH  20  27
BRANCH  21  30
ATOM     30  O   UNL     1      14.430 -20.925 -41.449  1.00  0.00    -0.504 OA
ATOM     31  H   UNL     1      13.580 -21.456 -41.322  1.00  0.00     0.293 HD
ENDBRANCH  21  30
BRANCH  22  32
ATOM     32  O   UNL     1      16.610 -21.156 -43.259  1.00  0.00    -0.504 OA
ATOM     33  H   UNL     1      17.416 -21.239 -42.656  1.00  0.00     0.293 HD
ENDBRANCH  22  32
ENDBRANCH  11  12
BRANCH  10  34
ATOM     34  O   UNL     1      12.962 -13.586 -43.796  1.00  0.00    -0.507 OA
ATOM     35  H   UNL     1      13.920 -13.905 -43.868  1.00  0.00     0.293 HD
ENDBRANCH  10  34
BRANCH   9  36
ATOM     36  C   UNL     1       7.386 -12.945 -46.548  1.00  0.00     0.017 C 
ATOM     37  C   UNL     1       6.663 -13.869 -45.563  1.00  0.00     0.012 C 
ATOM     38  C   UNL     1       7.534 -13.606 -47.932  1.00  0.00     0.012 C 
ENDBRANCH   9  36
BRANCH   6  39
ATOM     39  C   UNL     1      12.249 -11.011 -43.927  1.00  0.00     0.264 C 
ATOM     40  O   UNL     1      12.786  -9.952 -44.350  1.00  0.00    -0.298 OA
ENDBRANCH   6  39
BRANCH   8  41
ATOM     41  O   UNL     1       7.814 -10.199 -45.868  1.00  0.00    -0.504 OA
ATOM     42  H   UNL     1       7.199 -10.290 -46.663  1.00  0.00     0.293 HD
ENDBRANCH   8  41
BRANCH   7  43
ATOM     43  O   UNL     1      10.078  -9.358 -44.344  1.00  0.00    -0.504 OA
ATOM     44  H   UNL     1      10.567  -9.086 -43.503  1.00  0.00     0.293 HD
ENDBRANCH   7  43
TORSDOF 11
ENDMDL
MODEL 7
REMARK VINA RESULT:    -6.046      2.108      9.111
REMARK INTER + INTRA:         -10.313
REMARK INTER:                  -9.054
REMARK INTRA:                  -1.259
REMARK UNBOUND:                -1.439
REMARK SMILES Cc1cc2c(C(C)C)c(O)c(O)c(C=O)c2c(O)c1-c1c(C)cc2c(C(C)C)c(O)c(O)c(C=O)c2c1O
REMARK SMILES IDX 1 1 2 2 3 3 4 4 16 5 13 6 11 7 9 8 5 9 17 10 19 11 20 12
REMARK SMILES IDX 37 13 21 14 36 15 23 16 22 17 24 18 33 19 25 20 31 21 29 22
REMARK SMILES IDX 38 23 34 25 35 26 26 27 27 28 28 29 32 30 30 32 18 34 6 36
REMARK SMILES IDX 7 37 8 38 14 39 15 40 10 41 12 43
REMARK H PARENT 38 24 32 31 30 33 18 35 10 42 12 44
REMARK Flexibility Score: inf
ROOT
ATOM      1  C   UNL     1      14.539 -13.012 -43.520  1.00  0.00     0.045 C 
ATOM      2  C   UNL     1      13.211 -12.794 -44.206  1.00  0.00    -0.039 A 
ATOM      3  C   UNL     1      12.515 -11.604 -43.992  1.00  0.00     0.013 A 
ATOM      4  C   UNL     1      11.273 -11.347 -44.614  1.00  0.00    -0.006 A 
ATOM      5  C   UNL     1      10.650 -12.395 -45.350  1.00  0.00     0.039 A 
ATOM      6  C   UNL     1       9.300 -12.228 -45.778  1.00  0.00     0.072 A 
ATOM      7  C   UNL     1       8.624 -11.018 -45.530  1.00  0.00     0.169 A 
ATOM      8  C   UNL     1       9.275  -9.960 -44.864  1.00  0.00     0.162 A 
ATOM      9  C   UNL     1      10.632 -10.078 -44.489  1.00  0.00     0.008 A 
ATOM     10  C   UNL     1      11.409 -13.563 -45.658  1.00  0.00     0.132 A 
ATOM     11  C   UNL     1      12.683 -13.758 -45.080  1.00  0.00     0.031 A 
ENDROOT
BRANCH  11  12
ATOM     12  C   UNL     1      13.472 -14.977 -45.394  1.00  0.00     0.031 A 
ATOM     13  C   UNL     1      14.370 -14.982 -46.482  1.00  0.00     0.132 A 
ATOM     14  C   UNL     1      13.344 -16.116 -44.582  1.00  0.00    -0.039 A 
ATOM     15  C   UNL     1      15.082 -16.171 -46.826  1.00  0.00     0.039 A 
ATOM     16  C   UNL     1      14.098 -17.254 -44.869  1.00  0.00     0.013 A 
ATOM     17  C   UNL     1      12.436 -16.112 -43.376  1.00  0.00     0.045 C 
ATOM     18  C   UNL     1      14.943 -17.326 -45.998  1.00  0.00    -0.006 A 
ATOM     19  C   UNL     1      15.964 -16.228 -47.945  1.00  0.00     0.072 A 
ATOM     20  C   UNL     1      15.687 -18.511 -46.290  1.00  0.00     0.008 A 
ATOM     21  C   UNL     1      16.811 -17.339 -48.114  1.00  0.00     0.169 A 
ATOM     22  C   UNL     1      16.727 -18.437 -47.241  1.00  0.00     0.162 A 
BRANCH  13  23
ATOM     23  O   UNL     1      14.587 -13.797 -47.193  1.00  0.00    -0.507 OA
ATOM     24  H   UNL     1      14.889 -12.929 -46.767  1.00  0.00     0.293 HD
ENDBRANCH  13  23
BRANCH  19  25
ATOM     25  C   UNL     1      15.967 -15.189 -49.003  1.00  0.00     0.264 C 
ATOM     26  O   UNL     1      15.065 -15.151 -49.881  1.00  0.00    -0.298 OA
ENDBRANCH  19  25
BRANCH  20  27
ATOM     27  C   UNL     1      15.412 -19.839 -45.562  1.00  0.00     0.017 C 
ATOM     28  C   UNL     1      16.533 -20.164 -44.570  1.00  0.00     0.012 C 
ATOM     29  C   UNL     1      15.145 -21.024 -46.511  1.00  0.00     0.012 C 
ENDBRANCH  20  27
BRANCH  21  30
ATOM     30  O   UNL     1      17.698 -17.350 -49.198  1.00  0.00    -0.504 OA
ATOM     31  H   UNL     1      17.651 -16.704 -49.974  1.00  0.00     0.293 HD
ENDBRANCH  21  30
BRANCH  22  32
ATOM     32  O   UNL     1      17.674 -19.463 -47.296  1.00  0.00    -0.504 OA
ATOM     33  H   UNL     1      17.466 -20.438 -47.133  1.00  0.00     0.293 HD
ENDBRANCH  22  32
ENDBRANCH  11  12
BRANCH  10  34
ATOM     34  O   UNL     1      10.919 -14.507 -46.566  1.00  0.00    -0.507 OA
ATOM     35  H   UNL     1      10.093 -14.367 -47.135  1.00  0.00     0.293 HD
ENDBRANCH  10  34
BRANCH   9  36
ATOM     36  C   UNL     1      11.388  -8.846 -43.956  1.00  0.00     0.017 C 
ATOM     37  C   UNL     1      10.746  -8.323 -42.667  1.00  0.00     0.012 C 
ATOM     38  C   UNL     1      11.552  -7.723 -44.997  1.00  0.00     0.012 C 
ENDBRANCH   9  36
BRANCH   6  39
ATOM     39  C   UNL     1       8.519 -13.342 -46.367  1.00  0.00     0.264 C 
ATOM     40  O   UNL     1       8.201 -13.339 -47.587  1.00  0.00    -0.298 OA
ENDBRANCH   6  39
BRANCH   8  41
ATOM     41  O   UNL     1       8.585  -8.792 -44.528  1.00  0.00    -0.504 OA
ATOM     42  H   UNL     1       7.932  -8.705 -43.764  1.00  0.00     0.293 HD
ENDBRANCH   8  41
BRANCH   7  43
ATOM     43  O   UNL     1       7.295 -10.902 -45.956  1.00  0.00    -0.504 OA
ATOM     44  H   UNL     1       6.540 -10.533 -45.397  1.00  0.00     0.293 HD
ENDBRANCH   7  43
TORSDOF 11
ENDMDL
MODEL 8
REMARK VINA RESULT:    -5.939      0.985      9.000
REMARK INTER + INTRA:         -10.156
REMARK INTER:                  -8.748
REMARK INTRA:                  -1.408
REMARK UNBOUND:                -1.439
REMARK SMILES Cc1cc2c(C(C)C)c(O)c(O)c(C=O)c2c(O)c1-c1c(C)cc2c(C(C)C)c(O)c(O)c(C=O)c2c1O
REMARK SMILES IDX 1 1 2 2 3 3 4 4 16 5 13 6 11 7 9 8 5 9 17 10 19 11 20 12
REMARK SMILES IDX 37 13 21 14 36 15 23 16 22 17 24 18 33 19 25 20 31 21 29 22
REMARK SMILES IDX 38 23 34 25 35 26 26 27 27 28 28 29 32 30 30 32 18 34 6 36
REMARK SMILES IDX 7 37 8 38 14 39 15 40 10 41 12 43
REMARK H PARENT 38 24 32 31 30 33 18 35 10 42 12 44
REMARK Flexibility Score: inf
ROOT
ATOM      1  C   UNL     1      14.639 -13.302 -43.519  1.00  0.00     0.045 C 
ATOM      2  C   UNL     1      13.321 -13.119 -44.233  1.00  0.00    -0.039 A 
ATOM      3  C   UNL     1      12.599 -11.939 -44.048  1.00  0.00     0.013 A 
ATOM      4  C   UNL     1      11.365 -11.713 -44.697  1.00  0.00    -0.006 A 
ATOM      5  C   UNL     1      10.775 -12.782 -45.430  1.00  0.00     0.039 A 
ATOM      6  C   UNL     1       9.431 -12.647 -45.886  1.00  0.00     0.072 A 
ATOM      7  C   UNL     1       8.728 -11.446 -45.667  1.00  0.00     0.169 A 
ATOM      8  C   UNL     1       9.346 -10.368 -45.003  1.00  0.00     0.162 A 
ATOM      9  C   UNL     1      10.698 -10.455 -44.602  1.00  0.00     0.008 A 
ATOM     10  C   UNL     1      11.562 -13.940 -45.707  1.00  0.00     0.132 A 
ATOM     11  C   UNL     1      12.828 -14.103 -45.103  1.00  0.00     0.031 A 
ENDROOT
BRANCH  11  12
ATOM     12  C   UNL     1      13.645 -15.312 -45.385  1.00  0.00     0.031 A 
ATOM     13  C   UNL     1      13.512 -16.464 -44.581  1.00  0.00     0.132 A 
ATOM     14  C   UNL     1      14.526 -15.316 -46.479  1.00  0.00    -0.039 A 
ATOM     15  C   UNL     1      14.340 -17.604 -44.809  1.00  0.00     0.039 A 
ATOM     16  C   UNL     1      15.279 -16.458 -46.752  1.00  0.00     0.013 A 
ATOM     17  C   UNL     1      14.637 -14.117 -47.390  1.00  0.00     0.045 C 
ATOM     18  C   UNL     1      15.237 -17.598 -45.920  1.00  0.00    -0.006 A 
ATOM     19  C   UNL     1      14.267 -18.769 -43.989  1.00  0.00     0.072 A 
ATOM     20  C   UNL     1      16.036 -18.748 -46.202  1.00  0.00     0.008 A 
ATOM     21  C   UNL     1      14.932 -19.945 -44.382  1.00  0.00     0.169 A 
ATOM     22  C   UNL     1      15.745 -19.953 -45.528  1.00  0.00     0.162 A 
BRANCH  13  23
ATOM     23  O   UNL     1      12.531 -16.490 -43.584  1.00  0.00    -0.507 OA
ATOM     24  H   UNL     1      11.546 -16.326 -43.755  1.00  0.00     0.293 HD
ENDBRANCH  13  23
BRANCH  19  25
ATOM     25  C   UNL     1      13.579 -18.768 -42.675  1.00  0.00     0.264 C 
ATOM     26  O   UNL     1      12.482 -19.366 -42.516  1.00  0.00    -0.298 OA
ENDBRANCH  19  25
BRANCH  20  27
ATOM     27  C   UNL     1      17.164 -18.713 -47.249  1.00  0.00     0.017 C 
ATOM     28  C   UNL     1      18.080 -17.504 -47.031  1.00  0.00     0.012 C 
ATOM     29  C   UNL     1      16.663 -18.779 -48.705  1.00  0.00     0.012 C 
ENDBRANCH  20  27
BRANCH  21  30
ATOM     30  O   UNL     1      14.809 -21.087 -43.580  1.00  0.00    -0.504 OA
ATOM     31  H   UNL     1      13.970 -21.647 -43.519  1.00  0.00     0.293 HD
ENDBRANCH  21  30
BRANCH  22  32
ATOM     32  O   UNL     1      16.269 -21.153 -46.019  1.00  0.00    -0.504 OA
ATOM     33  H   UNL     1      15.823 -22.053 -45.912  1.00  0.00     0.293 HD
ENDBRANCH  22  32
ENDBRANCH  11  12
BRANCH  10  34
ATOM     34  O   UNL     1      11.106 -14.905 -46.612  1.00  0.00    -0.507 OA
ATOM     35  H   UNL     1      11.675 -15.667 -46.960  1.00  0.00     0.293 HD
ENDBRANCH  10  34
BRANCH   9  36
ATOM     36  C   UNL     1      11.421  -9.203 -44.071  1.00  0.00     0.017 C 
ATOM     37  C   UNL     1      10.863  -8.783 -42.707  1.00  0.00     0.012 C 
ATOM     38  C   UNL     1      11.424  -8.024 -45.063  1.00  0.00     0.012 C 
ENDBRANCH   9  36
BRANCH   6  39
ATOM     39  C   UNL     1       8.682 -13.783 -46.474  1.00  0.00     0.264 C 
ATOM     40  O   UNL     1       8.400 -13.808 -47.702  1.00  0.00    -0.298 OA
ENDBRANCH   6  39
BRANCH   8  41
ATOM     41  O   UNL     1       8.629  -9.209 -44.697  1.00  0.00    -0.504 OA
ATOM     42  H   UNL     1       9.035  -8.294 -44.563  1.00  0.00     0.293 HD
ENDBRANCH   8  41
BRANCH   7  43
ATOM     43  O   UNL     1       7.406 -11.361 -46.120  1.00  0.00    -0.504 OA
ATOM     44  H   UNL     1       7.125 -11.001 -47.020  1.00  0.00     0.293 HD
ENDBRANCH   7  43
TORSDOF 11
ENDMDL
MODEL 9
REMARK VINA RESULT:    -5.906      8.371     13.418
REMARK INTER + INTRA:         -10.108
REMARK INTER:                  -8.891
REMARK INTRA:                  -1.217
REMARK UNBOUND:                -1.439
REMARK SMILES Cc1cc2c(C(C)C)c(O)c(O)c(C=O)c2c(O)c1-c1c(C)cc2c(C(C)C)c(O)c(O)c(C=O)c2c1O
REMARK SMILES IDX 1 1 2 2 3 3 4 4 16 5 13 6 11 7 9 8 5 9 17 10 19 11 20 12
REMARK SMILES IDX 37 13 21 14 36 15 23 16 22 17 24 18 33 19 25 20 31 21 29 22
REMARK SMILES IDX 38 23 34 25 35 26 26 27 27 28 28 29 32 30 30 32 18 34 6 36
REMARK SMILES IDX 7 37 8 38 14 39 15 40 10 41 12 43
REMARK H PARENT 38 24 32 31 30 33 18 35 10 42 12 44
REMARK Flexibility Score: inf
ROOT
ATOM      1  C   UNL     1       6.489 -18.248 -40.238  1.00  0.00     0.045 C 
ATOM      2  C   UNL     1       5.956 -17.786 -38.903  1.00  0.00    -0.039 A 
ATOM      3  C   UNL     1       4.972 -16.797 -38.862  1.00  0.00     0.013 A 
ATOM      4  C   UNL     1       4.434 -16.333 -37.641  1.00  0.00    -0.006 A 
ATOM      5  C   UNL     1       5.027 -16.776 -36.424  1.00  0.00     0.039 A 
ATOM      6  C   UNL     1       4.655 -16.138 -35.205  1.00  0.00     0.072 A 
ATOM      7  C   UNL     1       3.668 -15.133 -35.204  1.00  0.00     0.169 A 
ATOM      8  C   UNL     1       3.036 -14.753 -36.405  1.00  0.00     0.162 A 
ATOM      9  C   UNL     1       3.341 -15.417 -37.615  1.00  0.00     0.008 A 
ATOM     10  C   UNL     1       5.951 -17.862 -36.466  1.00  0.00     0.132 A 
ATOM     11  C   UNL     1       6.413 -18.357 -37.706  1.00  0.00     0.031 A 
ENDROOT
BRANCH  11  12
ATOM     12  C   UNL     1       7.381 -19.484 -37.750  1.00  0.00     0.031 A 
ATOM     13  C   UNL     1       8.768 -19.228 -37.795  1.00  0.00     0.132 A 
ATOM     14  C   UNL     1       6.911 -20.806 -37.714  1.00  0.00    -0.039 A 
ATOM     15  C   UNL     1       9.699 -20.306 -37.902  1.00  0.00     0.039 A 
ATOM     16  C   UNL     1       7.822 -21.862 -37.739  1.00  0.00     0.013 A 
ATOM     17  C   UNL     1       5.434 -21.102 -37.604  1.00  0.00     0.045 C 
ATOM     18  C   UNL     1       9.212 -21.647 -37.869  1.00  0.00    -0.006 A 
ATOM     19  C   UNL     1      11.105 -20.086 -37.995  1.00  0.00     0.072 A 
ATOM     20  C   UNL     1      10.127 -22.743 -37.920  1.00  0.00     0.008 A 
ATOM     21  C   UNL     1      11.994 -21.169 -37.871  1.00  0.00     0.169 A 
ATOM     22  C   UNL     1      11.503 -22.481 -37.752  1.00  0.00     0.162 A 
BRANCH  13  23
ATOM     23  O   UNL     1       9.222 -17.909 -37.689  1.00  0.00    -0.507 OA
ATOM     24  H   UNL     1       9.092 -17.330 -36.869  1.00  0.00     0.293 HD
ENDBRANCH  13  23
BRANCH  19  25
ATOM     25  C   UNL     1      11.677 -18.753 -38.305  1.00  0.00     0.264 C 
ATOM     26  O   UNL     1      12.447 -18.588 -39.289  1.00  0.00    -0.298 OA
ENDBRANCH  19  25
BRANCH  20  27
ATOM     27  C   UNL     1       9.644 -24.194 -38.103  1.00  0.00     0.017 C 
ATOM     28  C   UNL     1       8.779 -24.331 -39.359  1.00  0.00     0.012 C 
ATOM     29  C   UNL     1       8.929 -24.771 -36.866  1.00  0.00     0.012 C 
ENDBRANCH  20  27
BRANCH  21  30
ATOM     30  O   UNL     1      13.371 -20.919 -37.923  1.00  0.00    -0.504 OA
ATOM     31  H   UNL     1      14.061 -21.447 -37.408  1.00  0.00     0.293 HD
ENDBRANCH  21  30
BRANCH  22  32
ATOM     32  O   UNL     1      12.369 -23.538 -37.459  1.00  0.00    -0.504 OA
ATOM     33  H   UNL     1      12.080 -24.408 -37.033  1.00  0.00     0.293 HD
ENDBRANCH  22  32
ENDBRANCH  11  12
BRANCH  10  34
ATOM     34  O   UNL     1       6.376 -18.476 -35.283  1.00  0.00    -0.507 OA
ATOM     35  H   UNL     1       7.336 -18.479 -34.962  1.00  0.00     0.293 HD
ENDBRANCH  10  34
BRANCH   9  36
ATOM     36  C   UNL     1       2.497 -15.139 -38.873  1.00  0.00     0.017 C 
ATOM     37  C   UNL     1       2.783 -13.741 -39.430  1.00  0.00     0.012 C 
ATOM     38  C   UNL     1       0.987 -15.362 -38.666  1.00  0.00     0.012 C 
ENDBRANCH   9  36
BRANCH   6  39
ATOM     39  C   UNL     1       5.369 -16.399 -33.932  1.00  0.00     0.264 C 
ATOM     40  O   UNL     1       4.884 -17.173 -33.062  1.00  0.00    -0.298 OA
ENDBRANCH   6  39
BRANCH   8  41
ATOM     41  O   UNL     1       2.127 -13.693 -36.432  1.00  0.00    -0.504 OA
ATOM     42  H   UNL     1       1.730 -13.291 -37.269  1.00  0.00     0.293 HD
ENDBRANCH   8  41
BRANCH   7  43
ATOM     43  O   UNL     1       3.343 -14.524 -33.987  1.00  0.00    -0.504 OA
ATOM     44  H   UNL     1       2.719 -14.913 -33.294  1.00  0.00     0.293 HD
ENDBRANCH   7  43
TORSDOF 11
ENDMDL
