MODEL 1
REMARK VINA RESULT:    -3.848      0.000      0.000
REMARK INTER + INTRA:          -4.853
REMARK INTER:                  -4.635
REMARK INTRA:                  -0.218
REMARK UNBOUND:                -0.218
REMARK SMILES NC(=O)C[C@@H]([NH3+])C(=O)[O-]
REMARK SMILES IDX 4 1 5 2 6 3 7 7 8 8 9 9 2 10 3 11 1 12
REMARK H PARENT 6 4 6 5 6 6 1 13 1 14
REMARK Flexibility Score: inf
ROOT
ATOM      1  C   UNL     1      74.117  -8.834 -23.830  1.00  0.00     0.171 C 
ENDROOT
BRANCH   1   2
ATOM      2  C   UNL     1      73.631  -8.725 -25.291  1.00  0.00     0.237 C 
BRANCH   2   3
ATOM      3  N   UNL     1      72.886  -7.481 -25.526  1.00  0.00    -0.350 N 
ATOM      4  H   UNL     1      73.193  -6.753 -24.839  1.00  0.00     0.345 HD
ATOM      5  H   UNL     1      73.086  -7.125 -26.488  1.00  0.00     0.345 HD
ATOM      6  H   UNL     1      71.856  -7.629 -25.423  1.00  0.00     0.345 HD
ENDBRANCH   2   3
BRANCH   2   7
ATOM      7  C   UNL     1      74.774  -8.868 -26.264  1.00  0.00     0.100 C 
ATOM      8  O   UNL     1      74.584  -9.419 -27.380  1.00  0.00    -0.544 OA
ATOM      9  O   UNL     1      76.053  -8.443 -25.922  1.00  0.00    -0.544 OA
ENDBRANCH   2   7
ENDBRANCH   1   2
BRANCH   1  10
ATOM     10  C   UNL     1      72.999  -8.800 -22.826  1.00  0.00     0.223 C 
ATOM     11  O   UNL     1      72.184  -7.839 -22.827  1.00  0.00    -0.275 OA
ATOM     12  N   UNL     1      72.864  -9.838 -21.855  1.00  0.00    -0.369 N 
ATOM     13  H   UNL     1      72.094  -9.803 -21.151  1.00  0.00     0.159 HD
ATOM     14  H   UNL     1      73.531 -10.640 -21.836  1.00  0.00     0.159 HD
ENDBRANCH   1  10
TORSDOF 4
ENDMDL
MODEL 2
REMARK VINA RESULT:    -3.427      1.918      2.407
REMARK INTER + INTRA:          -4.347
REMARK INTER:                  -4.117
REMARK INTRA:                  -0.230
REMARK UNBOUND:                -0.218
REMARK SMILES NC(=O)C[C@@H]([NH3+])C(=O)[O-]
REMARK SMILES IDX 4 1 5 2 6 3 7 7 8 8 9 9 2 10 3 11 1 12
REMARK H PARENT 6 4 6 5 6 6 1 13 1 14
REMARK Flexibility Score: inf
ROOT
ATOM      1  C   UNL     1      73.653  -8.452 -26.016  1.00  0.00     0.171 C 
ENDROOT
BRANCH   1   2
ATOM      2  C   UNL     1      74.778  -9.302 -26.645  1.00  0.00     0.237 C 
BRANCH   2   3
ATOM      3  N   UNL     1      74.377  -9.863 -27.943  1.00  0.00    -0.350 N 
ATOM      4  H   UNL     1      75.224 -10.199 -28.456  1.00  0.00     0.345 HD
ATOM      5  H   UNL     1      73.740 -10.678 -27.794  1.00  0.00     0.345 HD
ATOM      6  H   UNL     1      73.887  -9.149 -28.529  1.00  0.00     0.345 HD
ENDBRANCH   2   3
BRANCH   2   7
ATOM      7  C   UNL     1      76.060  -8.517 -26.765  1.00  0.00     0.100 C 
ATOM      8  O   UNL     1      76.908  -8.554 -25.834  1.00  0.00    -0.544 OA
ATOM      9  O   UNL     1      76.296  -7.708 -27.870  1.00  0.00    -0.544 OA
ENDBRANCH   2   7
ENDBRANCH   1   2
BRANCH   1  10
ATOM     10  C   UNL     1      73.461  -8.712 -24.548  1.00  0.00     0.223 C 
ATOM     11  O   UNL     1      72.395  -9.246 -24.140  1.00  0.00    -0.275 OA
ATOM     12  N   UNL     1      74.468  -8.340 -23.608  1.00  0.00    -0.369 N 
ATOM     13  H   UNL     1      74.325  -8.509 -22.588  1.00  0.00     0.159 HD
ATOM     14  H   UNL     1      75.356  -7.894 -23.926  1.00  0.00     0.159 HD
ENDBRANCH   1  10
TORSDOF 4
ENDMDL
MODEL 3
REMARK VINA RESULT:    -3.407      2.350      3.142
REMARK INTER + INTRA:          -4.322
REMARK INTER:                  -4.088
REMARK INTRA:                  -0.234
REMARK UNBOUND:                -0.218
REMARK SMILES NC(=O)C[C@@H]([NH3+])C(=O)[O-]
REMARK SMILES IDX 4 1 5 2 6 3 7 7 8 8 9 9 2 10 3 11 1 12
REMARK H PARENT 6 4 6 5 6 6 1 13 1 14
REMARK Flexibility Score: inf
ROOT
ATOM      1  C   UNL     1      74.730  -8.961 -26.349  1.00  0.00     0.171 C 
ENDROOT
BRANCH   1   2
ATOM      2  C   UNL     1      76.022  -8.129 -26.492  1.00  0.00     0.237 C 
BRANCH   2   3
ATOM      3  N   UNL     1      77.123  -8.691 -25.700  1.00  0.00    -0.350 N 
ATOM      4  H   UNL     1      78.022  -8.227 -25.967  1.00  0.00     0.345 HD
ATOM      5  H   UNL     1      76.954  -8.514 -24.683  1.00  0.00     0.345 HD
ATOM      6  H   UNL     1      77.216  -9.721 -25.856  1.00  0.00     0.345 HD
ENDBRANCH   2   3
BRANCH   2   7
ATOM      7  C   UNL     1      76.418  -7.971 -27.939  1.00  0.00     0.100 C 
ATOM      8  O   UNL     1      76.745  -6.838 -28.381  1.00  0.00    -0.544 OA
ATOM      9  O   UNL     1      76.377  -9.055 -28.808  1.00  0.00    -0.544 OA
ENDBRANCH   2   7
ENDBRANCH   1   2
BRANCH   1  10
ATOM     10  C   UNL     1      73.885  -8.552 -25.174  1.00  0.00     0.223 C 
ATOM     11  O   UNL     1      74.412  -8.433 -24.036  1.00  0.00    -0.275 OA
ATOM     12  N   UNL     1      72.486  -8.318 -25.334  1.00  0.00    -0.369 N 
ATOM     13  H   UNL     1      71.901  -8.048 -24.513  1.00  0.00     0.159 HD
ATOM     14  H   UNL     1      72.033  -8.415 -26.269  1.00  0.00     0.159 HD
ENDBRANCH   1  10
TORSDOF 4
ENDMDL
MODEL 4
REMARK VINA RESULT:    -3.389      2.024      2.792
REMARK INTER + INTRA:          -4.301
REMARK INTER:                  -4.198
REMARK INTRA:                  -0.103
REMARK UNBOUND:                -0.218
REMARK SMILES NC(=O)C[C@@H]([NH3+])C(=O)[O-]
REMARK SMILES IDX 4 1 5 2 6 3 7 7 8 8 9 9 2 10 3 11 1 12
REMARK H PARENT 6 4 6 5 6 6 1 13 1 14
REMARK Flexibility Score: inf
ROOT
ATOM      1  C   UNL     1      75.328  -8.551 -25.522  1.00  0.00     0.171 C 
ENDROOT
BRANCH   1   2
ATOM      2  C   UNL     1      75.172  -8.465 -27.055  1.00  0.00     0.237 C 
BRANCH   2   3
ATOM      3  N   UNL     1      76.099  -7.488 -27.643  1.00  0.00    -0.350 N 
ATOM      4  H   UNL     1      75.582  -6.875 -28.315  1.00  0.00     0.345 HD
ATOM      5  H   UNL     1      76.499  -6.884 -26.890  1.00  0.00     0.345 HD
ATOM      6  H   UNL     1      76.879  -7.964 -28.152  1.00  0.00     0.345 HD
ENDBRANCH   2   3
BRANCH   2   7
ATOM      7  C   UNL     1      75.327  -9.820 -27.701  1.00  0.00     0.100 C 
ATOM      8  O   UNL     1      76.355 -10.510 -27.471  1.00  0.00    -0.544 OA
ATOM      9  O   UNL     1      74.371 -10.294 -28.590  1.00  0.00    -0.544 OA
ENDBRANCH   2   7
ENDBRANCH   1   2
BRANCH   1  10
ATOM     10  C   UNL     1      74.018  -8.492 -24.786  1.00  0.00     0.223 C 
ATOM     11  O   UNL     1      74.006  -8.487 -23.526  1.00  0.00    -0.275 OA
ATOM     12  N   UNL     1      72.784  -8.465 -25.504  1.00  0.00    -0.369 N 
ATOM     13  H   UNL     1      71.876  -8.438 -24.990  1.00  0.00     0.159 HD
ATOM     14  H   UNL     1      72.774  -8.472 -26.548  1.00  0.00     0.159 HD
ENDBRANCH   1  10
TORSDOF 4
ENDMDL
MODEL 5
REMARK VINA RESULT:    -3.384      1.685      4.162
REMARK INTER + INTRA:          -4.294
REMARK INTER:                  -4.009
REMARK INTRA:                  -0.285
REMARK UNBOUND:                -0.218
REMARK SMILES NC(=O)C[C@@H]([NH3+])C(=O)[O-]
REMARK SMILES IDX 4 1 5 2 6 3 7 7 8 8 9 9 2 10 3 11 1 12
REMARK H PARENT 6 4 6 5 6 6 1 13 1 14
REMARK Flexibility Score: inf
ROOT
ATOM      1  C   UNL     1      75.030  -8.514 -25.159  1.00  0.00     0.171 C 
ENDROOT
BRANCH   1   2
ATOM      2  C   UNL     1      73.628  -8.042 -24.719  1.00  0.00     0.237 C 
BRANCH   2   3
ATOM      3  N   UNL     1      72.586  -8.475 -25.660  1.00  0.00    -0.350 N 
ATOM      4  H   UNL     1      72.720  -9.487 -25.890  1.00  0.00     0.345 HD
ATOM      5  H   UNL     1      71.644  -8.362 -25.221  1.00  0.00     0.345 HD
ATOM      6  H   UNL     1      72.620  -7.920 -26.545  1.00  0.00     0.345 HD
ENDBRANCH   2   3
BRANCH   2   7
ATOM      7  C   UNL     1      73.312  -8.489 -23.313  1.00  0.00     0.100 C 
ATOM      8  O   UNL     1      74.095  -9.272 -22.713  1.00  0.00    -0.544 OA
ATOM      9  O   UNL     1      72.137  -8.089 -22.689  1.00  0.00    -0.544 OA
ENDBRANCH   2   7
ENDBRANCH   1   2
BRANCH   1  10
ATOM     10  C   UNL     1      75.143  -8.741 -26.641  1.00  0.00     0.223 C 
ATOM     11  O   UNL     1      74.694  -9.803 -27.149  1.00  0.00    -0.275 OA
ATOM     12  N   UNL     1      75.776  -7.771 -27.476  1.00  0.00    -0.369 N 
ATOM     13  H   UNL     1      75.865  -7.938 -28.503  1.00  0.00     0.159 HD
ATOM     14  H   UNL     1      76.157  -6.887 -27.073  1.00  0.00     0.159 HD
ENDBRANCH   1  10
TORSDOF 4
ENDMDL
MODEL 6
REMARK VINA RESULT:    -3.355      2.717      4.488
REMARK INTER + INTRA:          -4.259
REMARK INTER:                  -4.013
REMARK INTRA:                  -0.246
REMARK UNBOUND:                -0.218
REMARK SMILES NC(=O)C[C@@H]([NH3+])C(=O)[O-]
REMARK SMILES IDX 4 1 5 2 6 3 7 7 8 8 9 9 2 10 3 11 1 12
REMARK H PARENT 6 4 6 5 6 6 1 13 1 14
REMARK Flexibility Score: inf
ROOT
ATOM      1  C   UNL     1      76.188  -8.558 -25.816  1.00  0.00     0.171 C 
ENDROOT
BRANCH   1   2
ATOM      2  C   UNL     1      74.710  -8.502 -26.256  1.00  0.00     0.237 C 
BRANCH   2   3
ATOM      3  N   UNL     1      74.356  -9.633 -27.124  1.00  0.00    -0.350 N 
ATOM      4  H   UNL     1      74.069  -9.276 -28.065  1.00  0.00     0.345 HD
ATOM      5  H   UNL     1      75.187 -10.254 -27.251  1.00  0.00     0.345 HD
ATOM      6  H   UNL     1      73.570 -10.191 -26.720  1.00  0.00     0.345 HD
ENDBRANCH   2   3
BRANCH   2   7
ATOM      7  C   UNL     1      73.785  -8.417 -25.068  1.00  0.00     0.100 C 
ATOM      8  O   UNL     1      72.560  -8.180 -25.242  1.00  0.00    -0.544 OA
ATOM      9  O   UNL     1      74.277  -8.546 -23.775  1.00  0.00    -0.544 OA
ENDBRANCH   2   7
ENDBRANCH   1   2
BRANCH   1  10
ATOM     10  C   UNL     1      77.130  -7.940 -26.812  1.00  0.00     0.223 C 
ATOM     11  O   UNL     1      77.054  -8.260 -28.028  1.00  0.00    -0.275 OA
ATOM     12  N   UNL     1      78.125  -7.008 -26.387  1.00  0.00    -0.369 N 
ATOM     13  H   UNL     1      78.786  -6.592 -27.080  1.00  0.00     0.159 HD
ATOM     14  H   UNL     1      78.204  -6.734 -25.384  1.00  0.00     0.159 HD
ENDBRANCH   1  10
TORSDOF 4
ENDMDL
MODEL 7
REMARK VINA RESULT:    -3.224      2.673      4.473
REMARK INTER + INTRA:          -4.102
REMARK INTER:                  -3.877
REMARK INTRA:                  -0.225
REMARK UNBOUND:                -0.218
REMARK SMILES NC(=O)C[C@@H]([NH3+])C(=O)[O-]
REMARK SMILES IDX 4 1 5 2 6 3 7 7 8 8 9 9 2 10 3 11 1 12
REMARK H PARENT 6 4 6 5 6 6 1 13 1 14
REMARK Flexibility Score: inf
ROOT
ATOM      1  C   UNL     1      74.467  -9.077 -27.184  1.00  0.00     0.171 C 
ENDROOT
BRANCH   1   2
ATOM      2  C   UNL     1      74.970  -9.035 -25.725  1.00  0.00     0.237 C 
BRANCH   2   3
ATOM      3  N   UNL     1      76.262  -8.344 -25.614  1.00  0.00    -0.350 N 
ATOM      4  H   UNL     1      76.996  -9.020 -25.301  1.00  0.00     0.345 HD
ATOM      5  H   UNL     1      76.542  -7.966 -26.547  1.00  0.00     0.345 HD
ATOM      6  H   UNL     1      76.213  -7.557 -24.926  1.00  0.00     0.345 HD
ENDBRANCH   2   3
BRANCH   2   7
ATOM      7  C   UNL     1      73.943  -8.423 -24.805  1.00  0.00     0.100 C 
ATOM      8  O   UNL     1      72.999  -7.741 -25.284  1.00  0.00    -0.544 OA
ATOM      9  O   UNL     1      74.056  -8.558 -23.427  1.00  0.00    -0.544 OA
ENDBRANCH   2   7
ENDBRANCH   1   2
BRANCH   1  10
ATOM     10  C   UNL     1      74.887 -10.316 -27.924  1.00  0.00     0.223 C 
ATOM     11  O   UNL     1      76.004 -10.845 -27.677  1.00  0.00    -0.275 OA
ATOM     12  N   UNL     1      74.040 -10.887 -28.921  1.00  0.00    -0.369 N 
ATOM     13  H   UNL     1      74.342 -11.740 -29.443  1.00  0.00     0.159 HD
ATOM     14  H   UNL     1      73.114 -10.461 -29.141  1.00  0.00     0.159 HD
ENDBRANCH   1  10
TORSDOF 4
ENDMDL
MODEL 8
REMARK VINA RESULT:    -3.153     11.212     11.648
REMARK INTER + INTRA:          -4.017
REMARK INTER:                  -3.739
REMARK INTRA:                  -0.278
REMARK UNBOUND:                -0.218
REMARK SMILES NC(=O)C[C@@H]([NH3+])C(=O)[O-]
REMARK SMILES IDX 4 1 5 2 6 3 7 7 8 8 9 9 2 10 3 11 1 12
REMARK H PARENT 6 4 6 5 6 6 1 13 1 14
REMARK Flexibility Score: inf
ROOT
ATOM      1  C   UNL     1      77.857 -19.767 -21.865  1.00  0.00     0.171 C 
ENDROOT
BRANCH   1   2
ATOM      2  C   UNL     1      76.694 -19.586 -22.864  1.00  0.00     0.237 C 
BRANCH   2   3
ATOM      3  N   UNL     1      75.617 -18.760 -22.304  1.00  0.00    -0.350 N 
ATOM      4  H   UNL     1      75.611 -18.851 -21.261  1.00  0.00     0.345 HD
ATOM      5  H   UNL     1      75.780 -17.755 -22.543  1.00  0.00     0.345 HD
ATOM      6  H   UNL     1      74.683 -19.052 -22.673  1.00  0.00     0.345 HD
ENDBRANCH   2   3
BRANCH   2   7
ATOM      7  C   UNL     1      77.180 -19.028 -24.179  1.00  0.00     0.100 C 
ATOM      8  O   UNL     1      76.804 -17.886 -24.553  1.00  0.00    -0.544 OA
ATOM      9  O   UNL     1      77.998 -19.783 -25.010  1.00  0.00    -0.544 OA
ENDBRANCH   2   7
ENDBRANCH   1   2
BRANCH   1  10
ATOM     10  C   UNL     1      77.399 -20.102 -20.473  1.00  0.00     0.223 C 
ATOM     11  O   UNL     1      76.436 -20.898 -20.305  1.00  0.00    -0.275 OA
ATOM     12  N   UNL     1      78.032 -19.509 -19.339  1.00  0.00    -0.369 N 
ATOM     13  H   UNL     1      77.702 -19.734 -18.375  1.00  0.00     0.159 HD
ATOM     14  H   UNL     1      78.828 -18.845 -19.460  1.00  0.00     0.159 HD
ENDBRANCH   1  10
TORSDOF 4
ENDMDL
MODEL 9
REMARK VINA RESULT:    -3.105     11.694     12.395
REMARK INTER + INTRA:          -3.959
REMARK INTER:                  -3.676
REMARK INTRA:                  -0.283
REMARK UNBOUND:                -0.218
REMARK SMILES NC(=O)C[C@@H]([NH3+])C(=O)[O-]
REMARK SMILES IDX 4 1 5 2 6 3 7 7 8 8 9 9 2 10 3 11 1 12
REMARK H PARENT 6 4 6 5 6 6 1 13 1 14
REMARK Flexibility Score: inf
ROOT
ATOM      1  C   UNL     1      78.125 -20.095 -23.994  1.00  0.00     0.171 C 
ENDROOT
BRANCH   1   2
ATOM      2  C   UNL     1      77.478 -19.433 -22.758  1.00  0.00     0.237 C 
BRANCH   2   3
ATOM      3  N   UNL     1      76.022 -19.310 -22.905  1.00  0.00    -0.350 N 
ATOM      4  H   UNL     1      75.803 -18.632 -23.671  1.00  0.00     0.345 HD
ATOM      5  H   UNL     1      75.613 -20.237 -23.163  1.00  0.00     0.345 HD
ATOM      6  H   UNL     1      75.578 -18.974 -22.020  1.00  0.00     0.345 HD
ENDBRANCH   2   3
BRANCH   2   7
ATOM      7  C   UNL     1      77.838 -20.165 -21.489  1.00  0.00     0.100 C 
ATOM      8  O   UNL     1      78.119 -21.392 -21.531  1.00  0.00    -0.544 OA
ATOM      9  O   UNL     1      77.811 -19.513 -20.263  1.00  0.00    -0.544 OA
ENDBRANCH   2   7
ENDBRANCH   1   2
BRANCH   1  10
ATOM     10  C   UNL     1      77.605 -19.557 -25.298  1.00  0.00     0.223 C 
ATOM     11  O   UNL     1      77.366 -18.326 -25.418  1.00  0.00    -0.275 OA
ATOM     12  N   UNL     1      77.359 -20.435 -26.397  1.00  0.00    -0.369 N 
ATOM     13  H   UNL     1      76.985 -20.059 -27.297  1.00  0.00     0.159 HD
ATOM     14  H   UNL     1      77.549 -21.458 -26.315  1.00  0.00     0.159 HD
ENDBRANCH   1  10
TORSDOF 4
ENDMDL
