MODEL 1
REMARK VINA RESULT:    -3.696      0.000      0.000
REMARK INTER + INTRA:          -6.195
REMARK INTER:                  -5.640
REMARK INTRA:                  -0.555
REMARK UNBOUND:                -0.555
REMARK SMILES CCCCCCCCCCC(=O)[O-]
REMARK SMILES IDX 7 1 8 2 9 3 10 4 11 5 12 6 13 7 6 8 5 9 4 10 3 11 2 12 1 13
REMARK H PARENT
REMARK Flexibility Score: inf
ROOT
ATOM      1  C   UNL     1      29.899  -1.512  43.453  1.00  0.00     0.000 C 
ENDROOT
BRANCH   1   2
ATOM      2  C   UNL     1      30.949  -0.853  42.545  1.00  0.00     0.000 C 
BRANCH   2   3
ATOM      3  C   UNL     1      32.323  -0.731  43.223  1.00  0.00     0.006 C 
BRANCH   3   4
ATOM      4  C   UNL     1      33.162   0.369  42.568  1.00  0.00     0.053 C 
BRANCH   4   5
ATOM      5  C   UNL     1      34.600  -0.039  42.498  1.00  0.00     0.041 C 
ATOM      6  O   UNL     1      34.917  -1.256  42.566  1.00  0.00    -0.550 OA
ATOM      7  O   UNL     1      35.586   0.920  42.309  1.00  0.00    -0.550 OA
ENDBRANCH   4   5
ENDBRANCH   3   4
ENDBRANCH   2   3
ENDBRANCH   1   2
BRANCH   1   8
ATOM      8  C   UNL     1      30.504  -2.054  44.760  1.00  0.00     0.000 C 
BRANCH   8   9
ATOM      9  C   UNL     1      29.685  -1.658  45.998  1.00  0.00    -0.000 C 
BRANCH   9  10
ATOM     10  C   UNL     1      28.290  -1.126  45.639  1.00  0.00    -0.000 C 
BRANCH  10  11
ATOM     11  C   UNL     1      27.196  -1.924  46.360  1.00  0.00    -0.000 C 
BRANCH  11  12
ATOM     12  C   UNL     1      27.699  -3.319  46.748  1.00  0.00    -0.003 C 
ATOM     13  C   UNL     1      26.838  -3.928  47.851  1.00  0.00     0.004 C 
ENDBRANCH  11  12
ENDBRANCH  10  11
ENDBRANCH   9  10
ENDBRANCH   8   9
ENDBRANCH   1   8
TORSDOF 9
ENDMDL
MODEL 2
REMARK VINA RESULT:    -3.657      2.376      3.833
REMARK INTER + INTRA:          -6.136
REMARK INTER:                  -5.656
REMARK INTRA:                  -0.480
REMARK UNBOUND:                -0.555
REMARK SMILES CCCCCCCCCCC(=O)[O-]
REMARK SMILES IDX 7 1 8 2 9 3 10 4 11 5 12 6 13 7 6 8 5 9 4 10 3 11 2 12 1 13
REMARK H PARENT
REMARK Flexibility Score: inf
ROOT
ATOM      1  C   UNL     1      33.785  -0.777  42.370  1.00  0.00     0.000 C 
ENDROOT
BRANCH   1   2
ATOM      2  C   UNL     1      35.213  -0.302  42.681  1.00  0.00     0.000 C 
BRANCH   2   3
ATOM      3  C   UNL     1      36.172  -1.466  42.976  1.00  0.00     0.006 C 
BRANCH   3   4
ATOM      4  C   UNL     1      35.571  -2.800  42.523  1.00  0.00     0.053 C 
BRANCH   4   5
ATOM      5  C   UNL     1      35.741  -3.840  43.584  1.00  0.00     0.041 C 
ATOM      6  O   UNL     1      36.881  -4.073  44.066  1.00  0.00    -0.550 OA
ATOM      7  O   UNL     1      34.633  -4.516  44.077  1.00  0.00    -0.550 OA
ENDBRANCH   4   5
ENDBRANCH   3   4
ENDBRANCH   2   3
ENDBRANCH   1   2
BRANCH   1   8
ATOM      8  C   UNL     1      32.755  -0.262  43.390  1.00  0.00     0.000 C 
BRANCH   8   9
ATOM      9  C   UNL     1      31.435  -1.048  43.345  1.00  0.00    -0.000 C 
BRANCH   9  10
ATOM     10  C   UNL     1      31.280  -2.011  44.531  1.00  0.00    -0.000 C 
BRANCH  10  11
ATOM     11  C   UNL     1      30.466  -1.365  45.660  1.00  0.00    -0.000 C 
BRANCH  11  12
ATOM     12  C   UNL     1      29.372  -2.314  46.161  1.00  0.00    -0.003 C 
ATOM     13  C   UNL     1      29.296  -3.572  45.301  1.00  0.00     0.004 C 
ENDBRANCH  11  12
ENDBRANCH  10  11
ENDBRANCH   9  10
ENDBRANCH   8   9
ENDBRANCH   1   8
TORSDOF 9
ENDMDL
MODEL 3
REMARK VINA RESULT:    -3.626      3.648      6.858
REMARK INTER + INTRA:          -6.089
REMARK INTER:                  -5.535
REMARK INTRA:                  -0.554
REMARK UNBOUND:                -0.555
REMARK SMILES CCCCCCCCCCC(=O)[O-]
REMARK SMILES IDX 7 1 8 2 9 3 10 4 11 5 12 6 13 7 6 8 5 9 4 10 3 11 2 12 1 13
REMARK H PARENT
REMARK Flexibility Score: inf
ROOT
ATOM      1  C   UNL     1      32.457  -0.574  43.774  1.00  0.00     0.000 C 
ENDROOT
BRANCH   1   2
ATOM      2  C   UNL     1      31.192  -1.447  43.788  1.00  0.00     0.000 C 
BRANCH   2   3
ATOM      3  C   UNL     1      31.120  -2.363  45.020  1.00  0.00     0.006 C 
BRANCH   3   4
ATOM      4  C   UNL     1      29.997  -1.924  45.963  1.00  0.00     0.053 C 
BRANCH   4   5
ATOM      5  C   UNL     1      28.796  -2.799  45.791  1.00  0.00     0.041 C 
ATOM      6  O   UNL     1      28.923  -3.969  45.344  1.00  0.00    -0.550 OA
ATOM      7  O   UNL     1      27.541  -2.339  46.171  1.00  0.00    -0.550 OA
ENDBRANCH   4   5
ENDBRANCH   3   4
ENDBRANCH   2   3
ENDBRANCH   1   2
BRANCH   1   8
ATOM      8  C   UNL     1      33.084  -0.465  42.373  1.00  0.00     0.000 C 
BRANCH   8   9
ATOM      9  C   UNL     1      34.620  -0.446  42.414  1.00  0.00    -0.000 C 
BRANCH   9  10
ATOM     10  C   UNL     1      35.234  -1.838  42.195  1.00  0.00    -0.000 C 
BRANCH  10  11
ATOM     11  C   UNL     1      36.324  -2.127  43.235  1.00  0.00    -0.000 C 
BRANCH  11  12
ATOM     12  C   UNL     1      36.361  -3.617  43.593  1.00  0.00    -0.003 C 
ATOM     13  C   UNL     1      34.956  -4.162  43.832  1.00  0.00     0.004 C 
ENDBRANCH  11  12
ENDBRANCH  10  11
ENDBRANCH   9  10
ENDBRANCH   8   9
ENDBRANCH   1   8
TORSDOF 9
ENDMDL
MODEL 4
REMARK VINA RESULT:    -3.623     12.129     14.538
REMARK INTER + INTRA:          -6.085
REMARK INTER:                  -5.304
REMARK INTRA:                  -0.781
REMARK UNBOUND:                -0.555
REMARK SMILES CCCCCCCCCCC(=O)[O-]
REMARK SMILES IDX 7 1 8 2 9 3 10 4 11 5 12 6 13 7 6 8 5 9 4 10 3 11 2 12 1 13
REMARK H PARENT
REMARK Flexibility Score: inf
ROOT
ATOM      1  C   UNL     1      21.936 -11.949  45.505  1.00  0.00     0.000 C 
ENDROOT
BRANCH   1   2
ATOM      2  C   UNL     1      21.162 -10.627  45.390  1.00  0.00     0.000 C 
BRANCH   2   3
ATOM      3  C   UNL     1      21.580  -9.802  44.162  1.00  0.00     0.006 C 
BRANCH   3   4
ATOM      4  C   UNL     1      20.465  -8.842  43.741  1.00  0.00     0.053 C 
BRANCH   4   5
ATOM      5  C   UNL     1      21.042  -7.594  43.151  1.00  0.00     0.041 C 
ATOM      6  O   UNL     1      22.099  -7.646  42.470  1.00  0.00    -0.550 OA
ATOM      7  O   UNL     1      20.386  -6.381  43.313  1.00  0.00    -0.550 OA
ENDBRANCH   4   5
ENDBRANCH   3   4
ENDBRANCH   2   3
ENDBRANCH   1   2
BRANCH   1   8
ATOM      8  C   UNL     1      22.680 -12.313  44.209  1.00  0.00     0.000 C 
BRANCH   8   9
ATOM      9  C   UNL     1      22.062 -13.525  43.493  1.00  0.00    -0.000 C 
BRANCH   9  10
ATOM     10  C   UNL     1      20.566 -13.336  43.197  1.00  0.00    -0.000 C 
BRANCH  10  11
ATOM     11  C   UNL     1      19.767 -14.585  43.591  1.00  0.00    -0.000 C 
BRANCH  11  12
ATOM     12  C   UNL     1      19.416 -14.564  45.083  1.00  0.00    -0.003 C 
ATOM     13  C   UNL     1      20.162 -15.659  45.840  1.00  0.00     0.004 C 
ENDBRANCH  11  12
ENDBRANCH  10  11
ENDBRANCH   9  10
ENDBRANCH   8   9
ENDBRANCH   1   8
TORSDOF 9
ENDMDL
MODEL 5
REMARK VINA RESULT:    -3.566      3.544      6.934
REMARK INTER + INTRA:          -5.997
REMARK INTER:                  -5.479
REMARK INTRA:                  -0.519
REMARK UNBOUND:                -0.555
REMARK SMILES CCCCCCCCCCC(=O)[O-]
REMARK SMILES IDX 7 1 8 2 9 3 10 4 11 5 12 6 13 7 6 8 5 9 4 10 3 11 2 12 1 13
REMARK H PARENT
REMARK Flexibility Score: inf
ROOT
ATOM      1  C   UNL     1      32.667  -0.129  43.083  1.00  0.00     0.000 C 
ENDROOT
BRANCH   1   2
ATOM      2  C   UNL     1      31.579  -1.176  43.370  1.00  0.00     0.000 C 
BRANCH   2   3
ATOM      3  C   UNL     1      31.292  -1.333  44.872  1.00  0.00     0.006 C 
BRANCH   3   4
ATOM      4  C   UNL     1      30.972  -2.789  45.220  1.00  0.00     0.053 C 
BRANCH   4   5
ATOM      5  C   UNL     1      29.501  -2.970  45.420  1.00  0.00     0.041 C 
ATOM      6  O   UNL     1      28.764  -1.973  45.640  1.00  0.00    -0.550 OA
ATOM      7  O   UNL     1      28.935  -4.234  45.316  1.00  0.00    -0.550 OA
ENDBRANCH   4   5
ENDBRANCH   3   4
ENDBRANCH   2   3
ENDBRANCH   1   2
BRANCH   1   8
ATOM      8  C   UNL     1      33.868  -0.717  42.324  1.00  0.00     0.000 C 
BRANCH   8   9
ATOM      9  C   UNL     1      35.214  -0.331  42.957  1.00  0.00    -0.000 C 
BRANCH   9  10
ATOM     10  C   UNL     1      36.240  -1.473  42.907  1.00  0.00    -0.000 C 
BRANCH  10  11
ATOM     11  C   UNL     1      35.577  -2.788  42.475  1.00  0.00    -0.000 C 
BRANCH  11  12
ATOM     12  C   UNL     1      35.754  -3.870  43.546  1.00  0.00    -0.003 C 
ATOM     13  C   UNL     1      37.230  -4.159  43.800  1.00  0.00     0.004 C 
ENDBRANCH  11  12
ENDBRANCH  10  11
ENDBRANCH   9  10
ENDBRANCH   8   9
ENDBRANCH   1   8
TORSDOF 9
ENDMDL
MODEL 6
REMARK VINA RESULT:    -3.448      1.430      2.582
REMARK INTER + INTRA:          -5.817
REMARK INTER:                  -5.191
REMARK INTRA:                  -0.626
REMARK UNBOUND:                -0.555
REMARK SMILES CCCCCCCCCCC(=O)[O-]
REMARK SMILES IDX 7 1 8 2 9 3 10 4 11 5 12 6 13 7 6 8 5 9 4 10 3 11 2 12 1 13
REMARK H PARENT
REMARK Flexibility Score: inf
ROOT
ATOM      1  C   UNL     1      31.718  -0.385  42.226  1.00  0.00     0.000 C 
ENDROOT
BRANCH   1   2
ATOM      2  C   UNL     1      33.015  -0.171  43.023  1.00  0.00     0.000 C 
BRANCH   2   3
ATOM      3  C   UNL     1      34.275  -0.385  42.170  1.00  0.00     0.006 C 
BRANCH   3   4
ATOM      4  C   UNL     1      34.833  -1.798  42.362  1.00  0.00     0.053 C 
BRANCH   4   5
ATOM      5  C   UNL     1      36.114  -1.756  43.133  1.00  0.00     0.041 C 
ATOM      6  O   UNL     1      36.538  -0.665  43.598  1.00  0.00    -0.550 OA
ATOM      7  O   UNL     1      36.816  -2.929  43.379  1.00  0.00    -0.550 OA
ENDBRANCH   4   5
ENDBRANCH   3   4
ENDBRANCH   2   3
ENDBRANCH   1   2
BRANCH   1   8
ATOM      8  C   UNL     1      30.650  -1.147  43.030  1.00  0.00     0.000 C 
BRANCH   8   9
ATOM      9  C   UNL     1      31.209  -1.758  44.324  1.00  0.00    -0.000 C 
BRANCH   9  10
ATOM     10  C   UNL     1      30.519  -1.211  45.583  1.00  0.00    -0.000 C 
BRANCH  10  11
ATOM     11  C   UNL     1      29.871  -2.343  46.390  1.00  0.00    -0.000 C 
BRANCH  11  12
ATOM     12  C   UNL     1      28.394  -2.508  46.016  1.00  0.00    -0.003 C 
ATOM     13  C   UNL     1      27.738  -1.156  45.749  1.00  0.00     0.004 C 
ENDBRANCH  11  12
ENDBRANCH  10  11
ENDBRANCH   9  10
ENDBRANCH   8   9
ENDBRANCH   1   8
TORSDOF 9
ENDMDL
MODEL 7
REMARK VINA RESULT:    -3.443     12.322     14.612
REMARK INTER + INTRA:          -5.810
REMARK INTER:                  -4.527
REMARK INTRA:                  -1.283
REMARK UNBOUND:                -0.555
REMARK SMILES CCCCCCCCCCC(=O)[O-]
REMARK SMILES IDX 7 1 8 2 9 3 10 4 11 5 12 6 13 7 6 8 5 9 4 10 3 11 2 12 1 13
REMARK H PARENT
REMARK Flexibility Score: inf
ROOT
ATOM      1  C   UNL     1      21.481 -10.813  45.272  1.00  0.00     0.000 C 
ENDROOT
BRANCH   1   2
ATOM      2  C   UNL     1      19.985 -10.583  45.009  1.00  0.00     0.000 C 
BRANCH   2   3
ATOM      3  C   UNL     1      19.714  -9.996  43.615  1.00  0.00     0.006 C 
BRANCH   3   4
ATOM      4  C   UNL     1      21.017  -9.545  42.947  1.00  0.00     0.053 C 
BRANCH   4   5
ATOM      5  C   UNL     1      21.069  -8.053  42.854  1.00  0.00     0.041 C 
ATOM      6  O   UNL     1      22.157  -7.472  42.602  1.00  0.00    -0.550 OA
ATOM      7  O   UNL     1      19.906  -7.307  42.995  1.00  0.00    -0.550 OA
ENDBRANCH   4   5
ENDBRANCH   3   4
ENDBRANCH   2   3
ENDBRANCH   1   2
BRANCH   1   8
ATOM      8  C   UNL     1      21.845 -12.306  45.347  1.00  0.00     0.000 C 
BRANCH   8   9
ATOM      9  C   UNL     1      22.559 -12.805  44.081  1.00  0.00    -0.000 C 
BRANCH   9  10
ATOM     10  C   UNL     1      21.780 -13.917  43.362  1.00  0.00    -0.000 C 
BRANCH  10  11
ATOM     11  C   UNL     1      20.787 -13.327  42.353  1.00  0.00    -0.000 C 
BRANCH  11  12
ATOM     12  C   UNL     1      19.343 -13.658  42.746  1.00  0.00    -0.003 C 
ATOM     13  C   UNL     1      19.298 -14.745  43.816  1.00  0.00     0.004 C 
ENDBRANCH  11  12
ENDBRANCH  10  11
ENDBRANCH   9  10
ENDBRANCH   8   9
ENDBRANCH   1   8
TORSDOF 9
ENDMDL
MODEL 8
REMARK VINA RESULT:    -3.392      1.531      2.275
REMARK INTER + INTRA:          -5.731
REMARK INTER:                  -4.899
REMARK INTRA:                  -0.832
REMARK UNBOUND:                -0.555
REMARK SMILES CCCCCCCCCCC(=O)[O-]
REMARK SMILES IDX 7 1 8 2 9 3 10 4 11 5 12 6 13 7 6 8 5 9 4 10 3 11 2 12 1 13
REMARK H PARENT
REMARK Flexibility Score: inf
ROOT
ATOM      1  C   UNL     1      29.535  -0.714  41.877  1.00  0.00     0.000 C 
ENDROOT
BRANCH   1   2
ATOM      2  C   UNL     1      30.893  -1.012  42.530  1.00  0.00     0.000 C 
BRANCH   2   3
ATOM      3  C   UNL     1      32.047  -0.235  41.875  1.00  0.00     0.006 C 
BRANCH   3   4
ATOM      4  C   UNL     1      33.123   0.119  42.905  1.00  0.00     0.053 C 
BRANCH   4   5
ATOM      5  C   UNL     1      34.470  -0.326  42.431  1.00  0.00     0.041 C 
ATOM      6  O   UNL     1      34.607  -1.448  41.876  1.00  0.00    -0.550 OA
ATOM      7  O   UNL     1      35.565   0.518  42.557  1.00  0.00    -0.550 OA
ENDBRANCH   4   5
ENDBRANCH   3   4
ENDBRANCH   2   3
ENDBRANCH   1   2
BRANCH   1   8
ATOM      8  C   UNL     1      28.356  -0.932  42.841  1.00  0.00     0.000 C 
BRANCH   8   9
ATOM      9  C   UNL     1      28.231  -2.392  43.302  1.00  0.00    -0.000 C 
BRANCH   9  10
ATOM     10  C   UNL     1      28.225  -2.531  44.832  1.00  0.00    -0.000 C 
BRANCH  10  11
ATOM     11  C   UNL     1      29.478  -3.268  45.321  1.00  0.00    -0.000 C 
BRANCH  11  12
ATOM     12  C   UNL     1      30.526  -2.281  45.847  1.00  0.00    -0.003 C 
ATOM     13  C   UNL     1      29.883  -0.959  46.256  1.00  0.00     0.004 C 
ENDBRANCH  11  12
ENDBRANCH  10  11
ENDBRANCH   9  10
ENDBRANCH   8   9
ENDBRANCH   1   8
TORSDOF 9
ENDMDL
MODEL 9
REMARK VINA RESULT:    -3.305     13.346     15.623
REMARK INTER + INTRA:          -5.598
REMARK INTER:                  -4.369
REMARK INTRA:                  -1.229
REMARK UNBOUND:                -0.555
REMARK SMILES CCCCCCCCCCC(=O)[O-]
REMARK SMILES IDX 7 1 8 2 9 3 10 4 11 5 12 6 13 7 6 8 5 9 4 10 3 11 2 12 1 13
REMARK H PARENT
REMARK Flexibility Score: inf
ROOT
ATOM      1  C   UNL     1      20.434 -11.629  46.333  1.00  0.00     0.000 C 
ENDROOT
BRANCH   1   2
ATOM      2  C   UNL     1      19.066 -11.503  45.645  1.00  0.00     0.000 C 
BRANCH   2   3
ATOM      3  C   UNL     1      19.123 -10.644  44.372  1.00  0.00     0.006 C 
BRANCH   3   4
ATOM      4  C   UNL     1      20.396  -9.793  44.340  1.00  0.00     0.053 C 
BRANCH   4   5
ATOM      5  C   UNL     1      20.773  -9.466  42.930  1.00  0.00     0.041 C 
ATOM      6  O   UNL     1      21.603  -8.549  42.693  1.00  0.00    -0.550 OA
ATOM      7  O   UNL     1      20.246 -10.207  41.880  1.00  0.00    -0.550 OA
ENDBRANCH   4   5
ENDBRANCH   3   4
ENDBRANCH   2   3
ENDBRANCH   1   2
BRANCH   1   8
ATOM      8  C   UNL     1      21.023 -13.046  46.222  1.00  0.00     0.000 C 
BRANCH   8   9
ATOM      9  C   UNL     1      19.949 -14.113  45.957  1.00  0.00    -0.000 C 
BRANCH   9  10
ATOM     10  C   UNL     1      20.263 -14.974  44.724  1.00  0.00    -0.000 C 
BRANCH  10  11
ATOM     11  C   UNL     1      19.262 -14.701  43.594  1.00  0.00    -0.000 C 
BRANCH  11  12
ATOM     12  C   UNL     1      19.857 -13.750  42.550  1.00  0.00    -0.003 C 
ATOM     13  C   UNL     1      21.382 -13.751  42.609  1.00  0.00     0.004 C 
ENDBRANCH  11  12
ENDBRANCH  10  11
ENDBRANCH   9  10
ENDBRANCH   8   9
ENDBRANCH   1   8
TORSDOF 9
ENDMDL
