MODEL 1
REMARK VINA RESULT:    -5.007      0.000      0.000
REMARK INTER + INTRA:          -5.007
REMARK INTER:                  -5.007
REMARK INTRA:                   0.000
REMARK UNBOUND:                 0.000
REMARK SMILES C=C1CC[C@H]2C[C@@H]1C2(C)C
REMARK SMILES IDX 9 1 8 2 5 3 4 4 3 5 2 6 1 7 7 8 6 9 10 10
REMARK H PARENT
REMARK Flexibility Score: inf
ROOT
ATOM      1  C   UNL     1     144.894 139.799 165.049  1.00  0.00     0.012 C 
ATOM      2  C   UNL     1     143.763 140.767 164.604  1.00  0.00    -0.026 C 
ATOM      3  C   UNL     1     143.946 142.286 164.851  1.00  0.00    -0.004 C 
ATOM      4  C   UNL     1     145.435 142.713 164.648  1.00  0.00     0.008 C 
ATOM      5  C   UNL     1     146.023 142.222 163.271  1.00  0.00     0.031 C 
ATOM      6  C   UNL     1     145.055 141.294 162.521  1.00  0.00    -0.074 C 
ATOM      7  C   UNL     1     145.424 140.662 161.402  1.00  0.00     0.008 C 
ATOM      8  C   UNL     1     143.656 141.131 163.105  1.00  0.00     0.021 C 
ATOM      9  C   UNL     1     143.229 142.549 163.516  1.00  0.00     0.012 C 
ATOM     10  C   UNL     1     142.421 140.244 165.174  1.00  0.00     0.012 C 
ENDROOT
TORSDOF 0
ENDMDL
MODEL 2
REMARK VINA RESULT:    -5.005      4.699      6.224
REMARK INTER + INTRA:          -5.005
REMARK INTER:                  -5.005
REMARK INTRA:                   0.000
REMARK UNBOUND:                 0.000
REMARK SMILES C=C1CC[C@H]2C[C@@H]1C2(C)C
REMARK SMILES IDX 9 1 8 2 5 3 4 4 3 5 2 6 1 7 7 8 6 9 10 10
REMARK H PARENT
REMARK Flexibility Score: inf
ROOT
ATOM      1  C   UNL     1     150.928 144.929 165.115  1.00  0.00     0.012 C 
ATOM      2  C   UNL     1     149.987 143.791 164.634  1.00  0.00    -0.026 C 
ATOM      3  C   UNL     1     148.458 143.955 164.835  1.00  0.00    -0.004 C 
ATOM      4  C   UNL     1     148.021 145.441 164.626  1.00  0.00     0.008 C 
ATOM      5  C   UNL     1     148.549 146.042 163.269  1.00  0.00     0.031 C 
ATOM      6  C   UNL     1     149.510 145.089 162.543  1.00  0.00    -0.074 C 
ATOM      7  C   UNL     1     150.173 145.472 161.446  1.00  0.00     0.008 C 
ATOM      8  C   UNL     1     149.671 143.688 163.124  1.00  0.00     0.021 C 
ATOM      9  C   UNL     1     148.245 143.243 163.488  1.00  0.00     0.012 C 
ATOM     10  C   UNL     1     150.506 142.451 165.212  1.00  0.00     0.012 C 
ENDROOT
TORSDOF 0
ENDMDL
MODEL 3
REMARK VINA RESULT:    -4.986      4.750      6.281
REMARK INTER + INTRA:          -4.986
REMARK INTER:                  -4.986
REMARK INTRA:                   0.000
REMARK UNBOUND:                 0.000
REMARK SMILES C=C1CC[C@H]2C[C@@H]1C2(C)C
REMARK SMILES IDX 9 1 8 2 5 3 4 4 3 5 2 6 1 7 7 8 6 9 10 10
REMARK H PARENT
REMARK Flexibility Score: inf
ROOT
ATOM      1  C   UNL     1     139.799 145.899 165.133  1.00  0.00     0.012 C 
ATOM      2  C   UNL     1     140.724 147.058 164.669  1.00  0.00    -0.026 C 
ATOM      3  C   UNL     1     142.253 146.917 164.878  1.00  0.00    -0.004 C 
ATOM      4  C   UNL     1     142.717 145.441 164.659  1.00  0.00     0.008 C 
ATOM      5  C   UNL     1     142.209 144.844 163.293  1.00  0.00     0.031 C 
ATOM      6  C   UNL     1     141.236 145.788 162.569  1.00  0.00    -0.074 C 
ATOM      7  C   UNL     1     140.587 145.404 161.464  1.00  0.00     0.008 C 
ATOM      8  C   UNL     1     141.048 147.180 163.162  1.00  0.00     0.021 C 
ATOM      9  C   UNL     1     142.463 147.645 163.540  1.00  0.00     0.012 C 
ATOM     10  C   UNL     1     140.178 148.383 165.256  1.00  0.00     0.012 C 
ENDROOT
TORSDOF 0
ENDMDL
MODEL 4
REMARK VINA RESULT:    -4.977      7.127      8.851
REMARK INTER + INTRA:          -4.977
REMARK INTER:                  -4.977
REMARK INTRA:                   0.000
REMARK UNBOUND:                 0.000
REMARK SMILES C=C1CC[C@H]2C[C@@H]1C2(C)C
REMARK SMILES IDX 9 1 8 2 5 3 4 4 3 5 2 6 1 7 7 8 6 9 10 10
REMARK H PARENT
REMARK Flexibility Score: inf
ROOT
ATOM      1  C   UNL     1     145.883 150.961 165.132  1.00  0.00     0.012 C 
ATOM      2  C   UNL     1     147.050 150.057 164.649  1.00  0.00    -0.026 C 
ATOM      3  C   UNL     1     146.931 148.523 164.838  1.00  0.00    -0.004 C 
ATOM      4  C   UNL     1     145.460 148.044 164.621  1.00  0.00     0.008 C 
ATOM      5  C   UNL     1     144.848 148.563 163.265  1.00  0.00     0.031 C 
ATOM      6  C   UNL     1     145.775 149.557 162.549  1.00  0.00    -0.074 C 
ATOM      7  C   UNL     1     145.377 150.216 161.455  1.00  0.00     0.008 C 
ATOM      8  C   UNL     1     147.168 149.755 163.137  1.00  0.00     0.021 C 
ATOM      9  C   UNL     1     147.654 148.341 163.493  1.00  0.00     0.012 C 
ATOM     10  C   UNL     1     148.372 150.612 165.236  1.00  0.00     0.012 C 
ENDROOT
TORSDOF 0
ENDMDL
MODEL 5
REMARK VINA RESULT:    -4.834      0.855      2.705
REMARK INTER + INTRA:          -4.834
REMARK INTER:                  -4.834
REMARK INTRA:                   0.000
REMARK UNBOUND:                 0.000
REMARK SMILES C=C1CC[C@H]2C[C@@H]1C2(C)C
REMARK SMILES IDX 9 1 8 2 5 3 4 4 3 5 2 6 1 7 7 8 6 9 10 10
REMARK H PARENT
REMARK Flexibility Score: inf
ROOT
ATOM      1  C   UNL     1     143.066 142.299 163.416  1.00  0.00     0.012 C 
ATOM      2  C   UNL     1     143.611 141.098 164.238  1.00  0.00    -0.026 C 
ATOM      3  C   UNL     1     144.414 139.996 163.501  1.00  0.00    -0.004 C 
ATOM      4  C   UNL     1     145.303 140.610 162.371  1.00  0.00     0.008 C 
ATOM      5  C   UNL     1     146.192 141.804 162.884  1.00  0.00     0.031 C 
ATOM      6  C   UNL     1     145.860 142.202 164.330  1.00  0.00    -0.074 C 
ATOM      7  C   UNL     1     146.407 143.283 164.897  1.00  0.00     0.008 C 
ATOM      8  C   UNL     1     144.885 141.309 165.089  1.00  0.00     0.021 C 
ATOM      9  C   UNL     1     145.310 139.873 164.745  1.00  0.00     0.012 C 
ATOM     10  C   UNL     1     142.446 140.508 165.070  1.00  0.00     0.012 C 
ENDROOT
TORSDOF 0
ENDMDL
MODEL 6
REMARK VINA RESULT:    -4.753      4.602      6.479
REMARK INTER + INTRA:          -4.753
REMARK INTER:                  -4.753
REMARK INTRA:                   0.000
REMARK UNBOUND:                 0.000
REMARK SMILES C=C1CC[C@H]2C[C@@H]1C2(C)C
REMARK SMILES IDX 9 1 8 2 5 3 4 4 3 5 2 6 1 7 7 8 6 9 10 10
REMARK H PARENT
REMARK Flexibility Score: inf
ROOT
ATOM      1  C   UNL     1     140.135 145.746 162.078  1.00  0.00     0.012 C 
ATOM      2  C   UNL     1     141.239 146.789 162.402  1.00  0.00    -0.026 C 
ATOM      3  C   UNL     1     141.028 147.745 163.604  1.00  0.00    -0.004 C 
ATOM      4  C   UNL     1     140.303 147.016 164.781  1.00  0.00     0.008 C 
ATOM      5  C   UNL     1     140.996 145.656 165.169  1.00  0.00     0.031 C 
ATOM      6  C   UNL     1     142.122 145.276 164.195  1.00  0.00    -0.074 C 
ATOM      7  C   UNL     1     142.737 144.090 164.271  1.00  0.00     0.008 C 
ATOM      8  C   UNL     1     142.509 146.309 163.142  1.00  0.00     0.021 C 
ATOM      9  C   UNL     1     142.536 147.650 163.893  1.00  0.00     0.012 C 
ATOM     10  C   UNL     1     141.580 147.560 161.102  1.00  0.00     0.012 C 
ENDROOT
TORSDOF 0
ENDMDL
MODEL 7
REMARK VINA RESULT:    -4.752      6.941      8.753
REMARK INTER + INTRA:          -4.752
REMARK INTER:                  -4.752
REMARK INTRA:                   0.000
REMARK UNBOUND:                 0.000
REMARK SMILES C=C1CC[C@H]2C[C@@H]1C2(C)C
REMARK SMILES IDX 9 1 8 2 5 3 4 4 3 5 2 6 1 7 7 8 6 9 10 10
REMARK H PARENT
REMARK Flexibility Score: inf
ROOT
ATOM      1  C   UNL     1     145.756 150.625 162.076  1.00  0.00     0.012 C 
ATOM      2  C   UNL     1     146.804 149.528 162.409  1.00  0.00    -0.026 C 
ATOM      3  C   UNL     1     147.748 149.745 163.619  1.00  0.00    -0.004 C 
ATOM      4  C   UNL     1     147.003 150.464 164.790  1.00  0.00     0.008 C 
ATOM      5  C   UNL     1     145.645 149.760 165.166  1.00  0.00     0.031 C 
ATOM      6  C   UNL     1     145.281 148.633 164.188  1.00  0.00    -0.074 C 
ATOM      7  C   UNL     1     144.100 148.009 164.253  1.00  0.00     0.008 C 
ATOM      8  C   UNL     1     146.327 148.254 163.144  1.00  0.00     0.021 C 
ATOM      9  C   UNL     1     147.661 148.236 163.907  1.00  0.00     0.012 C 
ATOM     10  C   UNL     1     147.588 149.194 161.116  1.00  0.00     0.012 C 
ENDROOT
TORSDOF 0
ENDMDL
MODEL 8
REMARK VINA RESULT:    -4.743      1.101      2.666
REMARK INTER + INTRA:          -4.743
REMARK INTER:                  -4.743
REMARK INTRA:                   0.000
REMARK UNBOUND:                 0.000
REMARK SMILES C=C1CC[C@H]2C[C@@H]1C2(C)C
REMARK SMILES IDX 9 1 8 2 5 3 4 4 3 5 2 6 1 7 7 8 6 9 10 10
REMARK H PARENT
REMARK Flexibility Score: inf
ROOT
ATOM      1  C   UNL     1     144.980 140.155 162.107  1.00  0.00     0.012 C 
ATOM      2  C   UNL     1     143.944 141.252 162.480  1.00  0.00    -0.026 C 
ATOM      3  C   UNL     1     143.023 141.019 163.705  1.00  0.00    -0.004 C 
ATOM      4  C   UNL     1     143.787 140.276 164.848  1.00  0.00     0.008 C 
ATOM      5  C   UNL     1     145.156 140.966 165.208  1.00  0.00     0.031 C 
ATOM      6  C   UNL     1     145.507 142.108 164.243  1.00  0.00    -0.074 C 
ATOM      7  C   UNL     1     146.693 142.725 164.295  1.00  0.00     0.008 C 
ATOM      8  C   UNL     1     144.443 142.510 163.227  1.00  0.00     0.021 C 
ATOM      9  C   UNL     1     143.124 142.522 164.016  1.00  0.00     0.012 C 
ATOM     10  C   UNL     1     143.136 141.612 161.208  1.00  0.00     0.012 C 
ENDROOT
TORSDOF 0
ENDMDL
MODEL 9
REMARK VINA RESULT:    -4.728      4.732      6.522
REMARK INTER + INTRA:          -4.728
REMARK INTER:                  -4.728
REMARK INTRA:                   0.000
REMARK UNBOUND:                 0.000
REMARK SMILES C=C1CC[C@H]2C[C@@H]1C2(C)C
REMARK SMILES IDX 9 1 8 2 5 3 4 4 3 5 2 6 1 7 7 8 6 9 10 10
REMARK H PARENT
REMARK Flexibility Score: inf
ROOT
ATOM      1  C   UNL     1     150.631 145.002 162.111  1.00  0.00     0.012 C 
ATOM      2  C   UNL     1     149.575 143.939 162.522  1.00  0.00    -0.026 C 
ATOM      3  C   UNL     1     149.874 143.024 163.736  1.00  0.00    -0.004 C 
ATOM      4  C   UNL     1     150.639 143.804 164.853  1.00  0.00     0.008 C 
ATOM      5  C   UNL     1     149.929 145.156 165.240  1.00  0.00     0.031 C 
ATOM      6  C   UNL     1     148.744 145.479 164.317  1.00  0.00    -0.074 C 
ATOM      7  C   UNL     1     148.101 146.650 164.394  1.00  0.00     0.008 C 
ATOM      8  C   UNL     1     148.332 144.407 163.315  1.00  0.00     0.021 C 
ATOM      9  C   UNL     1     148.381 143.087 164.101  1.00  0.00     0.012 C 
ATOM     10  C   UNL     1     149.188 143.124 161.263  1.00  0.00     0.012 C 
ENDROOT
TORSDOF 0
ENDMDL
