MODEL 1
REMARK VINA RESULT:    -3.078      0.000      0.000
REMARK INTER + INTRA:          -3.963
REMARK INTER:                  -3.797
REMARK INTRA:                  -0.166
REMARK UNBOUND:                -0.166
REMARK SMILES CCCCCC(=O)[O-]
REMARK SMILES IDX 4 1 5 2 6 3 7 4 8 5 3 6 2 7 1 8
REMARK H PARENT
REMARK Flexibility Score: inf
ROOT
ATOM      1  C   UNL     1      27.176   9.778   6.613  1.00  0.00     0.006 C 
ENDROOT
BRANCH   1   2
ATOM      2  C   UNL     1      27.538  10.608   5.374  1.00  0.00     0.053 C 
BRANCH   2   3
ATOM      3  C   UNL     1      28.143  11.915   5.782  1.00  0.00     0.041 C 
ATOM      4  O   UNL     1      27.693  12.537   6.780  1.00  0.00    -0.550 OA
ATOM      5  O   UNL     1      29.171  12.469   5.030  1.00  0.00    -0.550 OA
ENDBRANCH   2   3
ENDBRANCH   1   2
BRANCH   1   6
ATOM      6  C   UNL     1      25.697   9.357   6.631  1.00  0.00     0.000 C 
BRANCH   6   7
ATOM      7  C   UNL     1      24.842  10.163   5.643  1.00  0.00    -0.003 C 
ATOM      8  C   UNL     1      23.502  10.549   6.264  1.00  0.00     0.004 C 
ENDBRANCH   6   7
ENDBRANCH   1   6
TORSDOF 4
ENDMDL
MODEL 2
REMARK VINA RESULT:    -2.855     11.881     12.537
REMARK INTER + INTRA:          -3.688
REMARK INTER:                  -3.543
REMARK INTRA:                  -0.145
REMARK UNBOUND:                -0.166
REMARK SMILES CCCCCC(=O)[O-]
REMARK SMILES IDX 4 1 5 2 6 3 7 4 8 5 3 6 2 7 1 8
REMARK H PARENT
REMARK Flexibility Score: inf
ROOT
ATOM      1  C   UNL     1      29.570   7.668  17.998  1.00  0.00     0.006 C 
ENDROOT
BRANCH   1   2
ATOM      2  C   UNL     1      30.805   6.821  17.664  1.00  0.00     0.053 C 
BRANCH   2   3
ATOM      3  C   UNL     1      30.954   6.679  16.182  1.00  0.00     0.041 C 
ATOM      4  O   UNL     1      30.050   6.122  15.505  1.00  0.00    -0.550 OA
ATOM      5  O   UNL     1      32.113   7.117  15.555  1.00  0.00    -0.550 OA
ENDBRANCH   2   3
ENDBRANCH   1   2
BRANCH   1   6
ATOM      6  C   UNL     1      29.793   9.167  17.734  1.00  0.00     0.000 C 
BRANCH   6   7
ATOM      7  C   UNL     1      28.959  10.061  18.663  1.00  0.00    -0.003 C 
ATOM      8  C   UNL     1      28.094   9.222  19.601  1.00  0.00     0.004 C 
ENDBRANCH   6   7
ENDBRANCH   1   6
TORSDOF 4
ENDMDL
MODEL 3
REMARK VINA RESULT:    -2.772     17.832     18.917
REMARK INTER + INTRA:          -3.586
REMARK INTER:                  -3.447
REMARK INTRA:                  -0.139
REMARK UNBOUND:                -0.166
REMARK SMILES CCCCCC(=O)[O-]
REMARK SMILES IDX 4 1 5 2 6 3 7 4 8 5 3 6 2 7 1 8
REMARK H PARENT
REMARK Flexibility Score: inf
ROOT
ATOM      1  C   UNL     1      15.268  -1.614  14.673  1.00  0.00     0.006 C 
ENDROOT
BRANCH   1   2
ATOM      2  C   UNL     1      16.366  -0.545  14.589  1.00  0.00     0.053 C 
BRANCH   2   3
ATOM      3  C   UNL     1      17.178  -0.532  15.847  1.00  0.00     0.041 C 
ATOM      4  O   UNL     1      16.869   0.241  16.792  1.00  0.00    -0.550 OA
ATOM      5  O   UNL     1      18.303  -1.338  15.956  1.00  0.00    -0.550 OA
ENDBRANCH   2   3
ENDBRANCH   1   2
BRANCH   1   6
ATOM      6  C   UNL     1      15.583  -2.853  13.820  1.00  0.00     0.000 C 
BRANCH   6   7
ATOM      7  C   UNL     1      16.090  -4.034  14.660  1.00  0.00    -0.003 C 
ATOM      8  C   UNL     1      16.397  -5.243  13.779  1.00  0.00     0.004 C 
ENDBRANCH   6   7
ENDBRANCH   1   6
TORSDOF 4
ENDMDL
MODEL 4
REMARK VINA RESULT:    -2.753      8.691      9.454
REMARK INTER + INTRA:          -3.563
REMARK INTER:                  -3.449
REMARK INTRA:                  -0.114
REMARK UNBOUND:                -0.166
REMARK SMILES CCCCCC(=O)[O-]
REMARK SMILES IDX 4 1 5 2 6 3 7 4 8 5 3 6 2 7 1 8
REMARK H PARENT
REMARK Flexibility Score: inf
ROOT
ATOM      1  C   UNL     1      21.081   2.443   5.220  1.00  0.00     0.006 C 
ENDROOT
BRANCH   1   2
ATOM      2  C   UNL     1      22.297   3.374   5.319  1.00  0.00     0.053 C 
BRANCH   2   3
ATOM      3  C   UNL     1      23.446   2.663   5.964  1.00  0.00     0.041 C 
ATOM      4  O   UNL     1      23.365   1.433   6.221  1.00  0.00    -0.550 OA
ATOM      5  O   UNL     1      24.585   3.369   6.325  1.00  0.00    -0.550 OA
ENDBRANCH   2   3
ENDBRANCH   1   2
BRANCH   1   6
ATOM      6  C   UNL     1      19.900   3.092   4.479  1.00  0.00     0.000 C 
BRANCH   6   7
ATOM      7  C   UNL     1      19.885   4.621   4.616  1.00  0.00    -0.003 C 
ATOM      8  C   UNL     1      18.754   5.080   5.532  1.00  0.00     0.004 C 
ENDBRANCH   6   7
ENDBRANCH   1   6
TORSDOF 4
ENDMDL
MODEL 5
REMARK VINA RESULT:    -2.739      8.678      9.744
REMARK INTER + INTRA:          -3.546
REMARK INTER:                  -3.442
REMARK INTRA:                  -0.104
REMARK UNBOUND:                -0.166
REMARK SMILES CCCCCC(=O)[O-]
REMARK SMILES IDX 4 1 5 2 6 3 7 4 8 5 3 6 2 7 1 8
REMARK H PARENT
REMARK Flexibility Score: inf
ROOT
ATOM      1  C   UNL     1      24.852   1.213   6.266  1.00  0.00     0.006 C 
ENDROOT
BRANCH   1   2
ATOM      2  C   UNL     1      24.571   2.722   6.258  1.00  0.00     0.053 C 
BRANCH   2   3
ATOM      3  C   UNL     1      23.172   2.989   5.798  1.00  0.00     0.041 C 
ATOM      4  O   UNL     1      22.196   2.492   6.419  1.00  0.00    -0.550 OA
ATOM      5  O   UNL     1      22.949   3.746   4.656  1.00  0.00    -0.550 OA
ENDBRANCH   2   3
ENDBRANCH   1   2
BRANCH   1   6
ATOM      6  C   UNL     1      25.708   0.777   7.466  1.00  0.00     0.000 C 
BRANCH   6   7
ATOM      7  C   UNL     1      26.945   1.665   7.662  1.00  0.00    -0.003 C 
ATOM      8  C   UNL     1      27.430   1.619   9.109  1.00  0.00     0.004 C 
ENDBRANCH   6   7
ENDBRANCH   1   6
TORSDOF 4
ENDMDL
MODEL 6
REMARK VINA RESULT:    -2.722     18.428     19.051
REMARK INTER + INTRA:          -3.525
REMARK INTER:                  -3.328
REMARK INTRA:                  -0.197
REMARK UNBOUND:                -0.166
REMARK SMILES CCCCCC(=O)[O-]
REMARK SMILES IDX 4 1 5 2 6 3 7 4 8 5 3 6 2 7 1 8
REMARK H PARENT
REMARK Flexibility Score: inf
ROOT
ATOM      1  C   UNL     1      16.553  -0.708  14.564  1.00  0.00     0.006 C 
ENDROOT
BRANCH   1   2
ATOM      2  C   UNL     1      15.470  -1.764  14.304  1.00  0.00     0.053 C 
BRANCH   2   3
ATOM      3  C   UNL     1      16.023  -3.139  14.508  1.00  0.00     0.041 C 
ATOM      4  O   UNL     1      16.670  -3.413  15.553  1.00  0.00    -0.550 OA
ATOM      5  O   UNL     1      15.866  -4.104  13.522  1.00  0.00    -0.550 OA
ENDBRANCH   2   3
ENDBRANCH   1   2
BRANCH   1   6
ATOM      6  C   UNL     1      16.040   0.469  15.410  1.00  0.00     0.000 C 
BRANCH   6   7
ATOM      7  C   UNL     1      16.432   0.348  16.889  1.00  0.00    -0.003 C 
ATOM      8  C   UNL     1      17.743  -0.418  17.049  1.00  0.00     0.004 C 
ENDBRANCH   6   7
ENDBRANCH   1   6
TORSDOF 4
ENDMDL
MODEL 7
REMARK VINA RESULT:    -2.701      1.114      1.951
REMARK INTER + INTRA:          -3.498
REMARK INTER:                  -3.248
REMARK INTRA:                  -0.250
REMARK UNBOUND:                -0.166
REMARK SMILES CCCCCC(=O)[O-]
REMARK SMILES IDX 4 1 5 2 6 3 7 4 8 5 3 6 2 7 1 8
REMARK H PARENT
REMARK Flexibility Score: inf
ROOT
ATOM      1  C   UNL     1      25.808  11.981   5.134  1.00  0.00     0.006 C 
ENDROOT
BRANCH   1   2
ATOM      2  C   UNL     1      27.175  12.300   4.513  1.00  0.00     0.053 C 
BRANCH   2   3
ATOM      3  C   UNL     1      28.237  12.309   5.568  1.00  0.00     0.041 C 
ATOM      4  O   UNL     1      27.921  12.404   6.784  1.00  0.00    -0.550 OA
ATOM      5  O   UNL     1      29.577  12.264   5.207  1.00  0.00    -0.550 OA
ENDBRANCH   2   3
ENDBRANCH   1   2
BRANCH   1   6
ATOM      6  C   UNL     1      25.414  10.504   4.970  1.00  0.00     0.000 C 
BRANCH   6   7
ATOM      7  C   UNL     1      25.337   9.761   6.311  1.00  0.00    -0.003 C 
ATOM      8  C   UNL     1      26.663   9.080   6.638  1.00  0.00     0.004 C 
ENDBRANCH   6   7
ENDBRANCH   1   6
TORSDOF 4
ENDMDL
MODEL 8
REMARK VINA RESULT:    -2.665     19.596     20.659
REMARK INTER + INTRA:          -3.454
REMARK INTER:                  -3.233
REMARK INTRA:                  -0.221
REMARK UNBOUND:                -0.166
REMARK SMILES CCCCCC(=O)[O-]
REMARK SMILES IDX 4 1 5 2 6 3 7 4 8 5 3 6 2 7 1 8
REMARK H PARENT
REMARK Flexibility Score: inf
ROOT
ATOM      1  C   UNL     1      15.530  -5.575  10.990  1.00  0.00     0.006 C 
ENDROOT
BRANCH   1   2
ATOM      2  C   UNL     1      15.838  -6.225  12.347  1.00  0.00     0.053 C 
BRANCH   2   3
ATOM      3  C   UNL     1      17.274  -6.013  12.711  1.00  0.00     0.041 C 
ATOM      4  O   UNL     1      18.181  -6.226  11.863  1.00  0.00    -0.550 OA
ATOM      5  O   UNL     1      17.614  -5.628  14.001  1.00  0.00    -0.550 OA
ENDBRANCH   2   3
ENDBRANCH   1   2
BRANCH   1   6
ATOM      6  C   UNL     1      15.052  -6.594   9.943  1.00  0.00     0.000 C 
BRANCH   6   7
ATOM      7  C   UNL     1      16.021  -6.721   8.758  1.00  0.00    -0.003 C 
ATOM      8  C   UNL     1      16.904  -5.482   8.635  1.00  0.00     0.004 C 
ENDBRANCH   6   7
ENDBRANCH   1   6
TORSDOF 4
ENDMDL
MODEL 9
REMARK VINA RESULT:    -2.600      2.309      2.725
REMARK INTER + INTRA:          -3.375
REMARK INTER:                  -3.148
REMARK INTRA:                  -0.226
REMARK UNBOUND:                -0.166
REMARK SMILES CCCCCC(=O)[O-]
REMARK SMILES IDX 4 1 5 2 6 3 7 4 8 5 3 6 2 7 1 8
REMARK H PARENT
REMARK Flexibility Score: inf
ROOT
ATOM      1  C   UNL     1      26.443  11.532   5.244  1.00  0.00     0.006 C 
ENDROOT
BRANCH   1   2
ATOM      2  C   UNL     1      27.094  10.744   6.389  1.00  0.00     0.053 C 
BRANCH   2   3
ATOM      3  C   UNL     1      26.952   9.272   6.155  1.00  0.00     0.041 C 
ATOM      4  O   UNL     1      26.330   8.557   6.985  1.00  0.00    -0.550 OA
ATOM      5  O   UNL     1      27.547   8.684   5.047  1.00  0.00    -0.550 OA
ENDBRANCH   2   3
ENDBRANCH   1   2
BRANCH   1   6
ATOM      6  C   UNL     1      25.026  11.033   4.915  1.00  0.00     0.000 C 
BRANCH   6   7
ATOM      7  C   UNL     1      23.957  11.640   5.834  1.00  0.00    -0.003 C 
ATOM      8  C   UNL     1      23.182  10.550   6.569  1.00  0.00     0.004 C 
ENDBRANCH   6   7
ENDBRANCH   1   6
TORSDOF 4
ENDMDL
