MODEL 1
REMARK VINA RESULT:    -1.303      0.000      0.000
REMARK INTER + INTRA:          -2.637
REMARK INTER:                  -2.218
REMARK INTRA:                  -0.420
REMARK UNBOUND:                -0.420
REMARK SMILES CCCCCCCCCCCCCC(=O)[O-]
REMARK SMILES IDX 8 1 9 2 10 3 11 4 12 5 13 6 14 7 15 8 16 9 7 10 6 11 5 12
REMARK SMILES IDX 4 13 3 14 2 15 1 16
REMARK H PARENT
REMARK Flexibility Score: inf
ROOT
ATOM      1  C   UNL     1      -1.497  -8.066  -4.875  1.00  0.00     0.000 C 
ENDROOT
BRANCH   1   2
ATOM      2  C   UNL     1      -2.735  -7.897  -5.771  1.00  0.00     0.000 C 
BRANCH   2   3
ATOM      3  C   UNL     1      -3.988  -8.567  -5.183  1.00  0.00     0.000 C 
BRANCH   3   4
ATOM      4  C   UNL     1      -3.786 -10.066  -4.906  1.00  0.00     0.000 C 
BRANCH   4   5
ATOM      5  C   UNL     1      -4.494 -10.985  -5.927  1.00  0.00     0.006 C 
BRANCH   5   6
ATOM      6  C   UNL     1      -5.364 -12.069  -5.271  1.00  0.00     0.053 C 
BRANCH   6   7
ATOM      7  C   UNL     1      -6.572 -12.384  -6.100  1.00  0.00     0.041 C 
ATOM      8  O   UNL     1      -6.451 -13.018  -7.182  1.00  0.00    -0.550 OA
ATOM      9  O   UNL     1      -7.828 -11.959  -5.688  1.00  0.00    -0.550 OA
ENDBRANCH   6   7
ENDBRANCH   5   6
ENDBRANCH   4   5
ENDBRANCH   3   4
ENDBRANCH   2   3
ENDBRANCH   1   2
BRANCH   1  10
ATOM     10  C   UNL     1      -0.350  -7.125  -5.272  1.00  0.00     0.000 C 
BRANCH  10  11
ATOM     11  C   UNL     1       1.011  -7.727  -4.886  1.00  0.00    -0.000 C 
BRANCH  11  12
ATOM     12  C   UNL     1       2.191  -6.920  -5.450  1.00  0.00    -0.000 C 
BRANCH  12  13
ATOM     13  C   UNL     1       2.248  -5.486  -4.894  1.00  0.00    -0.000 C 
BRANCH  13  14
ATOM     14  C   UNL     1       3.661  -4.877  -5.002  1.00  0.00    -0.000 C 
BRANCH  14  15
ATOM     15  C   UNL     1       4.717  -5.863  -5.529  1.00  0.00    -0.003 C 
ATOM     16  C   UNL     1       5.828  -5.181  -6.324  1.00  0.00     0.004 C 
ENDBRANCH  14  15
ENDBRANCH  13  14
ENDBRANCH  12  13
ENDBRANCH  11  12
ENDBRANCH  10  11
ENDBRANCH   1  10
TORSDOF 12
ENDMDL
MODEL 2
REMARK VINA RESULT:     0.811      1.530      2.852
REMARK INTER + INTRA:           0.959
REMARK INTER:                   1.621
REMARK INTRA:                  -0.662
REMARK UNBOUND:                -0.420
REMARK SMILES CCCCCCCCCCCCCC(=O)[O-]
REMARK SMILES IDX 8 1 9 2 10 3 11 4 12 5 13 6 14 7 15 8 16 9 7 10 6 11 5 12
REMARK SMILES IDX 4 13 3 14 2 15 1 16
REMARK H PARENT
REMARK Flexibility Score: inf
ROOT
ATOM      1  C   UNL     1      -4.225  -8.903  -5.792  1.00  0.00     0.000 C 
ENDROOT
BRANCH   1   2
ATOM      2  C   UNL     1      -3.443  -9.725  -6.829  1.00  0.00     0.000 C 
BRANCH   2   3
ATOM      3  C   UNL     1      -4.351 -10.647  -7.660  1.00  0.00     0.000 C 
BRANCH   3   4
ATOM      4  C   UNL     1      -4.351 -12.098  -7.152  1.00  0.00     0.000 C 
BRANCH   4   5
ATOM      5  C   UNL     1      -5.684 -12.524  -6.498  1.00  0.00     0.006 C 
BRANCH   5   6
ATOM      6  C   UNL     1      -5.883 -11.947  -5.087  1.00  0.00     0.053 C 
BRANCH   6   7
ATOM      7  C   UNL     1      -7.169 -11.185  -4.978  1.00  0.00     0.041 C 
ATOM      8  O   UNL     1      -7.161  -9.926  -4.959  1.00  0.00    -0.550 OA
ATOM      9  O   UNL     1      -8.374 -11.868  -4.875  1.00  0.00    -0.550 OA
ENDBRANCH   6   7
ENDBRANCH   5   6
ENDBRANCH   4   5
ENDBRANCH   3   4
ENDBRANCH   2   3
ENDBRANCH   1   2
BRANCH   1  10
ATOM     10  C   UNL     1      -3.330  -7.913  -5.029  1.00  0.00     0.000 C 
BRANCH  10  11
ATOM     11  C   UNL     1      -2.040  -7.625  -5.813  1.00  0.00    -0.000 C 
BRANCH  11  12
ATOM     12  C   UNL     1      -0.850  -7.316  -4.890  1.00  0.00    -0.000 C 
BRANCH  12  13
ATOM     13  C   UNL     1       0.347  -8.252  -5.133  1.00  0.00    -0.000 C 
BRANCH  13  14
ATOM     14  C   UNL     1       1.677  -7.478  -5.244  1.00  0.00    -0.000 C 
BRANCH  14  15
ATOM     15  C   UNL     1       1.554  -5.990  -4.875  1.00  0.00    -0.003 C 
ATOM     16  C   UNL     1       2.895  -5.260  -4.883  1.00  0.00     0.004 C 
ENDBRANCH  14  15
ENDBRANCH  13  14
ENDBRANCH  12  13
ENDBRANCH  11  12
ENDBRANCH  10  11
ENDBRANCH   1  10
TORSDOF 12
ENDMDL
MODEL 3
REMARK VINA RESULT:     0.816     16.422     19.326
REMARK INTER + INTRA:           0.969
REMARK INTER:                   0.572
REMARK INTRA:                   0.397
REMARK UNBOUND:                -0.420
REMARK SMILES CCCCCCCCCCCCCC(=O)[O-]
REMARK SMILES IDX 8 1 9 2 10 3 11 4 12 5 13 6 14 7 15 8 16 9 7 10 6 11 5 12
REMARK SMILES IDX 4 13 3 14 2 15 1 16
REMARK H PARENT
REMARK Flexibility Score: inf
ROOT
ATOM      1  C   UNL     1       8.085  -8.037 -21.399  1.00  0.00     0.000 C 
ENDROOT
BRANCH   1   2
ATOM      2  C   UNL     1       8.937  -6.943 -22.063  1.00  0.00     0.000 C 
BRANCH   2   3
ATOM      3  C   UNL     1       8.089  -5.785 -22.614  1.00  0.00     0.000 C 
BRANCH   3   4
ATOM      4  C   UNL     1       8.373  -5.492 -24.097  1.00  0.00     0.000 C 
BRANCH   4   5
ATOM      5  C   UNL     1       7.142  -4.972 -24.872  1.00  0.00     0.006 C 
BRANCH   5   6
ATOM      6  C   UNL     1       5.831  -5.079 -24.076  1.00  0.00     0.053 C 
BRANCH   6   7
ATOM      7  C   UNL     1       5.260  -6.463 -24.135  1.00  0.00     0.041 C 
ATOM      8  O   UNL     1       5.948  -7.450 -23.761  1.00  0.00    -0.550 OA
ATOM      9  O   UNL     1       3.977  -6.665 -24.624  1.00  0.00    -0.550 OA
ENDBRANCH   6   7
ENDBRANCH   5   6
ENDBRANCH   4   5
ENDBRANCH   3   4
ENDBRANCH   2   3
ENDBRANCH   1   2
BRANCH   1  10
ATOM     10  C   UNL     1       8.199  -9.390 -22.117  1.00  0.00     0.000 C 
BRANCH  10  11
ATOM     11  C   UNL     1       8.145 -10.550 -21.110  1.00  0.00    -0.000 C 
BRANCH  11  12
ATOM     12  C   UNL     1       9.098 -10.341 -19.922  1.00  0.00    -0.000 C 
BRANCH  12  13
ATOM     13  C   UNL     1       8.356  -9.969 -18.627  1.00  0.00    -0.000 C 
BRANCH  13  14
ATOM     14  C   UNL     1       9.015 -10.594 -17.380  1.00  0.00    -0.000 C 
BRANCH  14  15
ATOM     15  C   UNL     1       9.014  -9.666 -16.154  1.00  0.00    -0.003 C 
ATOM     16  C   UNL     1       9.125 -10.421 -14.831  1.00  0.00     0.004 C 
ENDBRANCH  14  15
ENDBRANCH  13  14
ENDBRANCH  12  13
ENDBRANCH  11  12
ENDBRANCH  10  11
ENDBRANCH   1  10
TORSDOF 12
ENDMDL
MODEL 4
REMARK VINA RESULT:     1.041     20.266     24.054
REMARK INTER + INTRA:           1.351
REMARK INTER:                   1.963
REMARK INTRA:                  -0.612
REMARK UNBOUND:                -0.420
REMARK SMILES CCCCCCCCCCCCCC(=O)[O-]
REMARK SMILES IDX 8 1 9 2 10 3 11 4 12 5 13 6 14 7 15 8 16 9 7 10 6 11 5 12
REMARK SMILES IDX 4 13 3 14 2 15 1 16
REMARK H PARENT
REMARK Flexibility Score: inf
ROOT
ATOM      1  C   UNL     1      -8.887 -20.224 -24.369  1.00  0.00     0.000 C 
ENDROOT
BRANCH   1   2
ATOM      2  C   UNL     1      -8.018 -19.133 -25.014  1.00  0.00     0.000 C 
BRANCH   2   3
ATOM      3  C   UNL     1      -8.483 -17.713 -24.652  1.00  0.00     0.000 C 
BRANCH   3   4
ATOM      4  C   UNL     1      -8.112 -17.314 -23.213  1.00  0.00     0.000 C 
BRANCH   4   5
ATOM      5  C   UNL     1      -8.791 -16.010 -22.738  1.00  0.00     0.006 C 
BRANCH   5   6
ATOM      6  C   UNL     1      -8.444 -14.791 -23.608  1.00  0.00     0.053 C 
BRANCH   6   7
ATOM      7  C   UNL     1      -9.019 -13.527 -23.043  1.00  0.00     0.041 C 
ATOM      8  O   UNL     1      -8.474 -12.418 -23.284  1.00  0.00    -0.550 OA
ATOM      9  O   UNL     1     -10.145 -13.579 -22.232  1.00  0.00    -0.550 OA
ENDBRANCH   6   7
ENDBRANCH   5   6
ENDBRANCH   4   5
ENDBRANCH   3   4
ENDBRANCH   2   3
ENDBRANCH   1   2
BRANCH   1  10
ATOM     10  C   UNL     1     -10.361 -20.129 -24.791  1.00  0.00     0.000 C 
BRANCH  10  11
ATOM     11  C   UNL     1     -11.009 -21.521 -24.836  1.00  0.00    -0.000 C 
BRANCH  11  12
ATOM     12  C   UNL     1      -9.990 -22.634 -25.125  1.00  0.00    -0.000 C 
BRANCH  12  13
ATOM     13  C   UNL     1     -10.525 -24.034 -24.773  1.00  0.00    -0.000 C 
BRANCH  13  14
ATOM     14  C   UNL     1     -11.125 -24.085 -23.352  1.00  0.00    -0.000 C 
BRANCH  14  15
ATOM     15  C   UNL     1     -10.419 -25.086 -22.422  1.00  0.00    -0.003 C 
ATOM     16  C   UNL     1     -10.588 -24.751 -20.942  1.00  0.00     0.004 C 
ENDBRANCH  14  15
ENDBRANCH  13  14
ENDBRANCH  12  13
ENDBRANCH  11  12
ENDBRANCH  10  11
ENDBRANCH   1  10
TORSDOF 12
ENDMDL
MODEL 5
REMARK VINA RESULT:     1.059     22.935     25.229
REMARK INTER + INTRA:           1.383
REMARK INTER:                   1.840
REMARK INTRA:                  -0.458
REMARK UNBOUND:                -0.420
REMARK SMILES CCCCCCCCCCCCCC(=O)[O-]
REMARK SMILES IDX 8 1 9 2 10 3 11 4 12 5 13 6 14 7 15 8 16 9 7 10 6 11 5 12
REMARK SMILES IDX 4 13 3 14 2 15 1 16
REMARK H PARENT
REMARK Flexibility Score: inf
ROOT
ATOM      1  C   UNL     1      -8.941 -20.263 -24.439  1.00  0.00     0.000 C 
ENDROOT
BRANCH   1   2
ATOM      2  C   UNL     1      -8.115 -19.149 -25.102  1.00  0.00     0.000 C 
BRANCH   2   3
ATOM      3  C   UNL     1      -6.724 -18.985 -24.468  1.00  0.00     0.000 C 
BRANCH   3   4
ATOM      4  C   UNL     1      -5.661 -19.882 -25.124  1.00  0.00     0.000 C 
BRANCH   4   5
ATOM      5  C   UNL     1      -6.013 -21.386 -25.088  1.00  0.00     0.006 C 
BRANCH   5   6
ATOM      6  C   UNL     1      -4.779 -22.299 -25.017  1.00  0.00     0.053 C 
BRANCH   6   7
ATOM      7  C   UNL     1      -5.052 -23.535 -24.214  1.00  0.00     0.041 C 
ATOM      8  O   UNL     1      -4.250 -23.896 -23.312  1.00  0.00    -0.550 OA
ATOM      9  O   UNL     1      -6.181 -24.299 -24.477  1.00  0.00    -0.550 OA
ENDBRANCH   6   7
ENDBRANCH   5   6
ENDBRANCH   4   5
ENDBRANCH   3   4
ENDBRANCH   2   3
ENDBRANCH   1   2
BRANCH   1  10
ATOM     10  C   UNL     1     -10.445 -20.129 -24.723  1.00  0.00     0.000 C 
BRANCH  10  11
ATOM     11  C   UNL     1     -11.122 -21.508 -24.747  1.00  0.00    -0.000 C 
BRANCH  11  12
ATOM     12  C   UNL     1     -10.138 -22.640 -25.085  1.00  0.00    -0.000 C 
BRANCH  12  13
ATOM     13  C   UNL     1     -10.742 -24.037 -24.858  1.00  0.00    -0.000 C 
BRANCH  13  14
ATOM     14  C   UNL     1     -11.122 -24.272 -23.382  1.00  0.00    -0.000 C 
BRANCH  14  15
ATOM     15  C   UNL     1     -10.100 -25.125 -22.612  1.00  0.00    -0.003 C 
ATOM     16  C   UNL     1     -10.126 -24.875 -21.106  1.00  0.00     0.004 C 
ENDBRANCH  14  15
ENDBRANCH  13  14
ENDBRANCH  12  13
ENDBRANCH  11  12
ENDBRANCH  10  11
ENDBRANCH   1  10
TORSDOF 12
ENDMDL
MODEL 6
REMARK VINA RESULT:     1.285     17.910     20.363
REMARK INTER + INTRA:           1.766
REMARK INTER:                   1.723
REMARK INTRA:                   0.043
REMARK UNBOUND:                -0.420
REMARK SMILES CCCCCCCCCCCCCC(=O)[O-]
REMARK SMILES IDX 8 1 9 2 10 3 11 4 12 5 13 6 14 7 15 8 16 9 7 10 6 11 5 12
REMARK SMILES IDX 4 13 3 14 2 15 1 16
REMARK H PARENT
REMARK Flexibility Score: inf
ROOT
ATOM      1  C   UNL     1       7.011  -8.336 -20.561  1.00  0.00     0.000 C 
ENDROOT
BRANCH   1   2
ATOM      2  C   UNL     1       7.168  -7.447 -21.805  1.00  0.00     0.000 C 
BRANCH   2   3
ATOM      3  C   UNL     1       8.619  -7.386 -22.311  1.00  0.00     0.000 C 
BRANCH   3   4
ATOM      4  C   UNL     1       8.912  -6.113 -23.124  1.00  0.00     0.000 C 
BRANCH   4   5
ATOM      5  C   UNL     1       8.151  -6.048 -24.467  1.00  0.00     0.006 C 
BRANCH   5   6
ATOM      6  C   UNL     1       7.009  -5.019 -24.471  1.00  0.00     0.053 C 
BRANCH   6   7
ATOM      7  C   UNL     1       5.694  -5.653 -24.135  1.00  0.00     0.041 C 
ATOM      8  O   UNL     1       5.342  -6.723 -24.698  1.00  0.00    -0.550 OA
ATOM      9  O   UNL     1       4.847  -5.049 -23.215  1.00  0.00    -0.550 OA
ENDBRANCH   6   7
ENDBRANCH   5   6
ENDBRANCH   4   5
ENDBRANCH   3   4
ENDBRANCH   2   3
ENDBRANCH   1   2
BRANCH   1  10
ATOM     10  C   UNL     1       8.329  -8.507 -19.790  1.00  0.00     0.000 C 
BRANCH  10  11
ATOM     11  C   UNL     1       8.441  -9.924 -19.205  1.00  0.00    -0.000 C 
BRANCH  11  12
ATOM     12  C   UNL     1       9.015 -10.931 -20.214  1.00  0.00    -0.000 C 
BRANCH  12  13
ATOM     13  C   UNL     1       8.874 -10.455 -21.671  1.00  0.00    -0.000 C 
BRANCH  13  14
ATOM     14  C   UNL     1       8.866 -11.633 -22.668  1.00  0.00    -0.000 C 
BRANCH  14  15
ATOM     15  C   UNL     1       9.122 -11.208 -24.124  1.00  0.00    -0.003 C 
ATOM     16  C   UNL     1       8.904 -12.340 -25.125  1.00  0.00     0.004 C 
ENDBRANCH  14  15
ENDBRANCH  13  14
ENDBRANCH  12  13
ENDBRANCH  11  12
ENDBRANCH  10  11
ENDBRANCH   1  10
TORSDOF 12
ENDMDL
