MODEL 1
REMARK VINA RESULT:    -6.817      0.000      0.000
REMARK INTER + INTRA:         -11.731
REMARK INTER:                 -10.005
REMARK INTRA:                  -1.726
REMARK UNBOUND:                -1.726
REMARK SMILES O=c1c(O[C@@H]2O[C@@H](CO)[C@H](O)[C@@H](O)[C@H]2O)c(-c2ccc(O)c(O)c2)oc2cc(O)cc(O)c12
REMARK SMILES IDX 4 1 3 2 16 3 25 4 2 5 26 6 1 7 33 8 27 9 31 10 28 11 30 12
REMARK SMILES IDX 17 13 18 14 19 15 20 16 24 17 22 18 21 19 23 21 32 23 29 25
REMARK SMILES IDX 5 27 14 28 6 29 12 30 7 31 10 32 15 33 13 35 8 37 9 38 11 40
REMARK H PARENT 21 20 23 22 32 24 29 26 15 34 13 36 9 39 11 41
REMARK Flexibility Score: inf
ROOT
ATOM      1  O   UNL     1     141.463 127.750 146.663  1.00  0.00    -0.454 OA
ENDROOT
BRANCH   1   2
ATOM      2  C   UNL     1     142.514 126.969 146.150  1.00  0.00     0.214 A 
ATOM      3  C   UNL     1     143.536 126.528 147.006  1.00  0.00     0.180 A 
ATOM      4  O   UNL     1     144.455 125.683 146.559  1.00  0.00    -0.452 OA
ATOM      5  C   UNL     1     142.562 126.598 144.796  1.00  0.00     0.239 A 
ATOM      6  C   UNL     1     144.525 125.285 145.292  1.00  0.00     0.146 A 
ATOM      7  O   UNL     1     141.700 127.057 143.997  1.00  0.00    -0.285 OA
ATOM      8  C   UNL     1     143.582 125.741 144.341  1.00  0.00     0.111 A 
ATOM      9  C   UNL     1     145.595 124.477 144.893  1.00  0.00     0.094 A 
ATOM     10  C   UNL     1     143.736 125.365 142.984  1.00  0.00     0.134 A 
ATOM     11  C   UNL     1     145.766 124.147 143.549  1.00  0.00     0.123 A 
ATOM     12  C   UNL     1     144.835 124.576 142.601  1.00  0.00     0.093 A 
BRANCH   3  13
ATOM     13  C   UNL     1     143.642 127.018 148.390  1.00  0.00     0.025 A 
ATOM     14  C   UNL     1     144.637 127.943 148.717  1.00  0.00     0.016 A 
ATOM     15  C   UNL     1     144.841 128.324 150.044  1.00  0.00     0.051 A 
ATOM     16  C   UNL     1     144.069 127.758 151.064  1.00  0.00     0.157 A 
ATOM     17  C   UNL     1     142.853 126.465 149.410  1.00  0.00     0.062 A 
ATOM     18  C   UNL     1     143.054 126.844 150.748  1.00  0.00     0.158 A 
BRANCH  16  19
ATOM     19  O   UNL     1     144.320 128.128 152.384  1.00  0.00    -0.504 OA
ATOM     20  H   UNL     1     145.260 128.210 152.768  1.00  0.00     0.293 HD
ENDBRANCH  16  19
BRANCH  18  21
ATOM     21  O   UNL     1     142.259 126.304 151.759  1.00  0.00    -0.504 OA
ATOM     22  H   UNL     1     141.397 126.756 152.046  1.00  0.00     0.293 HD
ENDBRANCH  18  21
ENDBRANCH   3  13
BRANCH  10  23
ATOM     23  O   UNL     1     142.837 125.805 142.013  1.00  0.00    -0.507 OA
ATOM     24  H   UNL     1     143.042 126.602 141.431  1.00  0.00     0.293 HD
ENDBRANCH  10  23
BRANCH  11  25
ATOM     25  O   UNL     1     146.871 123.400 143.155  1.00  0.00    -0.508 OA
ATOM     26  H   UNL     1     147.805 123.725 143.371  1.00  0.00     0.293 HD
ENDBRANCH  11  25
ENDBRANCH   1   2
BRANCH   1  27
ATOM     27  C   UNL     1     141.475 129.186 146.658  1.00  0.00     0.339 C 
ATOM     28  C   UNL     1     140.180 129.772 146.048  1.00  0.00     0.214 C 
ATOM     29  O   UNL     1     141.685 129.700 147.963  1.00  0.00    -0.332 OA
ATOM     30  C   UNL     1     138.977 129.469 146.951  1.00  0.00     0.180 C 
ATOM     31  C   UNL     1     140.653 129.309 148.859  1.00  0.00     0.179 C 
ATOM     32  C   UNL     1     139.283 129.879 148.407  1.00  0.00     0.177 C 
BRANCH  28  33
ATOM     33  O   UNL     1     140.311 131.165 145.898  1.00  0.00    -0.384 OA
ATOM     34  H   UNL     1     139.616 131.580 146.475  1.00  0.00     0.211 HD
ENDBRANCH  28  33
BRANCH  30  35
ATOM     35  O   UNL     1     137.861 130.169 146.466  1.00  0.00    -0.387 OA
ATOM     36  H   UNL     1     137.286 130.383 147.247  1.00  0.00     0.211 HD
ENDBRANCH  30  35
BRANCH  31  37
ATOM     37  C   UNL     1     141.039 129.818 150.270  1.00  0.00     0.191 C 
BRANCH  37  38
ATOM     38  O   UNL     1     140.627 128.982 151.330  1.00  0.00    -0.394 OA
ATOM     39  H   UNL     1     139.730 129.256 151.632  1.00  0.00     0.210 HD
ENDBRANCH  37  38
ENDBRANCH  31  37
BRANCH  32  40
ATOM     40  O   UNL     1     138.268 129.390 149.250  1.00  0.00    -0.387 OA
ATOM     41  H   UNL     1     137.505 129.142 148.667  1.00  0.00     0.211 HD
ENDBRANCH  32  40
ENDBRANCH   1  27
TORSDOF 12
ENDMDL
MODEL 2
REMARK VINA RESULT:    -6.701      2.788      4.640
REMARK INTER + INTRA:         -11.560
REMARK INTER:                 -10.078
REMARK INTRA:                  -1.482
REMARK UNBOUND:                -1.726
REMARK SMILES O=c1c(O[C@@H]2O[C@@H](CO)[C@H](O)[C@@H](O)[C@H]2O)c(-c2ccc(O)c(O)c2)oc2cc(O)cc(O)c12
REMARK SMILES IDX 4 1 3 2 16 3 25 4 2 5 26 6 1 7 33 8 27 9 31 10 28 11 30 12
REMARK SMILES IDX 17 13 18 14 19 15 20 16 24 17 22 18 21 19 23 21 32 23 29 25
REMARK SMILES IDX 5 27 14 28 6 29 12 30 7 31 10 32 15 33 13 35 8 37 9 38 11 40
REMARK H PARENT 21 20 23 22 32 24 29 26 15 34 13 36 9 39 11 41
REMARK Flexibility Score: inf
ROOT
ATOM      1  O   UNL     1     144.584 126.602 146.968  1.00  0.00    -0.454 OA
ENDROOT
BRANCH   1   2
ATOM      2  C   UNL     1     144.822 126.244 145.630  1.00  0.00     0.214 A 
ATOM      3  C   UNL     1     145.759 126.964 144.872  1.00  0.00     0.180 A 
ATOM      4  O   UNL     1     146.085 126.550 143.655  1.00  0.00    -0.452 OA
ATOM      5  C   UNL     1     144.157 125.163 145.028  1.00  0.00     0.239 A 
ATOM      6  C   UNL     1     145.500 125.517 143.055  1.00  0.00     0.146 A 
ATOM      7  O   UNL     1     143.250 124.560 145.666  1.00  0.00    -0.285 OA
ATOM      8  C   UNL     1     144.489 124.780 143.715  1.00  0.00     0.111 A 
ATOM      9  C   UNL     1     145.837 125.224 141.729  1.00  0.00     0.094 A 
ATOM     10  C   UNL     1     143.827 123.741 143.015  1.00  0.00     0.134 A 
ATOM     11  C   UNL     1     145.151 124.229 141.031  1.00  0.00     0.123 A 
ATOM     12  C   UNL     1     144.162 123.482 141.674  1.00  0.00     0.093 A 
BRANCH   3  13
ATOM     13  C   UNL     1     146.364 128.207 145.380  1.00  0.00     0.025 A 
ATOM     14  C   UNL     1     147.263 128.147 146.447  1.00  0.00     0.016 A 
ATOM     15  C   UNL     1     147.750 129.317 147.030  1.00  0.00     0.051 A 
ATOM     16  C   UNL     1     147.315 130.565 146.568  1.00  0.00     0.157 A 
ATOM     17  C   UNL     1     145.943 129.457 144.902  1.00  0.00     0.062 A 
ATOM     18  C   UNL     1     146.428 130.640 145.485  1.00  0.00     0.158 A 
BRANCH  16  19
ATOM     19  O   UNL     1     147.788 131.717 147.194  1.00  0.00    -0.504 OA
ATOM     20  H   UNL     1     148.778 131.952 147.248  1.00  0.00     0.293 HD
ENDBRANCH  16  19
BRANCH  18  21
ATOM     21  O   UNL     1     146.020 131.882 145.000  1.00  0.00    -0.504 OA
ATOM     22  H   UNL     1     145.065 132.205 145.119  1.00  0.00     0.293 HD
ENDBRANCH  18  21
ENDBRANCH   3  13
BRANCH  10  23
ATOM     23  O   UNL     1     142.814 123.000 143.623  1.00  0.00    -0.507 OA
ATOM     24  H   UNL     1     143.021 122.300 144.318  1.00  0.00     0.293 HD
ENDBRANCH  10  23
BRANCH  11  25
ATOM     25  O   UNL     1     145.448 123.992 139.694  1.00  0.00    -0.508 OA
ATOM     26  H   UNL     1     146.412 123.951 139.389  1.00  0.00     0.293 HD
ENDBRANCH  11  25
ENDBRANCH   1   2
BRANCH   1  27
ATOM     27  C   UNL     1     143.575 127.543 147.364  1.00  0.00     0.339 C 
ATOM     28  C   UNL     1     142.425 126.864 148.143  1.00  0.00     0.214 C 
ATOM     29  O   UNL     1     144.133 128.602 148.125  1.00  0.00    -0.332 OA
ATOM     30  C   UNL     1     142.927 126.351 149.499  1.00  0.00     0.180 C 
ATOM     31  C   UNL     1     144.736 128.131 149.324  1.00  0.00     0.179 C 
ATOM     32  C   UNL     1     143.682 127.468 150.249  1.00  0.00     0.177 C 
BRANCH  28  33
ATOM     33  O   UNL     1     141.380 127.783 148.350  1.00  0.00    -0.384 OA
ATOM     34  H   UNL     1     141.721 128.463 148.990  1.00  0.00     0.211 HD
ENDBRANCH  28  33
BRANCH  30  35
ATOM     35  O   UNL     1     141.825 125.911 150.251  1.00  0.00    -0.387 OA
ATOM     36  H   UNL     1     142.173 125.601 151.129  1.00  0.00     0.211 HD
ENDBRANCH  30  35
BRANCH  31  37
ATOM     37  C   UNL     1     145.413 129.342 150.014  1.00  0.00     0.191 C 
BRANCH  37  38
ATOM     38  O   UNL     1     146.363 129.000 151.000  1.00  0.00    -0.394 OA
ATOM     39  H   UNL     1     145.909 128.900 151.869  1.00  0.00     0.210 HD
ENDBRANCH  37  38
ENDBRANCH  31  37
BRANCH  32  40
ATOM     40  O   UNL     1     144.324 126.920 151.375  1.00  0.00    -0.387 OA
ATOM     41  H   UNL     1     145.052 127.546 151.623  1.00  0.00     0.211 HD
ENDBRANCH  32  40
ENDBRANCH   1  27
TORSDOF 12
ENDMDL
MODEL 3
REMARK VINA RESULT:    -6.674      1.456      2.514
REMARK INTER + INTRA:         -11.520
REMARK INTER:                 -10.023
REMARK INTRA:                  -1.497
REMARK UNBOUND:                -1.726
REMARK SMILES O=c1c(O[C@@H]2O[C@@H](CO)[C@H](O)[C@@H](O)[C@H]2O)c(-c2ccc(O)c(O)c2)oc2cc(O)cc(O)c12
REMARK SMILES IDX 4 1 3 2 16 3 25 4 2 5 26 6 1 7 33 8 27 9 31 10 28 11 30 12
REMARK SMILES IDX 17 13 18 14 19 15 20 16 24 17 22 18 21 19 23 21 32 23 29 25
REMARK SMILES IDX 5 27 14 28 6 29 12 30 7 31 10 32 15 33 13 35 8 37 9 38 11 40
REMARK H PARENT 21 20 23 22 32 24 29 26 15 34 13 36 9 39 11 41
REMARK Flexibility Score: inf
ROOT
ATOM      1  O   UNL     1     142.710 128.572 146.463  1.00  0.00    -0.454 OA
ENDROOT
BRANCH   1   2
ATOM      2  C   UNL     1     143.279 127.329 146.133  1.00  0.00     0.214 A 
ATOM      3  C   UNL     1     143.614 126.425 147.152  1.00  0.00     0.180 A 
ATOM      4  O   UNL     1     144.026 125.202 146.843  1.00  0.00    -0.452 OA
ATOM      5  C   UNL     1     143.505 126.956 144.798  1.00  0.00     0.239 A 
ATOM      6  C   UNL     1     144.230 124.796 145.593  1.00  0.00     0.146 A 
ATOM      7  O   UNL     1     143.291 127.789 143.875  1.00  0.00    -0.285 OA
ATOM      8  C   UNL     1     143.992 125.668 144.505  1.00  0.00     0.111 A 
ATOM      9  C   UNL     1     144.767 123.523 145.374  1.00  0.00     0.094 A 
ATOM     10  C   UNL     1     144.303 125.231 143.194  1.00  0.00     0.134 A 
ATOM     11  C   UNL     1     145.112 123.116 144.084  1.00  0.00     0.123 A 
ATOM     12  C   UNL     1     144.868 123.958 142.998  1.00  0.00     0.093 A 
BRANCH   3  13
ATOM     13  C   UNL     1     143.565 126.814 148.571  1.00  0.00     0.025 A 
ATOM     14  C   UNL     1     142.602 126.243 149.407  1.00  0.00     0.016 A 
ATOM     15  C   UNL     1     142.450 126.689 150.720  1.00  0.00     0.051 A 
ATOM     16  C   UNL     1     143.244 127.736 151.202  1.00  0.00     0.157 A 
ATOM     17  C   UNL     1     144.375 127.850 149.059  1.00  0.00     0.062 A 
ATOM     18  C   UNL     1     144.227 128.305 150.380  1.00  0.00     0.158 A 
BRANCH  16  19
ATOM     19  O   UNL     1     143.045 128.188 152.506  1.00  0.00    -0.504 OA
ATOM     20  H   UNL     1     142.505 127.668 153.196  1.00  0.00     0.293 HD
ENDBRANCH  16  19
BRANCH  18  21
ATOM     21  O   UNL     1     145.043 129.324 150.869  1.00  0.00    -0.504 OA
ATOM     22  H   UNL     1     145.102 129.519 151.864  1.00  0.00     0.293 HD
ENDBRANCH  18  21
ENDBRANCH   3  13
BRANCH  10  23
ATOM     23  O   UNL     1     144.097 126.065 142.094  1.00  0.00    -0.507 OA
ATOM     24  H   UNL     1     143.498 126.873 142.153  1.00  0.00     0.293 HD
ENDBRANCH  10  23
BRANCH  11  25
ATOM     25  O   UNL     1     145.708 121.875 143.886  1.00  0.00    -0.508 OA
ATOM     26  H   UNL     1     145.601 121.398 143.001  1.00  0.00     0.293 HD
ENDBRANCH  11  25
ENDBRANCH   1   2
BRANCH   1  27
ATOM     27  C   UNL     1     141.303 128.844 146.370  1.00  0.00     0.339 C 
ATOM     28  C   UNL     1     140.578 128.597 147.713  1.00  0.00     0.214 C 
ATOM     29  O   UNL     1     141.067 130.167 145.915  1.00  0.00    -0.332 OA
ATOM     30  C   UNL     1     141.028 129.621 148.763  1.00  0.00     0.180 C 
ATOM     31  C   UNL     1     141.607 131.137 146.803  1.00  0.00     0.179 C 
ATOM     32  C   UNL     1     140.926 131.052 148.194  1.00  0.00     0.177 C 
BRANCH  28  33
ATOM     33  O   UNL     1     139.186 128.699 147.529  1.00  0.00    -0.384 OA
ATOM     34  H   UNL     1     138.907 129.559 147.942  1.00  0.00     0.211 HD
ENDBRANCH  28  33
BRANCH  30  35
ATOM     35  O   UNL     1     140.219 129.484 149.902  1.00  0.00    -0.387 OA
ATOM     36  H   UNL     1     140.598 130.076 150.605  1.00  0.00     0.211 HD
ENDBRANCH  30  35
BRANCH  31  37
ATOM     37  C   UNL     1     141.402 132.530 146.157  1.00  0.00     0.191 C 
BRANCH  37  38
ATOM     38  O   UNL     1     142.363 133.495 146.525  1.00  0.00    -0.394 OA
ATOM     39  H   UNL     1     142.610 134.028 145.733  1.00  0.00     0.210 HD
ENDBRANCH  37  38
ENDBRANCH  31  37
BRANCH  32  40
ATOM     40  O   UNL     1     141.552 131.949 149.080  1.00  0.00    -0.387 OA
ATOM     41  H   UNL     1     140.857 132.255 149.717  1.00  0.00     0.211 HD
ENDBRANCH  32  40
ENDBRANCH   1  27
TORSDOF 12
ENDMDL
MODEL 4
REMARK VINA RESULT:    -6.672      5.774      9.366
REMARK INTER + INTRA:         -11.519
REMARK INTER:                 -10.087
REMARK INTRA:                  -1.432
REMARK UNBOUND:                -1.726
REMARK SMILES O=c1c(O[C@@H]2O[C@@H](CO)[C@H](O)[C@@H](O)[C@H]2O)c(-c2ccc(O)c(O)c2)oc2cc(O)cc(O)c12
REMARK SMILES IDX 4 1 3 2 16 3 25 4 2 5 26 6 1 7 33 8 27 9 31 10 28 11 30 12
REMARK SMILES IDX 17 13 18 14 19 15 20 16 24 17 22 18 21 19 23 21 32 23 29 25
REMARK SMILES IDX 5 27 14 28 6 29 12 30 7 31 10 32 15 33 13 35 8 37 9 38 11 40
REMARK H PARENT 21 20 23 22 32 24 29 26 15 34 13 36 9 39 11 41
REMARK Flexibility Score: inf
ROOT
ATOM      1  O   UNL     1     138.937 134.787 144.527  1.00  0.00    -0.454 OA
ENDROOT
BRANCH   1   2
ATOM      2  C   UNL     1     139.367 133.773 145.401  1.00  0.00     0.214 A 
ATOM      3  C   UNL     1     140.740 133.562 145.601  1.00  0.00     0.180 A 
ATOM      4  O   UNL     1     141.151 132.699 146.521  1.00  0.00    -0.452 OA
ATOM      5  C   UNL     1     138.452 132.968 146.100  1.00  0.00     0.239 A 
ATOM      6  C   UNL     1     140.320 131.935 147.225  1.00  0.00     0.146 A 
ATOM      7  O   UNL     1     137.218 133.086 145.867  1.00  0.00    -0.285 OA
ATOM      8  C   UNL     1     138.921 132.025 147.033  1.00  0.00     0.111 A 
ATOM      9  C   UNL     1     140.853 130.978 148.096  1.00  0.00     0.094 A 
ATOM     10  C   UNL     1     138.072 131.136 147.737  1.00  0.00     0.134 A 
ATOM     11  C   UNL     1     140.015 130.077 148.752  1.00  0.00     0.123 A 
ATOM     12  C   UNL     1     138.632 130.163 148.586  1.00  0.00     0.093 A 
BRANCH   3  13
ATOM     13  C   UNL     1     141.750 134.247 144.777  1.00  0.00     0.025 A 
ATOM     14  C   UNL     1     142.023 133.773 143.491  1.00  0.00     0.016 A 
ATOM     15  C   UNL     1     143.063 134.322 142.740  1.00  0.00     0.051 A 
ATOM     16  C   UNL     1     143.863 135.333 143.284  1.00  0.00     0.157 A 
ATOM     17  C   UNL     1     142.537 135.275 145.315  1.00  0.00     0.062 A 
ATOM     18  C   UNL     1     143.588 135.831 144.565  1.00  0.00     0.158 A 
BRANCH  16  19
ATOM     19  O   UNL     1     144.920 135.837 142.526  1.00  0.00    -0.504 OA
ATOM     20  H   UNL     1     144.930 136.783 142.149  1.00  0.00     0.293 HD
ENDBRANCH  16  19
BRANCH  18  21
ATOM     21  O   UNL     1     144.361 136.864 145.095  1.00  0.00    -0.504 OA
ATOM     22  H   UNL     1     143.966 137.784 145.261  1.00  0.00     0.293 HD
ENDBRANCH  18  21
ENDBRANCH   3  13
BRANCH  10  23
ATOM     23  O   UNL     1     136.689 131.181 147.566  1.00  0.00    -0.507 OA
ATOM     24  H   UNL     1     136.093 130.445 147.911  1.00  0.00     0.293 HD
ENDBRANCH  10  23
BRANCH  11  25
ATOM     25  O   UNL     1     140.561 129.087 149.562  1.00  0.00    -0.508 OA
ATOM     26  H   UNL     1     140.114 128.182 149.627  1.00  0.00     0.293 HD
ENDBRANCH  11  25
ENDBRANCH   1   2
BRANCH   1  27
ATOM     27  C   UNL     1     138.764 136.154 144.932  1.00  0.00     0.339 C 
ATOM     28  C   UNL     1     139.123 137.141 143.797  1.00  0.00     0.214 C 
ATOM     29  O   UNL     1     137.443 136.387 145.393  1.00  0.00    -0.332 OA
ATOM     30  C   UNL     1     138.118 137.024 142.645  1.00  0.00     0.180 C 
ATOM     31  C   UNL     1     136.477 136.142 144.378  1.00  0.00     0.179 C 
ATOM     32  C   UNL     1     136.673 137.110 143.183  1.00  0.00     0.177 C 
BRANCH  28  33
ATOM     33  O   UNL     1     139.115 138.459 144.292  1.00  0.00    -0.384 OA
ATOM     34  H   UNL     1     138.678 139.021 143.597  1.00  0.00     0.211 HD
ENDBRANCH  28  33
BRANCH  30  35
ATOM     35  O   UNL     1     138.363 138.056 141.725  1.00  0.00    -0.387 OA
ATOM     36  H   UNL     1     137.938 138.878 142.085  1.00  0.00     0.211 HD
ENDBRANCH  30  35
BRANCH  31  37
ATOM     37  C   UNL     1     135.075 136.309 145.016  1.00  0.00     0.191 C 
BRANCH  37  38
ATOM     38  O   UNL     1     134.213 137.182 144.320  1.00  0.00    -0.394 OA
ATOM     39  H   UNL     1     133.300 137.096 144.681  1.00  0.00     0.210 HD
ENDBRANCH  37  38
ENDBRANCH  31  37
BRANCH  32  40
ATOM     40  O   UNL     1     135.774 136.776 142.154  1.00  0.00    -0.387 OA
ATOM     41  H   UNL     1     135.975 135.841 141.889  1.00  0.00     0.211 HD
ENDBRANCH  32  40
ENDBRANCH   1  27
TORSDOF 12
ENDMDL
MODEL 5
REMARK VINA RESULT:    -6.669      5.356      9.013
REMARK INTER + INTRA:         -11.513
REMARK INTER:                 -10.247
REMARK INTRA:                  -1.266
REMARK UNBOUND:                -1.726
REMARK SMILES O=c1c(O[C@@H]2O[C@@H](CO)[C@H](O)[C@@H](O)[C@H]2O)c(-c2ccc(O)c(O)c2)oc2cc(O)cc(O)c12
REMARK SMILES IDX 4 1 3 2 16 3 25 4 2 5 26 6 1 7 33 8 27 9 31 10 28 11 30 12
REMARK SMILES IDX 17 13 18 14 19 15 20 16 24 17 22 18 21 19 23 21 32 23 29 25
REMARK SMILES IDX 5 27 14 28 6 29 12 30 7 31 10 32 15 33 13 35 8 37 9 38 11 40
REMARK H PARENT 21 20 23 22 32 24 29 26 15 34 13 36 9 39 11 41
REMARK Flexibility Score: inf
ROOT
ATOM      1  O   UNL     1     142.621 123.420 142.780  1.00  0.00    -0.454 OA
ENDROOT
BRANCH   1   2
ATOM      2  C   UNL     1     141.636 123.586 141.791  1.00  0.00     0.214 A 
ATOM      3  C   UNL     1     142.013 123.683 140.443  1.00  0.00     0.180 A 
ATOM      4  O   UNL     1     141.084 123.706 139.495  1.00  0.00    -0.452 OA
ATOM      5  C   UNL     1     140.270 123.639 142.115  1.00  0.00     0.239 A 
ATOM      6  C   UNL     1     139.780 123.732 139.754  1.00  0.00     0.146 A 
ATOM      7  O   UNL     1     139.920 123.641 143.327  1.00  0.00    -0.285 OA
ATOM      8  C   UNL     1     139.310 123.716 141.089  1.00  0.00     0.111 A 
ATOM      9  C   UNL     1     138.880 123.864 138.691  1.00  0.00     0.094 A 
ATOM     10  C   UNL     1     137.919 123.831 141.329  1.00  0.00     0.134 A 
ATOM     11  C   UNL     1     137.516 124.021 138.937  1.00  0.00     0.123 A 
ATOM     12  C   UNL     1     137.035 123.991 140.247  1.00  0.00     0.093 A 
BRANCH   3  13
ATOM     13  C   UNL     1     143.425 123.808 140.048  1.00  0.00     0.025 A 
ATOM     14  C   UNL     1     144.281 122.714 140.204  1.00  0.00     0.016 A 
ATOM     15  C   UNL     1     145.649 122.845 139.959  1.00  0.00     0.051 A 
ATOM     16  C   UNL     1     146.180 124.084 139.585  1.00  0.00     0.157 A 
ATOM     17  C   UNL     1     143.953 125.046 139.652  1.00  0.00     0.062 A 
ATOM     18  C   UNL     1     145.330 125.184 139.405  1.00  0.00     0.158 A 
BRANCH  16  19
ATOM     19  O   UNL     1     147.555 124.194 139.384  1.00  0.00    -0.504 OA
ATOM     20  H   UNL     1     147.997 125.041 139.032  1.00  0.00     0.293 HD
ENDBRANCH  16  19
BRANCH  18  21
ATOM     21  O   UNL     1     145.852 126.412 138.998  1.00  0.00    -0.504 OA
ATOM     22  H   UNL     1     146.174 127.096 139.674  1.00  0.00     0.293 HD
ENDBRANCH  18  21
ENDBRANCH   3  13
BRANCH  10  23
ATOM     23  O   UNL     1     137.415 123.834 142.630  1.00  0.00    -0.507 OA
ATOM     24  H   UNL     1     136.958 123.025 143.018  1.00  0.00     0.293 HD
ENDBRANCH  10  23
BRANCH  11  25
ATOM     25  O   UNL     1     136.640 124.220 137.875  1.00  0.00    -0.508 OA
ATOM     26  H   UNL     1     135.684 124.501 138.053  1.00  0.00     0.293 HD
ENDBRANCH  11  25
ENDBRANCH   1   2
BRANCH   1  27
ATOM     27  C   UNL     1     142.710 124.247 143.951  1.00  0.00     0.339 C 
ATOM     28  C   UNL     1     143.434 123.528 145.112  1.00  0.00     0.214 C 
ATOM     29  O   UNL     1     143.345 125.481 143.658  1.00  0.00    -0.332 OA
ATOM     30  C   UNL     1     144.912 123.309 144.769  1.00  0.00     0.180 C 
ATOM     31  C   UNL     1     144.677 125.294 143.196  1.00  0.00     0.179 C 
ATOM     32  C   UNL     1     145.553 124.629 144.289  1.00  0.00     0.177 C 
BRANCH  28  33
ATOM     33  O   UNL     1     143.336 124.300 146.285  1.00  0.00    -0.384 OA
ATOM     34  H   UNL     1     144.258 124.380 146.651  1.00  0.00     0.211 HD
ENDBRANCH  28  33
BRANCH  30  35
ATOM     35  O   UNL     1     145.574 122.827 145.910  1.00  0.00    -0.387 OA
ATOM     36  H   UNL     1     146.400 123.368 146.021  1.00  0.00     0.211 HD
ENDBRANCH  30  35
BRANCH  31  37
ATOM     37  C   UNL     1     145.232 126.684 142.794  1.00  0.00     0.191 C 
BRANCH  37  38
ATOM     38  O   UNL     1     146.391 126.643 141.989  1.00  0.00    -0.394 OA
ATOM     39  H   UNL     1     147.156 126.996 142.500  1.00  0.00     0.210 HD
ENDBRANCH  37  38
ENDBRANCH  31  37
BRANCH  32  40
ATOM     40  O   UNL     1     146.832 124.361 143.768  1.00  0.00    -0.387 OA
ATOM     41  H   UNL     1     146.884 123.381 143.623  1.00  0.00     0.211 HD
ENDBRANCH  32  40
ENDBRANCH   1  27
TORSDOF 12
ENDMDL
MODEL 6
REMARK VINA RESULT:    -6.550      3.107      7.776
REMARK INTER + INTRA:         -11.339
REMARK INTER:                 -10.100
REMARK INTRA:                  -1.239
REMARK UNBOUND:                -1.726
REMARK SMILES O=c1c(O[C@@H]2O[C@@H](CO)[C@H](O)[C@@H](O)[C@H]2O)c(-c2ccc(O)c(O)c2)oc2cc(O)cc(O)c12
REMARK SMILES IDX 4 1 3 2 16 3 25 4 2 5 26 6 1 7 33 8 27 9 31 10 28 11 30 12
REMARK SMILES IDX 17 13 18 14 19 15 20 16 24 17 22 18 21 19 23 21 32 23 29 25
REMARK SMILES IDX 5 27 14 28 6 29 12 30 7 31 10 32 15 33 13 35 8 37 9 38 11 40
REMARK H PARENT 21 20 23 22 32 24 29 26 15 34 13 36 9 39 11 41
REMARK Flexibility Score: inf
ROOT
ATOM      1  O   UNL     1     144.691 127.156 145.219  1.00  0.00    -0.454 OA
ENDROOT
BRANCH   1   2
ATOM      2  C   UNL     1     144.381 127.557 146.530  1.00  0.00     0.214 A 
ATOM      3  C   UNL     1     144.691 128.860 146.951  1.00  0.00     0.180 A 
ATOM      4  O   UNL     1     144.283 129.286 148.140  1.00  0.00    -0.452 OA
ATOM      5  C   UNL     1     143.749 126.688 147.435  1.00  0.00     0.239 A 
ATOM      6  C   UNL     1     143.659 128.507 149.019  1.00  0.00     0.146 A 
ATOM      7  O   UNL     1     143.543 125.489 147.102  1.00  0.00    -0.285 OA
ATOM      8  C   UNL     1     143.375 127.156 148.709  1.00  0.00     0.111 A 
ATOM      9  C   UNL     1     143.364 129.018 150.287  1.00  0.00     0.094 A 
ATOM     10  C   UNL     1     142.788 126.332 149.700  1.00  0.00     0.134 A 
ATOM     11  C   UNL     1     142.826 128.190 151.273  1.00  0.00     0.123 A 
ATOM     12  C   UNL     1     142.526 126.859 150.978  1.00  0.00     0.093 A 
BRANCH   3  13
ATOM     13  C   UNL     1     145.503 129.762 146.119  1.00  0.00     0.025 A 
ATOM     14  C   UNL     1     146.832 130.012 146.472  1.00  0.00     0.016 A 
ATOM     15  C   UNL     1     147.582 130.961 145.777  1.00  0.00     0.051 A 
ATOM     16  C   UNL     1     146.998 131.695 144.738  1.00  0.00     0.157 A 
ATOM     17  C   UNL     1     144.922 130.482 145.064  1.00  0.00     0.062 A 
ATOM     18  C   UNL     1     145.672 131.440 144.361  1.00  0.00     0.158 A 
BRANCH  16  19
ATOM     19  O   UNL     1     147.760 132.663 144.086  1.00  0.00    -0.504 OA
ATOM     20  H   UNL     1     147.348 133.418 143.541  1.00  0.00     0.293 HD
ENDBRANCH  16  19
BRANCH  18  21
ATOM     21  O   UNL     1     145.099 132.145 143.303  1.00  0.00    -0.504 OA
ATOM     22  H   UNL     1     144.841 131.678 142.439  1.00  0.00     0.293 HD
ENDBRANCH  18  21
ENDBRANCH   3  13
BRANCH  10  23
ATOM     23  O   UNL     1     142.505 124.991 149.441  1.00  0.00    -0.507 OA
ATOM     24  H   UNL     1     142.497 124.628 148.501  1.00  0.00     0.293 HD
ENDBRANCH  10  23
BRANCH  11  25
ATOM     25  O   UNL     1     142.601 128.691 152.550  1.00  0.00    -0.508 OA
ATOM     26  H   UNL     1     142.086 128.141 153.226  1.00  0.00     0.293 HD
ENDBRANCH  11  25
ENDBRANCH   1   2
BRANCH   1  27
ATOM     27  C   UNL     1     145.999 126.724 144.815  1.00  0.00     0.339 C 
ATOM     28  C   UNL     1     146.203 125.208 145.041  1.00  0.00     0.214 C 
ATOM     29  O   UNL     1     146.254 127.063 143.461  1.00  0.00    -0.332 OA
ATOM     30  C   UNL     1     145.300 124.400 144.101  1.00  0.00     0.180 C 
ATOM     31  C   UNL     1     145.333 126.437 142.577  1.00  0.00     0.179 C 
ATOM     32  C   UNL     1     145.461 124.893 142.647  1.00  0.00     0.177 C 
BRANCH  28  33
ATOM     33  O   UNL     1     147.547 124.867 144.805  1.00  0.00    -0.384 OA
ATOM     34  H   UNL     1     147.940 125.609 144.272  1.00  0.00     0.211 HD
ENDBRANCH  28  33
BRANCH  30  35
ATOM     35  O   UNL     1     145.644 123.042 144.202  1.00  0.00    -0.387 OA
ATOM     36  H   UNL     1     146.618 122.971 144.020  1.00  0.00     0.211 HD
ENDBRANCH  30  35
BRANCH  31  37
ATOM     37  C   UNL     1     145.623 126.964 141.149  1.00  0.00     0.191 C 
BRANCH  37  38
ATOM     38  O   UNL     1     146.578 126.215 140.429  1.00  0.00    -0.394 OA
ATOM     39  H   UNL     1     147.474 126.598 140.581  1.00  0.00     0.210 HD
ENDBRANCH  37  38
ENDBRANCH  31  37
BRANCH  32  40
ATOM     40  O   UNL     1     144.470 124.301 141.843  1.00  0.00    -0.387 OA
ATOM     41  H   UNL     1     144.518 123.323 142.001  1.00  0.00     0.211 HD
ENDBRANCH  32  40
ENDBRANCH   1  27
TORSDOF 12
ENDMDL
MODEL 7
REMARK VINA RESULT:    -6.476      3.051      7.321
REMARK INTER + INTRA:         -11.230
REMARK INTER:                  -9.825
REMARK INTRA:                  -1.405
REMARK UNBOUND:                -1.726
REMARK SMILES O=c1c(O[C@@H]2O[C@@H](CO)[C@H](O)[C@@H](O)[C@H]2O)c(-c2ccc(O)c(O)c2)oc2cc(O)cc(O)c12
REMARK SMILES IDX 4 1 3 2 16 3 25 4 2 5 26 6 1 7 33 8 27 9 31 10 28 11 30 12
REMARK SMILES IDX 17 13 18 14 19 15 20 16 24 17 22 18 21 19 23 21 32 23 29 25
REMARK SMILES IDX 5 27 14 28 6 29 12 30 7 31 10 32 15 33 13 35 8 37 9 38 11 40
REMARK H PARENT 21 20 23 22 32 24 29 26 15 34 13 36 9 39 11 41
REMARK Flexibility Score: inf
ROOT
ATOM      1  O   UNL     1     144.888 126.908 145.348  1.00  0.00    -0.454 OA
ENDROOT
BRANCH   1   2
ATOM      2  C   UNL     1     144.531 127.337 146.639  1.00  0.00     0.214 A 
ATOM      3  C   UNL     1     144.838 128.644 147.048  1.00  0.00     0.180 A 
ATOM      4  O   UNL     1     144.388 129.098 148.210  1.00  0.00    -0.452 OA
ATOM      5  C   UNL     1     143.852 126.493 147.533  1.00  0.00     0.239 A 
ATOM      6  C   UNL     1     143.720 128.342 149.078  1.00  0.00     0.146 A 
ATOM      7  O   UNL     1     143.645 125.290 147.215  1.00  0.00    -0.285 OA
ATOM      8  C   UNL     1     143.433 126.989 148.782  1.00  0.00     0.111 A 
ATOM      9  C   UNL     1     143.380 128.880 150.324  1.00  0.00     0.094 A 
ATOM     10  C   UNL     1     142.795 126.191 149.764  1.00  0.00     0.134 A 
ATOM     11  C   UNL     1     142.793 128.077 151.302  1.00  0.00     0.123 A 
ATOM     12  C   UNL     1     142.489 126.744 151.020  1.00  0.00     0.093 A 
BRANCH   3  13
ATOM     13  C   UNL     1     145.694 129.522 146.233  1.00  0.00     0.025 A 
ATOM     14  C   UNL     1     147.056 129.620 146.528  1.00  0.00     0.016 A 
ATOM     15  C   UNL     1     147.862 130.540 145.856  1.00  0.00     0.051 A 
ATOM     16  C   UNL     1     147.304 131.395 144.900  1.00  0.00     0.157 A 
ATOM     17  C   UNL     1     145.137 130.365 145.260  1.00  0.00     0.062 A 
ATOM     18  C   UNL     1     145.943 131.294 144.580  1.00  0.00     0.158 A 
BRANCH  16  19
ATOM     19  O   UNL     1     148.125 132.331 144.272  1.00  0.00    -0.504 OA
ATOM     20  H   UNL     1     148.175 133.306 144.559  1.00  0.00     0.293 HD
ENDBRANCH  16  19
BRANCH  18  21
ATOM     21  O   UNL     1     145.391 132.122 143.602  1.00  0.00    -0.504 OA
ATOM     22  H   UNL     1     144.386 132.237 143.517  1.00  0.00     0.293 HD
ENDBRANCH  18  21
ENDBRANCH   3  13
BRANCH  10  23
ATOM     23  O   UNL     1     142.508 124.848 149.518  1.00  0.00    -0.507 OA
ATOM     24  H   UNL     1     141.658 124.423 149.854  1.00  0.00     0.293 HD
ENDBRANCH  10  23
BRANCH  11  25
ATOM     25  O   UNL     1     142.522 128.605 152.559  1.00  0.00    -0.508 OA
ATOM     26  H   UNL     1     141.791 129.295 152.672  1.00  0.00     0.293 HD
ENDBRANCH  11  25
ENDBRANCH   1   2
BRANCH   1  27
ATOM     27  C   UNL     1     144.015 127.014 144.213  1.00  0.00     0.339 C 
ATOM     28  C   UNL     1     144.793 127.327 142.914  1.00  0.00     0.214 C 
ATOM     29  O   UNL     1     143.237 125.839 144.055  1.00  0.00    -0.332 OA
ATOM     30  C   UNL     1     145.679 126.138 142.520  1.00  0.00     0.180 C 
ATOM     31  C   UNL     1     144.049 124.693 143.833  1.00  0.00     0.179 C 
ATOM     32  C   UNL     1     144.855 124.833 142.516  1.00  0.00     0.177 C 
BRANCH  28  33
ATOM     33  O   UNL     1     143.889 127.600 141.871  1.00  0.00    -0.384 OA
ATOM     34  H   UNL     1     144.390 128.123 141.190  1.00  0.00     0.211 HD
ENDBRANCH  28  33
BRANCH  30  35
ATOM     35  O   UNL     1     146.222 126.382 141.249  1.00  0.00    -0.387 OA
ATOM     36  H   UNL     1     147.209 126.434 141.355  1.00  0.00     0.211 HD
ENDBRANCH  30  35
BRANCH  31  37
ATOM     37  C   UNL     1     143.114 123.457 143.794  1.00  0.00     0.191 C 
BRANCH  37  38
ATOM     38  O   UNL     1     142.639 123.040 145.056  1.00  0.00    -0.394 OA
ATOM     39  H   UNL     1     141.767 122.595 144.945  1.00  0.00     0.210 HD
ENDBRANCH  37  38
ENDBRANCH  31  37
BRANCH  32  40
ATOM     40  O   UNL     1     145.725 123.736 142.377  1.00  0.00    -0.387 OA
ATOM     41  H   UNL     1     145.162 122.950 142.155  1.00  0.00     0.211 HD
ENDBRANCH  32  40
ENDBRANCH   1  27
TORSDOF 12
ENDMDL
MODEL 8
REMARK VINA RESULT:    -6.442      9.020     12.184
REMARK INTER + INTRA:         -11.181
REMARK INTER:                  -9.867
REMARK INTRA:                  -1.314
REMARK UNBOUND:                -1.726
REMARK SMILES O=c1c(O[C@@H]2O[C@@H](CO)[C@H](O)[C@@H](O)[C@H]2O)c(-c2ccc(O)c(O)c2)oc2cc(O)cc(O)c12
REMARK SMILES IDX 4 1 3 2 16 3 25 4 2 5 26 6 1 7 33 8 27 9 31 10 28 11 30 12
REMARK SMILES IDX 17 13 18 14 19 15 20 16 24 17 22 18 21 19 23 21 32 23 29 25
REMARK SMILES IDX 5 27 14 28 6 29 12 30 7 31 10 32 15 33 13 35 8 37 9 38 11 40
REMARK H PARENT 21 20 23 22 32 24 29 26 15 34 13 36 9 39 11 41
REMARK Flexibility Score: inf
ROOT
ATOM      1  O   UNL     1     142.603 135.979 141.404  1.00  0.00    -0.454 OA
ENDROOT
BRANCH   1   2
ATOM      2  C   UNL     1     143.387 137.014 141.942  1.00  0.00     0.214 A 
ATOM      3  C   UNL     1     142.990 137.639 143.135  1.00  0.00     0.180 A 
ATOM      4  O   UNL     1     143.791 138.521 143.718  1.00  0.00    -0.452 OA
ATOM      5  C   UNL     1     144.577 137.432 141.325  1.00  0.00     0.239 A 
ATOM      6  C   UNL     1     144.939 138.929 143.184  1.00  0.00     0.146 A 
ATOM      7  O   UNL     1     144.903 136.942 140.209  1.00  0.00    -0.285 OA
ATOM      8  C   UNL     1     145.380 138.409 141.944  1.00  0.00     0.111 A 
ATOM      9  C   UNL     1     145.662 139.942 143.822  1.00  0.00     0.094 A 
ATOM     10  C   UNL     1     146.563 138.928 141.363  1.00  0.00     0.134 A 
ATOM     11  C   UNL     1     146.802 140.479 143.223  1.00  0.00     0.123 A 
ATOM     12  C   UNL     1     147.259 139.967 142.008  1.00  0.00     0.093 A 
BRANCH   3  13
ATOM     13  C   UNL     1     141.675 137.373 143.741  1.00  0.00     0.025 A 
ATOM     14  C   UNL     1     141.529 136.296 144.619  1.00  0.00     0.016 A 
ATOM     15  C   UNL     1     140.269 135.944 145.104  1.00  0.00     0.051 A 
ATOM     16  C   UNL     1     139.135 136.651 144.689  1.00  0.00     0.157 A 
ATOM     17  C   UNL     1     140.541 138.095 143.340  1.00  0.00     0.062 A 
ATOM     18  C   UNL     1     139.269 137.745 143.824  1.00  0.00     0.158 A 
BRANCH  16  19
ATOM     19  O   UNL     1     137.884 136.253 145.160  1.00  0.00    -0.504 OA
ATOM     20  H   UNL     1     137.017 136.441 144.659  1.00  0.00     0.293 HD
ENDBRANCH  16  19
BRANCH  18  21
ATOM     21  O   UNL     1     138.145 138.473 143.437  1.00  0.00    -0.504 OA
ATOM     22  H   UNL     1     137.902 138.585 142.457  1.00  0.00     0.293 HD
ENDBRANCH  18  21
ENDBRANCH   3  13
BRANCH  10  23
ATOM     23  O   UNL     1     147.025 138.454 140.135  1.00  0.00    -0.507 OA
ATOM     24  H   UNL     1     147.191 137.473 139.980  1.00  0.00     0.293 HD
ENDBRANCH  10  23
BRANCH  11  25
ATOM     25  O   UNL     1     147.473 141.533 143.834  1.00  0.00    -0.508 OA
ATOM     26  H   UNL     1     147.974 141.379 144.700  1.00  0.00     0.293 HD
ENDBRANCH  11  25
ENDBRANCH   1   2
BRANCH   1  27
ATOM     27  C   UNL     1     142.779 134.596 141.747  1.00  0.00     0.339 C 
ATOM     28  C   UNL     1     141.478 133.782 141.555  1.00  0.00     0.214 C 
ATOM     29  O   UNL     1     143.841 134.016 141.006  1.00  0.00    -0.332 OA
ATOM     30  C   UNL     1     141.116 133.694 140.067  1.00  0.00     0.180 C 
ATOM     31  C   UNL     1     143.592 134.055 139.607  1.00  0.00     0.179 C 
ATOM     32  C   UNL     1     142.335 133.221 139.246  1.00  0.00     0.177 C 
BRANCH  28  33
ATOM     33  O   UNL     1     141.646 132.485 142.073  1.00  0.00    -0.384 OA
ATOM     34  H   UNL     1     141.845 131.893 141.299  1.00  0.00     0.211 HD
ENDBRANCH  28  33
BRANCH  30  35
ATOM     35  O   UNL     1     140.044 132.799 139.916  1.00  0.00    -0.387 OA
ATOM     36  H   UNL     1     139.874 132.706 138.942  1.00  0.00     0.211 HD
ENDBRANCH  30  35
BRANCH  31  37
ATOM     37  C   UNL     1     144.855 133.511 138.892  1.00  0.00     0.191 C 
BRANCH  37  38
ATOM     38  O   UNL     1     145.720 134.506 138.391  1.00  0.00    -0.394 OA
ATOM     39  H   UNL     1     146.609 134.113 138.227  1.00  0.00     0.210 HD
ENDBRANCH  37  38
ENDBRANCH  31  37
BRANCH  32  40
ATOM     40  O   UNL     1     142.054 133.364 137.875  1.00  0.00    -0.387 OA
ATOM     41  H   UNL     1     142.526 134.180 137.568  1.00  0.00     0.211 HD
ENDBRANCH  32  40
ENDBRANCH   1  27
TORSDOF 12
ENDMDL
MODEL 9
REMARK VINA RESULT:    -6.311      5.218      9.750
REMARK INTER + INTRA:         -10.989
REMARK INTER:                  -9.238
REMARK INTRA:                  -1.750
REMARK UNBOUND:                -1.726
REMARK SMILES O=c1c(O[C@@H]2O[C@@H](CO)[C@H](O)[C@@H](O)[C@H]2O)c(-c2ccc(O)c(O)c2)oc2cc(O)cc(O)c12
REMARK SMILES IDX 4 1 3 2 16 3 25 4 2 5 26 6 1 7 33 8 27 9 31 10 28 11 30 12
REMARK SMILES IDX 17 13 18 14 19 15 20 16 24 17 22 18 21 19 23 21 32 23 29 25
REMARK SMILES IDX 5 27 14 28 6 29 12 30 7 31 10 32 15 33 13 35 8 37 9 38 11 40
REMARK H PARENT 21 20 23 22 32 24 29 26 15 34 13 36 9 39 11 41
REMARK Flexibility Score: inf
ROOT
ATOM      1  O   UNL     1     139.500 133.158 146.683  1.00  0.00    -0.454 OA
ENDROOT
BRANCH   1   2
ATOM      2  C   UNL     1     139.021 134.180 145.843  1.00  0.00     0.214 A 
ATOM      3  C   UNL     1     137.702 134.128 145.366  1.00  0.00     0.180 A 
ATOM      4  O   UNL     1     137.203 135.151 144.685  1.00  0.00    -0.452 OA
ATOM      5  C   UNL     1     139.827 135.271 145.480  1.00  0.00     0.239 A 
ATOM      6  C   UNL     1     137.922 136.216 144.339  1.00  0.00     0.146 A 
ATOM      7  O   UNL     1     141.040 135.289 145.828  1.00  0.00    -0.285 OA
ATOM      8  C   UNL     1     139.283 136.317 144.711  1.00  0.00     0.111 A 
ATOM      9  C   UNL     1     137.336 137.195 143.529  1.00  0.00     0.094 A 
ATOM     10  C   UNL     1     140.040 137.424 144.254  1.00  0.00     0.134 A 
ATOM     11  C   UNL     1     138.099 138.258 143.046  1.00  0.00     0.123 A 
ATOM     12  C   UNL     1     139.439 138.381 143.417  1.00  0.00     0.093 A 
BRANCH   3  13
ATOM     13  C   UNL     1     136.861 132.936 145.564  1.00  0.00     0.025 A 
ATOM     14  C   UNL     1     136.760 131.989 144.541  1.00  0.00     0.016 A 
ATOM     15  C   UNL     1     135.871 130.919 144.652  1.00  0.00     0.051 A 
ATOM     16  C   UNL     1     135.048 130.804 145.778  1.00  0.00     0.157 A 
ATOM     17  C   UNL     1     136.051 132.810 146.702  1.00  0.00     0.062 A 
ATOM     18  C   UNL     1     135.153 131.736 146.820  1.00  0.00     0.158 A 
BRANCH  16  19
ATOM     19  O   UNL     1     134.142 129.746 145.845  1.00  0.00    -0.504 OA
ATOM     20  H   UNL     1     134.430 128.770 145.859  1.00  0.00     0.293 HD
ENDBRANCH  16  19
BRANCH  18  21
ATOM     21  O   UNL     1     134.359 131.604 147.959  1.00  0.00    -0.504 OA
ATOM     22  H   UNL     1     134.756 131.693 148.889  1.00  0.00     0.293 HD
ENDBRANCH  18  21
ENDBRANCH   3  13
BRANCH  10  23
ATOM     23  O   UNL     1     141.389 137.554 144.585  1.00  0.00    -0.507 OA
ATOM     24  H   UNL     1     142.077 136.895 144.256  1.00  0.00     0.293 HD
ENDBRANCH  10  23
BRANCH  11  25
ATOM     25  O   UNL     1     137.524 139.187 142.186  1.00  0.00    -0.508 OA
ATOM     26  H   UNL     1     137.609 139.071 141.184  1.00  0.00     0.293 HD
ENDBRANCH  11  25
ENDBRANCH   1   2
BRANCH   1  27
ATOM     27  C   UNL     1     140.433 132.156 146.251  1.00  0.00     0.339 C 
ATOM     28  C   UNL     1     141.563 131.937 147.282  1.00  0.00     0.214 C 
ATOM     29  O   UNL     1     139.774 130.932 145.968  1.00  0.00    -0.332 OA
ATOM     30  C   UNL     1     141.003 131.313 148.567  1.00  0.00     0.180 C 
ATOM     31  C   UNL     1     139.121 130.406 147.117  1.00  0.00     0.179 C 
ATOM     32  C   UNL     1     140.146 130.074 148.233  1.00  0.00     0.177 C 
BRANCH  28  33
ATOM     33  O   UNL     1     142.545 131.087 146.741  1.00  0.00    -0.384 OA
ATOM     34  H   UNL     1     143.294 131.063 147.395  1.00  0.00     0.211 HD
ENDBRANCH  28  33
BRANCH  30  35
ATOM     35  O   UNL     1     142.076 130.959 149.401  1.00  0.00    -0.387 OA
ATOM     36  H   UNL     1     141.770 130.204 149.970  1.00  0.00     0.211 HD
ENDBRANCH  30  35
BRANCH  31  37
ATOM     37  C   UNL     1     138.340 129.143 146.673  1.00  0.00     0.191 C 
BRANCH  37  38
ATOM     38  O   UNL     1     137.277 128.779 147.527  1.00  0.00    -0.394 OA
ATOM     39  H   UNL     1     136.663 129.543 147.627  1.00  0.00     0.210 HD
ENDBRANCH  37  38
ENDBRANCH  31  37
BRANCH  32  40
ATOM     40  O   UNL     1     139.463 129.657 149.389  1.00  0.00    -0.387 OA
ATOM     41  H   UNL     1     139.551 128.670 149.435  1.00  0.00     0.211 HD
ENDBRANCH  32  40
ENDBRANCH   1  27
TORSDOF 12
ENDMDL
