MODEL 1
REMARK VINA RESULT:    -4.657      0.000      0.000
REMARK INTER + INTRA:          -5.027
REMARK INTER:                  -4.930
REMARK INTRA:                  -0.097
REMARK UNBOUND:                -0.097
REMARK SMILES C=C(C)[C@H]1CC=C(C)C(=O)C1
REMARK SMILES IDX 8 1 7 2 6 3 5 4 4 5 11 6 9 7 10 8 2 9 1 10 3 11
REMARK H PARENT
REMARK Flexibility Score: inf
ROOT
ATOM      1  C   UNL     1      65.610 -14.026  11.288  1.00  0.00     0.048 C 
ATOM      2  C   UNL     1      66.360 -14.768  12.359  1.00  0.00    -0.012 C 
ATOM      3  C   UNL     1      67.654 -14.486  12.587  1.00  0.00    -0.019 C 
ATOM      4  C   UNL     1      68.457 -15.211  13.634  1.00  0.00     0.036 C 
ATOM      5  C   UNL     1      67.572 -15.616  14.829  1.00  0.00     0.025 C 
ATOM      6  C   UNL     1      66.365 -16.439  14.345  1.00  0.00     0.089 C 
ATOM      7  C   UNL     1      65.640 -15.718  13.243  1.00  0.00     0.158 C 
ATOM      8  O   UNL     1      64.416 -15.956  13.054  1.00  0.00    -0.295 OA
ENDROOT
BRANCH   5   9
ATOM      9  C   UNL     1      68.369 -16.358  15.893  1.00  0.00    -0.077 C 
ATOM     10  C   UNL     1      67.759 -16.975  16.921  1.00  0.00     0.008 C 
ATOM     11  C   UNL     1      69.873 -16.417  15.810  1.00  0.00     0.039 C 
ENDBRANCH   5   9
TORSDOF 1
ENDMDL
MODEL 2
REMARK VINA RESULT:    -4.475      1.934      4.638
REMARK INTER + INTRA:          -4.834
REMARK INTER:                  -4.745
REMARK INTRA:                  -0.090
REMARK UNBOUND:                -0.097
REMARK SMILES C=C(C)[C@H]1CC=C(C)C(=O)C1
REMARK SMILES IDX 8 1 7 2 6 3 5 4 4 5 11 6 9 7 10 8 2 9 1 10 3 11
REMARK H PARENT
REMARK Flexibility Score: inf
ROOT
ATOM      1  C   UNL     1      67.648 -17.065  16.990  1.00  0.00     0.048 C 
ATOM      2  C   UNL     1      67.334 -16.523  15.623  1.00  0.00    -0.012 C 
ATOM      3  C   UNL     1      66.061 -16.484  15.195  1.00  0.00    -0.019 C 
ATOM      4  C   UNL     1      65.693 -15.969  13.829  1.00  0.00     0.036 C 
ATOM      5  C   UNL     1      66.653 -14.849  13.382  1.00  0.00     0.025 C 
ATOM      6  C   UNL     1      68.112 -15.338  13.448  1.00  0.00     0.089 C 
ATOM      7  C   UNL     1      68.413 -15.920  14.801  1.00  0.00     0.158 C 
ATOM      8  O   UNL     1      69.604 -15.923  15.217  1.00  0.00    -0.295 OA
ENDROOT
BRANCH   5   9
ATOM      9  C   UNL     1      66.299 -14.324  11.997  1.00  0.00    -0.077 C 
ATOM     10  C   UNL     1      65.350 -13.386  11.826  1.00  0.00     0.008 C 
ATOM     11  C   UNL     1      67.016 -14.852  10.781  1.00  0.00     0.039 C 
ENDBRANCH   5   9
TORSDOF 1
ENDMDL
MODEL 3
REMARK VINA RESULT:    -4.273      1.725      4.351
REMARK INTER + INTRA:          -4.620
REMARK INTER:                  -4.527
REMARK INTRA:                  -0.093
REMARK UNBOUND:                -0.097
REMARK SMILES C=C(C)[C@H]1CC=C(C)C(=O)C1
REMARK SMILES IDX 8 1 7 2 6 3 5 4 4 5 11 6 9 7 10 8 2 9 1 10 3 11
REMARK H PARENT
REMARK Flexibility Score: inf
ROOT
ATOM      1  C   UNL     1      69.087 -17.124  16.902  1.00  0.00     0.048 C 
ATOM      2  C   UNL     1      68.259 -16.526  15.800  1.00  0.00    -0.012 C 
ATOM      3  C   UNL     1      68.861 -16.014  14.712  1.00  0.00    -0.019 C 
ATOM      4  C   UNL     1      68.081 -15.387  13.588  1.00  0.00     0.036 C 
ATOM      5  C   UNL     1      66.711 -16.070  13.415  1.00  0.00     0.025 C 
ATOM      6  C   UNL     1      65.934 -16.054  14.744  1.00  0.00     0.089 C 
ATOM      7  C   UNL     1      66.778 -16.612  15.857  1.00  0.00     0.158 C 
ATOM      8  O   UNL     1      66.211 -17.125  16.860  1.00  0.00    -0.295 OA
ENDROOT
BRANCH   5   9
ATOM      9  C   UNL     1      65.906 -15.440  12.286  1.00  0.00    -0.077 C 
ATOM     10  C   UNL     1      65.741 -14.108  12.205  1.00  0.00     0.008 C 
ATOM     11  C   UNL     1      65.277 -16.309  11.229  1.00  0.00     0.039 C 
ENDBRANCH   5   9
TORSDOF 1
ENDMDL
MODEL 4
REMARK VINA RESULT:    -4.001      2.874      3.521
REMARK INTER + INTRA:          -4.333
REMARK INTER:                  -4.238
REMARK INTRA:                  -0.095
REMARK UNBOUND:                -0.097
REMARK SMILES C=C(C)[C@H]1CC=C(C)C(=O)C1
REMARK SMILES IDX 8 1 7 2 6 3 5 4 4 5 11 6 9 7 10 8 2 9 1 10 3 11
REMARK H PARENT
REMARK Flexibility Score: inf
ROOT
ATOM      1  C   UNL     1      68.432 -16.587   8.552  1.00  0.00     0.048 C 
ATOM      2  C   UNL     1      68.029 -16.296   9.970  1.00  0.00    -0.012 C 
ATOM      3  C   UNL     1      67.187 -17.125  10.610  1.00  0.00    -0.019 C 
ATOM      4  C   UNL     1      66.736 -16.871  12.024  1.00  0.00     0.036 C 
ATOM      5  C   UNL     1      67.840 -16.173  12.841  1.00  0.00     0.025 C 
ATOM      6  C   UNL     1      68.294 -14.883  12.132  1.00  0.00     0.089 C 
ATOM      7  C   UNL     1      68.656 -15.166  10.700  1.00  0.00     0.158 C 
ATOM      8  O   UNL     1      69.475 -14.408  10.113  1.00  0.00    -0.295 OA
ENDROOT
BRANCH   5   9
ATOM      9  C   UNL     1      67.395 -15.901  14.271  1.00  0.00    -0.077 C 
ATOM     10  C   UNL     1      66.098 -15.718  14.578  1.00  0.00     0.008 C 
ATOM     11  C   UNL     1      68.413 -15.834  15.381  1.00  0.00     0.039 C 
ENDBRANCH   5   9
TORSDOF 1
ENDMDL
MODEL 5
REMARK VINA RESULT:    -3.835      9.385     11.471
REMARK INTER + INTRA:          -4.156
REMARK INTER:                  -4.067
REMARK INTRA:                  -0.089
REMARK UNBOUND:                -0.097
REMARK SMILES C=C(C)[C@H]1CC=C(C)C(=O)C1
REMARK SMILES IDX 8 1 7 2 6 3 5 4 4 5 11 6 9 7 10 8 2 9 1 10 3 11
REMARK H PARENT
REMARK Flexibility Score: inf
ROOT
ATOM      1  C   UNL     1      57.387 -17.045  15.141  1.00  0.00     0.048 C 
ATOM      2  C   UNL     1      57.057 -16.868  13.685  1.00  0.00    -0.012 C 
ATOM      3  C   UNL     1      55.798 -16.578  13.314  1.00  0.00    -0.019 C 
ATOM      4  C   UNL     1      55.409 -16.408  11.870  1.00  0.00     0.036 C 
ATOM      5  C   UNL     1      56.570 -15.814  11.050  1.00  0.00     0.025 C 
ATOM      6  C   UNL     1      57.837 -16.675  11.216  1.00  0.00     0.089 C 
ATOM      7  C   UNL     1      58.142 -16.890  12.673  1.00  0.00     0.158 C 
ATOM      8  O   UNL     1      59.331 -17.125  13.023  1.00  0.00    -0.295 OA
ENDROOT
BRANCH   5   9
ATOM      9  C   UNL     1      56.195 -15.645   9.584  1.00  0.00    -0.077 C 
ATOM     10  C   UNL     1      56.273 -14.449   8.975  1.00  0.00     0.008 C 
ATOM     11  C   UNL     1      55.726 -16.831   8.781  1.00  0.00     0.039 C 
ENDBRANCH   5   9
TORSDOF 1
ENDMDL
MODEL 6
REMARK VINA RESULT:    -3.829      2.750      4.743
REMARK INTER + INTRA:          -4.150
REMARK INTER:                  -4.052
REMARK INTRA:                  -0.098
REMARK UNBOUND:                -0.097
REMARK SMILES C=C(C)[C@H]1CC=C(C)C(=O)C1
REMARK SMILES IDX 8 1 7 2 6 3 5 4 4 5 11 6 9 7 10 8 2 9 1 10 3 11
REMARK H PARENT
REMARK Flexibility Score: inf
ROOT
ATOM      1  C   UNL     1      64.881 -16.121  13.459  1.00  0.00     0.048 C 
ATOM      2  C   UNL     1      66.046 -16.025  12.514  1.00  0.00    -0.012 C 
ATOM      3  C   UNL     1      66.045 -16.740  11.376  1.00  0.00    -0.019 C 
ATOM      4  C   UNL     1      67.193 -16.696  10.404  1.00  0.00     0.036 C 
ATOM      5  C   UNL     1      67.860 -15.306  10.397  1.00  0.00     0.025 C 
ATOM      6  C   UNL     1      68.287 -14.911  11.823  1.00  0.00     0.089 C 
ATOM      7  C   UNL     1      67.133 -15.049  12.777  1.00  0.00     0.158 C 
ATOM      8  O   UNL     1      67.117 -14.350  13.827  1.00  0.00    -0.295 OA
ENDROOT
BRANCH   5   9
ATOM      9  C   UNL     1      69.030 -15.248   9.424  1.00  0.00    -0.077 C 
ATOM     10  C   UNL     1      70.036 -14.372   9.591  1.00  0.00     0.008 C 
ATOM     11  C   UNL     1      69.081 -16.186   8.245  1.00  0.00     0.039 C 
ENDBRANCH   5   9
TORSDOF 1
ENDMDL
MODEL 7
REMARK VINA RESULT:    -3.825     20.346     21.213
REMARK INTER + INTRA:          -4.146
REMARK INTER:                  -4.052
REMARK INTRA:                  -0.094
REMARK UNBOUND:                -0.097
REMARK SMILES C=C(C)[C@H]1CC=C(C)C(=O)C1
REMARK SMILES IDX 8 1 7 2 6 3 5 4 4 5 11 6 9 7 10 8 2 9 1 10 3 11
REMARK H PARENT
REMARK Flexibility Score: inf
ROOT
ATOM      1  C   UNL     1      58.922  -2.484  22.998  1.00  0.00     0.048 C 
ATOM      2  C   UNL     1      57.927  -1.376  22.792  1.00  0.00    -0.012 C 
ATOM      3  C   UNL     1      57.608  -0.986  21.546  1.00  0.00    -0.019 C 
ATOM      4  C   UNL     1      56.632   0.130  21.283  1.00  0.00     0.036 C 
ATOM      5  C   UNL     1      55.541   0.179  22.370  1.00  0.00     0.025 C 
ATOM      6  C   UNL     1      56.181   0.280  23.767  1.00  0.00     0.089 C 
ATOM      7  C   UNL     1      57.209  -0.801  23.957  1.00  0.00     0.158 C 
ATOM      8  O   UNL     1      57.480  -1.192  25.125  1.00  0.00    -0.295 OA
ENDROOT
BRANCH   5   9
ATOM      9  C   UNL     1      54.551   1.309  22.123  1.00  0.00    -0.077 C 
ATOM     10  C   UNL     1      54.802   2.563  22.540  1.00  0.00     0.008 C 
ATOM     11  C   UNL     1      53.259   1.038  21.395  1.00  0.00     0.039 C 
ENDBRANCH   5   9
TORSDOF 1
ENDMDL
