MODEL 1
REMARK VINA RESULT:    -7.275      0.000      0.000
REMARK INTER + INTRA:          -8.856
REMARK INTER:                  -8.551
REMARK INTRA:                  -0.305
REMARK UNBOUND:                -0.305
REMARK SMILES O=c1cc(-c2ccc(O)c(O)c2)oc2cc(O)cc(O)c12
REMARK SMILES IDX 4 1 3 2 2 3 1 4 21 5 19 6 18 7 16 8 15 9 14 10 13 11 5 12
REMARK SMILES IDX 6 13 7 14 8 15 12 16 10 17 9 18 11 20 20 22 17 24
REMARK H PARENT 9 19 11 21 20 23 17 25
REMARK Flexibility Score: inf
ROOT
ATOM      1  C   UNL     1     -37.320  -8.083  20.079  1.00  0.00     0.138 A 
ATOM      2  C   UNL     1     -38.379  -7.733  19.229  1.00  0.00     0.100 A 
ATOM      3  C   UNL     1     -38.465  -6.432  18.732  1.00  0.00     0.197 A 
ATOM      4  O   UNL     1     -39.391  -6.167  17.922  1.00  0.00    -0.289 OA
ATOM      5  C   UNL     1     -37.501  -5.469  19.112  1.00  0.00     0.107 A 
ATOM      6  C   UNL     1     -37.509  -4.103  18.699  1.00  0.00     0.134 A 
ATOM      7  C   UNL     1     -36.438  -3.271  19.044  1.00  0.00     0.093 A 
ATOM      8  C   UNL     1     -35.390  -3.736  19.838  1.00  0.00     0.123 A 
ATOM      9  C   UNL     1     -35.398  -5.056  20.292  1.00  0.00     0.094 A 
ATOM     10  C   UNL     1     -36.434  -5.921  19.936  1.00  0.00     0.146 A 
ATOM     11  O   UNL     1     -36.397  -7.174  20.376  1.00  0.00    -0.456 OA
ENDROOT
BRANCH   1  12
ATOM     12  C   UNL     1     -37.182  -9.452  20.638  1.00  0.00     0.021 A 
ATOM     13  C   UNL     1     -38.334 -10.218  20.882  1.00  0.00     0.016 A 
ATOM     14  C   UNL     1     -38.232 -11.511  21.400  1.00  0.00     0.051 A 
ATOM     15  C   UNL     1     -36.979 -12.066  21.673  1.00  0.00     0.157 A 
ATOM     16  C   UNL     1     -35.920 -10.019  20.902  1.00  0.00     0.062 A 
ATOM     17  C   UNL     1     -35.816 -11.319  21.420  1.00  0.00     0.158 A 
BRANCH  15  18
ATOM     18  O   UNL     1     -36.908 -13.359  22.191  1.00  0.00    -0.504 OA
ATOM     19  H   UNL     1     -37.518 -14.102  21.869  1.00  0.00     0.293 HD
ENDBRANCH  15  18
BRANCH  17  20
ATOM     20  O   UNL     1     -34.563 -11.871  21.680  1.00  0.00    -0.504 OA
ATOM     21  H   UNL     1     -33.759 -11.290  21.889  1.00  0.00     0.293 HD
ENDBRANCH  17  20
ENDBRANCH   1  12
BRANCH   6  22
ATOM     22  O   UNL     1     -38.550  -3.513  17.975  1.00  0.00    -0.507 OA
ATOM     23  H   UNL     1     -38.528  -2.583  17.585  1.00  0.00     0.293 HD
ENDBRANCH   6  22
BRANCH   8  24
ATOM     24  O   UNL     1     -34.348  -2.875  20.174  1.00  0.00    -0.508 OA
ATOM     25  H   UNL     1     -33.848  -2.966  21.051  1.00  0.00     0.293 HD
ENDBRANCH   8  24
TORSDOF 5
ENDMDL
MODEL 2
REMARK VINA RESULT:    -7.222      2.641      4.397
REMARK INTER + INTRA:          -8.794
REMARK INTER:                  -8.530
REMARK INTRA:                  -0.264
REMARK UNBOUND:                -0.305
REMARK SMILES O=c1cc(-c2ccc(O)c(O)c2)oc2cc(O)cc(O)c12
REMARK SMILES IDX 4 1 3 2 2 3 1 4 21 5 19 6 18 7 16 8 15 9 14 10 13 11 5 12
REMARK SMILES IDX 6 13 7 14 8 15 12 16 10 17 9 18 11 20 20 22 17 24
REMARK H PARENT 9 19 11 21 20 23 17 25
REMARK Flexibility Score: inf
ROOT
ATOM      1  C   UNL     1     -36.466  -8.855  21.653  1.00  0.00     0.138 A 
ATOM      2  C   UNL     1     -37.612  -9.437  22.214  1.00  0.00     0.100 A 
ATOM      3  C   UNL     1     -38.866  -9.155  21.670  1.00  0.00     0.197 A 
ATOM      4  O   UNL     1     -39.868  -9.742  22.155  1.00  0.00    -0.289 OA
ATOM      5  C   UNL     1     -38.974  -8.261  20.579  1.00  0.00     0.107 A 
ATOM      6  C   UNL     1     -40.203  -7.868  19.969  1.00  0.00     0.134 A 
ATOM      7  C   UNL     1     -40.179  -7.068  18.820  1.00  0.00     0.093 A 
ATOM      8  C   UNL     1     -38.976  -6.597  18.295  1.00  0.00     0.123 A 
ATOM      9  C   UNL     1     -37.771  -6.931  18.916  1.00  0.00     0.094 A 
ATOM     10  C   UNL     1     -37.760  -7.755  20.042  1.00  0.00     0.146 A 
ATOM     11  O   UNL     1     -36.591  -8.062  20.594  1.00  0.00    -0.456 OA
ENDROOT
BRANCH   1  12
ATOM     12  C   UNL     1     -35.108  -9.120  22.193  1.00  0.00     0.021 A 
ATOM     13  C   UNL     1     -34.438  -8.109  22.903  1.00  0.00     0.016 A 
ATOM     14  C   UNL     1     -33.163  -8.335  23.429  1.00  0.00     0.051 A 
ATOM     15  C   UNL     1     -32.540  -9.575  23.262  1.00  0.00     0.157 A 
ATOM     16  C   UNL     1     -34.482 -10.372  22.039  1.00  0.00     0.062 A 
ATOM     17  C   UNL     1     -33.202 -10.600  22.568  1.00  0.00     0.158 A 
BRANCH  15  18
ATOM     18  O   UNL     1     -31.267  -9.770  23.797  1.00  0.00    -0.504 OA
ATOM     19  H   UNL     1     -30.526  -9.087  23.687  1.00  0.00     0.293 HD
ENDBRANCH  15  18
BRANCH  17  20
ATOM     20  O   UNL     1     -32.591 -11.843  22.409  1.00  0.00    -0.504 OA
ATOM     21  H   UNL     1     -31.588 -11.930  22.288  1.00  0.00     0.293 HD
ENDBRANCH  17  20
ENDBRANCH   1  12
BRANCH   6  22
ATOM     22  O   UNL     1     -41.465  -8.214  20.463  1.00  0.00    -0.507 OA
ATOM     23  H   UNL     1     -41.700  -8.294  21.440  1.00  0.00     0.293 HD
ENDBRANCH   6  22
BRANCH   8  24
ATOM     24  O   UNL     1     -38.991  -5.790  17.160  1.00  0.00    -0.508 OA
ATOM     25  H   UNL     1     -38.459  -4.929  17.115  1.00  0.00     0.293 HD
ENDBRANCH   8  24
TORSDOF 5
ENDMDL
MODEL 3
REMARK VINA RESULT:    -7.097      4.449      6.991
REMARK INTER + INTRA:          -8.647
REMARK INTER:                  -8.331
REMARK INTRA:                  -0.317
REMARK UNBOUND:                -0.305
REMARK SMILES O=c1cc(-c2ccc(O)c(O)c2)oc2cc(O)cc(O)c12
REMARK SMILES IDX 4 1 3 2 2 3 1 4 21 5 19 6 18 7 16 8 15 9 14 10 13 11 5 12
REMARK SMILES IDX 6 13 7 14 8 15 12 16 10 17 9 18 11 20 20 22 17 24
REMARK H PARENT 9 19 11 21 20 23 17 25
REMARK Flexibility Score: inf
ROOT
ATOM      1  C   UNL     1     -33.768  -9.477  22.354  1.00  0.00     0.138 A 
ATOM      2  C   UNL     1     -33.406  -8.123  22.307  1.00  0.00     0.100 A 
ATOM      3  C   UNL     1     -32.111  -7.743  22.661  1.00  0.00     0.197 A 
ATOM      4  O   UNL     1     -31.798  -6.529  22.549  1.00  0.00    -0.289 OA
ATOM      5  C   UNL     1     -31.184  -8.720  23.094  1.00  0.00     0.107 A 
ATOM      6  C   UNL     1     -29.849  -8.444  23.517  1.00  0.00     0.134 A 
ATOM      7  C   UNL     1     -28.985  -9.506  23.812  1.00  0.00     0.093 A 
ATOM      8  C   UNL     1     -29.424 -10.829  23.758  1.00  0.00     0.123 A 
ATOM      9  C   UNL     1     -30.743 -11.107  23.397  1.00  0.00     0.094 A 
ATOM     10  C   UNL     1     -31.619 -10.073  23.063  1.00  0.00     0.146 A 
ATOM     11  O   UNL     1     -32.862 -10.381  22.710  1.00  0.00    -0.456 OA
ENDROOT
BRANCH   1  12
ATOM     12  C   UNL     1     -35.132  -9.936  21.989  1.00  0.00     0.021 A 
ATOM     13  C   UNL     1     -36.148  -8.988  21.781  1.00  0.00     0.016 A 
ATOM     14  C   UNL     1     -37.438  -9.393  21.428  1.00  0.00     0.051 A 
ATOM     15  C   UNL     1     -37.734 -10.749  21.269  1.00  0.00     0.157 A 
ATOM     16  C   UNL     1     -35.432 -11.301  21.814  1.00  0.00     0.062 A 
ATOM     17  C   UNL     1     -36.727 -11.709  21.459  1.00  0.00     0.158 A 
BRANCH  15  18
ATOM     18  O   UNL     1     -39.031 -11.123  20.919  1.00  0.00    -0.504 OA
ATOM     19  H   UNL     1     -39.217 -11.902  20.297  1.00  0.00     0.293 HD
ENDBRANCH  15  18
BRANCH  17  20
ATOM     20  O   UNL     1     -37.013 -13.063  21.290  1.00  0.00    -0.504 OA
ATOM     21  H   UNL     1     -37.950 -13.427  21.413  1.00  0.00     0.293 HD
ENDBRANCH  17  20
ENDBRANCH   1  12
BRANCH   6  22
ATOM     22  O   UNL     1     -29.335  -7.155  23.687  1.00  0.00    -0.507 OA
ATOM     23  H   UNL     1     -28.396  -6.873  23.452  1.00  0.00     0.293 HD
ENDBRANCH   6  22
BRANCH   8  24
ATOM     24  O   UNL     1     -28.541 -11.858  24.074  1.00  0.00    -0.508 OA
ATOM     25  H   UNL     1     -28.165 -12.472  23.359  1.00  0.00     0.293 HD
ENDBRANCH   8  24
TORSDOF 5
ENDMDL
MODEL 4
REMARK VINA RESULT:    -6.765      4.027      6.411
REMARK INTER + INTRA:          -8.257
REMARK INTER:                  -7.962
REMARK INTRA:                  -0.295
REMARK UNBOUND:                -0.305
REMARK SMILES O=c1cc(-c2ccc(O)c(O)c2)oc2cc(O)cc(O)c12
REMARK SMILES IDX 4 1 3 2 2 3 1 4 21 5 19 6 18 7 16 8 15 9 14 10 13 11 5 12
REMARK SMILES IDX 6 13 7 14 8 15 12 16 10 17 9 18 11 20 20 22 17 24
REMARK H PARENT 9 19 11 21 20 23 17 25
REMARK Flexibility Score: inf
ROOT
ATOM      1  C   UNL     1     -33.326  -9.239  22.142  1.00  0.00     0.138 A 
ATOM      2  C   UNL     1     -33.580  -8.000  21.538  1.00  0.00     0.100 A 
ATOM      3  C   UNL     1     -34.821  -7.762  20.945  1.00  0.00     0.197 A 
ATOM      4  O   UNL     1     -35.041  -6.619  20.468  1.00  0.00    -0.289 OA
ATOM      5  C   UNL     1     -35.801  -8.783  20.931  1.00  0.00     0.107 A 
ATOM      6  C   UNL     1     -37.086  -8.668  20.322  1.00  0.00     0.134 A 
ATOM      7  C   UNL     1     -38.016  -9.703  20.472  1.00  0.00     0.093 A 
ATOM      8  C   UNL     1     -37.689 -10.873  21.157  1.00  0.00     0.123 A 
ATOM      9  C   UNL     1     -36.416 -11.018  21.712  1.00  0.00     0.094 A 
ATOM     10  C   UNL     1     -35.478  -9.990  21.608  1.00  0.00     0.146 A 
ATOM     11  O   UNL     1     -34.282 -10.161  22.163  1.00  0.00    -0.456 OA
ENDROOT
BRANCH   1  12
ATOM     12  C   UNL     1     -32.023  -9.545  22.785  1.00  0.00     0.021 A 
ATOM     13  C   UNL     1     -31.746 -10.861  23.194  1.00  0.00     0.016 A 
ATOM     14  C   UNL     1     -30.524 -11.177  23.794  1.00  0.00     0.051 A 
ATOM     15  C   UNL     1     -29.555 -10.189  23.988  1.00  0.00     0.157 A 
ATOM     16  C   UNL     1     -31.038  -8.555  22.970  1.00  0.00     0.062 A 
ATOM     17  C   UNL     1     -29.811  -8.872  23.571  1.00  0.00     0.158 A 
BRANCH  15  18
ATOM     18  O   UNL     1     -28.347 -10.534  24.591  1.00  0.00    -0.504 OA
ATOM     19  H   UNL     1     -27.984 -11.480  24.567  1.00  0.00     0.293 HD
ENDBRANCH  15  18
BRANCH  17  20
ATOM     20  O   UNL     1     -28.844  -7.884  23.752  1.00  0.00    -0.504 OA
ATOM     21  H   UNL     1     -28.384  -7.440  22.965  1.00  0.00     0.293 HD
ENDBRANCH  17  20
ENDBRANCH   1  12
BRANCH   6  22
ATOM     22  O   UNL     1     -37.486  -7.578  19.543  1.00  0.00    -0.507 OA
ATOM     23  H   UNL     1     -37.295  -6.611  19.762  1.00  0.00     0.293 HD
ENDBRANCH   6  22
BRANCH   8  24
ATOM     24  O   UNL     1     -38.635 -11.888  21.274  1.00  0.00    -0.508 OA
ATOM     25  H   UNL     1     -39.272 -11.931  22.062  1.00  0.00     0.293 HD
ENDBRANCH   8  24
TORSDOF 5
ENDMDL
MODEL 5
REMARK VINA RESULT:    -6.695      3.641      5.853
REMARK INTER + INTRA:          -8.174
REMARK INTER:                  -7.858
REMARK INTRA:                  -0.316
REMARK UNBOUND:                -0.305
REMARK SMILES O=c1cc(-c2ccc(O)c(O)c2)oc2cc(O)cc(O)c12
REMARK SMILES IDX 4 1 3 2 2 3 1 4 21 5 19 6 18 7 16 8 15 9 14 10 13 11 5 12
REMARK SMILES IDX 6 13 7 14 8 15 12 16 10 17 9 18 11 20 20 22 17 24
REMARK H PARENT 9 19 11 21 20 23 17 25
REMARK Flexibility Score: inf
ROOT
ATOM      1  C   UNL     1     -34.130  -9.912  22.087  1.00  0.00     0.138 A 
ATOM      2  C   UNL     1     -34.897 -11.086  22.086  1.00  0.00     0.100 A 
ATOM      3  C   UNL     1     -36.197 -11.060  21.579  1.00  0.00     0.197 A 
ATOM      4  O   UNL     1     -36.837 -12.143  21.533  1.00  0.00    -0.289 OA
ATOM      5  C   UNL     1     -36.741  -9.845  21.100  1.00  0.00     0.107 A 
ATOM      6  C   UNL     1     -38.068  -9.691  20.598  1.00  0.00     0.134 A 
ATOM      7  C   UNL     1     -38.458  -8.466  20.043  1.00  0.00     0.093 A 
ATOM      8  C   UNL     1     -37.592  -7.374  20.026  1.00  0.00     0.123 A 
ATOM      9  C   UNL     1     -36.310  -7.498  20.564  1.00  0.00     0.094 A 
ATOM     10  C   UNL     1     -35.879  -8.716  21.093  1.00  0.00     0.146 A 
ATOM     11  O   UNL     1     -34.645  -8.797  21.581  1.00  0.00    -0.456 OA
ENDROOT
BRANCH   1  12
ATOM     12  C   UNL     1     -32.742  -9.883  22.616  1.00  0.00     0.021 A 
ATOM     13  C   UNL     1     -32.077 -11.093  22.878  1.00  0.00     0.016 A 
ATOM     14  C   UNL     1     -30.768 -11.094  23.367  1.00  0.00     0.051 A 
ATOM     15  C   UNL     1     -30.098  -9.888  23.595  1.00  0.00     0.157 A 
ATOM     16  C   UNL     1     -32.058  -8.671  22.834  1.00  0.00     0.062 A 
ATOM     17  C   UNL     1     -30.743  -8.671  23.324  1.00  0.00     0.158 A 
BRANCH  15  18
ATOM     18  O   UNL     1     -28.794  -9.921  24.085  1.00  0.00    -0.504 OA
ATOM     19  H   UNL     1     -28.592 -10.044  25.071  1.00  0.00     0.293 HD
ENDBRANCH  15  18
BRANCH  17  20
ATOM     20  O   UNL     1     -30.076  -7.466  23.538  1.00  0.00    -0.504 OA
ATOM     21  H   UNL     1     -29.064  -7.414  23.553  1.00  0.00     0.293 HD
ENDBRANCH  17  20
ENDBRANCH   1  12
BRANCH   6  22
ATOM     22  O   UNL     1     -39.041 -10.694  20.643  1.00  0.00    -0.507 OA
ATOM     23  H   UNL     1     -39.913 -10.676  20.136  1.00  0.00     0.293 HD
ENDBRANCH   6  22
BRANCH   8  24
ATOM     24  O   UNL     1     -38.019  -6.166  19.480  1.00  0.00    -0.508 OA
ATOM     25  H   UNL     1     -38.998  -5.989  19.285  1.00  0.00     0.293 HD
ENDBRANCH   8  24
TORSDOF 5
ENDMDL
MODEL 6
REMARK VINA RESULT:    -6.691      3.348      6.373
REMARK INTER + INTRA:          -8.170
REMARK INTER:                  -7.906
REMARK INTRA:                  -0.264
REMARK UNBOUND:                -0.305
REMARK SMILES O=c1cc(-c2ccc(O)c(O)c2)oc2cc(O)cc(O)c12
REMARK SMILES IDX 4 1 3 2 2 3 1 4 21 5 19 6 18 7 16 8 15 9 14 10 13 11 5 12
REMARK SMILES IDX 6 13 7 14 8 15 12 16 10 17 9 18 11 20 20 22 17 24
REMARK H PARENT 9 19 11 21 20 23 17 25
REMARK Flexibility Score: inf
ROOT
ATOM      1  C   UNL     1     -36.945  -9.598  21.702  1.00  0.00     0.138 A 
ATOM      2  C   UNL     1     -36.644 -10.908  21.302  1.00  0.00     0.100 A 
ATOM      3  C   UNL     1     -35.378 -11.435  21.560  1.00  0.00     0.197 A 
ATOM      4  O   UNL     1     -35.159 -12.633  21.245  1.00  0.00    -0.289 OA
ATOM      5  C   UNL     1     -34.399 -10.634  22.194  1.00  0.00     0.107 A 
ATOM      6  C   UNL     1     -33.063 -11.051  22.472  1.00  0.00     0.134 A 
ATOM      7  C   UNL     1     -32.218 -10.214  23.209  1.00  0.00     0.093 A 
ATOM      8  C   UNL     1     -32.638  -8.951  23.627  1.00  0.00     0.123 A 
ATOM      9  C   UNL     1     -33.925  -8.511  23.314  1.00  0.00     0.094 A 
ATOM     10  C   UNL     1     -34.804  -9.337  22.610  1.00  0.00     0.146 A 
ATOM     11  O   UNL     1     -36.026  -8.887  22.345  1.00  0.00    -0.456 OA
ENDROOT
BRANCH   1  12
ATOM     12  C   UNL     1     -38.276  -8.988  21.451  1.00  0.00     0.021 A 
ATOM     13  C   UNL     1     -39.167  -8.810  22.523  1.00  0.00     0.016 A 
ATOM     14  C   UNL     1     -40.422  -8.231  22.315  1.00  0.00     0.051 A 
ATOM     15  C   UNL     1     -40.805  -7.812  21.038  1.00  0.00     0.157 A 
ATOM     16  C   UNL     1     -38.660  -8.552  20.168  1.00  0.00     0.062 A 
ATOM     17  C   UNL     1     -39.919  -7.969  19.959  1.00  0.00     0.158 A 
BRANCH  15  18
ATOM     18  O   UNL     1     -42.063  -7.239  20.862  1.00  0.00    -0.504 OA
ATOM     19  H   UNL     1     -42.210  -6.237  20.907  1.00  0.00     0.293 HD
ENDBRANCH  15  18
BRANCH  17  20
ATOM     20  O   UNL     1     -40.291  -7.543  18.685  1.00  0.00    -0.504 OA
ATOM     21  H   UNL     1     -39.729  -6.881  18.161  1.00  0.00     0.293 HD
ENDBRANCH  17  20
ENDBRANCH   1  12
BRANCH   6  22
ATOM     22  O   UNL     1     -32.514 -12.258  22.028  1.00  0.00    -0.507 OA
ATOM     23  H   UNL     1     -33.046 -13.040  21.678  1.00  0.00     0.293 HD
ENDBRANCH   6  22
BRANCH   8  24
ATOM     24  O   UNL     1     -31.765  -8.139  24.346  1.00  0.00    -0.508 OA
ATOM     25  H   UNL     1     -31.022  -8.531  24.913  1.00  0.00     0.293 HD
ENDBRANCH   8  24
TORSDOF 5
ENDMDL
MODEL 7
REMARK VINA RESULT:    -6.608      3.176      6.290
REMARK INTER + INTRA:          -8.073
REMARK INTER:                  -7.810
REMARK INTRA:                  -0.263
REMARK UNBOUND:                -0.305
REMARK SMILES O=c1cc(-c2ccc(O)c(O)c2)oc2cc(O)cc(O)c12
REMARK SMILES IDX 4 1 3 2 2 3 1 4 21 5 19 6 18 7 16 8 15 9 14 10 13 11 5 12
REMARK SMILES IDX 6 13 7 14 8 15 12 16 10 17 9 18 11 20 20 22 17 24
REMARK H PARENT 9 19 11 21 20 23 17 25
REMARK Flexibility Score: inf
ROOT
ATOM      1  C   UNL     1     -36.392  -8.070  22.032  1.00  0.00     0.138 A 
ATOM      2  C   UNL     1     -35.652  -6.901  22.260  1.00  0.00     0.100 A 
ATOM      3  C   UNL     1     -34.296  -6.992  22.575  1.00  0.00     0.197 A 
ATOM      4  O   UNL     1     -33.645  -5.924  22.713  1.00  0.00    -0.289 OA
ATOM      5  C   UNL     1     -33.685  -8.263  22.691  1.00  0.00     0.107 A 
ATOM      6  C   UNL     1     -32.320  -8.480  23.047  1.00  0.00     0.134 A 
ATOM      7  C   UNL     1     -31.796  -9.778  23.017  1.00  0.00     0.093 A 
ATOM      8  C   UNL     1     -32.602 -10.873  22.704  1.00  0.00     0.123 A 
ATOM      9  C   UNL     1     -33.951 -10.678  22.408  1.00  0.00     0.094 A 
ATOM     10  C   UNL     1     -34.495  -9.393  22.395  1.00  0.00     0.146 A 
ATOM     11  O   UNL     1     -35.781  -9.248  22.093  1.00  0.00    -0.456 OA
ENDROOT
BRANCH   1  12
ATOM     12  C   UNL     1     -37.837  -8.030  21.695  1.00  0.00     0.021 A 
ATOM     13  C   UNL     1     -38.790  -8.160  22.720  1.00  0.00     0.016 A 
ATOM     14  C   UNL     1     -40.156  -8.117  22.431  1.00  0.00     0.051 A 
ATOM     15  C   UNL     1     -40.595  -7.935  21.117  1.00  0.00     0.157 A 
ATOM     16  C   UNL     1     -38.284  -7.832  20.374  1.00  0.00     0.062 A 
ATOM     17  C   UNL     1     -39.656  -7.787  20.083  1.00  0.00     0.158 A 
BRANCH  15  18
ATOM     18  O   UNL     1     -41.965  -7.898  20.859  1.00  0.00    -0.504 OA
ATOM     19  H   UNL     1     -42.414  -8.562  20.239  1.00  0.00     0.293 HD
ENDBRANCH  15  18
BRANCH  17  20
ATOM     20  O   UNL     1     -40.088  -7.593  18.772  1.00  0.00    -0.504 OA
ATOM     21  H   UNL     1     -41.016  -7.244  18.564  1.00  0.00     0.293 HD
ENDBRANCH  17  20
ENDBRANCH   1  12
BRANCH   6  22
ATOM     22  O   UNL     1     -31.450  -7.465  23.457  1.00  0.00    -0.507 OA
ATOM     23  H   UNL     1     -31.026  -6.785  22.844  1.00  0.00     0.293 HD
ENDBRANCH   6  22
BRANCH   8  24
ATOM     24  O   UNL     1     -32.050 -12.152  22.699  1.00  0.00    -0.508 OA
ATOM     25  H   UNL     1     -31.758 -12.607  23.557  1.00  0.00     0.293 HD
ENDBRANCH   8  24
TORSDOF 5
ENDMDL
MODEL 8
REMARK VINA RESULT:    -6.563      4.277      6.626
REMARK INTER + INTRA:          -8.019
REMARK INTER:                  -7.723
REMARK INTRA:                  -0.295
REMARK UNBOUND:                -0.305
REMARK SMILES O=c1cc(-c2ccc(O)c(O)c2)oc2cc(O)cc(O)c12
REMARK SMILES IDX 4 1 3 2 2 3 1 4 21 5 19 6 18 7 16 8 15 9 14 10 13 11 5 12
REMARK SMILES IDX 6 13 7 14 8 15 12 16 10 17 9 18 11 20 20 22 17 24
REMARK H PARENT 9 19 11 21 20 23 17 25
REMARK Flexibility Score: inf
ROOT
ATOM      1  C   UNL     1     -33.675  -9.691  22.357  1.00  0.00     0.138 A 
ATOM      2  C   UNL     1     -32.765 -10.735  22.579  1.00  0.00     0.100 A 
ATOM      3  C   UNL     1     -31.464 -10.441  22.991  1.00  0.00     0.197 A 
ATOM      4  O   UNL     1     -30.691 -11.401  23.242  1.00  0.00    -0.289 OA
ATOM      5  C   UNL     1     -31.066  -9.093  23.152  1.00  0.00     0.107 A 
ATOM      6  C   UNL     1     -29.755  -8.673  23.530  1.00  0.00     0.134 A 
ATOM      7  C   UNL     1     -29.508  -7.316  23.772  1.00  0.00     0.093 A 
ATOM      8  C   UNL     1     -30.506  -6.358  23.592  1.00  0.00     0.123 A 
ATOM      9  C   UNL     1     -31.777  -6.753  23.171  1.00  0.00     0.094 A 
ATOM     10  C   UNL     1     -32.064  -8.101  22.955  1.00  0.00     0.146 A 
ATOM     11  O   UNL     1     -33.291  -8.437  22.569  1.00  0.00    -0.456 OA
ENDROOT
BRANCH   1  12
ATOM     12  C   UNL     1     -35.069  -9.948  21.916  1.00  0.00     0.021 A 
ATOM     13  C   UNL     1     -35.877  -8.870  21.515  1.00  0.00     0.016 A 
ATOM     14  C   UNL     1     -37.190  -9.085  21.088  1.00  0.00     0.051 A 
ATOM     15  C   UNL     1     -37.716 -10.378  21.046  1.00  0.00     0.157 A 
ATOM     16  C   UNL     1     -35.600 -11.251  21.860  1.00  0.00     0.062 A 
ATOM     17  C   UNL     1     -36.918 -11.468  21.429  1.00  0.00     0.158 A 
BRANCH  15  18
ATOM     18  O   UNL     1     -39.030 -10.561  20.617  1.00  0.00    -0.504 OA
ATOM     19  H   UNL     1     -39.347 -10.251  19.706  1.00  0.00     0.293 HD
ENDBRANCH  15  18
BRANCH  17  20
ATOM     20  O   UNL     1     -37.434 -12.762  21.379  1.00  0.00    -0.504 OA
ATOM     21  H   UNL     1     -36.830 -13.572  21.299  1.00  0.00     0.293 HD
ENDBRANCH  17  20
ENDBRANCH   1  12
BRANCH   6  22
ATOM     22  O   UNL     1     -28.664  -9.538  23.655  1.00  0.00    -0.507 OA
ATOM     23  H   UNL     1     -28.726 -10.544  23.698  1.00  0.00     0.293 HD
ENDBRANCH   6  22
BRANCH   8  24
ATOM     24  O   UNL     1     -30.220  -5.016  23.827  1.00  0.00    -0.508 OA
ATOM     25  H   UNL     1     -29.506  -4.525  23.300  1.00  0.00     0.293 HD
ENDBRANCH   8  24
TORSDOF 5
ENDMDL
MODEL 9
REMARK VINA RESULT:    -6.428      4.334      5.969
REMARK INTER + INTRA:          -7.860
REMARK INTER:                  -7.575
REMARK INTRA:                  -0.286
REMARK UNBOUND:                -0.305
REMARK SMILES O=c1cc(-c2ccc(O)c(O)c2)oc2cc(O)cc(O)c12
REMARK SMILES IDX 4 1 3 2 2 3 1 4 21 5 19 6 18 7 16 8 15 9 14 10 13 11 5 12
REMARK SMILES IDX 6 13 7 14 8 15 12 16 10 17 9 18 11 20 20 22 17 24
REMARK H PARENT 9 19 11 21 20 23 17 25
REMARK Flexibility Score: inf
ROOT
ATOM      1  C   UNL     1     -34.779  -9.216  22.808  1.00  0.00     0.138 A 
ATOM      2  C   UNL     1     -35.344 -10.026  21.813  1.00  0.00     0.100 A 
ATOM      3  C   UNL     1     -36.723  -9.994  21.596  1.00  0.00     0.197 A 
ATOM      4  O   UNL     1     -37.191 -10.685  20.655  1.00  0.00    -0.289 OA
ATOM      5  C   UNL     1     -37.542  -9.168  22.401  1.00  0.00     0.107 A 
ATOM      6  C   UNL     1     -38.963  -9.084  22.297  1.00  0.00     0.134 A 
ATOM      7  C   UNL     1     -39.657  -8.144  23.069  1.00  0.00     0.093 A 
ATOM      8  C   UNL     1     -38.990  -7.329  23.984  1.00  0.00     0.123 A 
ATOM      9  C   UNL     1     -37.607  -7.441  24.132  1.00  0.00     0.094 A 
ATOM     10  C   UNL     1     -36.882  -8.344  23.352  1.00  0.00     0.146 A 
ATOM     11  O   UNL     1     -35.564  -8.409  23.513  1.00  0.00    -0.456 OA
ENDROOT
BRANCH   1  12
ATOM     12  C   UNL     1     -33.320  -9.213  23.081  1.00  0.00     0.021 A 
ATOM     13  C   UNL     1     -32.696  -8.022  23.493  1.00  0.00     0.016 A 
ATOM     14  C   UNL     1     -31.326  -7.994  23.764  1.00  0.00     0.051 A 
ATOM     15  C   UNL     1     -30.557  -9.154  23.639  1.00  0.00     0.157 A 
ATOM     16  C   UNL     1     -32.543 -10.382  22.969  1.00  0.00     0.062 A 
ATOM     17  C   UNL     1     -31.167 -10.356  23.243  1.00  0.00     0.158 A 
BRANCH  15  18
ATOM     18  O   UNL     1     -29.191  -9.095  23.915  1.00  0.00    -0.504 OA
ATOM     19  H   UNL     1     -28.830  -8.642  24.746  1.00  0.00     0.293 HD
ENDBRANCH  15  18
BRANCH  17  20
ATOM     20  O   UNL     1     -30.407 -11.518  23.127  1.00  0.00    -0.504 OA
ATOM     21  H   UNL     1     -30.639 -12.358  23.645  1.00  0.00     0.293 HD
ENDBRANCH  17  20
ENDBRANCH   1  12
BRANCH   6  22
ATOM     22  O   UNL     1     -39.736  -9.911  21.477  1.00  0.00    -0.507 OA
ATOM     23  H   UNL     1     -39.376 -10.471  20.719  1.00  0.00     0.293 HD
ENDBRANCH   6  22
BRANCH   8  24
ATOM     24  O   UNL     1     -39.715  -6.416  24.746  1.00  0.00    -0.508 OA
ATOM     25  H   UNL     1     -40.117  -5.582  24.333  1.00  0.00     0.293 HD
ENDBRANCH   8  24
TORSDOF 5
ENDMDL
