MODEL 1
REMARK VINA RESULT:    -2.079      0.000      0.000
REMARK INTER + INTRA:          -2.161
REMARK INTER:                  -2.504
REMARK INTRA:                   0.343
REMARK UNBOUND:                 0.343
REMARK SMILES O=c1c(O)c(-c2ccc(O)cc2O)oc2cc(O)cc(O)c12
REMARK SMILES IDX 5 1 3 2 2 3 1 4 22 5 20 6 19 7 17 8 16 9 15 10 14 11 6 12
REMARK SMILES IDX 8 13 7 14 9 15 11 16 12 17 10 18 13 20 4 22 21 24 18 26
REMARK H PARENT 10 19 13 21 4 23 21 25 18 27
REMARK Flexibility Score: inf
ROOT
ATOM      1  C   UNL     1      -7.805   9.023  -9.134  1.00  0.00     0.184 A 
ATOM      2  C   UNL     1      -8.715   9.264 -10.176  1.00  0.00     0.208 A 
ATOM      3  C   UNL     1      -8.222   9.599 -11.446  1.00  0.00     0.238 A 
ATOM      4  O   UNL     1      -9.043   9.870 -12.361  1.00  0.00    -0.285 OA
ATOM      5  C   UNL     1      -6.825   9.667 -11.665  1.00  0.00     0.111 A 
ATOM      6  C   UNL     1      -6.213   9.957 -12.921  1.00  0.00     0.134 A 
ATOM      7  C   UNL     1      -4.825  10.125 -12.991  1.00  0.00     0.093 A 
ATOM      8  C   UNL     1      -4.020   9.948 -11.864  1.00  0.00     0.123 A 
ATOM      9  C   UNL     1      -4.602   9.606 -10.646  1.00  0.00     0.094 A 
ATOM     10  C   UNL     1      -5.988   9.468 -10.536  1.00  0.00     0.146 A 
ATOM     11  O   UNL     1      -6.502   9.154  -9.353  1.00  0.00    -0.451 OA
ENDROOT
BRANCH   1  12
ATOM     12  C   UNL     1      -8.256   8.642  -7.775  1.00  0.00     0.063 A 
ATOM     13  C   UNL     1      -9.995   8.565  -6.072  1.00  0.00     0.047 A 
ATOM     14  C   UNL     1      -9.559   8.948  -7.344  1.00  0.00     0.020 A 
ATOM     15  C   UNL     1      -9.138   7.862  -5.218  1.00  0.00     0.119 A 
ATOM     16  C   UNL     1      -7.845   7.541  -5.641  1.00  0.00     0.093 A 
ATOM     17  C   UNL     1      -7.399   7.924  -6.915  1.00  0.00     0.130 A 
BRANCH  15  18
ATOM     18  O   UNL     1      -9.562   7.475  -3.948  1.00  0.00    -0.508 OA
ATOM     19  H   UNL     1      -9.612   8.136  -3.182  1.00  0.00     0.293 HD
ENDBRANCH  15  18
BRANCH  17  20
ATOM     20  O   UNL     1      -6.104   7.603  -7.321  1.00  0.00    -0.507 OA
ATOM     21  H   UNL     1      -5.840   7.595  -8.299  1.00  0.00     0.293 HD
ENDBRANCH  17  20
ENDBRANCH   1  12
BRANCH   2  22
ATOM     22  O   UNL     1     -10.090   9.205  -9.933  1.00  0.00    -0.502 OA
ATOM     23  H   UNL     1     -10.566   9.867  -9.332  1.00  0.00     0.293 HD
ENDBRANCH   2  22
BRANCH   6  24
ATOM     24  O   UNL     1      -6.917  10.064 -14.125  1.00  0.00    -0.507 OA
ATOM     25  H   UNL     1      -7.460   9.324 -14.541  1.00  0.00     0.293 HD
ENDBRANCH   6  24
BRANCH   8  26
ATOM     26  O   UNL     1      -2.638  10.100 -11.946  1.00  0.00    -0.508 OA
ATOM     27  H   UNL     1      -2.164  10.882 -11.508  1.00  0.00     0.293 HD
ENDBRANCH   8  26
TORSDOF 6
ENDMDL
MODEL 2
REMARK VINA RESULT:    -1.975     14.506     15.781
REMARK INTER + INTRA:          -2.036
REMARK INTER:                  -1.645
REMARK INTRA:                  -0.390
REMARK UNBOUND:                 0.343
REMARK SMILES O=c1c(O)c(-c2ccc(O)cc2O)oc2cc(O)cc(O)c12
REMARK SMILES IDX 5 1 3 2 2 3 1 4 22 5 20 6 19 7 17 8 16 9 15 10 14 11 6 12
REMARK SMILES IDX 8 13 7 14 9 15 11 16 12 17 10 18 13 20 4 22 21 24 18 26
REMARK H PARENT 10 19 13 21 4 23 21 25 18 27
REMARK Flexibility Score: inf
ROOT
ATOM      1  C   UNL     1      -8.961  -4.590 -12.086  1.00  0.00     0.184 A 
ATOM      2  C   UNL     1      -8.559  -4.871 -10.770  1.00  0.00     0.208 A 
ATOM      3  C   UNL     1      -8.475  -6.209 -10.355  1.00  0.00     0.238 A 
ATOM      4  O   UNL     1      -8.169  -6.452  -9.158  1.00  0.00    -0.285 OA
ATOM      5  C   UNL     1      -8.771  -7.250 -11.267  1.00  0.00     0.111 A 
ATOM      6  C   UNL     1      -8.679  -8.643 -10.967  1.00  0.00     0.134 A 
ATOM      7  C   UNL     1      -9.120  -9.582 -11.906  1.00  0.00     0.093 A 
ATOM      8  C   UNL     1      -9.588  -9.183 -13.160  1.00  0.00     0.123 A 
ATOM      9  C   UNL     1      -9.626  -7.829 -13.485  1.00  0.00     0.094 A 
ATOM     10  C   UNL     1      -9.228  -6.865 -12.555  1.00  0.00     0.146 A 
ATOM     11  O   UNL     1      -9.292  -5.585 -12.901  1.00  0.00    -0.451 OA
ENDROOT
BRANCH   1  12
ATOM     12  C   UNL     1      -9.049  -3.203 -12.598  1.00  0.00     0.063 A 
ATOM     13  C   UNL     1     -10.061  -0.989 -12.530  1.00  0.00     0.047 A 
ATOM     14  C   UNL     1      -9.995  -2.306 -12.067  1.00  0.00     0.020 A 
ATOM     15  C   UNL     1      -9.177  -0.546 -13.521  1.00  0.00     0.119 A 
ATOM     16  C   UNL     1      -8.225  -1.425 -14.044  1.00  0.00     0.093 A 
ATOM     17  C   UNL     1      -8.154  -2.750 -13.588  1.00  0.00     0.130 A 
BRANCH  15  18
ATOM     18  O   UNL     1      -9.234   0.765 -13.988  1.00  0.00    -0.508 OA
ATOM     19  H   UNL     1      -8.666   1.074 -14.768  1.00  0.00     0.293 HD
ENDBRANCH  15  18
BRANCH  17  20
ATOM     20  O   UNL     1      -7.203  -3.617 -14.125  1.00  0.00    -0.507 OA
ATOM     21  H   UNL     1      -6.234  -3.595 -13.828  1.00  0.00     0.293 HD
ENDBRANCH  17  20
ENDBRANCH   1  12
BRANCH   2  22
ATOM     22  O   UNL     1      -8.285  -3.826  -9.883  1.00  0.00    -0.502 OA
ATOM     23  H   UNL     1      -8.958  -3.504  -9.198  1.00  0.00     0.293 HD
ENDBRANCH   2  22
BRANCH   6  24
ATOM     24  O   UNL     1      -8.142  -9.151  -9.780  1.00  0.00    -0.507 OA
ATOM     25  H   UNL     1      -8.226 -10.108  -9.474  1.00  0.00     0.293 HD
ENDBRANCH   6  24
BRANCH   8  26
ATOM     26  O   UNL     1     -10.010 -10.125 -14.095  1.00  0.00    -0.508 OA
ATOM     27  H   UNL     1     -10.844 -10.682 -13.947  1.00  0.00     0.293 HD
ENDBRANCH   8  26
TORSDOF 6
ENDMDL
MODEL 3
REMARK VINA RESULT:    -1.657     14.723     16.031
REMARK INTER + INTRA:          -1.653
REMARK INTER:                  -1.234
REMARK INTRA:                  -0.419
REMARK UNBOUND:                 0.343
REMARK SMILES O=c1c(O)c(-c2ccc(O)cc2O)oc2cc(O)cc(O)c12
REMARK SMILES IDX 5 1 3 2 2 3 1 4 22 5 20 6 19 7 17 8 16 9 15 10 14 11 6 12
REMARK SMILES IDX 8 13 7 14 9 15 11 16 12 17 10 18 13 20 4 22 21 24 18 26
REMARK H PARENT 10 19 13 21 4 23 21 25 18 27
REMARK Flexibility Score: inf
ROOT
ATOM      1  C   UNL     1      -8.872  -5.197 -12.195  1.00  0.00     0.184 A 
ATOM      2  C   UNL     1      -9.534  -6.226 -12.884  1.00  0.00     0.208 A 
ATOM      3  C   UNL     1      -9.559  -7.513 -12.326  1.00  0.00     0.238 A 
ATOM      4  O   UNL     1     -10.105  -8.444 -12.976  1.00  0.00    -0.285 OA
ATOM      5  C   UNL     1      -8.942  -7.751 -11.074  1.00  0.00     0.111 A 
ATOM      6  C   UNL     1      -8.941  -9.007 -10.395  1.00  0.00     0.134 A 
ATOM      7  C   UNL     1      -8.189  -9.158  -9.224  1.00  0.00     0.093 A 
ATOM      8  C   UNL     1      -7.491  -8.081  -8.672  1.00  0.00     0.123 A 
ATOM      9  C   UNL     1      -7.533  -6.837  -9.295  1.00  0.00     0.094 A 
ATOM     10  C   UNL     1      -8.245  -6.664 -10.485  1.00  0.00     0.146 A 
ATOM     11  O   UNL     1      -8.249  -5.464 -11.053  1.00  0.00    -0.451 OA
ENDROOT
BRANCH   1  12
ATOM     12  C   UNL     1      -8.826  -3.811 -12.715  1.00  0.00     0.063 A 
ATOM     13  C   UNL     1      -9.776  -1.572 -12.841  1.00  0.00     0.047 A 
ATOM     14  C   UNL     1      -9.832  -2.888 -12.373  1.00  0.00     0.020 A 
ATOM     15  C   UNL     1      -8.710  -1.157 -13.648  1.00  0.00     0.119 A 
ATOM     16  C   UNL     1      -7.699  -2.062 -13.982  1.00  0.00     0.093 A 
ATOM     17  C   UNL     1      -7.749  -3.386 -13.519  1.00  0.00     0.130 A 
BRANCH  15  18
ATOM     18  O   UNL     1      -8.644   0.152 -14.119  1.00  0.00    -0.508 OA
ATOM     19  H   UNL     1      -9.461   0.751 -14.134  1.00  0.00     0.293 HD
ENDBRANCH  15  18
BRANCH  17  20
ATOM     20  O   UNL     1      -6.736  -4.280 -13.866  1.00  0.00    -0.507 OA
ATOM     21  H   UNL     1      -6.733  -4.761 -14.757  1.00  0.00     0.293 HD
ENDBRANCH  17  20
ENDBRANCH   1  12
BRANCH   2  22
ATOM     22  O   UNL     1     -10.125  -5.971 -14.125  1.00  0.00    -0.502 OA
ATOM     23  H   UNL     1      -9.840  -5.198 -14.715  1.00  0.00     0.293 HD
ENDBRANCH   2  22
BRANCH   6  24
ATOM     24  O   UNL     1      -9.678 -10.119 -10.812  1.00  0.00    -0.507 OA
ATOM     25  H   UNL     1      -9.290 -11.032 -10.990  1.00  0.00     0.293 HD
ENDBRANCH   6  24
BRANCH   8  26
ATOM     26  O   UNL     1      -6.758  -8.236  -7.498  1.00  0.00    -0.508 OA
ATOM     27  H   UNL     1      -6.003  -7.604  -7.256  1.00  0.00     0.293 HD
ENDBRANCH   8  26
TORSDOF 6
ENDMDL
MODEL 4
REMARK VINA RESULT:    -0.608     14.748     15.984
REMARK INTER + INTRA:          -0.390
REMARK INTER:                  -0.301
REMARK INTRA:                  -0.089
REMARK UNBOUND:                 0.343
REMARK SMILES O=c1c(O)c(-c2ccc(O)cc2O)oc2cc(O)cc(O)c12
REMARK SMILES IDX 5 1 3 2 2 3 1 4 22 5 20 6 19 7 17 8 16 9 15 10 14 11 6 12
REMARK SMILES IDX 8 13 7 14 9 15 11 16 12 17 10 18 13 20 4 22 21 24 18 26
REMARK H PARENT 10 19 13 21 4 23 21 25 18 27
REMARK Flexibility Score: inf
ROOT
ATOM      1  C   UNL     1      -8.611  -5.161 -12.031  1.00  0.00     0.184 A 
ATOM      2  C   UNL     1      -7.859  -5.768 -13.050  1.00  0.00     0.208 A 
ATOM      3  C   UNL     1      -7.560  -7.136 -12.952  1.00  0.00     0.238 A 
ATOM      4  O   UNL     1      -6.837  -7.662 -13.839  1.00  0.00    -0.285 OA
ATOM      5  C   UNL     1      -8.036  -7.884 -11.848  1.00  0.00     0.111 A 
ATOM      6  C   UNL     1      -7.828  -9.285 -11.668  1.00  0.00     0.134 A 
ATOM      7  C   UNL     1      -8.234  -9.895 -10.475  1.00  0.00     0.093 A 
ATOM      8  C   UNL     1      -8.900  -9.168  -9.484  1.00  0.00     0.123 A 
ATOM      9  C   UNL     1      -9.159  -7.814  -9.677  1.00  0.00     0.094 A 
ATOM     10  C   UNL     1      -8.734  -7.169 -10.841  1.00  0.00     0.146 A 
ATOM     11  O   UNL     1      -8.992  -5.874 -10.978  1.00  0.00    -0.451 OA
ENDROOT
BRANCH   1  12
ATOM     12  C   UNL     1      -8.982  -3.727 -12.083  1.00  0.00     0.063 A 
ATOM     13  C   UNL     1      -9.775  -1.796 -13.336  1.00  0.00     0.047 A 
ATOM     14  C   UNL     1      -9.398  -3.142 -13.292  1.00  0.00     0.020 A 
ATOM     15  C   UNL     1      -9.751  -1.020 -12.171  1.00  0.00     0.119 A 
ATOM     16  C   UNL     1      -9.352  -1.596 -10.963  1.00  0.00     0.093 A 
ATOM     17  C   UNL     1      -8.970  -2.945 -10.909  1.00  0.00     0.130 A 
BRANCH  15  18
ATOM     18  O   UNL     1     -10.125   0.321 -12.204  1.00  0.00    -0.508 OA
ATOM     19  H   UNL     1      -9.665   1.014 -11.625  1.00  0.00     0.293 HD
ENDBRANCH  15  18
BRANCH  17  20
ATOM     20  O   UNL     1      -8.568  -3.505  -9.697  1.00  0.00    -0.507 OA
ATOM     21  H   UNL     1      -8.002  -2.988  -9.034  1.00  0.00     0.293 HD
ENDBRANCH  17  20
ENDBRANCH   1  12
BRANCH   2  22
ATOM     22  O   UNL     1      -7.388  -5.007 -14.123  1.00  0.00    -0.502 OA
ATOM     23  H   UNL     1      -6.700  -4.272 -14.008  1.00  0.00     0.293 HD
ENDBRANCH   2  22
BRANCH   6  24
ATOM     24  O   UNL     1      -7.256 -10.119 -12.632  1.00  0.00    -0.507 OA
ATOM     25  H   UNL     1      -7.241 -11.126 -12.586  1.00  0.00     0.293 HD
ENDBRANCH   6  24
BRANCH   8  26
ATOM     26  O   UNL     1      -9.314  -9.787  -8.307  1.00  0.00    -0.508 OA
ATOM     27  H   UNL     1      -9.794  -9.271  -7.578  1.00  0.00     0.293 HD
ENDBRANCH   8  26
TORSDOF 6
ENDMDL
MODEL 5
REMARK VINA RESULT:     0.669     16.002     17.004
REMARK INTER + INTRA:           1.149
REMARK INTER:                   1.132
REMARK INTRA:                   0.017
REMARK UNBOUND:                 0.343
REMARK SMILES O=c1c(O)c(-c2ccc(O)cc2O)oc2cc(O)cc(O)c12
REMARK SMILES IDX 5 1 3 2 2 3 1 4 22 5 20 6 19 7 17 8 16 9 15 10 14 11 6 12
REMARK SMILES IDX 8 13 7 14 9 15 11 16 12 17 10 18 13 20 4 22 21 24 18 26
REMARK H PARENT 10 19 13 21 4 23 21 25 18 27
REMARK Flexibility Score: inf
ROOT
ATOM      1  C   UNL     1      -7.661  -7.932  -9.782  1.00  0.00     0.184 A 
ATOM      2  C   UNL     1      -8.240  -8.732 -10.781  1.00  0.00     0.208 A 
ATOM      3  C   UNL     1      -8.919  -8.111 -11.841  1.00  0.00     0.238 A 
ATOM      4  O   UNL     1      -9.485  -8.835 -12.703  1.00  0.00    -0.285 OA
ATOM      5  C   UNL     1      -8.991  -6.699 -11.901  1.00  0.00     0.111 A 
ATOM      6  C   UNL     1      -9.618  -5.962 -12.951  1.00  0.00     0.134 A 
ATOM      7  C   UNL     1      -9.741  -4.572 -12.841  1.00  0.00     0.093 A 
ATOM      8  C   UNL     1      -9.202  -3.885 -11.750  1.00  0.00     0.123 A 
ATOM      9  C   UNL     1      -8.537  -4.589 -10.750  1.00  0.00     0.094 A 
ATOM     10  C   UNL     1      -8.430  -5.980 -10.813  1.00  0.00     0.146 A 
ATOM     11  O   UNL     1      -7.798  -6.613  -9.832  1.00  0.00    -0.451 OA
ENDROOT
BRANCH   1  12
ATOM     12  C   UNL     1      -6.911  -8.520  -8.647  1.00  0.00     0.063 A 
ATOM     13  C   UNL     1      -4.897  -8.635  -7.283  1.00  0.00     0.047 A 
ATOM     14  C   UNL     1      -5.597  -8.101  -8.369  1.00  0.00     0.020 A 
ATOM     15  C   UNL     1      -5.504  -9.587  -6.455  1.00  0.00     0.119 A 
ATOM     16  C   UNL     1      -6.813  -9.999  -6.715  1.00  0.00     0.093 A 
ATOM     17  C   UNL     1      -7.522  -9.471  -7.805  1.00  0.00     0.130 A 
BRANCH  15  18
ATOM     18  O   UNL     1      -4.816 -10.125  -5.369  1.00  0.00    -0.508 OA
ATOM     19  H   UNL     1      -4.324  -9.534  -4.709  1.00  0.00     0.293 HD
ENDBRANCH  15  18
BRANCH  17  20
ATOM     20  O   UNL     1      -8.826  -9.897  -8.056  1.00  0.00    -0.507 OA
ATOM     21  H   UNL     1      -9.400 -10.310  -7.330  1.00  0.00     0.293 HD
ENDBRANCH  17  20
ENDBRANCH   1  12
BRANCH   2  22
ATOM     22  O   UNL     1      -8.168 -10.125 -10.694  1.00  0.00    -0.502 OA
ATOM     23  H   UNL     1      -8.978 -10.721 -10.818  1.00  0.00     0.293 HD
ENDBRANCH   2  22
BRANCH   6  24
ATOM     24  O   UNL     1     -10.108  -6.541 -14.125  1.00  0.00    -0.507 OA
ATOM     25  H   UNL     1     -11.085  -6.631 -14.358  1.00  0.00     0.293 HD
ENDBRANCH   6  24
BRANCH   8  26
ATOM     26  O   UNL     1      -9.315  -2.500 -11.657  1.00  0.00    -0.508 OA
ATOM     27  H   UNL     1      -9.180  -2.015 -10.777  1.00  0.00     0.293 HD
ENDBRANCH   8  26
TORSDOF 6
ENDMDL
