MODEL 1
REMARK VINA RESULT:    -6.802      0.000      0.000
REMARK INTER + INTRA:          -8.290
REMARK INTER:                  -7.995
REMARK INTRA:                  -0.295
REMARK UNBOUND:                -0.295
REMARK SMILES O=c1c(O)c(-c2ccc(O)cc2)oc2cc(O)cc(O)c12
REMARK SMILES IDX 5 1 3 2 2 3 1 4 21 5 19 6 18 7 16 8 15 9 14 10 13 11 6 12
REMARK SMILES IDX 7 13 8 14 9 15 12 16 11 17 10 18 4 20 20 22 17 24
REMARK H PARENT 10 19 4 21 20 23 17 25
REMARK Flexibility Score: inf
ROOT
ATOM      1  C   UNL     1      17.118 -42.296  30.200  1.00  0.00     0.180 A 
ATOM      2  C   UNL     1      17.293 -40.972  30.638  1.00  0.00     0.208 A 
ATOM      3  C   UNL     1      17.745 -40.006  29.725  1.00  0.00     0.238 A 
ATOM      4  O   UNL     1      17.848 -38.812  30.110  1.00  0.00    -0.285 OA
ATOM      5  C   UNL     1      18.032 -40.378  28.390  1.00  0.00     0.111 A 
ATOM      6  C   UNL     1      18.533 -39.491  27.391  1.00  0.00     0.134 A 
ATOM      7  C   UNL     1      18.656 -39.938  26.069  1.00  0.00     0.093 A 
ATOM      8  C   UNL     1      18.358 -41.259  25.725  1.00  0.00     0.123 A 
ATOM      9  C   UNL     1      17.925 -42.148  26.704  1.00  0.00     0.094 A 
ATOM     10  C   UNL     1      17.758 -41.722  28.024  1.00  0.00     0.146 A 
ATOM     11  O   UNL     1      17.333 -42.600  28.925  1.00  0.00    -0.452 OA
ENDROOT
BRANCH   1  12
ATOM     12  C   UNL     1      16.670 -43.375  31.110  1.00  0.00     0.021 A 
ATOM     13  C   UNL     1      15.313 -43.740  31.133  1.00  0.00     0.016 A 
ATOM     14  C   UNL     1      14.871 -44.771  31.967  1.00  0.00     0.047 A 
ATOM     15  C   UNL     1      15.780 -45.459  32.777  1.00  0.00     0.115 A 
ATOM     16  C   UNL     1      17.582 -44.085  31.911  1.00  0.00     0.016 A 
ATOM     17  C   UNL     1      17.137 -45.116  32.745  1.00  0.00     0.047 A 
BRANCH  15  18
ATOM     18  O   UNL     1      15.325 -46.484  33.605  1.00  0.00    -0.508 OA
ATOM     19  H   UNL     1      15.295 -47.446  33.287  1.00  0.00     0.293 HD
ENDBRANCH  15  18
ENDBRANCH   1  12
BRANCH   2  20
ATOM     20  O   UNL     1      16.984 -40.621  31.956  1.00  0.00    -0.502 OA
ATOM     21  H   UNL     1      16.104 -40.866  32.392  1.00  0.00     0.293 HD
ENDBRANCH   2  20
BRANCH   6  22
ATOM     22  O   UNL     1      18.946 -38.180  27.648  1.00  0.00    -0.507 OA
ATOM     23  H   UNL     1      18.883 -37.723  28.544  1.00  0.00     0.293 HD
ENDBRANCH   6  22
BRANCH   8  24
ATOM     24  O   UNL     1      18.499 -41.699  24.410  1.00  0.00    -0.508 OA
ATOM     25  H   UNL     1      18.216 -41.124  23.625  1.00  0.00     0.293 HD
ENDBRANCH   8  24
TORSDOF 5
ENDMDL
MODEL 2
REMARK VINA RESULT:    -6.784      4.766      6.889
REMARK INTER + INTRA:          -8.268
REMARK INTER:                  -7.977
REMARK INTRA:                  -0.291
REMARK UNBOUND:                -0.295
REMARK SMILES O=c1c(O)c(-c2ccc(O)cc2)oc2cc(O)cc(O)c12
REMARK SMILES IDX 5 1 3 2 2 3 1 4 21 5 19 6 18 7 16 8 15 9 14 10 13 11 6 12
REMARK SMILES IDX 7 13 8 14 9 15 12 16 11 17 10 18 4 20 20 22 17 24
REMARK H PARENT 10 19 4 21 20 23 17 25
REMARK Flexibility Score: inf
ROOT
ATOM      1  C   UNL     1      12.751 -44.835  29.037  1.00  0.00     0.180 A 
ATOM      2  C   UNL     1      12.357 -44.178  30.216  1.00  0.00     0.208 A 
ATOM      3  C   UNL     1      13.328 -43.874  31.183  1.00  0.00     0.238 A 
ATOM      4  O   UNL     1      12.977 -43.238  32.211  1.00  0.00    -0.285 OA
ATOM      5  C   UNL     1      14.678 -44.242  30.967  1.00  0.00     0.111 A 
ATOM      6  C   UNL     1      15.737 -44.018  31.897  1.00  0.00     0.134 A 
ATOM      7  C   UNL     1      17.056 -44.306  31.523  1.00  0.00     0.093 A 
ATOM      8  C   UNL     1      17.344 -44.871  30.278  1.00  0.00     0.123 A 
ATOM      9  C   UNL     1      16.311 -45.147  29.388  1.00  0.00     0.094 A 
ATOM     10  C   UNL     1      14.989 -44.838  29.718  1.00  0.00     0.146 A 
ATOM     11  O   UNL     1      14.035 -45.108  28.835  1.00  0.00    -0.452 OA
ENDROOT
BRANCH   1  12
ATOM     12  C   UNL     1      11.781 -45.213  27.983  1.00  0.00     0.021 A 
ATOM     13  C   UNL     1      11.495 -44.305  26.950  1.00  0.00     0.016 A 
ATOM     14  C   UNL     1      10.600 -44.648  25.933  1.00  0.00     0.047 A 
ATOM     15  C   UNL     1       9.993 -45.907  25.926  1.00  0.00     0.115 A 
ATOM     16  C   UNL     1      11.183 -46.485  27.960  1.00  0.00     0.016 A 
ATOM     17  C   UNL     1      10.288 -46.827  26.940  1.00  0.00     0.047 A 
BRANCH  15  18
ATOM     18  O   UNL     1       9.102 -46.236  24.906  1.00  0.00    -0.508 OA
ATOM     19  H   UNL     1       9.428 -46.491  23.981  1.00  0.00     0.293 HD
ENDBRANCH  15  18
ENDBRANCH   1  12
BRANCH   2  20
ATOM     20  O   UNL     1      11.022 -43.804  30.400  1.00  0.00    -0.502 OA
ATOM     21  H   UNL     1      10.281 -44.114  29.783  1.00  0.00     0.293 HD
ENDBRANCH   2  20
BRANCH   6  22
ATOM     22  O   UNL     1      15.546 -43.544  33.198  1.00  0.00    -0.507 OA
ATOM     23  H   UNL     1      14.648 -43.349  33.612  1.00  0.00     0.293 HD
ENDBRANCH   6  22
BRANCH   8  24
ATOM     24  O   UNL     1      18.658 -45.169  29.921  1.00  0.00    -0.508 OA
ATOM     25  H   UNL     1      19.158 -45.945  30.338  1.00  0.00     0.293 HD
ENDBRANCH   8  24
TORSDOF 5
ENDMDL
MODEL 3
REMARK VINA RESULT:    -6.695      2.477      6.753
REMARK INTER + INTRA:          -8.164
REMARK INTER:                  -7.917
REMARK INTRA:                  -0.247
REMARK UNBOUND:                -0.295
REMARK SMILES O=c1c(O)c(-c2ccc(O)cc2)oc2cc(O)cc(O)c12
REMARK SMILES IDX 5 1 3 2 2 3 1 4 21 5 19 6 18 7 16 8 15 9 14 10 13 11 6 12
REMARK SMILES IDX 7 13 8 14 9 15 12 16 11 17 10 18 4 20 20 22 17 24
REMARK H PARENT 10 19 4 21 20 23 17 25
REMARK Flexibility Score: inf
ROOT
ATOM      1  C   UNL     1      16.730 -43.438  28.910  1.00  0.00     0.180 A 
ATOM      2  C   UNL     1      17.303 -44.238  29.914  1.00  0.00     0.208 A 
ATOM      3  C   UNL     1      16.611 -44.415  31.122  1.00  0.00     0.238 A 
ATOM      4  O   UNL     1      17.104 -45.176  31.995  1.00  0.00    -0.285 OA
ATOM      5  C   UNL     1      15.362 -43.778  31.319  1.00  0.00     0.111 A 
ATOM      6  C   UNL     1      14.592 -43.855  32.518  1.00  0.00     0.134 A 
ATOM      7  C   UNL     1      13.311 -43.292  32.553  1.00  0.00     0.093 A 
ATOM      8  C   UNL     1      12.798 -42.597  31.455  1.00  0.00     0.123 A 
ATOM      9  C   UNL     1      13.566 -42.466  30.301  1.00  0.00     0.094 A 
ATOM     10  C   UNL     1      14.833 -43.047  30.222  1.00  0.00     0.146 A 
ATOM     11  O   UNL     1      15.527 -42.907  29.100  1.00  0.00    -0.452 OA
ENDROOT
BRANCH   1  12
ATOM     12  C   UNL     1      17.412 -43.184  27.620  1.00  0.00     0.021 A 
ATOM     13  C   UNL     1      17.369 -44.162  26.612  1.00  0.00     0.016 A 
ATOM     14  C   UNL     1      17.986 -43.934  25.378  1.00  0.00     0.047 A 
ATOM     15  C   UNL     1      18.639 -42.723  25.131  1.00  0.00     0.115 A 
ATOM     16  C   UNL     1      18.052 -41.960  27.358  1.00  0.00     0.016 A 
ATOM     17  C   UNL     1      18.668 -41.735  26.122  1.00  0.00     0.047 A 
BRANCH  15  18
ATOM     18  O   UNL     1      19.250 -42.511  23.897  1.00  0.00    -0.508 OA
ATOM     19  H   UNL     1      19.337 -43.255  23.214  1.00  0.00     0.293 HD
ENDBRANCH  15  18
ENDBRANCH   1  12
BRANCH   2  20
ATOM     20  O   UNL     1      18.527 -44.876  29.691  1.00  0.00    -0.502 OA
ATOM     21  H   UNL     1      18.601 -45.748  29.183  1.00  0.00     0.293 HD
ENDBRANCH   2  20
BRANCH   6  22
ATOM     22  O   UNL     1      15.048 -44.445  33.701  1.00  0.00    -0.507 OA
ATOM     23  H   UNL     1      14.463 -44.928  34.364  1.00  0.00     0.293 HD
ENDBRANCH   6  22
BRANCH   8  24
ATOM     24  O   UNL     1      11.528 -42.026  31.505  1.00  0.00    -0.508 OA
ATOM     25  H   UNL     1      10.794 -42.308  30.866  1.00  0.00     0.293 HD
ENDBRANCH   8  24
TORSDOF 5
ENDMDL
MODEL 4
REMARK VINA RESULT:    -6.662      1.272      3.293
REMARK INTER + INTRA:          -8.126
REMARK INTER:                  -7.854
REMARK INTRA:                  -0.272
REMARK UNBOUND:                -0.295
REMARK SMILES O=c1c(O)c(-c2ccc(O)cc2)oc2cc(O)cc(O)c12
REMARK SMILES IDX 5 1 3 2 2 3 1 4 21 5 19 6 18 7 16 8 15 9 14 10 13 11 6 12
REMARK SMILES IDX 7 13 8 14 9 15 12 16 11 17 10 18 4 20 20 22 17 24
REMARK H PARENT 10 19 4 21 20 23 17 25
REMARK Flexibility Score: inf
ROOT
ATOM      1  C   UNL     1      16.916 -43.540  29.136  1.00  0.00     0.180 A 
ATOM      2  C   UNL     1      17.128 -44.210  27.918  1.00  0.00     0.208 A 
ATOM      3  C   UNL     1      17.607 -43.485  26.816  1.00  0.00     0.238 A 
ATOM      4  O   UNL     1      17.846 -44.101  25.745  1.00  0.00    -0.285 OA
ATOM      5  C   UNL     1      17.853 -42.096  26.939  1.00  0.00     0.111 A 
ATOM      6  C   UNL     1      18.300 -41.255  25.877  1.00  0.00     0.134 A 
ATOM      7  C   UNL     1      18.636 -39.922  26.146  1.00  0.00     0.093 A 
ATOM      8  C   UNL     1      18.477 -39.383  27.425  1.00  0.00     0.123 A 
ATOM      9  C   UNL     1      17.984 -40.180  28.455  1.00  0.00     0.094 A 
ATOM     10  C   UNL     1      17.675 -41.523  28.225  1.00  0.00     0.146 A 
ATOM     11  O   UNL     1      17.218 -42.251  29.237  1.00  0.00    -0.452 OA
ENDROOT
BRANCH   1  12
ATOM     12  C   UNL     1      16.389 -44.232  30.334  1.00  0.00     0.021 A 
ATOM     13  C   UNL     1      17.264 -44.564  31.382  1.00  0.00     0.016 A 
ATOM     14  C   UNL     1      16.785 -45.196  32.532  1.00  0.00     0.047 A 
ATOM     15  C   UNL     1      15.424 -45.492  32.657  1.00  0.00     0.115 A 
ATOM     16  C   UNL     1      15.018 -44.512  30.475  1.00  0.00     0.016 A 
ATOM     17  C   UNL     1      14.540 -45.145  31.628  1.00  0.00     0.047 A 
BRANCH  15  18
ATOM     18  O   UNL     1      14.960 -46.123  33.810  1.00  0.00    -0.508 OA
ATOM     19  H   UNL     1      13.969 -46.204  34.006  1.00  0.00     0.293 HD
ENDBRANCH  15  18
ENDBRANCH   1  12
BRANCH   2  20
ATOM     20  O   UNL     1      16.899 -45.586  27.824  1.00  0.00    -0.502 OA
ATOM     21  H   UNL     1      15.984 -45.973  27.629  1.00  0.00     0.293 HD
ENDBRANCH   2  20
BRANCH   6  22
ATOM     22  O   UNL     1      18.406 -41.669  24.545  1.00  0.00    -0.507 OA
ATOM     23  H   UNL     1      18.433 -42.630  24.243  1.00  0.00     0.293 HD
ENDBRANCH   6  22
BRANCH   8  24
ATOM     24  O   UNL     1      18.798 -38.051  27.680  1.00  0.00    -0.508 OA
ATOM     25  H   UNL     1      18.106 -37.395  28.020  1.00  0.00     0.293 HD
ENDBRANCH   8  24
TORSDOF 5
ENDMDL
MODEL 5
REMARK VINA RESULT:    -6.628      4.355      6.011
REMARK INTER + INTRA:          -8.086
REMARK INTER:                  -7.869
REMARK INTRA:                  -0.217
REMARK UNBOUND:                -0.295
REMARK SMILES O=c1c(O)c(-c2ccc(O)cc2)oc2cc(O)cc(O)c12
REMARK SMILES IDX 5 1 3 2 2 3 1 4 21 5 19 6 18 7 16 8 15 9 14 10 13 11 6 12
REMARK SMILES IDX 7 13 8 14 9 15 12 16 11 17 10 18 4 20 20 22 17 24
REMARK H PARENT 10 19 4 21 20 23 17 25
REMARK Flexibility Score: inf
ROOT
ATOM      1  C   UNL     1      16.692 -44.512  31.322  1.00  0.00     0.180 A 
ATOM      2  C   UNL     1      16.618 -45.133  30.063  1.00  0.00     0.208 A 
ATOM      3  C   UNL     1      15.421 -45.055  29.335  1.00  0.00     0.238 A 
ATOM      4  O   UNL     1      15.378 -45.567  28.185  1.00  0.00    -0.285 OA
ATOM      5  C   UNL     1      14.307 -44.372  29.880  1.00  0.00     0.111 A 
ATOM      6  C   UNL     1      13.032 -44.265  29.247  1.00  0.00     0.134 A 
ATOM      7  C   UNL     1      12.044 -43.455  29.819  1.00  0.00     0.093 A 
ATOM      8  C   UNL     1      12.262 -42.801  31.034  1.00  0.00     0.123 A 
ATOM      9  C   UNL     1      13.481 -42.947  31.688  1.00  0.00     0.094 A 
ATOM     10  C   UNL     1      14.500 -43.719  31.125  1.00  0.00     0.146 A 
ATOM     11  O   UNL     1      15.652 -43.823  31.777  1.00  0.00    -0.452 OA
ENDROOT
BRANCH   1  12
ATOM     12  C   UNL     1      17.912 -44.573  32.160  1.00  0.00     0.021 A 
ATOM     13  C   UNL     1      18.657 -43.402  32.381  1.00  0.00     0.016 A 
ATOM     14  C   UNL     1      19.799 -43.431  33.187  1.00  0.00     0.047 A 
ATOM     15  C   UNL     1      20.202 -44.624  33.793  1.00  0.00     0.115 A 
ATOM     16  C   UNL     1      18.310 -45.765  32.790  1.00  0.00     0.016 A 
ATOM     17  C   UNL     1      19.453 -45.791  33.596  1.00  0.00     0.047 A 
BRANCH  15  18
ATOM     18  O   UNL     1      21.343 -44.639  34.593  1.00  0.00    -0.508 OA
ATOM     19  H   UNL     1      22.256 -44.412  34.217  1.00  0.00     0.293 HD
ENDBRANCH  15  18
ENDBRANCH   1  12
BRANCH   2  20
ATOM     20  O   UNL     1      17.736 -45.784  29.533  1.00  0.00    -0.502 OA
ATOM     21  H   UNL     1      18.589 -45.294  29.294  1.00  0.00     0.293 HD
ENDBRANCH   2  20
BRANCH   6  22
ATOM     22  O   UNL     1      12.681 -44.951  28.080  1.00  0.00    -0.507 OA
ATOM     23  H   UNL     1      12.153 -44.555  27.319  1.00  0.00     0.293 HD
ENDBRANCH   6  22
BRANCH   8  24
ATOM     24  O   UNL     1      11.266 -42.009  31.603  1.00  0.00    -0.508 OA
ATOM     25  H   UNL     1      10.302 -42.070  31.299  1.00  0.00     0.293 HD
ENDBRANCH   8  24
TORSDOF 5
ENDMDL
MODEL 6
REMARK VINA RESULT:    -6.547      1.862      6.747
REMARK INTER + INTRA:          -7.990
REMARK INTER:                  -7.697
REMARK INTRA:                  -0.293
REMARK UNBOUND:                -0.295
REMARK SMILES O=c1c(O)c(-c2ccc(O)cc2)oc2cc(O)cc(O)c12
REMARK SMILES IDX 5 1 3 2 2 3 1 4 21 5 19 6 18 7 16 8 15 9 14 10 13 11 6 12
REMARK SMILES IDX 7 13 8 14 9 15 12 16 11 17 10 18 4 20 20 22 17 24
REMARK H PARENT 10 19 4 21 20 23 17 25
REMARK Flexibility Score: inf
ROOT
ATOM      1  C   UNL     1      17.570 -42.142  29.236  1.00  0.00     0.180 A 
ATOM      2  C   UNL     1      16.263 -42.249  29.744  1.00  0.00     0.208 A 
ATOM      3  C   UNL     1      16.015 -43.135  30.804  1.00  0.00     0.238 A 
ATOM      4  O   UNL     1      14.855 -43.186  31.289  1.00  0.00    -0.285 OA
ATOM      5  C   UNL     1      17.072 -43.915  31.333  1.00  0.00     0.111 A 
ATOM      6  C   UNL     1      16.926 -44.873  32.380  1.00  0.00     0.134 A 
ATOM      7  C   UNL     1      18.064 -45.492  32.913  1.00  0.00     0.093 A 
ATOM      8  C   UNL     1      19.334 -45.235  32.391  1.00  0.00     0.123 A 
ATOM      9  C   UNL     1      19.480 -44.346  31.331  1.00  0.00     0.094 A 
ATOM     10  C   UNL     1      18.368 -43.686  30.802  1.00  0.00     0.146 A 
ATOM     11  O   UNL     1      18.552 -42.838  29.797  1.00  0.00    -0.452 OA
ENDROOT
BRANCH   1  12
ATOM     12  C   UNL     1      17.904 -41.248  28.103  1.00  0.00     0.021 A 
ATOM     13  C   UNL     1      18.298 -39.924  28.360  1.00  0.00     0.016 A 
ATOM     14  C   UNL     1      18.640 -39.070  27.308  1.00  0.00     0.047 A 
ATOM     15  C   UNL     1      18.608 -39.531  25.988  1.00  0.00     0.115 A 
ATOM     16  C   UNL     1      17.894 -41.712  26.776  1.00  0.00     0.016 A 
ATOM     17  C   UNL     1      18.237 -40.856  25.725  1.00  0.00     0.047 A 
BRANCH  15  18
ATOM     18  O   UNL     1      18.950 -38.668  24.949  1.00  0.00    -0.508 OA
ATOM     19  H   UNL     1      19.568 -38.961  24.201  1.00  0.00     0.293 HD
ENDBRANCH  15  18
ENDBRANCH   1  12
BRANCH   2  20
ATOM     20  O   UNL     1      15.239 -41.454  29.221  1.00  0.00    -0.502 OA
ATOM     21  H   UNL     1      14.481 -41.837  28.670  1.00  0.00     0.293 HD
ENDBRANCH   2  20
BRANCH   6  22
ATOM     22  O   UNL     1      15.694 -45.270  32.908  1.00  0.00    -0.507 OA
ATOM     23  H   UNL     1      15.506 -46.176  33.309  1.00  0.00     0.293 HD
ENDBRANCH   6  22
BRANCH   8  24
ATOM     24  O   UNL     1      20.459 -45.868  32.917  1.00  0.00    -0.508 OA
ATOM     25  H   UNL     1      21.247 -45.340  33.273  1.00  0.00     0.293 HD
ENDBRANCH   8  24
TORSDOF 5
ENDMDL
MODEL 7
REMARK VINA RESULT:    -6.495      3.435      4.546
REMARK INTER + INTRA:          -7.929
REMARK INTER:                  -7.634
REMARK INTRA:                  -0.294
REMARK UNBOUND:                -0.295
REMARK SMILES O=c1c(O)c(-c2ccc(O)cc2)oc2cc(O)cc(O)c12
REMARK SMILES IDX 5 1 3 2 2 3 1 4 21 5 19 6 18 7 16 8 15 9 14 10 13 11 6 12
REMARK SMILES IDX 7 13 8 14 9 15 12 16 11 17 10 18 4 20 20 22 17 24
REMARK H PARENT 10 19 4 21 20 23 17 25
REMARK Flexibility Score: inf
ROOT
ATOM      1  C   UNL     1      16.475 -43.556  31.621  1.00  0.00     0.180 A 
ATOM      2  C   UNL     1      15.288 -43.224  32.299  1.00  0.00     0.208 A 
ATOM      3  C   UNL     1      14.158 -42.856  31.553  1.00  0.00     0.238 A 
ATOM      4  O   UNL     1      13.084 -42.612  32.164  1.00  0.00    -0.285 OA
ATOM      5  C   UNL     1      14.230 -42.810  30.140  1.00  0.00     0.111 A 
ATOM      6  C   UNL     1      13.158 -42.413  29.286  1.00  0.00     0.134 A 
ATOM      7  C   UNL     1      13.302 -42.531  27.898  1.00  0.00     0.093 A 
ATOM      8  C   UNL     1      14.501 -42.969  27.332  1.00  0.00     0.123 A 
ATOM      9  C   UNL     1      15.573 -43.302  28.155  1.00  0.00     0.094 A 
ATOM     10  C   UNL     1      15.449 -43.230  29.545  1.00  0.00     0.146 A 
ATOM     11  O   UNL     1      16.491 -43.567  30.294  1.00  0.00    -0.452 OA
ENDROOT
BRANCH   1  12
ATOM     12  C   UNL     1      17.715 -43.929  32.340  1.00  0.00     0.021 A 
ATOM     13  C   UNL     1      18.034 -45.287  32.511  1.00  0.00     0.016 A 
ATOM     14  C   UNL     1      19.210 -45.662  33.165  1.00  0.00     0.047 A 
ATOM     15  C   UNL     1      20.089 -44.686  33.645  1.00  0.00     0.115 A 
ATOM     16  C   UNL     1      18.613 -42.953  32.806  1.00  0.00     0.016 A 
ATOM     17  C   UNL     1      19.790 -43.331  33.461  1.00  0.00     0.047 A 
BRANCH  15  18
ATOM     18  O   UNL     1      21.258 -45.074  34.297  1.00  0.00    -0.508 OA
ATOM     19  H   UNL     1      21.671 -45.987  34.144  1.00  0.00     0.293 HD
ENDBRANCH  15  18
ENDBRANCH   1  12
BRANCH   2  20
ATOM     20  O   UNL     1      15.232 -43.297  33.695  1.00  0.00    -0.502 OA
ATOM     21  H   UNL     1      14.578 -42.751  34.242  1.00  0.00     0.293 HD
ENDBRANCH   2  20
BRANCH   6  22
ATOM     22  O   UNL     1      11.952 -41.875  29.746  1.00  0.00    -0.507 OA
ATOM     23  H   UNL     1      11.428 -41.155  29.275  1.00  0.00     0.293 HD
ENDBRANCH   6  22
BRANCH   8  24
ATOM     24  O   UNL     1      14.640 -43.068  25.949  1.00  0.00    -0.508 OA
ATOM     25  H   UNL     1      14.117 -42.471  25.320  1.00  0.00     0.293 HD
ENDBRANCH   8  24
TORSDOF 5
ENDMDL
MODEL 8
REMARK VINA RESULT:    -6.494      1.791      6.852
REMARK INTER + INTRA:          -7.928
REMARK INTER:                  -7.662
REMARK INTRA:                  -0.266
REMARK UNBOUND:                -0.295
REMARK SMILES O=c1c(O)c(-c2ccc(O)cc2)oc2cc(O)cc(O)c12
REMARK SMILES IDX 5 1 3 2 2 3 1 4 21 5 19 6 18 7 16 8 15 9 14 10 13 11 6 12
REMARK SMILES IDX 7 13 8 14 9 15 12 16 11 17 10 18 4 20 20 22 17 24
REMARK H PARENT 10 19 4 21 20 23 17 25
REMARK Flexibility Score: inf
ROOT
ATOM      1  C   UNL     1      17.681 -41.938  29.263  1.00  0.00     0.180 A 
ATOM      2  C   UNL     1      18.608 -42.867  29.769  1.00  0.00     0.208 A 
ATOM      3  C   UNL     1      18.227 -43.699  30.833  1.00  0.00     0.238 A 
ATOM      4  O   UNL     1      19.043 -44.565  31.244  1.00  0.00    -0.285 OA
ATOM      5  C   UNL     1      16.930 -43.583  31.389  1.00  0.00     0.111 A 
ATOM      6  C   UNL     1      16.451 -44.347  32.495  1.00  0.00     0.134 A 
ATOM      7  C   UNL     1      15.108 -44.241  32.877  1.00  0.00     0.093 A 
ATOM      8  C   UNL     1      14.245 -43.350  32.236  1.00  0.00     0.123 A 
ATOM      9  C   UNL     1      14.718 -42.557  31.195  1.00  0.00     0.094 A 
ATOM     10  C   UNL     1      16.043 -42.666  30.767  1.00  0.00     0.146 A 
ATOM     11  O   UNL     1      16.451 -41.899  29.763  1.00  0.00    -0.452 OA
ENDROOT
BRANCH   1  12
ATOM     12  C   UNL     1      18.018 -41.009  28.160  1.00  0.00     0.021 A 
ATOM     13  C   UNL     1      17.939 -41.457  26.830  1.00  0.00     0.016 A 
ATOM     14  C   UNL     1      18.230 -40.591  25.773  1.00  0.00     0.047 A 
ATOM     15  C   UNL     1      18.589 -39.265  26.028  1.00  0.00     0.115 A 
ATOM     16  C   UNL     1      18.360 -39.668  28.410  1.00  0.00     0.016 A 
ATOM     17  C   UNL     1      18.651 -38.803  27.349  1.00  0.00     0.047 A 
BRANCH  15  18
ATOM     18  O   UNL     1      18.878 -38.413  24.964  1.00  0.00    -0.508 OA
ATOM     19  H   UNL     1      19.828 -38.127  24.758  1.00  0.00     0.293 HD
ENDBRANCH  15  18
ENDBRANCH   1  12
BRANCH   2  20
ATOM     20  O   UNL     1      19.876 -42.980  29.191  1.00  0.00    -0.502 OA
ATOM     21  H   UNL     1      20.646 -43.443  29.656  1.00  0.00     0.293 HD
ENDBRANCH   2  20
BRANCH   6  22
ATOM     22  O   UNL     1      17.254 -45.198  33.261  1.00  0.00    -0.507 OA
ATOM     23  H   UNL     1      17.036 -46.159  33.471  1.00  0.00     0.293 HD
ENDBRANCH   6  22
BRANCH   8  24
ATOM     24  O   UNL     1      12.914 -43.240  32.634  1.00  0.00    -0.508 OA
ATOM     25  H   UNL     1      12.343 -44.058  32.809  1.00  0.00     0.293 HD
ENDBRANCH   8  24
TORSDOF 5
ENDMDL
MODEL 9
REMARK VINA RESULT:    -6.271      1.666      3.219
REMARK INTER + INTRA:          -7.666
REMARK INTER:                  -7.458
REMARK INTRA:                  -0.208
REMARK UNBOUND:                -0.295
REMARK SMILES O=c1c(O)c(-c2ccc(O)cc2)oc2cc(O)cc(O)c12
REMARK SMILES IDX 5 1 3 2 2 3 1 4 21 5 19 6 18 7 16 8 15 9 14 10 13 11 6 12
REMARK SMILES IDX 7 13 8 14 9 15 12 16 11 17 10 18 4 20 20 22 17 24
REMARK H PARENT 10 19 4 21 20 23 17 25
REMARK Flexibility Score: inf
ROOT
ATOM      1  C   UNL     1      18.228 -43.318  29.780  1.00  0.00     0.180 A 
ATOM      2  C   UNL     1      17.872 -43.808  28.511  1.00  0.00     0.208 A 
ATOM      3  C   UNL     1      17.856 -42.924  27.421  1.00  0.00     0.238 A 
ATOM      4  O   UNL     1      17.589 -43.380  26.278  1.00  0.00    -0.285 OA
ATOM      5  C   UNL     1      18.179 -41.559  27.614  1.00  0.00     0.111 A 
ATOM      6  C   UNL     1      18.155 -40.568  26.589  1.00  0.00     0.134 A 
ATOM      7  C   UNL     1      18.620 -39.276  26.866  1.00  0.00     0.093 A 
ATOM      8  C   UNL     1      19.046 -38.924  28.150  1.00  0.00     0.123 A 
ATOM      9  C   UNL     1      19.017 -39.869  29.171  1.00  0.00     0.094 A 
ATOM     10  C   UNL     1      18.592 -41.175  28.917  1.00  0.00     0.146 A 
ATOM     11  O   UNL     1      18.590 -42.048  29.917  1.00  0.00    -0.452 OA
ENDROOT
BRANCH   1  12
ATOM     12  C   UNL     1      18.244 -44.184  30.982  1.00  0.00     0.021 A 
ATOM     13  C   UNL     1      17.029 -44.618  31.538  1.00  0.00     0.016 A 
ATOM     14  C   UNL     1      17.020 -45.454  32.657  1.00  0.00     0.047 A 
ATOM     15  C   UNL     1      18.224 -45.878  33.228  1.00  0.00     0.115 A 
ATOM     16  C   UNL     1      19.451 -44.631  31.547  1.00  0.00     0.016 A 
ATOM     17  C   UNL     1      19.440 -45.468  32.668  1.00  0.00     0.047 A 
BRANCH  15  18
ATOM     18  O   UNL     1      18.200 -46.711  34.345  1.00  0.00    -0.508 OA
ATOM     19  H   UNL     1      17.356 -46.840  34.890  1.00  0.00     0.293 HD
ENDBRANCH  15  18
ENDBRANCH   1  12
BRANCH   2  20
ATOM     20  O   UNL     1      17.577 -45.163  28.338  1.00  0.00    -0.502 OA
ATOM     21  H   UNL     1      17.875 -45.873  28.996  1.00  0.00     0.293 HD
ENDBRANCH   2  20
BRANCH   6  22
ATOM     22  O   UNL     1      17.664 -40.791  25.299  1.00  0.00    -0.507 OA
ATOM     23  H   UNL     1      17.561 -40.079  24.592  1.00  0.00     0.293 HD
ENDBRANCH   6  22
BRANCH   8  24
ATOM     24  O   UNL     1      19.492 -37.632  28.420  1.00  0.00    -0.508 OA
ATOM     25  H   UNL     1      19.841 -37.027  27.687  1.00  0.00     0.293 HD
ENDBRANCH   8  24
TORSDOF 5
ENDMDL
