MODEL 1
REMARK VINA RESULT:    -4.520      0.000      0.000
REMARK INTER + INTRA:          -7.636
REMARK INTER:                  -6.898
REMARK INTRA:                  -0.738
REMARK UNBOUND:                -0.738
REMARK SMILES O=C([O-])CCCCCCCCC(=O)[O-]
REMARK SMILES IDX 7 1 6 2 5 3 4 4 2 5 1 6 3 7 8 8 9 9 10 10 11 11 12 12 13 13
REMARK SMILES IDX 14 14
REMARK H PARENT
REMARK Flexibility Score: inf
ROOT
ATOM      1  C   UNL     1     -16.735   7.929  28.004  1.00  0.00     0.000 C 
ENDROOT
BRANCH   1   2
ATOM      2  C   UNL     1     -15.941   9.176  28.434  1.00  0.00     0.000 C 
BRANCH   2   3
ATOM      3  C   UNL     1     -15.352   9.049  29.846  1.00  0.00     0.006 C 
BRANCH   3   4
ATOM      4  C   UNL     1     -16.336   9.569  30.899  1.00  0.00     0.053 C 
BRANCH   4   5
ATOM      5  C   UNL     1     -16.939   8.430  31.660  1.00  0.00     0.041 C 
ATOM      6  O   UNL     1     -17.773   7.668  31.106  1.00  0.00    -0.550 OA
ATOM      7  O   UNL     1     -16.543   8.182  32.969  1.00  0.00    -0.550 OA
ENDBRANCH   4   5
ENDBRANCH   3   4
ENDBRANCH   2   3
ENDBRANCH   1   2
BRANCH   1   8
ATOM      8  C   UNL     1     -18.102   8.222  27.353  1.00  0.00     0.000 C 
BRANCH   8   9
ATOM      9  C   UNL     1     -18.639   9.651  27.567  1.00  0.00     0.000 C 
BRANCH   9  10
ATOM     10  C   UNL     1     -20.041   9.729  28.198  1.00  0.00     0.006 C 
BRANCH  10  11
ATOM     11  C   UNL     1     -20.006  10.124  29.678  1.00  0.00     0.053 C 
BRANCH  11  12
ATOM     12  C   UNL     1     -21.263   9.690  30.365  1.00  0.00     0.041 C 
ATOM     13  O   UNL     1     -21.404   9.873  31.602  1.00  0.00    -0.550 OA
ATOM     14  O   UNL     1     -22.256   9.037  29.647  1.00  0.00    -0.550 OA
ENDBRANCH  11  12
ENDBRANCH  10  11
ENDBRANCH   9  10
ENDBRANCH   8   9
ENDBRANCH   1   8
TORSDOF 9
ENDMDL
MODEL 2
REMARK VINA RESULT:    -4.498      0.814      4.765
REMARK INTER + INTRA:          -7.603
REMARK INTER:                  -7.048
REMARK INTRA:                  -0.555
REMARK UNBOUND:                -0.738
REMARK SMILES O=C([O-])CCCCCCCCC(=O)[O-]
REMARK SMILES IDX 7 1 6 2 5 3 4 4 2 5 1 6 3 7 8 8 9 9 10 10 11 11 12 12 13 13
REMARK SMILES IDX 14 14
REMARK H PARENT
REMARK Flexibility Score: inf
ROOT
ATOM      1  C   UNL     1     -18.026   9.048  27.631  1.00  0.00     0.000 C 
ENDROOT
BRANCH   1   2
ATOM      2  C   UNL     1     -19.402   9.730  27.523  1.00  0.00     0.000 C 
BRANCH   2   3
ATOM      3  C   UNL     1     -20.061   9.962  28.890  1.00  0.00     0.006 C 
BRANCH   3   4
ATOM      4  C   UNL     1     -21.581   9.787  28.802  1.00  0.00     0.053 C 
BRANCH   4   5
ATOM      5  C   UNL     1     -22.150   9.472  30.149  1.00  0.00     0.041 C 
ATOM      6  O   UNL     1     -21.556   9.851  31.193  1.00  0.00    -0.550 OA
ATOM      7  O   UNL     1     -23.362   8.800  30.253  1.00  0.00    -0.550 OA
ENDBRANCH   4   5
ENDBRANCH   3   4
ENDBRANCH   2   3
ENDBRANCH   1   2
BRANCH   1   8
ATOM      8  C   UNL     1     -16.906   9.932  28.215  1.00  0.00     0.000 C 
BRANCH   8   9
ATOM      9  C   UNL     1     -15.639   9.176  28.662  1.00  0.00     0.000 C 
BRANCH   9  10
ATOM     10  C   UNL     1     -15.227   9.410  30.127  1.00  0.00     0.006 C 
BRANCH  10  11
ATOM     11  C   UNL     1     -16.427   9.634  31.054  1.00  0.00     0.053 C 
BRANCH  11  12
ATOM     12  C   UNL     1     -16.943   8.325  31.565  1.00  0.00     0.041 C 
ATOM     13  O   UNL     1     -17.745   7.646  30.872  1.00  0.00    -0.550 OA
ATOM     14  O   UNL     1     -16.577   7.880  32.829  1.00  0.00    -0.550 OA
ENDBRANCH  11  12
ENDBRANCH  10  11
ENDBRANCH   9  10
ENDBRANCH   8   9
ENDBRANCH   1   8
TORSDOF 9
ENDMDL
MODEL 3
REMARK VINA RESULT:    -4.369     10.410     11.821
REMARK INTER + INTRA:          -7.406
REMARK INTER:                  -6.764
REMARK INTRA:                  -0.642
REMARK UNBOUND:                -0.738
REMARK SMILES O=C([O-])CCCCCCCCC(=O)[O-]
REMARK SMILES IDX 7 1 6 2 5 3 4 4 2 5 1 6 3 7 8 8 9 9 10 10 11 11 12 12 13 13
REMARK SMILES IDX 14 14
REMARK H PARENT
REMARK Flexibility Score: inf
ROOT
ATOM      1  C   UNL     1     -16.436  -2.728  35.010  1.00  0.00     0.000 C 
ENDROOT
BRANCH   1   2
ATOM      2  C   UNL     1     -16.184  -2.313  36.471  1.00  0.00     0.000 C 
BRANCH   2   3
ATOM      3  C   UNL     1     -17.261  -1.364  37.015  1.00  0.00     0.006 C 
BRANCH   3   4
ATOM      4  C   UNL     1     -17.656  -0.324  35.961  1.00  0.00     0.053 C 
BRANCH   4   5
ATOM      5  C   UNL     1     -18.107   0.942  36.618  1.00  0.00     0.041 C 
ATOM      6  O   UNL     1     -17.802   2.058  36.121  1.00  0.00    -0.550 OA
ATOM      7  O   UNL     1     -18.905   0.890  37.754  1.00  0.00    -0.550 OA
ENDBRANCH   4   5
ENDBRANCH   3   4
ENDBRANCH   2   3
ENDBRANCH   1   2
BRANCH   1   8
ATOM      8  C   UNL     1     -15.173  -2.814  34.131  1.00  0.00     0.000 C 
BRANCH   8   9
ATOM      9  C   UNL     1     -15.347  -2.322  32.680  1.00  0.00     0.000 C 
BRANCH   9  10
ATOM     10  C   UNL     1     -16.504  -1.330  32.467  1.00  0.00     0.006 C 
BRANCH  10  11
ATOM     11  C   UNL     1     -17.397  -1.704  31.278  1.00  0.00     0.053 C 
BRANCH  11  12
ATOM     12  C   UNL     1     -18.809  -1.910  31.730  1.00  0.00     0.041 C 
ATOM     13  O   UNL     1     -19.718  -2.129  30.888  1.00  0.00    -0.550 OA
ATOM     14  O   UNL     1     -19.129  -1.809  33.078  1.00  0.00    -0.550 OA
ENDBRANCH  11  12
ENDBRANCH  10  11
ENDBRANCH   9  10
ENDBRANCH   8   9
ENDBRANCH   1   8
TORSDOF 9
ENDMDL
MODEL 4
REMARK VINA RESULT:    -4.361     10.554     12.443
REMARK INTER + INTRA:          -7.393
REMARK INTER:                  -6.879
REMARK INTRA:                  -0.515
REMARK UNBOUND:                -0.738
REMARK SMILES O=C([O-])CCCCCCCCC(=O)[O-]
REMARK SMILES IDX 7 1 6 2 5 3 4 4 2 5 1 6 3 7 8 8 9 9 10 10 11 11 12 12 13 13
REMARK SMILES IDX 14 14
REMARK H PARENT
REMARK Flexibility Score: inf
ROOT
ATOM      1  C   UNL     1     -17.519  -0.927  35.089  1.00  0.00     0.000 C 
ENDROOT
BRANCH   1   2
ATOM      2  C   UNL     1     -17.151  -1.562  36.443  1.00  0.00     0.000 C 
BRANCH   2   3
ATOM      3  C   UNL     1     -17.525  -0.674  37.638  1.00  0.00     0.006 C 
BRANCH   3   4
ATOM      4  C   UNL     1     -18.803   0.121  37.350  1.00  0.00     0.053 C 
BRANCH   4   5
ATOM      5  C   UNL     1     -18.571   1.583  37.568  1.00  0.00     0.041 C 
ATOM      6  O   UNL     1     -19.061   2.160  38.573  1.00  0.00    -0.550 OA
ATOM      7  O   UNL     1     -17.772   2.299  36.685  1.00  0.00    -0.550 OA
ENDBRANCH   4   5
ENDBRANCH   3   4
ENDBRANCH   2   3
ENDBRANCH   1   2
BRANCH   1   8
ATOM      8  C   UNL     1     -17.651  -1.923  33.919  1.00  0.00     0.000 C 
BRANCH   8   9
ATOM      9  C   UNL     1     -17.168  -1.397  32.553  1.00  0.00     0.000 C 
BRANCH   9  10
ATOM     10  C   UNL     1     -16.503  -2.452  31.651  1.00  0.00     0.006 C 
BRANCH  10  11
ATOM     11  C   UNL     1     -15.726  -3.509  32.445  1.00  0.00     0.053 C 
BRANCH  11  12
ATOM     12  C   UNL     1     -14.339  -3.028  32.736  1.00  0.00     0.041 C 
ATOM     13  O   UNL     1     -14.045  -2.602  33.884  1.00  0.00    -0.550 OA
ATOM     14  O   UNL     1     -13.386  -3.003  31.727  1.00  0.00    -0.550 OA
ENDBRANCH  11  12
ENDBRANCH  10  11
ENDBRANCH   9  10
ENDBRANCH   8   9
ENDBRANCH   1   8
TORSDOF 9
ENDMDL
MODEL 5
REMARK VINA RESULT:    -4.342     11.497     13.107
REMARK INTER + INTRA:          -7.364
REMARK INTER:                  -6.620
REMARK INTRA:                  -0.744
REMARK UNBOUND:                -0.738
REMARK SMILES O=C([O-])CCCCCCCCC(=O)[O-]
REMARK SMILES IDX 7 1 6 2 5 3 4 4 2 5 1 6 3 7 8 8 9 9 10 10 11 11 12 12 13 13
REMARK SMILES IDX 14 14
REMARK H PARENT
REMARK Flexibility Score: inf
ROOT
ATOM      1  C   UNL     1     -25.612  -0.968  23.368  1.00  0.00     0.000 C 
ENDROOT
BRANCH   1   2
ATOM      2  C   UNL     1     -26.414  -0.670  24.649  1.00  0.00     0.000 C 
BRANCH   2   3
ATOM      3  C   UNL     1     -26.928  -1.942  25.339  1.00  0.00     0.006 C 
BRANCH   3   4
ATOM      4  C   UNL     1     -26.607  -1.920  26.837  1.00  0.00     0.053 C 
BRANCH   4   5
ATOM      5  C   UNL     1     -25.199  -2.365  27.077  1.00  0.00     0.041 C 
ATOM      6  O   UNL     1     -24.522  -1.854  28.008  1.00  0.00    -0.550 OA
ATOM      7  O   UNL     1     -24.648  -3.378  26.302  1.00  0.00    -0.550 OA
ENDBRANCH   4   5
ENDBRANCH   3   4
ENDBRANCH   2   3
ENDBRANCH   1   2
BRANCH   1   8
ATOM      8  C   UNL     1     -24.120  -1.281  23.594  1.00  0.00     0.000 C 
BRANCH   8   9
ATOM      9  C   UNL     1     -23.431  -0.444  24.690  1.00  0.00     0.000 C 
BRANCH   9  10
ATOM     10  C   UNL     1     -22.413   0.589  24.173  1.00  0.00     0.006 C 
BRANCH  10  11
ATOM     11  C   UNL     1     -23.071   1.899  23.724  1.00  0.00     0.053 C 
BRANCH  11  12
ATOM     12  C   UNL     1     -22.713   2.203  22.303  1.00  0.00     0.041 C 
ATOM     13  O   UNL     1     -21.614   1.812  21.830  1.00  0.00    -0.550 OA
ATOM     14  O   UNL     1     -23.570   2.962  21.517  1.00  0.00    -0.550 OA
ENDBRANCH  11  12
ENDBRANCH  10  11
ENDBRANCH   9  10
ENDBRANCH   8   9
ENDBRANCH   1   8
TORSDOF 9
ENDMDL
MODEL 6
REMARK VINA RESULT:    -4.340     10.645     12.242
REMARK INTER + INTRA:          -7.361
REMARK INTER:                  -6.997
REMARK INTRA:                  -0.365
REMARK UNBOUND:                -0.738
REMARK SMILES O=C([O-])CCCCCCCCC(=O)[O-]
REMARK SMILES IDX 7 1 6 2 5 3 4 4 2 5 1 6 3 7 8 8 9 9 10 10 11 11 12 12 13 13
REMARK SMILES IDX 14 14
REMARK H PARENT
REMARK Flexibility Score: inf
ROOT
ATOM      1  C   UNL     1     -17.657  -1.981  33.835  1.00  0.00     0.000 C 
ENDROOT
BRANCH   1   2
ATOM      2  C   UNL     1     -16.833  -1.437  32.654  1.00  0.00     0.000 C 
BRANCH   2   3
ATOM      3  C   UNL     1     -16.882  -2.351  31.422  1.00  0.00     0.006 C 
BRANCH   3   4
ATOM      4  C   UNL     1     -15.557  -3.100  31.243  1.00  0.00     0.053 C 
BRANCH   4   5
ATOM      5  C   UNL     1     -15.619  -4.440  31.906  1.00  0.00     0.041 C 
ATOM      6  O   UNL     1     -16.689  -5.103  31.894  1.00  0.00    -0.550 OA
ATOM      7  O   UNL     1     -14.482  -4.977  32.495  1.00  0.00    -0.550 OA
ENDBRANCH   4   5
ENDBRANCH   3   4
ENDBRANCH   2   3
ENDBRANCH   1   2
BRANCH   1   8
ATOM      8  C   UNL     1     -17.982  -0.949  34.933  1.00  0.00     0.000 C 
BRANCH   8   9
ATOM      9  C   UNL     1     -17.143  -1.073  36.220  1.00  0.00     0.000 C 
BRANCH   9  10
ATOM     10  C   UNL     1     -17.885  -0.698  37.516  1.00  0.00     0.006 C 
BRANCH  10  11
ATOM     11  C   UNL     1     -18.919   0.415  37.309  1.00  0.00     0.053 C 
BRANCH  11  12
ATOM     12  C   UNL     1     -18.254   1.755  37.327  1.00  0.00     0.041 C 
ATOM     13  O   UNL     1     -18.094   2.369  38.414  1.00  0.00    -0.550 OA
ATOM     14  O   UNL     1     -17.857   2.350  36.137  1.00  0.00    -0.550 OA
ENDBRANCH  11  12
ENDBRANCH  10  11
ENDBRANCH   9  10
ENDBRANCH   8   9
ENDBRANCH   1   8
TORSDOF 9
ENDMDL
MODEL 7
REMARK VINA RESULT:    -4.305     11.626     13.081
REMARK INTER + INTRA:          -7.308
REMARK INTER:                  -6.662
REMARK INTRA:                  -0.646
REMARK UNBOUND:                -0.738
REMARK SMILES O=C([O-])CCCCCCCCC(=O)[O-]
REMARK SMILES IDX 7 1 6 2 5 3 4 4 2 5 1 6 3 7 8 8 9 9 10 10 11 11 12 12 13 13
REMARK SMILES IDX 14 14
REMARK H PARENT
REMARK Flexibility Score: inf
ROOT
ATOM      1  C   UNL     1     -24.789  -1.073  23.280  1.00  0.00     0.000 C 
ENDROOT
BRANCH   1   2
ATOM      2  C   UNL     1     -24.086  -0.326  24.429  1.00  0.00     0.000 C 
BRANCH   2   3
ATOM      3  C   UNL     1     -22.787   0.361  23.985  1.00  0.00     0.006 C 
BRANCH   3   4
ATOM      4  C   UNL     1     -23.027   1.845  23.688  1.00  0.00     0.053 C 
BRANCH   4   5
ATOM      5  C   UNL     1     -22.672   2.158  22.269  1.00  0.00     0.041 C 
ATOM      6  O   UNL     1     -23.508   2.722  21.515  1.00  0.00    -0.550 OA
ATOM      7  O   UNL     1     -21.399   1.870  21.791  1.00  0.00    -0.550 OA
ENDBRANCH   4   5
ENDBRANCH   3   4
ENDBRANCH   2   3
ENDBRANCH   1   2
BRANCH   1   8
ATOM      8  C   UNL     1     -26.326  -1.123  23.381  1.00  0.00     0.000 C 
BRANCH   8   9
ATOM      9  C   UNL     1     -26.906  -0.756  24.761  1.00  0.00     0.000 C 
BRANCH   9  10
ATOM     10  C   UNL     1     -27.172  -1.953  25.691  1.00  0.00     0.006 C 
BRANCH  10  11
ATOM     11  C   UNL     1     -26.672  -1.718  27.122  1.00  0.00     0.053 C 
BRANCH  11  12
ATOM     12  C   UNL     1     -25.293  -2.273  27.291  1.00  0.00     0.041 C 
ATOM     13  O   UNL     1     -24.564  -1.880  28.239  1.00  0.00    -0.550 OA
ATOM     14  O   UNL     1     -24.793  -3.186  26.372  1.00  0.00    -0.550 OA
ENDBRANCH  11  12
ENDBRANCH  10  11
ENDBRANCH   9  10
ENDBRANCH   8   9
ENDBRANCH   1   8
TORSDOF 9
ENDMDL
MODEL 8
REMARK VINA RESULT:    -4.207     10.729     12.867
REMARK INTER + INTRA:          -7.159
REMARK INTER:                  -6.772
REMARK INTRA:                  -0.386
REMARK UNBOUND:                -0.738
REMARK SMILES O=C([O-])CCCCCCCCC(=O)[O-]
REMARK SMILES IDX 7 1 6 2 5 3 4 4 2 5 1 6 3 7 8 8 9 9 10 10 11 11 12 12 13 13
REMARK SMILES IDX 14 14
REMARK H PARENT
REMARK Flexibility Score: inf
ROOT
ATOM      1  C   UNL     1     -16.274  -2.761  37.248  1.00  0.00     0.000 C 
ENDROOT
BRANCH   1   2
ATOM      2  C   UNL     1     -17.226  -1.700  37.832  1.00  0.00     0.000 C 
BRANCH   2   3
ATOM      3  C   UNL     1     -17.672  -0.663  36.792  1.00  0.00     0.006 C 
BRANCH   3   4
ATOM      4  C   UNL     1     -18.667   0.330  37.402  1.00  0.00     0.053 C 
BRANCH   4   5
ATOM      5  C   UNL     1     -18.163   1.731  37.256  1.00  0.00     0.041 C 
ATOM      6  O   UNL     1     -17.891   2.192  36.117  1.00  0.00    -0.550 OA
ATOM      7  O   UNL     1     -18.038   2.545  38.376  1.00  0.00    -0.550 OA
ENDBRANCH   4   5
ENDBRANCH   3   4
ENDBRANCH   2   3
ENDBRANCH   1   2
BRANCH   1   8
ATOM      8  C   UNL     1     -15.873  -2.535  35.777  1.00  0.00     0.000 C 
BRANCH   8   9
ATOM      9  C   UNL     1     -14.370  -2.695  35.474  1.00  0.00     0.000 C 
BRANCH   9  10
ATOM     10  C   UNL     1     -14.048  -3.422  34.156  1.00  0.00     0.006 C 
BRANCH  10  11
ATOM     11  C   UNL     1     -13.999  -2.475  32.951  1.00  0.00     0.053 C 
BRANCH  11  12
ATOM     12  C   UNL     1     -15.281  -2.540  32.183  1.00  0.00     0.041 C 
ATOM     13  O   UNL     1     -16.113  -1.599  32.258  1.00  0.00    -0.550 OA
ATOM     14  O   UNL     1     -15.580  -3.664  31.424  1.00  0.00    -0.550 OA
ENDBRANCH  11  12
ENDBRANCH  10  11
ENDBRANCH   9  10
ENDBRANCH   8   9
ENDBRANCH   1   8
TORSDOF 9
ENDMDL
MODEL 9
REMARK VINA RESULT:    -4.206     10.475     12.031
REMARK INTER + INTRA:          -7.156
REMARK INTER:                  -6.560
REMARK INTRA:                  -0.596
REMARK UNBOUND:                -0.738
REMARK SMILES O=C([O-])CCCCCCCCC(=O)[O-]
REMARK SMILES IDX 7 1 6 2 5 3 4 4 2 5 1 6 3 7 8 8 9 9 10 10 11 11 12 12 13 13
REMARK SMILES IDX 14 14
REMARK H PARENT
REMARK Flexibility Score: inf
ROOT
ATOM      1  C   UNL     1     -14.873  -3.037  33.509  1.00  0.00     0.000 C 
ENDROOT
BRANCH   1   2
ATOM      2  C   UNL     1     -15.609  -2.090  32.542  1.00  0.00     0.000 C 
BRANCH   2   3
ATOM      3  C   UNL     1     -16.654  -2.814  31.681  1.00  0.00     0.006 C 
BRANCH   3   4
ATOM      4  C   UNL     1     -17.552  -1.809  30.951  1.00  0.00     0.053 C 
BRANCH   4   5
ATOM      5  C   UNL     1     -18.964  -1.924  31.434  1.00  0.00     0.041 C 
ATOM      6  O   UNL     1     -19.907  -2.051  30.609  1.00  0.00    -0.550 OA
ATOM      7  O   UNL     1     -19.235  -1.938  32.796  1.00  0.00    -0.550 OA
ENDBRANCH   4   5
ENDBRANCH   3   4
ENDBRANCH   2   3
ENDBRANCH   1   2
BRANCH   1   8
ATOM      8  C   UNL     1     -15.000  -2.668  35.000  1.00  0.00     0.000 C 
BRANCH   8   9
ATOM      9  C   UNL     1     -16.416  -2.807  35.593  1.00  0.00     0.000 C 
BRANCH   9  10
ATOM     10  C   UNL     1     -16.924  -1.568  36.353  1.00  0.00     0.006 C 
BRANCH  10  11
ATOM     11  C   UNL     1     -17.594  -0.540  35.434  1.00  0.00     0.053 C 
BRANCH  11  12
ATOM     12  C   UNL     1     -18.035   0.654  36.221  1.00  0.00     0.041 C 
ATOM     13  O   UNL     1     -19.010   0.567  37.013  1.00  0.00    -0.550 OA
ATOM     14  O   UNL     1     -17.402   1.877  36.042  1.00  0.00    -0.550 OA
ENDBRANCH  11  12
ENDBRANCH  10  11
ENDBRANCH   9  10
ENDBRANCH   8   9
ENDBRANCH   1   8
TORSDOF 9
ENDMDL
