MODEL 1
REMARK VINA RESULT:    -4.860      0.000      0.000
REMARK INTER + INTRA:         -15.102
REMARK INTER:                 -11.111
REMARK INTRA:                  -3.991
REMARK UNBOUND:                -3.991
REMARK SMILES CCCCCCCCCCCCCCCCCCCCCCCC(=O)[O-]
REMARK SMILES IDX 13 1 14 2 15 3 16 4 17 5 18 6 19 7 20 8 21 9 22 10 23 11
REMARK SMILES IDX 24 12 25 13 26 14 12 15 11 16 10 17 9 18 8 19 7 20 6 21 5 22
REMARK SMILES IDX 4 23 3 24 2 25 1 26
REMARK H PARENT
REMARK Flexibility Score: inf
ROOT
ATOM      1  C   UNL     1      13.319 -31.494  23.426  1.00  0.00     0.000 C 
ENDROOT
BRANCH   1   2
ATOM      2  C   UNL     1      13.754 -30.113  23.944  1.00  0.00     0.000 C 
BRANCH   2   3
ATOM      3  C   UNL     1      14.238 -29.182  22.819  1.00  0.00     0.000 C 
BRANCH   3   4
ATOM      4  C   UNL     1      15.769 -29.034  22.792  1.00  0.00     0.000 C 
BRANCH   4   5
ATOM      5  C   UNL     1      16.405 -29.748  21.587  1.00  0.00     0.000 C 
BRANCH   5   6
ATOM      6  C   UNL     1      17.367 -30.871  22.013  1.00  0.00     0.000 C 
BRANCH   6   7
ATOM      7  C   UNL     1      18.031 -31.576  20.814  1.00  0.00     0.000 C 
BRANCH   7   8
ATOM      8  C   UNL     1      19.547 -31.808  20.952  1.00  0.00     0.000 C 
BRANCH   8   9
ATOM      9  C   UNL     1      20.261 -30.885  21.958  1.00  0.00     0.000 C 
BRANCH   9  10
ATOM     10  C   UNL     1      20.970 -29.680  21.305  1.00  0.00     0.006 C 
BRANCH  10  11
ATOM     11  C   UNL     1      20.021 -28.498  21.064  1.00  0.00     0.053 C 
BRANCH  11  12
ATOM     12  C   UNL     1      20.794 -27.226  20.917  1.00  0.00     0.041 C 
ATOM     13  O   UNL     1      22.027 -27.259  20.666  1.00  0.00    -0.550 OA
ATOM     14  O   UNL     1      20.161 -26.003  21.099  1.00  0.00    -0.550 OA
ENDBRANCH  11  12
ENDBRANCH  10  11
ENDBRANCH   9  10
ENDBRANCH   8   9
ENDBRANCH   7   8
ENDBRANCH   6   7
ENDBRANCH   5   6
ENDBRANCH   4   5
ENDBRANCH   3   4
ENDBRANCH   2   3
ENDBRANCH   1   2
BRANCH   1  15
ATOM     15  C   UNL     1      14.339 -32.595  23.758  1.00  0.00     0.000 C 
BRANCH  15  16
ATOM     16  C   UNL     1      14.865 -33.314  22.503  1.00  0.00     0.000 C 
BRANCH  16  17
ATOM     17  C   UNL     1      14.250 -32.766  21.206  1.00  0.00     0.000 C 
BRANCH  17  18
ATOM     18  C   UNL     1      14.531 -33.664  19.992  1.00  0.00    -0.000 C 
BRANCH  18  19
ATOM     19  C   UNL     1      15.602 -34.711  20.319  1.00  0.00    -0.000 C 
BRANCH  19  20
ATOM     20  C   UNL     1      16.728 -34.693  19.276  1.00  0.00    -0.000 C 
BRANCH  20  21
ATOM     21  C   UNL     1      17.968 -35.487  19.719  1.00  0.00    -0.000 C 
BRANCH  21  22
ATOM     22  C   UNL     1      17.643 -36.672  20.652  1.00  0.00    -0.000 C 
BRANCH  22  23
ATOM     23  C   UNL     1      18.514 -36.670  21.918  1.00  0.00    -0.000 C 
BRANCH  23  24
ATOM     24  C   UNL     1      19.073 -35.270  22.200  1.00  0.00    -0.000 C 
BRANCH  24  25
ATOM     25  C   UNL     1      18.156 -34.492  23.149  1.00  0.00    -0.003 C 
ATOM     26  C   UNL     1      17.588 -35.401  24.236  1.00  0.00     0.004 C 
ENDBRANCH  24  25
ENDBRANCH  23  24
ENDBRANCH  22  23
ENDBRANCH  21  22
ENDBRANCH  20  21
ENDBRANCH  19  20
ENDBRANCH  18  19
ENDBRANCH  17  18
ENDBRANCH  16  17
ENDBRANCH  15  16
ENDBRANCH   1  15
TORSDOF 22
ENDMDL
MODEL 2
REMARK VINA RESULT:    -4.853      1.717      4.332
REMARK INTER + INTRA:         -15.086
REMARK INTER:                 -12.292
REMARK INTRA:                  -2.794
REMARK UNBOUND:                -3.991
REMARK SMILES CCCCCCCCCCCCCCCCCCCCCCCC(=O)[O-]
REMARK SMILES IDX 13 1 14 2 15 3 16 4 17 5 18 6 19 7 20 8 21 9 22 10 23 11
REMARK SMILES IDX 24 12 25 13 26 14 12 15 11 16 10 17 9 18 8 19 7 20 6 21 5 22
REMARK SMILES IDX 4 23 3 24 2 25 1 26
REMARK H PARENT
REMARK Flexibility Score: inf
ROOT
ATOM      1  C   UNL     1      16.987 -29.035  22.446  1.00  0.00     0.000 C 
ENDROOT
BRANCH   1   2
ATOM      2  C   UNL     1      16.870 -30.315  23.290  1.00  0.00     0.000 C 
BRANCH   2   3
ATOM      3  C   UNL     1      17.776 -31.448  22.778  1.00  0.00     0.000 C 
BRANCH   3   4
ATOM      4  C   UNL     1      18.153 -31.281  21.297  1.00  0.00     0.000 C 
BRANCH   4   5
ATOM      5  C   UNL     1      19.351 -32.159  20.894  1.00  0.00     0.000 C 
BRANCH   5   6
ATOM      6  C   UNL     1      20.698 -31.451  21.120  1.00  0.00     0.000 C 
BRANCH   6   7
ATOM      7  C   UNL     1      20.661 -29.959  20.739  1.00  0.00     0.000 C 
BRANCH   7   8
ATOM      8  C   UNL     1      21.177 -28.996  21.824  1.00  0.00     0.000 C 
BRANCH   8   9
ATOM      9  C   UNL     1      21.222 -27.511  21.413  1.00  0.00     0.000 C 
BRANCH   9  10
ATOM     10  C   UNL     1      22.652 -26.953  21.248  1.00  0.00     0.006 C 
BRANCH  10  11
ATOM     11  C   UNL     1      22.805 -26.089  19.990  1.00  0.00     0.053 C 
BRANCH  11  12
ATOM     12  C   UNL     1      23.285 -24.719  20.350  1.00  0.00     0.041 C 
ATOM     13  O   UNL     1      22.897 -24.171  21.416  1.00  0.00    -0.550 OA
ATOM     14  O   UNL     1      24.128 -24.028  19.489  1.00  0.00    -0.550 OA
ENDBRANCH  11  12
ENDBRANCH  10  11
ENDBRANCH   9  10
ENDBRANCH   8   9
ENDBRANCH   7   8
ENDBRANCH   6   7
ENDBRANCH   5   6
ENDBRANCH   4   5
ENDBRANCH   3   4
ENDBRANCH   2   3
ENDBRANCH   1   2
BRANCH   1  15
ATOM     15  C   UNL     1      15.618 -28.411  22.130  1.00  0.00     0.000 C 
BRANCH  15  16
ATOM     16  C   UNL     1      14.784 -28.137  23.395  1.00  0.00     0.000 C 
BRANCH  16  17
ATOM     17  C   UNL     1      13.384 -28.764  23.325  1.00  0.00     0.000 C 
BRANCH  17  18
ATOM     18  C   UNL     1      13.257 -30.026  24.193  1.00  0.00    -0.000 C 
BRANCH  18  19
ATOM     19  C   UNL     1      13.260 -31.291  23.327  1.00  0.00    -0.000 C 
BRANCH  19  20
ATOM     20  C   UNL     1      12.702 -31.003  21.927  1.00  0.00    -0.000 C 
BRANCH  20  21
ATOM     21  C   UNL     1      13.502 -31.691  20.810  1.00  0.00    -0.000 C 
BRANCH  21  22
ATOM     22  C   UNL     1      14.581 -32.664  21.330  1.00  0.00    -0.000 C 
BRANCH  22  23
ATOM     23  C   UNL     1      14.865 -33.801  20.337  1.00  0.00    -0.000 C 
BRANCH  23  24
ATOM     24  C   UNL     1      15.703 -34.907  20.990  1.00  0.00    -0.000 C 
BRANCH  24  25
ATOM     25  C   UNL     1      16.411 -35.759  19.931  1.00  0.00    -0.003 C 
ATOM     26  C   UNL     1      17.360 -36.765  20.576  1.00  0.00     0.004 C 
ENDBRANCH  24  25
ENDBRANCH  23  24
ENDBRANCH  22  23
ENDBRANCH  21  22
ENDBRANCH  20  21
ENDBRANCH  19  20
ENDBRANCH  18  19
ENDBRANCH  17  18
ENDBRANCH  16  17
ENDBRANCH  15  16
ENDBRANCH   1  15
TORSDOF 22
ENDMDL
MODEL 3
REMARK VINA RESULT:    -4.805      3.349      6.873
REMARK INTER + INTRA:         -14.976
REMARK INTER:                 -10.998
REMARK INTRA:                  -3.977
REMARK UNBOUND:                -3.991
REMARK SMILES CCCCCCCCCCCCCCCCCCCCCCCC(=O)[O-]
REMARK SMILES IDX 13 1 14 2 15 3 16 4 17 5 18 6 19 7 20 8 21 9 22 10 23 11
REMARK SMILES IDX 24 12 25 13 26 14 12 15 11 16 10 17 9 18 8 19 7 20 6 21 5 22
REMARK SMILES IDX 4 23 3 24 2 25 1 26
REMARK H PARENT
REMARK Flexibility Score: inf
ROOT
ATOM      1  C   UNL     1      15.817 -32.668  24.312  1.00  0.00     0.000 C 
ENDROOT
BRANCH   1   2
ATOM      2  C   UNL     1      14.851 -33.417  23.378  1.00  0.00     0.000 C 
BRANCH   2   3
ATOM      3  C   UNL     1      15.573 -34.113  22.212  1.00  0.00     0.000 C 
BRANCH   3   4
ATOM      4  C   UNL     1      14.945 -33.786  20.847  1.00  0.00     0.000 C 
BRANCH   4   5
ATOM      5  C   UNL     1      15.621 -34.547  19.693  1.00  0.00     0.000 C 
BRANCH   5   6
ATOM      6  C   UNL     1      17.074 -34.096  19.466  1.00  0.00     0.000 C 
BRANCH   6   7
ATOM      7  C   UNL     1      18.094 -35.228  19.692  1.00  0.00     0.000 C 
BRANCH   7   8
ATOM      8  C   UNL     1      17.480 -36.623  19.913  1.00  0.00     0.000 C 
BRANCH   8   9
ATOM      9  C   UNL     1      17.942 -37.346  21.194  1.00  0.00     0.000 C 
BRANCH   9  10
ATOM     10  C   UNL     1      18.816 -36.475  22.121  1.00  0.00     0.006 C 
BRANCH  10  11
ATOM     11  C   UNL     1      19.544 -37.299  23.190  1.00  0.00     0.053 C 
BRANCH  11  12
ATOM     12  C   UNL     1      19.093 -36.898  24.559  1.00  0.00     0.041 C 
ATOM     13  O   UNL     1      19.195 -35.701  24.934  1.00  0.00    -0.550 OA
ATOM     14  O   UNL     1      18.599 -37.855  25.436  1.00  0.00    -0.550 OA
ENDBRANCH  11  12
ENDBRANCH  10  11
ENDBRANCH   9  10
ENDBRANCH   8   9
ENDBRANCH   7   8
ENDBRANCH   6   7
ENDBRANCH   5   6
ENDBRANCH   4   5
ENDBRANCH   3   4
ENDBRANCH   2   3
ENDBRANCH   1   2
BRANCH   1  15
ATOM     15  C   UNL     1      17.264 -33.171  24.188  1.00  0.00     0.000 C 
BRANCH  15  16
ATOM     16  C   UNL     1      18.232 -32.079  23.699  1.00  0.00     0.000 C 
BRANCH  16  17
ATOM     17  C   UNL     1      18.812 -32.383  22.309  1.00  0.00     0.000 C 
BRANCH  17  18
ATOM     18  C   UNL     1      18.628 -31.218  21.325  1.00  0.00    -0.000 C 
BRANCH  18  19
ATOM     19  C   UNL     1      17.153 -30.815  21.219  1.00  0.00    -0.000 C 
BRANCH  19  20
ATOM     20  C   UNL     1      16.917 -29.422  21.820  1.00  0.00    -0.000 C 
BRANCH  20  21
ATOM     21  C   UNL     1      15.441 -29.159  22.161  1.00  0.00    -0.000 C 
BRANCH  21  22
ATOM     22  C   UNL     1      14.486 -30.266  21.669  1.00  0.00    -0.000 C 
BRANCH  22  23
ATOM     23  C   UNL     1      13.153 -30.266  22.434  1.00  0.00    -0.000 C 
BRANCH  23  24
ATOM     24  C   UNL     1      13.363 -29.888  23.905  1.00  0.00    -0.000 C 
BRANCH  24  25
ATOM     25  C   UNL     1      12.449 -28.728  24.310  1.00  0.00    -0.003 C 
ATOM     26  C   UNL     1      11.323 -28.532  23.298  1.00  0.00     0.004 C 
ENDBRANCH  24  25
ENDBRANCH  23  24
ENDBRANCH  22  23
ENDBRANCH  21  22
ENDBRANCH  20  21
ENDBRANCH  19  20
ENDBRANCH  18  19
ENDBRANCH  17  18
ENDBRANCH  16  17
ENDBRANCH  15  16
ENDBRANCH   1  15
TORSDOF 22
ENDMDL
MODEL 4
REMARK VINA RESULT:    -4.804      1.486      3.062
REMARK INTER + INTRA:         -14.973
REMARK INTER:                 -11.101
REMARK INTRA:                  -3.873
REMARK UNBOUND:                -3.991
REMARK SMILES CCCCCCCCCCCCCCCCCCCCCCCC(=O)[O-]
REMARK SMILES IDX 13 1 14 2 15 3 16 4 17 5 18 6 19 7 20 8 21 9 22 10 23 11
REMARK SMILES IDX 24 12 25 13 26 14 12 15 11 16 10 17 9 18 8 19 7 20 6 21 5 22
REMARK SMILES IDX 4 23 3 24 2 25 1 26
REMARK H PARENT
REMARK Flexibility Score: inf
ROOT
ATOM      1  C   UNL     1      14.273 -32.891  20.676  1.00  0.00     0.000 C 
ENDROOT
BRANCH   1   2
ATOM      2  C   UNL     1      13.681 -31.749  21.521  1.00  0.00     0.000 C 
BRANCH   2   3
ATOM      3  C   UNL     1      14.607 -30.524  21.594  1.00  0.00     0.000 C 
BRANCH   3   4
ATOM      4  C   UNL     1      14.911 -30.097  23.041  1.00  0.00     0.000 C 
BRANCH   4   5
ATOM      5  C   UNL     1      15.608 -28.727  23.114  1.00  0.00     0.000 C 
BRANCH   5   6
ATOM      6  C   UNL     1      16.384 -28.395  21.827  1.00  0.00     0.000 C 
BRANCH   6   7
ATOM      7  C   UNL     1      17.887 -28.173  22.076  1.00  0.00     0.000 C 
BRANCH   7   8
ATOM      8  C   UNL     1      18.789 -28.370  20.843  1.00  0.00     0.000 C 
BRANCH   8   9
ATOM      9  C   UNL     1      20.229 -28.826  21.151  1.00  0.00     0.000 C 
BRANCH   9  10
ATOM     10  C   UNL     1      21.127 -27.709  21.724  1.00  0.00     0.006 C 
BRANCH  10  11
ATOM     11  C   UNL     1      22.150 -27.194  20.702  1.00  0.00     0.053 C 
BRANCH  11  12
ATOM     12  C   UNL     1      21.789 -25.816  20.246  1.00  0.00     0.041 C 
ATOM     13  O   UNL     1      20.604 -25.550  19.913  1.00  0.00    -0.550 OA
ATOM     14  O   UNL     1      22.769 -24.837  20.148  1.00  0.00    -0.550 OA
ENDBRANCH  11  12
ENDBRANCH  10  11
ENDBRANCH   9  10
ENDBRANCH   8   9
ENDBRANCH   7   8
ENDBRANCH   6   7
ENDBRANCH   5   6
ENDBRANCH   4   5
ENDBRANCH   3   4
ENDBRANCH   2   3
ENDBRANCH   1   2
BRANCH   1  15
ATOM     15  C   UNL     1      15.010 -33.934  21.531  1.00  0.00     0.000 C 
BRANCH  15  16
ATOM     16  C   UNL     1      15.761 -34.975  20.680  1.00  0.00     0.000 C 
BRANCH  16  17
ATOM     17  C   UNL     1      16.365 -34.369  19.404  1.00  0.00     0.000 C 
BRANCH  17  18
ATOM     18  C   UNL     1      17.900 -34.432  19.389  1.00  0.00    -0.000 C 
BRANCH  18  19
ATOM     19  C   UNL     1      18.487 -33.846  20.678  1.00  0.00    -0.000 C 
BRANCH  19  20
ATOM     20  C   UNL     1      18.383 -32.315  20.685  1.00  0.00    -0.000 C 
BRANCH  20  21
ATOM     21  C   UNL     1      17.949 -31.750  22.047  1.00  0.00    -0.000 C 
BRANCH  21  22
ATOM     22  C   UNL     1      19.044 -31.838  23.132  1.00  0.00    -0.000 C 
BRANCH  22  23
ATOM     23  C   UNL     1      18.565 -32.594  24.380  1.00  0.00    -0.000 C 
BRANCH  23  24
ATOM     24  C   UNL     1      17.049 -32.822  24.339  1.00  0.00    -0.000 C 
BRANCH  24  25
ATOM     25  C   UNL     1      16.695 -34.246  24.782  1.00  0.00    -0.003 C 
ATOM     26  C   UNL     1      17.514 -35.282  24.016  1.00  0.00     0.004 C 
ENDBRANCH  24  25
ENDBRANCH  23  24
ENDBRANCH  22  23
ENDBRANCH  21  22
ENDBRANCH  20  21
ENDBRANCH  19  20
ENDBRANCH  18  19
ENDBRANCH  17  18
ENDBRANCH  16  17
ENDBRANCH  15  16
ENDBRANCH   1  15
TORSDOF 22
ENDMDL
MODEL 5
REMARK VINA RESULT:    -4.789      1.361      3.366
REMARK INTER + INTRA:         -14.940
REMARK INTER:                 -10.998
REMARK INTRA:                  -3.943
REMARK UNBOUND:                -3.991
REMARK SMILES CCCCCCCCCCCCCCCCCCCCCCCC(=O)[O-]
REMARK SMILES IDX 13 1 14 2 15 3 16 4 17 5 18 6 19 7 20 8 21 9 22 10 23 11
REMARK SMILES IDX 24 12 25 13 26 14 12 15 11 16 10 17 9 18 8 19 7 20 6 21 5 22
REMARK SMILES IDX 4 23 3 24 2 25 1 26
REMARK H PARENT
REMARK Flexibility Score: inf
ROOT
ATOM      1  C   UNL     1      15.316 -27.664  23.496  1.00  0.00     0.000 C 
ENDROOT
BRANCH   1   2
ATOM      2  C   UNL     1      15.536 -28.270  22.099  1.00  0.00     0.000 C 
BRANCH   2   3
ATOM      3  C   UNL     1      16.544 -29.432  22.109  1.00  0.00     0.000 C 
BRANCH   3   4
ATOM      4  C   UNL     1      16.926 -29.872  23.533  1.00  0.00     0.000 C 
BRANCH   4   5
ATOM      5  C   UNL     1      16.791 -31.391  23.733  1.00  0.00     0.000 C 
BRANCH   5   6
ATOM      6  C   UNL     1      18.094 -32.034  24.241  1.00  0.00     0.000 C 
BRANCH   6   7
ATOM      7  C   UNL     1      18.793 -32.894  23.171  1.00  0.00     0.000 C 
BRANCH   7   8
ATOM      8  C   UNL     1      18.661 -32.374  21.727  1.00  0.00     0.000 C 
BRANCH   8   9
ATOM      9  C   UNL     1      19.912 -31.670  21.168  1.00  0.00     0.000 C 
BRANCH   9  10
ATOM     10  C   UNL     1      20.170 -30.277  21.783  1.00  0.00     0.006 C 
BRANCH  10  11
ATOM     11  C   UNL     1      21.023 -29.382  20.875  1.00  0.00     0.053 C 
BRANCH  11  12
ATOM     12  C   UNL     1      20.660 -27.943  21.066  1.00  0.00     0.041 C 
ATOM     13  O   UNL     1      19.456 -27.581  21.008  1.00  0.00    -0.550 OA
ATOM     14  O   UNL     1      21.656 -26.996  21.266  1.00  0.00    -0.550 OA
ENDBRANCH  11  12
ENDBRANCH  10  11
ENDBRANCH   9  10
ENDBRANCH   8   9
ENDBRANCH   7   8
ENDBRANCH   6   7
ENDBRANCH   5   6
ENDBRANCH   4   5
ENDBRANCH   3   4
ENDBRANCH   2   3
ENDBRANCH   1   2
BRANCH   1  15
ATOM     15  C   UNL     1      13.835 -27.663  23.909  1.00  0.00     0.000 C 
BRANCH  15  16
ATOM     16  C   UNL     1      13.053 -28.848  23.316  1.00  0.00     0.000 C 
BRANCH  16  17
ATOM     17  C   UNL     1      13.286 -30.156  24.089  1.00  0.00     0.000 C 
BRANCH  17  18
ATOM     18  C   UNL     1      13.186 -31.398  23.191  1.00  0.00    -0.000 C 
BRANCH  18  19
ATOM     19  C   UNL     1      13.066 -31.003  21.715  1.00  0.00    -0.000 C 
BRANCH  19  20
ATOM     20  C   UNL     1      13.521 -32.146  20.798  1.00  0.00    -0.000 C 
BRANCH  20  21
ATOM     21  C   UNL     1      14.984 -32.556  21.033  1.00  0.00    -0.000 C 
BRANCH  21  22
ATOM     22  C   UNL     1      15.149 -34.010  21.524  1.00  0.00    -0.000 C 
BRANCH  22  23
ATOM     23  C   UNL     1      15.685 -34.938  20.424  1.00  0.00    -0.000 C 
BRANCH  23  24
ATOM     24  C   UNL     1      16.977 -35.632  20.869  1.00  0.00    -0.000 C 
BRANCH  24  25
ATOM     25  C   UNL     1      17.946 -35.795  19.693  1.00  0.00    -0.003 C 
ATOM     26  C   UNL     1      18.130 -34.479  18.942  1.00  0.00     0.004 C 
ENDBRANCH  24  25
ENDBRANCH  23  24
ENDBRANCH  22  23
ENDBRANCH  21  22
ENDBRANCH  20  21
ENDBRANCH  19  20
ENDBRANCH  18  19
ENDBRANCH  17  18
ENDBRANCH  16  17
ENDBRANCH  15  16
ENDBRANCH   1  15
TORSDOF 22
ENDMDL
MODEL 6
REMARK VINA RESULT:    -4.780      1.367      2.866
REMARK INTER + INTRA:         -14.919
REMARK INTER:                 -10.927
REMARK INTRA:                  -3.993
REMARK UNBOUND:                -3.991
REMARK SMILES CCCCCCCCCCCCCCCCCCCCCCCC(=O)[O-]
REMARK SMILES IDX 13 1 14 2 15 3 16 4 17 5 18 6 19 7 20 8 21 9 22 10 23 11
REMARK SMILES IDX 24 12 25 13 26 14 12 15 11 16 10 17 9 18 8 19 7 20 6 21 5 22
REMARK SMILES IDX 4 23 3 24 2 25 1 26
REMARK H PARENT
REMARK Flexibility Score: inf
ROOT
ATOM      1  C   UNL     1      17.045 -30.734  23.389  1.00  0.00     0.000 C 
ENDROOT
BRANCH   1   2
ATOM      2  C   UNL     1      17.014 -30.028  22.023  1.00  0.00     0.000 C 
BRANCH   2   3
ATOM      3  C   UNL     1      17.591 -30.897  20.893  1.00  0.00     0.000 C 
BRANCH   3   4
ATOM      4  C   UNL     1      18.347 -32.129  21.420  1.00  0.00     0.000 C 
BRANCH   4   5
ATOM      5  C   UNL     1      19.799 -32.186  20.917  1.00  0.00     0.000 C 
BRANCH   5   6
ATOM      6  C   UNL     1      20.730 -31.249  21.707  1.00  0.00     0.000 C 
BRANCH   6   7
ATOM      7  C   UNL     1      21.146 -30.003  20.903  1.00  0.00     0.000 C 
BRANCH   7   8
ATOM      8  C   UNL     1      20.908 -28.658  21.617  1.00  0.00     0.000 C 
BRANCH   8   9
ATOM      9  C   UNL     1      19.847 -27.750  20.965  1.00  0.00     0.000 C 
BRANCH   9  10
ATOM     10  C   UNL     1      20.422 -26.447  20.370  1.00  0.00     0.006 C 
BRANCH  10  11
ATOM     11  C   UNL     1      21.525 -25.836  21.245  1.00  0.00     0.053 C 
BRANCH  11  12
ATOM     12  C   UNL     1      22.786 -25.668  20.459  1.00  0.00     0.041 C 
ATOM     13  O   UNL     1      23.357 -24.546  20.409  1.00  0.00    -0.550 OA
ATOM     14  O   UNL     1      23.309 -26.738  19.745  1.00  0.00    -0.550 OA
ENDBRANCH  11  12
ENDBRANCH  10  11
ENDBRANCH   9  10
ENDBRANCH   8   9
ENDBRANCH   7   8
ENDBRANCH   6   7
ENDBRANCH   5   6
ENDBRANCH   4   5
ENDBRANCH   3   4
ENDBRANCH   2   3
ENDBRANCH   1   2
BRANCH   1  15
ATOM     15  C   UNL     1      15.672 -31.293  23.795  1.00  0.00     0.000 C 
BRANCH  15  16
ATOM     16  C   UNL     1      15.701 -32.809  24.056  1.00  0.00     0.000 C 
BRANCH  16  17
ATOM     17  C   UNL     1      15.146 -33.622  22.877  1.00  0.00     0.000 C 
BRANCH  17  18
ATOM     18  C   UNL     1      14.534 -32.733  21.783  1.00  0.00    -0.000 C 
BRANCH  18  19
ATOM     19  C   UNL     1      14.561 -33.439  20.422  1.00  0.00    -0.000 C 
BRANCH  19  20
ATOM     20  C   UNL     1      15.494 -34.657  20.450  1.00  0.00    -0.000 C 
BRANCH  20  21
ATOM     21  C   UNL     1      16.547 -34.632  19.330  1.00  0.00    -0.000 C 
BRANCH  21  22
ATOM     22  C   UNL     1      17.849 -35.379  19.687  1.00  0.00    -0.000 C 
BRANCH  22  23
ATOM     23  C   UNL     1      17.625 -36.456  20.760  1.00  0.00    -0.000 C 
BRANCH  23  24
ATOM     24  C   UNL     1      18.678 -36.355  21.870  1.00  0.00    -0.000 C 
BRANCH  24  25
ATOM     25  C   UNL     1      18.209 -35.420  22.990  1.00  0.00    -0.003 C 
ATOM     26  C   UNL     1      19.395 -34.788  23.714  1.00  0.00     0.004 C 
ENDBRANCH  24  25
ENDBRANCH  23  24
ENDBRANCH  22  23
ENDBRANCH  21  22
ENDBRANCH  20  21
ENDBRANCH  19  20
ENDBRANCH  18  19
ENDBRANCH  17  18
ENDBRANCH  16  17
ENDBRANCH  15  16
ENDBRANCH   1  15
TORSDOF 22
ENDMDL
MODEL 7
REMARK VINA RESULT:    -4.730      3.209      4.961
REMARK INTER + INTRA:         -14.805
REMARK INTER:                 -11.300
REMARK INTRA:                  -3.506
REMARK UNBOUND:                -3.991
REMARK SMILES CCCCCCCCCCCCCCCCCCCCCCCC(=O)[O-]
REMARK SMILES IDX 13 1 14 2 15 3 16 4 17 5 18 6 19 7 20 8 21 9 22 10 23 11
REMARK SMILES IDX 24 12 25 13 26 14 12 15 11 16 10 17 9 18 8 19 7 20 6 21 5 22
REMARK SMILES IDX 4 23 3 24 2 25 1 26
REMARK H PARENT
REMARK Flexibility Score: inf
ROOT
ATOM      1  C   UNL     1      14.591 -33.135  22.213  1.00  0.00     0.000 C 
ENDROOT
BRANCH   1   2
ATOM      2  C   UNL     1      15.866 -33.680  22.879  1.00  0.00     0.000 C 
BRANCH   2   3
ATOM      3  C   UNL     1      16.591 -32.621  23.727  1.00  0.00     0.000 C 
BRANCH   3   4
ATOM      4  C   UNL     1      18.049 -32.406  23.287  1.00  0.00     0.000 C 
BRANCH   4   5
ATOM      5  C   UNL     1      18.194 -32.332  21.757  1.00  0.00     0.000 C 
BRANCH   5   6
ATOM      6  C   UNL     1      17.618 -31.029  21.177  1.00  0.00     0.000 C 
BRANCH   6   7
ATOM      7  C   UNL     1      17.925 -29.797  22.050  1.00  0.00     0.000 C 
BRANCH   7   8
ATOM      8  C   UNL     1      16.909 -28.646  21.934  1.00  0.00     0.000 C 
BRANCH   8   9
ATOM      9  C   UNL     1      15.834 -28.608  23.037  1.00  0.00     0.000 C 
BRANCH   9  10
ATOM     10  C   UNL     1      14.644 -29.557  22.781  1.00  0.00     0.006 C 
BRANCH  10  11
ATOM     11  C   UNL     1      13.457 -29.278  23.713  1.00  0.00     0.053 C 
BRANCH  11  12
ATOM     12  C   UNL     1      12.163 -29.509  22.998  1.00  0.00     0.041 C 
ATOM     13  O   UNL     1      11.212 -28.695  23.129  1.00  0.00    -0.550 OA
ATOM     14  O   UNL     1      11.993 -30.647  22.220  1.00  0.00    -0.550 OA
ENDBRANCH  11  12
ENDBRANCH  10  11
ENDBRANCH   9  10
ENDBRANCH   8   9
ENDBRANCH   7   8
ENDBRANCH   6   7
ENDBRANCH   5   6
ENDBRANCH   4   5
ENDBRANCH   3   4
ENDBRANCH   2   3
ENDBRANCH   1   2
BRANCH   1  15
ATOM     15  C   UNL     1      14.621 -33.272  20.683  1.00  0.00     0.000 C 
BRANCH  15  16
ATOM     16  C   UNL     1      15.317 -34.563  20.216  1.00  0.00     0.000 C 
BRANCH  16  17
ATOM     17  C   UNL     1      16.483 -34.290  19.253  1.00  0.00     0.000 C 
BRANCH  17  18
ATOM     18  C   UNL     1      17.556 -35.388  19.298  1.00  0.00    -0.000 C 
BRANCH  18  19
ATOM     19  C   UNL     1      17.026 -36.648  19.992  1.00  0.00    -0.000 C 
BRANCH  19  20
ATOM     20  C   UNL     1      18.010 -37.147  21.058  1.00  0.00    -0.000 C 
BRANCH  20  21
ATOM     21  C   UNL     1      18.400 -36.058  22.071  1.00  0.00    -0.000 C 
BRANCH  21  22
ATOM     22  C   UNL     1      19.093 -36.608  23.335  1.00  0.00    -0.000 C 
BRANCH  22  23
ATOM     23  C   UNL     1      18.604 -35.912  24.615  1.00  0.00    -0.000 C 
BRANCH  23  24
ATOM     24  C   UNL     1      18.401 -36.923  25.749  1.00  0.00    -0.000 C 
BRANCH  24  25
ATOM     25  C   UNL     1      17.019 -36.760  26.390  1.00  0.00    -0.003 C 
ATOM     26  C   UNL     1      16.700 -37.929  27.319  1.00  0.00     0.004 C 
ENDBRANCH  24  25
ENDBRANCH  23  24
ENDBRANCH  22  23
ENDBRANCH  21  22
ENDBRANCH  20  21
ENDBRANCH  19  20
ENDBRANCH  18  19
ENDBRANCH  17  18
ENDBRANCH  16  17
ENDBRANCH  15  16
ENDBRANCH   1  15
TORSDOF 22
ENDMDL
MODEL 8
REMARK VINA RESULT:    -4.706      2.902      6.074
REMARK INTER + INTRA:         -14.749
REMARK INTER:                 -10.556
REMARK INTRA:                  -4.193
REMARK UNBOUND:                -3.991
REMARK SMILES CCCCCCCCCCCCCCCCCCCCCCCC(=O)[O-]
REMARK SMILES IDX 13 1 14 2 15 3 16 4 17 5 18 6 19 7 20 8 21 9 22 10 23 11
REMARK SMILES IDX 24 12 25 13 26 14 12 15 11 16 10 17 9 18 8 19 7 20 6 21 5 22
REMARK SMILES IDX 4 23 3 24 2 25 1 26
REMARK H PARENT
REMARK Flexibility Score: inf
ROOT
ATOM      1  C   UNL     1      16.394 -34.603  19.404  1.00  0.00     0.000 C 
ENDROOT
BRANCH   1   2
ATOM      2  C   UNL     1      17.775 -34.042  19.026  1.00  0.00     0.000 C 
BRANCH   2   3
ATOM      3  C   UNL     1      18.275 -32.977  20.016  1.00  0.00     0.000 C 
BRANCH   3   4
ATOM      4  C   UNL     1      17.218 -32.607  21.071  1.00  0.00     0.000 C 
BRANCH   4   5
ATOM      5  C   UNL     1      17.127 -31.089  21.301  1.00  0.00     0.000 C 
BRANCH   5   6
ATOM      6  C   UNL     1      17.172 -30.719  22.794  1.00  0.00     0.000 C 
BRANCH   6   7
ATOM      7  C   UNL     1      16.625 -29.307  23.077  1.00  0.00     0.000 C 
BRANCH   7   8
ATOM      8  C   UNL     1      15.249 -29.004  22.453  1.00  0.00     0.000 C 
BRANCH   8   9
ATOM      9  C   UNL     1      14.073 -28.967  23.448  1.00  0.00     0.000 C 
BRANCH   9  10
ATOM     10  C   UNL     1      13.136 -30.189  23.351  1.00  0.00     0.006 C 
BRANCH  10  11
ATOM     11  C   UNL     1      12.939 -30.668  21.906  1.00  0.00     0.053 C 
BRANCH  11  12
ATOM     12  C   UNL     1      13.627 -31.978  21.690  1.00  0.00     0.041 C 
ATOM     13  O   UNL     1      13.661 -32.494  20.541  1.00  0.00    -0.550 OA
ATOM     14  O   UNL     1      14.195 -32.651  22.763  1.00  0.00    -0.550 OA
ENDBRANCH  11  12
ENDBRANCH  10  11
ENDBRANCH   9  10
ENDBRANCH   8   9
ENDBRANCH   7   8
ENDBRANCH   6   7
ENDBRANCH   5   6
ENDBRANCH   4   5
ENDBRANCH   3   4
ENDBRANCH   2   3
ENDBRANCH   1   2
BRANCH   1  15
ATOM     15  C   UNL     1      16.439 -36.102  19.741  1.00  0.00     0.000 C 
BRANCH  15  16
ATOM     16  C   UNL     1      17.876 -36.631  19.902  1.00  0.00     0.000 C 
BRANCH  16  17
ATOM     17  C   UNL     1      18.204 -37.014  21.354  1.00  0.00     0.000 C 
BRANCH  17  18
ATOM     18  C   UNL     1      18.812 -35.848  22.149  1.00  0.00    -0.000 C 
BRANCH  18  19
ATOM     19  C   UNL     1      17.953 -35.511  23.374  1.00  0.00    -0.000 C 
BRANCH  19  20
ATOM     20  C   UNL     1      18.383 -34.178  24.000  1.00  0.00    -0.000 C 
BRANCH  20  21
ATOM     21  C   UNL     1      19.819 -33.775  23.624  1.00  0.00    -0.000 C 
BRANCH  21  22
ATOM     22  C   UNL     1      20.303 -32.487  24.323  1.00  0.00    -0.000 C 
BRANCH  22  23
ATOM     23  C   UNL     1      20.684 -31.390  23.317  1.00  0.00    -0.000 C 
BRANCH  23  24
ATOM     24  C   UNL     1      21.105 -31.995  21.973  1.00  0.00    -0.000 C 
BRANCH  24  25
ATOM     25  C   UNL     1      21.049 -30.948  20.857  1.00  0.00    -0.003 C 
ATOM     26  C   UNL     1      20.560 -29.602  21.386  1.00  0.00     0.004 C 
ENDBRANCH  24  25
ENDBRANCH  23  24
ENDBRANCH  22  23
ENDBRANCH  21  22
ENDBRANCH  20  21
ENDBRANCH  19  20
ENDBRANCH  18  19
ENDBRANCH  17  18
ENDBRANCH  16  17
ENDBRANCH  15  16
ENDBRANCH   1  15
TORSDOF 22
ENDMDL
MODEL 9
REMARK VINA RESULT:    -4.677      1.818      3.294
REMARK INTER + INTRA:         -14.684
REMARK INTER:                 -11.326
REMARK INTRA:                  -3.357
REMARK UNBOUND:                -3.991
REMARK SMILES CCCCCCCCCCCCCCCCCCCCCCCC(=O)[O-]
REMARK SMILES IDX 13 1 14 2 15 3 16 4 17 5 18 6 19 7 20 8 21 9 22 10 23 11
REMARK SMILES IDX 24 12 25 13 26 14 12 15 11 16 10 17 9 18 8 19 7 20 6 21 5 22
REMARK SMILES IDX 4 23 3 24 2 25 1 26
REMARK H PARENT
REMARK Flexibility Score: inf
ROOT
ATOM      1  C   UNL     1      15.062 -28.981  22.859  1.00  0.00     0.000 C 
ENDROOT
BRANCH   1   2
ATOM      2  C   UNL     1      16.130 -29.895  23.485  1.00  0.00     0.000 C 
BRANCH   2   3
ATOM      3  C   UNL     1      17.429 -29.939  22.661  1.00  0.00     0.000 C 
BRANCH   3   4
ATOM      4  C   UNL     1      17.280 -30.751  21.363  1.00  0.00     0.000 C 
BRANCH   4   5
ATOM      5  C   UNL     1      18.590 -31.441  20.949  1.00  0.00     0.000 C 
BRANCH   5   6
ATOM      6  C   UNL     1      19.801 -30.930  21.750  1.00  0.00     0.000 C 
BRANCH   6   7
ATOM      7  C   UNL     1      20.818 -30.172  20.877  1.00  0.00     0.000 C 
BRANCH   7   8
ATOM      8  C   UNL     1      20.991 -28.681  21.223  1.00  0.00     0.000 C 
BRANCH   8   9
ATOM      9  C   UNL     1      19.816 -27.773  20.811  1.00  0.00     0.000 C 
BRANCH   9  10
ATOM     10  C   UNL     1      20.105 -26.266  20.977  1.00  0.00     0.006 C 
BRANCH  10  11
ATOM     11  C   UNL     1      21.206 -25.768  20.031  1.00  0.00     0.053 C 
BRANCH  11  12
ATOM     12  C   UNL     1      22.323 -25.147  20.808  1.00  0.00     0.041 C 
ATOM     13  O   UNL     1      23.226 -24.501  20.213  1.00  0.00    -0.550 OA
ATOM     14  O   UNL     1      22.391 -25.316  22.185  1.00  0.00    -0.550 OA
ENDBRANCH  11  12
ENDBRANCH  10  11
ENDBRANCH   9  10
ENDBRANCH   8   9
ENDBRANCH   7   8
ENDBRANCH   6   7
ENDBRANCH   5   6
ENDBRANCH   4   5
ENDBRANCH   3   4
ENDBRANCH   2   3
ENDBRANCH   1   2
BRANCH   1  15
ATOM     15  C   UNL     1      13.697 -29.113  23.552  1.00  0.00     0.000 C 
BRANCH  15  16
ATOM     16  C   UNL     1      12.676 -29.899  22.710  1.00  0.00     0.000 C 
BRANCH  16  17
ATOM     17  C   UNL     1      13.089 -31.364  22.501  1.00  0.00     0.000 C 
BRANCH  17  18
ATOM     18  C   UNL     1      13.382 -31.691  21.028  1.00  0.00    -0.000 C 
BRANCH  18  19
ATOM     19  C   UNL     1      14.370 -32.857  20.910  1.00  0.00    -0.000 C 
BRANCH  19  20
ATOM     20  C   UNL     1      14.842 -33.324  22.294  1.00  0.00    -0.000 C 
BRANCH  20  21
ATOM     21  C   UNL     1      16.018 -34.311  22.224  1.00  0.00    -0.000 C 
BRANCH  21  22
ATOM     22  C   UNL     1      16.691 -34.569  23.589  1.00  0.00    -0.000 C 
BRANCH  22  23
ATOM     23  C   UNL     1      16.554 -33.371  24.540  1.00  0.00    -0.000 C 
BRANCH  23  24
ATOM     24  C   UNL     1      17.758 -33.275  25.484  1.00  0.00    -0.000 C 
BRANCH  24  25
ATOM     25  C   UNL     1      18.647 -32.081  25.121  1.00  0.00    -0.003 C 
ATOM     26  C   UNL     1      19.266 -31.455  26.368  1.00  0.00     0.004 C 
ENDBRANCH  24  25
ENDBRANCH  23  24
ENDBRANCH  22  23
ENDBRANCH  21  22
ENDBRANCH  20  21
ENDBRANCH  19  20
ENDBRANCH  18  19
ENDBRANCH  17  18
ENDBRANCH  16  17
ENDBRANCH  15  16
ENDBRANCH   1  15
TORSDOF 22
ENDMDL
