MODEL 1
REMARK VINA RESULT:    -6.295      0.000      0.000
REMARK INTER + INTRA:          -7.676
REMARK INTER:                  -7.399
REMARK INTRA:                  -0.277
REMARK UNBOUND:                -0.277
REMARK SMILES O=c1cc(-c2ccc(O)c(O)c2)oc2cc(O)cc(O)c12
REMARK SMILES IDX 4 1 3 2 2 3 1 4 21 5 19 6 18 7 16 8 15 9 14 10 13 11 5 12
REMARK SMILES IDX 6 13 7 14 8 15 12 16 10 17 9 18 11 20 20 22 17 24
REMARK H PARENT 9 19 11 21 20 23 17 25
REMARK Flexibility Score: inf
ROOT
ATOM      1  C   UNL     1     -34.556  -8.241   3.639  1.00  0.00     0.138 A 
ATOM      2  C   UNL     1     -35.187  -9.122   4.527  1.00  0.00     0.100 A 
ATOM      3  C   UNL     1     -35.723  -8.634   5.720  1.00  0.00     0.197 A 
ATOM      4  O   UNL     1     -36.338  -9.438   6.467  1.00  0.00    -0.289 OA
ATOM      5  C   UNL     1     -35.598  -7.260   6.037  1.00  0.00     0.107 A 
ATOM      6  C   UNL     1     -36.071  -6.658   7.242  1.00  0.00     0.134 A 
ATOM      7  C   UNL     1     -35.995  -5.268   7.394  1.00  0.00     0.093 A 
ATOM      8  C   UNL     1     -35.410  -4.466   6.411  1.00  0.00     0.123 A 
ATOM      9  C   UNL     1     -34.896  -5.051   5.255  1.00  0.00     0.094 A 
ATOM     10  C   UNL     1     -34.989  -6.430   5.059  1.00  0.00     0.146 A 
ATOM     11  O   UNL     1     -34.500  -6.946   3.935  1.00  0.00    -0.456 OA
ENDROOT
BRANCH   1  12
ATOM     12  C   UNL     1     -33.967  -8.707   2.358  1.00  0.00     0.021 A 
ATOM     13  C   UNL     1     -32.936  -9.662   2.379  1.00  0.00     0.016 A 
ATOM     14  C   UNL     1     -32.369 -10.123   1.188  1.00  0.00     0.051 A 
ATOM     15  C   UNL     1     -32.828  -9.648  -0.043  1.00  0.00     0.157 A 
ATOM     16  C   UNL     1     -34.435  -8.241   1.115  1.00  0.00     0.062 A 
ATOM     17  C   UNL     1     -33.869  -8.705  -0.082  1.00  0.00     0.158 A 
BRANCH  15  18
ATOM     18  O   UNL     1     -32.243 -10.125  -1.216  1.00  0.00    -0.504 OA
ATOM     19  H   UNL     1     -32.686 -10.018  -2.120  1.00  0.00     0.293 HD
ENDBRANCH  15  18
BRANCH  17  20
ATOM     20  O   UNL     1     -34.339  -8.234  -1.307  1.00  0.00    -0.504 OA
ATOM     21  H   UNL     1     -33.707  -7.992  -2.061  1.00  0.00     0.293 HD
ENDBRANCH  17  20
ENDBRANCH   1  12
BRANCH   6  22
ATOM     22  O   UNL     1     -36.595  -7.376   8.320  1.00  0.00    -0.507 OA
ATOM     23  H   UNL     1     -36.322  -8.312   8.577  1.00  0.00     0.293 HD
ENDBRANCH   6  22
BRANCH   8  24
ATOM     24  O   UNL     1     -35.324  -3.085   6.578  1.00  0.00    -0.508 OA
ATOM     25  H   UNL     1     -34.642  -2.532   6.072  1.00  0.00     0.293 HD
ENDBRANCH   8  24
TORSDOF 5
ENDMDL
MODEL 2
REMARK VINA RESULT:    -6.243      1.592      7.197
REMARK INTER + INTRA:          -7.614
REMARK INTER:                  -7.345
REMARK INTRA:                  -0.270
REMARK UNBOUND:                -0.277
REMARK SMILES O=c1cc(-c2ccc(O)c(O)c2)oc2cc(O)cc(O)c12
REMARK SMILES IDX 4 1 3 2 2 3 1 4 21 5 19 6 18 7 16 8 15 9 14 10 13 11 5 12
REMARK SMILES IDX 6 13 7 14 8 15 12 16 10 17 9 18 11 20 20 22 17 24
REMARK H PARENT 9 19 11 21 20 23 17 25
REMARK Flexibility Score: inf
ROOT
ATOM      1  C   UNL     1     -34.500  -8.022   2.591  1.00  0.00     0.138 A 
ATOM      2  C   UNL     1     -33.260  -8.632   2.356  1.00  0.00     0.100 A 
ATOM      3  C   UNL     1     -32.938  -9.069   1.069  1.00  0.00     0.197 A 
ATOM      4  O   UNL     1     -31.794  -9.556   0.877  1.00  0.00    -0.289 OA
ATOM      5  C   UNL     1     -33.877  -8.921   0.021  1.00  0.00     0.107 A 
ATOM      6  C   UNL     1     -33.674  -9.365  -1.320  1.00  0.00     0.134 A 
ATOM      7  C   UNL     1     -34.627  -9.060  -2.300  1.00  0.00     0.093 A 
ATOM      8  C   UNL     1     -35.803  -8.379  -1.974  1.00  0.00     0.123 A 
ATOM      9  C   UNL     1     -36.035  -7.989  -0.657  1.00  0.00     0.094 A 
ATOM     10  C   UNL     1     -35.087  -8.248   0.336  1.00  0.00     0.146 A 
ATOM     11  O   UNL     1     -35.342  -7.846   1.577  1.00  0.00    -0.456 OA
ENDROOT
BRANCH   1  12
ATOM     12  C   UNL     1     -34.893  -7.541   3.939  1.00  0.00     0.021 A 
ATOM     13  C   UNL     1     -35.254  -8.473   4.928  1.00  0.00     0.016 A 
ATOM     14  C   UNL     1     -35.621  -8.047   6.206  1.00  0.00     0.051 A 
ATOM     15  C   UNL     1     -35.625  -6.686   6.524  1.00  0.00     0.157 A 
ATOM     16  C   UNL     1     -34.885  -6.172   4.268  1.00  0.00     0.062 A 
ATOM     17  C   UNL     1     -35.251  -5.743   5.552  1.00  0.00     0.158 A 
BRANCH  15  18
ATOM     18  O   UNL     1     -35.997  -6.291   7.808  1.00  0.00    -0.504 OA
ATOM     19  H   UNL     1     -36.671  -5.551   7.969  1.00  0.00     0.293 HD
ENDBRANCH  15  18
BRANCH  17  20
ATOM     20  O   UNL     1     -35.242  -4.385   5.866  1.00  0.00    -0.504 OA
ATOM     21  H   UNL     1     -35.003  -4.055   6.794  1.00  0.00     0.293 HD
ENDBRANCH  17  20
ENDBRANCH   1  12
BRANCH   6  22
ATOM     22  O   UNL     1     -32.576 -10.125  -1.734  1.00  0.00    -0.507 OA
ATOM     23  H   UNL     1     -32.091 -10.797  -1.160  1.00  0.00     0.293 HD
ENDBRANCH   6  22
BRANCH   8  24
ATOM     24  O   UNL     1     -36.753  -8.094  -2.952  1.00  0.00    -0.508 OA
ATOM     25  H   UNL     1     -37.110  -7.154  -3.086  1.00  0.00     0.293 HD
ENDBRANCH   8  24
TORSDOF 5
ENDMDL
MODEL 3
REMARK VINA RESULT:    -6.182      1.135      1.792
REMARK INTER + INTRA:          -7.544
REMARK INTER:                  -7.277
REMARK INTRA:                  -0.266
REMARK UNBOUND:                -0.277
REMARK SMILES O=c1cc(-c2ccc(O)c(O)c2)oc2cc(O)cc(O)c12
REMARK SMILES IDX 4 1 3 2 2 3 1 4 21 5 19 6 18 7 16 8 15 9 14 10 13 11 5 12
REMARK SMILES IDX 6 13 7 14 8 15 12 16 10 17 9 18 11 20 20 22 17 24
REMARK H PARENT 9 19 11 21 20 23 17 25
REMARK Flexibility Score: inf
ROOT
ATOM      1  C   UNL     1     -34.918  -8.586   2.658  1.00  0.00     0.138 A 
ATOM      2  C   UNL     1     -35.277  -9.570   3.589  1.00  0.00     0.100 A 
ATOM      3  C   UNL     1     -35.508  -9.211   4.918  1.00  0.00     0.197 A 
ATOM      4  O   UNL     1     -35.890 -10.105   5.717  1.00  0.00    -0.289 OA
ATOM      5  C   UNL     1     -35.348  -7.864   5.321  1.00  0.00     0.107 A 
ATOM      6  C   UNL     1     -35.517  -7.389   6.656  1.00  0.00     0.134 A 
ATOM      7  C   UNL     1     -35.447  -6.014   6.914  1.00  0.00     0.093 A 
ATOM      8  C   UNL     1     -35.153  -5.104   5.894  1.00  0.00     0.123 A 
ATOM      9  C   UNL     1     -34.932  -5.564   4.598  1.00  0.00     0.094 A 
ATOM     10  C   UNL     1     -35.031  -6.925   4.303  1.00  0.00     0.146 A 
ATOM     11  O   UNL     1     -34.827  -7.319   3.050  1.00  0.00    -0.456 OA
ENDROOT
BRANCH   1  12
ATOM     12  C   UNL     1     -34.659  -8.914   1.233  1.00  0.00     0.021 A 
ATOM     13  C   UNL     1     -35.681  -8.732   0.285  1.00  0.00     0.016 A 
ATOM     14  C   UNL     1     -35.461  -9.025  -1.063  1.00  0.00     0.051 A 
ATOM     15  C   UNL     1     -34.216  -9.494  -1.490  1.00  0.00     0.157 A 
ATOM     16  C   UNL     1     -33.402  -9.374   0.795  1.00  0.00     0.062 A 
ATOM     17  C   UNL     1     -33.180  -9.667  -0.559  1.00  0.00     0.158 A 
BRANCH  15  18
ATOM     18  O   UNL     1     -34.027  -9.780  -2.842  1.00  0.00    -0.504 OA
ATOM     19  H   UNL     1     -33.533 -10.608  -3.153  1.00  0.00     0.293 HD
ENDBRANCH  15  18
BRANCH  17  20
ATOM     20  O   UNL     1     -31.932 -10.125  -0.980  1.00  0.00    -0.504 OA
ATOM     21  H   UNL     1     -31.181  -9.485  -1.211  1.00  0.00     0.293 HD
ENDBRANCH  17  20
ENDBRANCH   1  12
BRANCH   6  22
ATOM     22  O   UNL     1     -35.730  -8.220   7.759  1.00  0.00    -0.507 OA
ATOM     23  H   UNL     1     -35.283  -9.112   7.903  1.00  0.00     0.293 HD
ENDBRANCH   6  22
BRANCH   8  24
ATOM     24  O   UNL     1     -35.069  -3.740   6.163  1.00  0.00    -0.508 OA
ATOM     25  H   UNL     1     -34.312  -3.354   6.717  1.00  0.00     0.293 HD
ENDBRANCH   8  24
TORSDOF 5
ENDMDL
MODEL 4
REMARK VINA RESULT:    -5.998      1.487      3.165
REMARK INTER + INTRA:          -7.327
REMARK INTER:                  -7.064
REMARK INTRA:                  -0.263
REMARK UNBOUND:                -0.277
REMARK SMILES O=c1cc(-c2ccc(O)c(O)c2)oc2cc(O)cc(O)c12
REMARK SMILES IDX 4 1 3 2 2 3 1 4 21 5 19 6 18 7 16 8 15 9 14 10 13 11 5 12
REMARK SMILES IDX 6 13 7 14 8 15 12 16 10 17 9 18 11 20 20 22 17 24
REMARK H PARENT 9 19 11 21 20 23 17 25
REMARK Flexibility Score: inf
ROOT
ATOM      1  C   UNL     1     -34.754  -8.093   2.801  1.00  0.00     0.138 A 
ATOM      2  C   UNL     1     -34.502  -6.752   3.122  1.00  0.00     0.100 A 
ATOM      3  C   UNL     1     -34.742  -6.297   4.420  1.00  0.00     0.197 A 
ATOM      4  O   UNL     1     -34.448  -5.105   4.694  1.00  0.00    -0.289 OA
ATOM      5  C   UNL     1     -35.267  -7.183   5.391  1.00  0.00     0.107 A 
ATOM      6  C   UNL     1     -35.589  -6.819   6.733  1.00  0.00     0.134 A 
ATOM      7  C   UNL     1     -35.992  -7.809   7.638  1.00  0.00     0.093 A 
ATOM      8  C   UNL     1     -36.142  -9.138   7.232  1.00  0.00     0.123 A 
ATOM      9  C   UNL     1     -35.883  -9.492   5.911  1.00  0.00     0.094 A 
ATOM     10  C   UNL     1     -35.446  -8.534   4.994  1.00  0.00     0.146 A 
ATOM     11  O   UNL     1     -35.195  -8.918   3.746  1.00  0.00    -0.456 OA
ENDROOT
BRANCH   1  12
ATOM     12  C   UNL     1     -34.518  -8.629   1.437  1.00  0.00     0.021 A 
ATOM     13  C   UNL     1     -35.569  -8.629   0.502  1.00  0.00     0.016 A 
ATOM     14  C   UNL     1     -35.371  -9.121  -0.790  1.00  0.00     0.051 A 
ATOM     15  C   UNL     1     -34.121  -9.612  -1.176  1.00  0.00     0.157 A 
ATOM     16  C   UNL     1     -33.257  -9.113   1.039  1.00  0.00     0.062 A 
ATOM     17  C   UNL     1     -33.057  -9.605  -0.259  1.00  0.00     0.158 A 
BRANCH  15  18
ATOM     18  O   UNL     1     -33.954 -10.098  -2.472  1.00  0.00    -0.504 OA
ATOM     19  H   UNL     1     -34.576 -10.792  -2.871  1.00  0.00     0.293 HD
ENDBRANCH  15  18
BRANCH  17  20
ATOM     20  O   UNL     1     -31.804 -10.083  -0.641  1.00  0.00    -0.504 OA
ATOM     21  H   UNL     1     -31.218  -9.577  -1.295  1.00  0.00     0.293 HD
ENDBRANCH  17  20
ENDBRANCH   1  12
BRANCH   6  22
ATOM     22  O   UNL     1     -35.554  -5.509   7.217  1.00  0.00    -0.507 OA
ATOM     23  H   UNL     1     -34.747  -5.068   7.631  1.00  0.00     0.293 HD
ENDBRANCH   6  22
BRANCH   8  24
ATOM     24  O   UNL     1     -36.560 -10.113   8.136  1.00  0.00    -0.508 OA
ATOM     25  H   UNL     1     -36.071 -10.997   8.225  1.00  0.00     0.293 HD
ENDBRANCH   8  24
TORSDOF 5
ENDMDL
MODEL 5
REMARK VINA RESULT:    -4.491      1.814      7.186
REMARK INTER + INTRA:          -5.556
REMARK INTER:                  -5.288
REMARK INTRA:                  -0.268
REMARK UNBOUND:                -0.277
REMARK SMILES O=c1cc(-c2ccc(O)c(O)c2)oc2cc(O)cc(O)c12
REMARK SMILES IDX 4 1 3 2 2 3 1 4 21 5 19 6 18 7 16 8 15 9 14 10 13 11 5 12
REMARK SMILES IDX 6 13 7 14 8 15 12 16 10 17 9 18 11 20 20 22 17 24
REMARK H PARENT 9 19 11 21 20 23 17 25
REMARK Flexibility Score: inf
ROOT
ATOM      1  C   UNL     1     -35.195  -9.244   3.425  1.00  0.00     0.138 A 
ATOM      2  C   UNL     1     -36.181  -9.436   2.448  1.00  0.00     0.100 A 
ATOM      3  C   UNL     1     -35.805  -9.707   1.131  1.00  0.00     0.197 A 
ATOM      4  O   UNL     1     -36.711  -9.937   0.290  1.00  0.00    -0.289 OA
ATOM      5  C   UNL     1     -34.433  -9.755   0.787  1.00  0.00     0.107 A 
ATOM      6  C   UNL     1     -33.932  -9.983  -0.530  1.00  0.00     0.134 A 
ATOM      7  C   UNL     1     -32.554 -10.125  -0.729  1.00  0.00     0.093 A 
ATOM      8  C   UNL     1     -31.654  -9.987   0.331  1.00  0.00     0.123 A 
ATOM      9  C   UNL     1     -32.130  -9.710   1.611  1.00  0.00     0.094 A 
ATOM     10  C   UNL     1     -33.501  -9.598   1.848  1.00  0.00     0.146 A 
ATOM     11  O   UNL     1     -33.913  -9.347   3.087  1.00  0.00    -0.456 OA
ENDROOT
BRANCH   1  12
ATOM     12  C   UNL     1     -35.539  -8.951   4.839  1.00  0.00     0.021 A 
ATOM     13  C   UNL     1     -36.075  -9.970   5.645  1.00  0.00     0.016 A 
ATOM     14  C   UNL     1     -36.401  -9.724   6.981  1.00  0.00     0.051 A 
ATOM     15  C   UNL     1     -36.189  -8.460   7.538  1.00  0.00     0.157 A 
ATOM     16  C   UNL     1     -35.315  -7.683   5.409  1.00  0.00     0.062 A 
ATOM     17  C   UNL     1     -35.640  -7.435   6.751  1.00  0.00     0.158 A 
BRANCH  15  18
ATOM     18  O   UNL     1     -36.525  -8.243   8.874  1.00  0.00    -0.504 OA
ATOM     19  H   UNL     1     -35.822  -8.086   9.587  1.00  0.00     0.293 HD
ENDBRANCH  15  18
BRANCH  17  20
ATOM     20  O   UNL     1     -35.416  -6.174   7.303  1.00  0.00    -0.504 OA
ATOM     21  H   UNL     1     -35.180  -6.057   8.282  1.00  0.00     0.293 HD
ENDBRANCH  17  20
ENDBRANCH   1  12
BRANCH   6  22
ATOM     22  O   UNL     1     -34.738 -10.052  -1.670  1.00  0.00    -0.507 OA
ATOM     23  H   UNL     1     -34.505 -10.559  -2.510  1.00  0.00     0.293 HD
ENDBRANCH   6  22
BRANCH   8  24
ATOM     24  O   UNL     1     -30.283 -10.113   0.121  1.00  0.00    -0.508 OA
ATOM     25  H   UNL     1     -29.853 -11.017  -0.040  1.00  0.00     0.293 HD
ENDBRANCH   8  24
TORSDOF 5
ENDMDL
MODEL 6
REMARK VINA RESULT:    -4.420      1.396      7.156
REMARK INTER + INTRA:          -5.472
REMARK INTER:                  -5.208
REMARK INTRA:                  -0.264
REMARK UNBOUND:                -0.277
REMARK SMILES O=c1cc(-c2ccc(O)c(O)c2)oc2cc(O)cc(O)c12
REMARK SMILES IDX 4 1 3 2 2 3 1 4 21 5 19 6 18 7 16 8 15 9 14 10 13 11 5 12
REMARK SMILES IDX 6 13 7 14 8 15 12 16 10 17 9 18 11 20 20 22 17 24
REMARK H PARENT 9 19 11 21 20 23 17 25
REMARK Flexibility Score: inf
ROOT
ATOM      1  C   UNL     1     -34.594  -7.582   3.300  1.00  0.00     0.138 A 
ATOM      2  C   UNL     1     -35.640  -7.959   2.445  1.00  0.00     0.100 A 
ATOM      3  C   UNL     1     -35.358  -8.698   1.295  1.00  0.00     0.197 A 
ATOM      4  O   UNL     1     -36.323  -9.075   0.581  1.00  0.00    -0.289 OA
ATOM      5  C   UNL     1     -34.019  -9.034   0.984  1.00  0.00     0.107 A 
ATOM      6  C   UNL     1     -33.609  -9.748  -0.181  1.00  0.00     0.134 A 
ATOM      7  C   UNL     1     -32.268 -10.125  -0.324  1.00  0.00     0.093 A 
ATOM      8  C   UNL     1     -31.312  -9.760   0.627  1.00  0.00     0.123 A 
ATOM      9  C   UNL     1     -31.692  -9.015   1.741  1.00  0.00     0.094 A 
ATOM     10  C   UNL     1     -33.029  -8.655   1.929  1.00  0.00     0.146 A 
ATOM     11  O   UNL     1     -33.351  -7.956   3.013  1.00  0.00    -0.456 OA
ENDROOT
BRANCH   1  12
ATOM     12  C   UNL     1     -34.837  -6.795   4.535  1.00  0.00     0.021 A 
ATOM     13  C   UNL     1     -34.502  -5.430   4.561  1.00  0.00     0.016 A 
ATOM     14  C   UNL     1     -34.727  -4.664   5.708  1.00  0.00     0.051 A 
ATOM     15  C   UNL     1     -35.299  -5.244   6.844  1.00  0.00     0.157 A 
ATOM     16  C   UNL     1     -35.425  -7.371   5.677  1.00  0.00     0.062 A 
ATOM     17  C   UNL     1     -35.654  -6.603   6.828  1.00  0.00     0.158 A 
BRANCH  15  18
ATOM     18  O   UNL     1     -35.511  -4.456   7.974  1.00  0.00    -0.504 OA
ATOM     19  H   UNL     1     -34.832  -4.399   8.725  1.00  0.00     0.293 HD
ENDBRANCH  15  18
BRANCH  17  20
ATOM     20  O   UNL     1     -36.235  -7.185   7.954  1.00  0.00    -0.504 OA
ATOM     21  H   UNL     1     -36.621  -6.624   8.704  1.00  0.00     0.293 HD
ENDBRANCH  17  20
ENDBRANCH   1  12
BRANCH   6  22
ATOM     22  O   UNL     1     -34.468 -10.088  -1.231  1.00  0.00    -0.507 OA
ATOM     23  H   UNL     1     -34.195 -10.599  -2.056  1.00  0.00     0.293 HD
ENDBRANCH   6  22
BRANCH   8  24
ATOM     24  O   UNL     1     -29.977 -10.125   0.469  1.00  0.00    -0.508 OA
ATOM     25  H   UNL     1     -29.256  -9.435   0.290  1.00  0.00     0.293 HD
ENDBRANCH   8  24
TORSDOF 5
ENDMDL
MODEL 7
REMARK VINA RESULT:    -4.189      1.525      2.954
REMARK INTER + INTRA:          -5.201
REMARK INTER:                  -4.931
REMARK INTRA:                  -0.270
REMARK UNBOUND:                -0.277
REMARK SMILES O=c1cc(-c2ccc(O)c(O)c2)oc2cc(O)cc(O)c12
REMARK SMILES IDX 4 1 3 2 2 3 1 4 21 5 19 6 18 7 16 8 15 9 14 10 13 11 5 12
REMARK SMILES IDX 6 13 7 14 8 15 12 16 10 17 9 18 11 20 20 22 17 24
REMARK H PARENT 9 19 11 21 20 23 17 25
REMARK Flexibility Score: inf
ROOT
ATOM      1  C   UNL     1     -34.736  -7.872   4.114  1.00  0.00     0.138 A 
ATOM      2  C   UNL     1     -34.818  -6.503   4.400  1.00  0.00     0.100 A 
ATOM      3  C   UNL     1     -35.392  -6.082   5.601  1.00  0.00     0.197 A 
ATOM      4  O   UNL     1     -35.396  -4.851   5.858  1.00  0.00    -0.289 OA
ATOM      5  C   UNL     1     -35.914  -7.039   6.504  1.00  0.00     0.107 A 
ATOM      6  C   UNL     1     -36.557  -6.724   7.739  1.00  0.00     0.134 A 
ATOM      7  C   UNL     1     -36.929  -7.759   8.606  1.00  0.00     0.093 A 
ATOM      8  C   UNL     1     -36.735  -9.098   8.256  1.00  0.00     0.123 A 
ATOM      9  C   UNL     1     -36.157  -9.416   7.029  1.00  0.00     0.094 A 
ATOM     10  C   UNL     1     -35.744  -8.405   6.158  1.00  0.00     0.146 A 
ATOM     11  O   UNL     1     -35.184  -8.752   5.004  1.00  0.00    -0.456 OA
ENDROOT
BRANCH   1  12
ATOM     12  C   UNL     1     -34.137  -8.374   2.851  1.00  0.00     0.021 A 
ATOM     13  C   UNL     1     -32.754  -8.235   2.639  1.00  0.00     0.016 A 
ATOM     14  C   UNL     1     -32.164  -8.705   1.463  1.00  0.00     0.051 A 
ATOM     15  C   UNL     1     -32.940  -9.330   0.484  1.00  0.00     0.157 A 
ATOM     16  C   UNL     1     -34.912  -9.017   1.868  1.00  0.00     0.062 A 
ATOM     17  C   UNL     1     -34.321  -9.492   0.688  1.00  0.00     0.158 A 
BRANCH  15  18
ATOM     18  O   UNL     1     -32.324  -9.788  -0.680  1.00  0.00    -0.504 OA
ATOM     19  H   UNL     1     -32.851 -10.012  -1.516  1.00  0.00     0.293 HD
ENDBRANCH  15  18
BRANCH  17  20
ATOM     20  O   UNL     1     -35.099 -10.125  -0.280  1.00  0.00    -0.504 OA
ATOM     21  H   UNL     1     -36.054  -9.839  -0.465  1.00  0.00     0.293 HD
ENDBRANCH  17  20
ENDBRANCH   1  12
BRANCH   6  22
ATOM     22  O   UNL     1     -36.874  -5.425   8.146  1.00  0.00    -0.507 OA
ATOM     23  H   UNL     1     -36.200  -4.701   8.340  1.00  0.00     0.293 HD
ENDBRANCH   6  22
BRANCH   8  24
ATOM     24  O   UNL     1     -37.123 -10.121   9.119  1.00  0.00    -0.508 OA
ATOM     25  H   UNL     1     -36.538 -10.411   9.893  1.00  0.00     0.293 HD
ENDBRANCH   8  24
TORSDOF 5
ENDMDL
MODEL 8
REMARK VINA RESULT:    -4.160      2.730      7.302
REMARK INTER + INTRA:          -5.167
REMARK INTER:                  -4.874
REMARK INTRA:                  -0.294
REMARK UNBOUND:                -0.277
REMARK SMILES O=c1cc(-c2ccc(O)c(O)c2)oc2cc(O)cc(O)c12
REMARK SMILES IDX 4 1 3 2 2 3 1 4 21 5 19 6 18 7 16 8 15 9 14 10 13 11 5 12
REMARK SMILES IDX 6 13 7 14 8 15 12 16 10 17 9 18 11 20 20 22 17 24
REMARK H PARENT 9 19 11 21 20 23 17 25
REMARK Flexibility Score: inf
ROOT
ATOM      1  C   UNL     1     -34.418  -9.469   2.902  1.00  0.00     0.138 A 
ATOM      2  C   UNL     1     -33.114  -9.812   2.519  1.00  0.00     0.100 A 
ATOM      3  C   UNL     1     -32.784  -9.863   1.164  1.00  0.00     0.197 A 
ATOM      4  O   UNL     1     -31.591 -10.114   0.852  1.00  0.00    -0.289 OA
ATOM      5  C   UNL     1     -33.774  -9.600   0.188  1.00  0.00     0.107 A 
ATOM      6  C   UNL     1     -33.563  -9.662  -1.222  1.00  0.00     0.134 A 
ATOM      7  C   UNL     1     -34.587  -9.266  -2.092  1.00  0.00     0.093 A 
ATOM      8  C   UNL     1     -35.834  -8.868  -1.602  1.00  0.00     0.123 A 
ATOM      9  C   UNL     1     -36.068  -8.856  -0.229  1.00  0.00     0.094 A 
ATOM     10  C   UNL     1     -35.055  -9.212   0.664  1.00  0.00     0.146 A 
ATOM     11  O   UNL     1     -35.315  -9.173   1.967  1.00  0.00    -0.456 OA
ENDROOT
BRANCH   1  12
ATOM     12  C   UNL     1     -34.823  -9.401   4.329  1.00  0.00     0.021 A 
ATOM     13  C   UNL     1     -36.189  -9.383   4.660  1.00  0.00     0.016 A 
ATOM     14  C   UNL     1     -36.597  -9.327   5.995  1.00  0.00     0.051 A 
ATOM     15  C   UNL     1     -35.650  -9.299   7.022  1.00  0.00     0.157 A 
ATOM     16  C   UNL     1     -33.873  -9.386   5.368  1.00  0.00     0.062 A 
ATOM     17  C   UNL     1     -34.281  -9.332   6.709  1.00  0.00     0.158 A 
BRANCH  15  18
ATOM     18  O   UNL     1     -36.087  -9.241   8.345  1.00  0.00    -0.504 OA
ATOM     19  H   UNL     1     -37.062  -9.104   8.584  1.00  0.00     0.293 HD
ENDBRANCH  15  18
BRANCH  17  20
ATOM     20  O   UNL     1     -33.332  -9.315   7.730  1.00  0.00    -0.504 OA
ATOM     21  H   UNL     1     -32.603  -8.612   7.767  1.00  0.00     0.293 HD
ENDBRANCH  17  20
ENDBRANCH   1  12
BRANCH   6  22
ATOM     22  O   UNL     1     -32.386 -10.125  -1.816  1.00  0.00    -0.507 OA
ATOM     23  H   UNL     1     -31.666  -9.536  -2.204  1.00  0.00     0.293 HD
ENDBRANCH   6  22
BRANCH   8  24
ATOM     24  O   UNL     1     -36.853  -8.491  -2.475  1.00  0.00    -0.508 OA
ATOM     25  H   UNL     1     -37.006  -7.521  -2.723  1.00  0.00     0.293 HD
ENDBRANCH   8  24
TORSDOF 5
ENDMDL
