MODEL 1
REMARK VINA RESULT:    -6.036      0.000      0.000
REMARK INTER + INTRA:          -7.554
REMARK INTER:                  -7.272
REMARK INTRA:                  -0.282
REMARK UNBOUND:                -0.282
REMARK SMILES Oc1cc(O)c2cc(O)c(-c3ccc(O)c(O)c3)[o+]c2c1
REMARK SMILES IDX 10 1 19 2 20 3 21 4 2 5 3 6 4 7 6 8 7 9 8 10 11 11 12 12
REMARK SMILES IDX 13 13 14 14 18 15 16 16 15 17 17 19 9 21 1 23 5 25
REMARK H PARENT 15 18 17 20 9 22 1 24 5 26
REMARK Flexibility Score: inf
ROOT
ATOM      1  C   UNL     1       5.300  20.744  -8.109  1.00  0.00     0.402 A 
ATOM      2  O   UNL     1       6.000  19.663  -8.445  1.00  0.00    -0.202 OA
ATOM      3  C   UNL     1       5.551  18.423  -8.282  1.00  0.00     0.368 A 
ATOM      4  C   UNL     1       6.359  17.351  -8.668  1.00  0.00     0.162 A 
ATOM      5  C   UNL     1       5.911  16.037  -8.511  1.00  0.00     0.128 A 
ATOM      6  C   UNL     1       4.647  15.794  -7.966  1.00  0.00     0.093 A 
ATOM      7  C   UNL     1       3.818  16.851  -7.572  1.00  0.00     0.136 A 
ATOM      8  C   UNL     1       4.271  18.187  -7.727  1.00  0.00     0.125 A 
ATOM      9  C   UNL     1       3.513  19.308  -7.348  1.00  0.00     0.078 A 
ATOM     10  C   UNL     1       4.028  20.595  -7.527  1.00  0.00     0.223 A 
ENDROOT
BRANCH   1  11
ATOM     11  C   UNL     1       5.906  22.074  -8.350  1.00  0.00     0.087 A 
ATOM     12  C   UNL     1       5.410  22.881  -9.385  1.00  0.00     0.022 A 
ATOM     13  C   UNL     1       5.952  24.147  -9.617  1.00  0.00     0.051 A 
ATOM     14  C   UNL     1       6.988  24.632  -8.808  1.00  0.00     0.157 A 
ATOM     15  C   UNL     1       6.932  22.572  -7.526  1.00  0.00     0.068 A 
ATOM     16  C   UNL     1       7.476  23.841  -7.754  1.00  0.00     0.158 A 
BRANCH  14  17
ATOM     17  O   UNL     1       7.528  25.895  -9.042  1.00  0.00    -0.504 OA
ATOM     18  H   UNL     1       7.254  26.449  -9.845  1.00  0.00     0.293 HD
ENDBRANCH  14  17
BRANCH  16  19
ATOM     19  O   UNL     1       8.497  24.300  -6.922  1.00  0.00    -0.504 OA
ATOM     20  H   UNL     1       9.124  25.044  -7.201  1.00  0.00     0.293 HD
ENDBRANCH  16  19
ENDBRANCH   1  11
BRANCH  10  21
ATOM     21  O   UNL     1       3.297  21.705  -7.105  1.00  0.00    -0.500 OA
ATOM     22  H   UNL     1       3.518  22.641  -7.423  1.00  0.00     0.294 HD
ENDBRANCH  10  21
BRANCH   5  23
ATOM     23  O   UNL     1       6.711  14.963  -8.893  1.00  0.00    -0.507 OA
ATOM     24  H   UNL     1       7.424  14.588  -8.278  1.00  0.00     0.293 HD
ENDBRANCH   5  23
BRANCH   7  25
ATOM     25  O   UNL     1       2.568  16.523  -7.039  1.00  0.00    -0.507 OA
ATOM     26  H   UNL     1       1.826  16.076  -7.558  1.00  0.00     0.293 HD
ENDBRANCH   7  25
TORSDOF 6
ENDMDL
MODEL 2
REMARK VINA RESULT:    -6.036      1.755      3.165
REMARK INTER + INTRA:          -7.553
REMARK INTER:                  -7.209
REMARK INTRA:                  -0.344
REMARK UNBOUND:                -0.282
REMARK SMILES Oc1cc(O)c2cc(O)c(-c3ccc(O)c(O)c3)[o+]c2c1
REMARK SMILES IDX 10 1 19 2 20 3 21 4 2 5 3 6 4 7 6 8 7 9 8 10 11 11 12 12
REMARK SMILES IDX 13 13 14 14 18 15 16 16 15 17 17 19 9 21 1 23 5 25
REMARK H PARENT 15 18 17 20 9 22 1 24 5 26
REMARK Flexibility Score: inf
ROOT
ATOM      1  C   UNL     1       5.606  21.522  -8.309  1.00  0.00     0.402 A 
ATOM      2  O   UNL     1       4.592  20.731  -7.967  1.00  0.00    -0.202 OA
ATOM      3  C   UNL     1       4.655  19.404  -8.008  1.00  0.00     0.368 A 
ATOM      4  C   UNL     1       3.538  18.658  -7.626  1.00  0.00     0.162 A 
ATOM      5  C   UNL     1       3.578  17.261  -7.657  1.00  0.00     0.128 A 
ATOM      6  C   UNL     1       4.742  16.608  -8.071  1.00  0.00     0.093 A 
ATOM      7  C   UNL     1       5.875  17.333  -8.458  1.00  0.00     0.136 A 
ATOM      8  C   UNL     1       5.838  18.752  -8.431  1.00  0.00     0.125 A 
ATOM      9  C   UNL     1       6.922  19.559  -8.815  1.00  0.00     0.078 A 
ATOM     10  C   UNL     1       6.809  20.952  -8.765  1.00  0.00     0.223 A 
ENDROOT
BRANCH   1  11
ATOM     11  C   UNL     1       5.416  22.987  -8.210  1.00  0.00     0.087 A 
ATOM     12  C   UNL     1       5.856  23.664  -7.063  1.00  0.00     0.022 A 
ATOM     13  C   UNL     1       5.706  25.049  -6.957  1.00  0.00     0.051 A 
ATOM     14  C   UNL     1       5.127  25.780  -8.003  1.00  0.00     0.157 A 
ATOM     15  C   UNL     1       4.855  23.727  -9.267  1.00  0.00     0.068 A 
ATOM     16  C   UNL     1       4.705  25.114  -9.165  1.00  0.00     0.158 A 
BRANCH  14  17
ATOM     17  O   UNL     1       4.977  27.161  -7.893  1.00  0.00    -0.504 OA
ATOM     18  H   UNL     1       4.972  27.761  -8.710  1.00  0.00     0.293 HD
ENDBRANCH  14  17
BRANCH  16  19
ATOM     19  O   UNL     1       4.138  25.814 -10.230  1.00  0.00    -0.504 OA
ATOM     20  H   UNL     1       3.326  26.408 -10.112  1.00  0.00     0.293 HD
ENDBRANCH  16  19
ENDBRANCH   1  11
BRANCH  10  21
ATOM     21  O   UNL     1       7.867  21.754  -9.193  1.00  0.00    -0.500 OA
ATOM     22  H   UNL     1       7.802  22.765  -9.194  1.00  0.00     0.294 HD
ENDBRANCH  10  21
BRANCH   5  23
ATOM     23  O   UNL     1       2.468  16.511  -7.278  1.00  0.00    -0.507 OA
ATOM     24  H   UNL     1       2.198  15.672  -7.780  1.00  0.00     0.293 HD
ENDBRANCH   5  23
BRANCH   7  25
ATOM     25  O   UNL     1       6.999  16.604  -8.856  1.00  0.00    -0.507 OA
ATOM     26  H   UNL     1       7.918  17.001  -8.991  1.00  0.00     0.293 HD
ENDBRANCH   7  25
TORSDOF 6
ENDMDL
MODEL 3
REMARK VINA RESULT:    -5.932      2.677      4.240
REMARK INTER + INTRA:          -7.428
REMARK INTER:                  -7.076
REMARK INTRA:                  -0.352
REMARK UNBOUND:                -0.282
REMARK SMILES Oc1cc(O)c2cc(O)c(-c3ccc(O)c(O)c3)[o+]c2c1
REMARK SMILES IDX 10 1 19 2 20 3 21 4 2 5 3 6 4 7 6 8 7 9 8 10 11 11 12 12
REMARK SMILES IDX 13 13 14 14 18 15 16 16 15 17 17 19 9 21 1 23 5 25
REMARK H PARENT 15 18 17 20 9 22 1 24 5 26
REMARK Flexibility Score: inf
ROOT
ATOM      1  C   UNL     1       5.406  23.558 -10.066  1.00  0.00     0.402 A 
ATOM      2  O   UNL     1       5.971  22.488  -9.512  1.00  0.00    -0.202 OA
ATOM      3  C   UNL     1       5.307  21.625  -8.751  1.00  0.00     0.368 A 
ATOM      4  C   UNL     1       5.987  20.528  -8.215  1.00  0.00     0.162 A 
ATOM      5  C   UNL     1       5.312  19.603  -7.413  1.00  0.00     0.128 A 
ATOM      6  C   UNL     1       3.952  19.775  -7.147  1.00  0.00     0.093 A 
ATOM      7  C   UNL     1       3.248  20.865  -7.673  1.00  0.00     0.136 A 
ATOM      8  C   UNL     1       3.929  21.809  -8.485  1.00  0.00     0.125 A 
ATOM      9  C   UNL     1       3.308  22.939  -9.043  1.00  0.00     0.078 A 
ATOM     10  C   UNL     1       4.046  23.827  -9.830  1.00  0.00     0.223 A 
ENDROOT
BRANCH   1  11
ATOM     11  C   UNL     1       6.250  24.441 -10.904  1.00  0.00     0.087 A 
ATOM     12  C   UNL     1       7.046  25.420 -10.290  1.00  0.00     0.022 A 
ATOM     13  C   UNL     1       7.866  26.250 -11.059  1.00  0.00     0.051 A 
ATOM     14  C   UNL     1       7.914  26.104 -12.451  1.00  0.00     0.157 A 
ATOM     15  C   UNL     1       6.317  24.283 -12.301  1.00  0.00     0.068 A 
ATOM     16  C   UNL     1       7.138  25.111 -13.073  1.00  0.00     0.158 A 
BRANCH  14  17
ATOM     17  O   UNL     1       8.731  26.935 -13.216  1.00  0.00    -0.504 OA
ATOM     18  H   UNL     1       8.571  27.070 -14.208  1.00  0.00     0.293 HD
ENDBRANCH  14  17
BRANCH  16  19
ATOM     19  O   UNL     1       7.174  24.931 -14.456  1.00  0.00    -0.504 OA
ATOM     20  H   UNL     1       6.355  25.062 -15.037  1.00  0.00     0.293 HD
ENDBRANCH  16  19
ENDBRANCH   1  11
BRANCH  10  21
ATOM     21  O   UNL     1       3.441  24.975 -10.343  1.00  0.00    -0.500 OA
ATOM     22  H   UNL     1       2.448  25.147 -10.237  1.00  0.00     0.294 HD
ENDBRANCH  10  21
BRANCH   5  23
ATOM     23  O   UNL     1       5.984  18.508  -6.875  1.00  0.00    -0.507 OA
ATOM     24  H   UNL     1       6.757  18.624  -6.230  1.00  0.00     0.293 HD
ENDBRANCH   5  23
BRANCH   7  25
ATOM     25  O   UNL     1       1.889  20.963  -7.361  1.00  0.00    -0.507 OA
ATOM     26  H   UNL     1       1.379  21.833  -7.298  1.00  0.00     0.293 HD
ENDBRANCH   7  25
TORSDOF 6
ENDMDL
MODEL 4
REMARK VINA RESULT:    -5.649      6.936     10.158
REMARK INTER + INTRA:          -7.087
REMARK INTER:                  -6.770
REMARK INTRA:                  -0.317
REMARK UNBOUND:                -0.282
REMARK SMILES Oc1cc(O)c2cc(O)c(-c3ccc(O)c(O)c3)[o+]c2c1
REMARK SMILES IDX 10 1 19 2 20 3 21 4 2 5 3 6 4 7 6 8 7 9 8 10 11 11 12 12
REMARK SMILES IDX 13 13 14 14 18 15 16 16 15 17 17 19 9 21 1 23 5 25
REMARK H PARENT 15 18 17 20 9 22 1 24 5 26
REMARK Flexibility Score: inf
ROOT
ATOM      1  C   UNL     1       3.988  21.041 -15.640  1.00  0.00     0.402 A 
ATOM      2  O   UNL     1       4.876  21.499 -14.761  1.00  0.00    -0.202 OA
ATOM      3  C   UNL     1       5.257  22.771 -14.705  1.00  0.00     0.368 A 
ATOM      4  C   UNL     1       6.194  23.159 -13.744  1.00  0.00     0.162 A 
ATOM      5  C   UNL     1       6.610  24.490 -13.661  1.00  0.00     0.128 A 
ATOM      6  C   UNL     1       6.085  25.439 -14.542  1.00  0.00     0.093 A 
ATOM      7  C   UNL     1       5.145  25.076 -15.514  1.00  0.00     0.136 A 
ATOM      8  C   UNL     1       4.722  23.724 -15.604  1.00  0.00     0.125 A 
ATOM      9  C   UNL     1       3.793  23.268 -16.554  1.00  0.00     0.078 A 
ATOM     10  C   UNL     1       3.428  21.919 -16.585  1.00  0.00     0.223 A 
ENDROOT
BRANCH   1  11
ATOM     11  C   UNL     1       3.638  19.602 -15.596  1.00  0.00     0.087 A 
ATOM     12  C   UNL     1       2.426  19.205 -15.010  1.00  0.00     0.022 A 
ATOM     13  C   UNL     1       2.065  17.857 -14.975  1.00  0.00     0.051 A 
ATOM     14  C   UNL     1       2.902  16.885 -15.540  1.00  0.00     0.157 A 
ATOM     15  C   UNL     1       4.466  18.627 -16.180  1.00  0.00     0.068 A 
ATOM     16  C   UNL     1       4.107  17.275 -16.149  1.00  0.00     0.158 A 
BRANCH  14  17
ATOM     17  O   UNL     1       2.540  15.540 -15.502  1.00  0.00    -0.504 OA
ATOM     18  H   UNL     1       2.935  14.903 -14.820  1.00  0.00     0.293 HD
ENDBRANCH  14  17
BRANCH  16  19
ATOM     19  O   UNL     1       4.956  16.334 -16.732  1.00  0.00    -0.504 OA
ATOM     20  H   UNL     1       5.931  16.255 -16.470  1.00  0.00     0.293 HD
ENDBRANCH  16  19
ENDBRANCH   1  11
BRANCH  10  21
ATOM     21  O   UNL     1       2.544  21.456 -17.560  1.00  0.00    -0.500 OA
ATOM     22  H   UNL     1       1.745  20.879 -17.324  1.00  0.00     0.294 HD
ENDBRANCH  10  21
BRANCH   5  23
ATOM     23  O   UNL     1       7.545  24.884 -12.706  1.00  0.00    -0.507 OA
ATOM     24  H   UNL     1       7.437  24.640 -11.727  1.00  0.00     0.293 HD
ENDBRANCH   5  23
BRANCH   7  25
ATOM     25  O   UNL     1       4.667  26.086 -16.354  1.00  0.00    -0.507 OA
ATOM     26  H   UNL     1       3.793  26.042 -16.858  1.00  0.00     0.293 HD
ENDBRANCH   7  25
TORSDOF 6
ENDMDL
MODEL 5
REMARK VINA RESULT:    -5.577      6.696      8.185
REMARK INTER + INTRA:          -7.000
REMARK INTER:                  -6.651
REMARK INTRA:                  -0.349
REMARK UNBOUND:                -0.282
REMARK SMILES Oc1cc(O)c2cc(O)c(-c3ccc(O)c(O)c3)[o+]c2c1
REMARK SMILES IDX 10 1 19 2 20 3 21 4 2 5 3 6 4 7 6 8 7 9 8 10 11 11 12 12
REMARK SMILES IDX 13 13 14 14 18 15 16 16 15 17 17 19 9 21 1 23 5 25
REMARK H PARENT 15 18 17 20 9 22 1 24 5 26
REMARK Flexibility Score: inf
ROOT
ATOM      1  C   UNL     1       6.495  25.215 -13.335  1.00  0.00     0.402 A 
ATOM      2  O   UNL     1       5.636  25.374 -14.339  1.00  0.00    -0.202 OA
ATOM      3  C   UNL     1       5.088  24.359 -14.998  1.00  0.00     0.368 A 
ATOM      4  C   UNL     1       4.193  24.627 -16.037  1.00  0.00     0.162 A 
ATOM      5  C   UNL     1       3.600  23.579 -16.744  1.00  0.00     0.128 A 
ATOM      6  C   UNL     1       3.901  22.256 -16.410  1.00  0.00     0.093 A 
ATOM      7  C   UNL     1       4.793  21.961 -15.373  1.00  0.00     0.136 A 
ATOM      8  C   UNL     1       5.401  23.023 -14.654  1.00  0.00     0.125 A 
ATOM      9  C   UNL     1       6.318  22.821 -13.608  1.00  0.00     0.078 A 
ATOM     10  C   UNL     1       6.879  23.918 -12.948  1.00  0.00     0.223 A 
ENDROOT
BRANCH   1  11
ATOM     11  C   UNL     1       7.031  26.426 -12.672  1.00  0.00     0.087 A 
ATOM     12  C   UNL     1       6.400  26.918 -11.518  1.00  0.00     0.022 A 
ATOM     13  C   UNL     1       6.899  28.046 -10.865  1.00  0.00     0.051 A 
ATOM     14  C   UNL     1       8.047  28.692 -11.345  1.00  0.00     0.157 A 
ATOM     15  C   UNL     1       8.195  27.064 -13.139  1.00  0.00     0.068 A 
ATOM     16  C   UNL     1       8.699  28.194 -12.485  1.00  0.00     0.158 A 
BRANCH  14  17
ATOM     17  O   UNL     1       8.542  29.819 -10.692  1.00  0.00    -0.504 OA
ATOM     18  H   UNL     1       9.490  30.145 -10.840  1.00  0.00     0.293 HD
ENDBRANCH  14  17
BRANCH  16  19
ATOM     19  O   UNL     1       9.851  28.805 -12.980  1.00  0.00    -0.504 OA
ATOM     20  H   UNL     1      10.224  29.656 -12.577  1.00  0.00     0.293 HD
ENDBRANCH  16  19
ENDBRANCH   1  11
BRANCH  10  21
ATOM     21  O   UNL     1       7.826  23.719 -11.943  1.00  0.00    -0.500 OA
ATOM     22  H   UNL     1       8.613  23.093 -12.069  1.00  0.00     0.294 HD
ENDBRANCH  10  21
BRANCH   5  23
ATOM     23  O   UNL     1       2.707  23.838 -17.782  1.00  0.00    -0.507 OA
ATOM     24  H   UNL     1       1.718  23.977 -17.608  1.00  0.00     0.293 HD
ENDBRANCH   5  23
BRANCH   7  25
ATOM     25  O   UNL     1       5.039  20.612 -15.101  1.00  0.00    -0.507 OA
ATOM     26  H   UNL     1       4.654  19.844 -15.631  1.00  0.00     0.293 HD
ENDBRANCH   7  25
TORSDOF 6
ENDMDL
MODEL 6
REMARK VINA RESULT:    -5.540      6.023      9.628
REMARK INTER + INTRA:          -6.955
REMARK INTER:                  -6.612
REMARK INTRA:                  -0.343
REMARK UNBOUND:                -0.282
REMARK SMILES Oc1cc(O)c2cc(O)c(-c3ccc(O)c(O)c3)[o+]c2c1
REMARK SMILES IDX 10 1 19 2 20 3 21 4 2 5 3 6 4 7 6 8 7 9 8 10 11 11 12 12
REMARK SMILES IDX 13 13 14 14 18 15 16 16 15 17 17 19 9 21 1 23 5 25
REMARK H PARENT 15 18 17 20 9 22 1 24 5 26
REMARK Flexibility Score: inf
ROOT
ATOM      1  C   UNL     1       7.656  28.384 -12.797  1.00  0.00     0.402 A 
ATOM      2  O   UNL     1       6.473  28.025 -12.305  1.00  0.00    -0.202 OA
ATOM      3  C   UNL     1       6.228  26.821 -11.799  1.00  0.00     0.368 A 
ATOM      4  C   UNL     1       4.954  26.537 -11.303  1.00  0.00     0.162 A 
ATOM      5  C   UNL     1       4.670  25.281 -10.762  1.00  0.00     0.128 A 
ATOM      6  C   UNL     1       5.667  24.303 -10.715  1.00  0.00     0.093 A 
ATOM      7  C   UNL     1       6.953  24.562 -11.204  1.00  0.00     0.136 A 
ATOM      8  C   UNL     1       7.245  25.836 -11.758  1.00  0.00     0.125 A 
ATOM      9  C   UNL     1       8.501  26.180 -12.284  1.00  0.00     0.078 A 
ATOM     10  C   UNL     1       8.712  27.454 -12.817  1.00  0.00     0.223 A 
ENDROOT
BRANCH   1  11
ATOM     11  C   UNL     1       7.807  29.759 -13.325  1.00  0.00     0.087 A 
ATOM     12  C   UNL     1       7.310  30.067 -14.601  1.00  0.00     0.022 A 
ATOM     13  C   UNL     1       7.422  31.362 -15.112  1.00  0.00     0.051 A 
ATOM     14  C   UNL     1       8.019  32.374 -14.348  1.00  0.00     0.157 A 
ATOM     15  C   UNL     1       8.387  30.782 -12.553  1.00  0.00     0.068 A 
ATOM     16  C   UNL     1       8.499  32.082 -13.060  1.00  0.00     0.158 A 
BRANCH  14  17
ATOM     17  O   UNL     1       8.132  33.665 -14.861  1.00  0.00    -0.504 OA
ATOM     18  H   UNL     1       8.859  33.912 -15.522  1.00  0.00     0.293 HD
ENDBRANCH  14  17
BRANCH  16  19
ATOM     19  O   UNL     1       9.086  33.070 -12.269  1.00  0.00    -0.504 OA
ATOM     20  H   UNL     1       9.697  32.845 -11.494  1.00  0.00     0.293 HD
ENDBRANCH  16  19
ENDBRANCH   1  11
BRANCH  10  21
ATOM     21  O   UNL     1       9.944  27.780 -13.385  1.00  0.00    -0.500 OA
ATOM     22  H   UNL     1      10.012  28.330 -14.232  1.00  0.00     0.294 HD
ENDBRANCH  10  21
BRANCH   5  23
ATOM     23  O   UNL     1       3.401  24.991 -10.266  1.00  0.00    -0.507 OA
ATOM     24  H   UNL     1       3.200  25.023  -9.273  1.00  0.00     0.293 HD
ENDBRANCH   5  23
BRANCH   7  25
ATOM     25  O   UNL     1       7.893  23.531 -11.118  1.00  0.00    -0.507 OA
ATOM     26  H   UNL     1       8.699  23.544 -10.509  1.00  0.00     0.293 HD
ENDBRANCH   7  25
TORSDOF 6
ENDMDL
MODEL 7
REMARK VINA RESULT:    -5.495      2.381      7.402
REMARK INTER + INTRA:          -6.902
REMARK INTER:                  -6.660
REMARK INTRA:                  -0.242
REMARK UNBOUND:                -0.282
REMARK SMILES Oc1cc(O)c2cc(O)c(-c3ccc(O)c(O)c3)[o+]c2c1
REMARK SMILES IDX 10 1 19 2 20 3 21 4 2 5 3 6 4 7 6 8 7 9 8 10 11 11 12 12
REMARK SMILES IDX 13 13 14 14 18 15 16 16 15 17 17 19 9 21 1 23 5 25
REMARK H PARENT 15 18 17 20 9 22 1 24 5 26
REMARK Flexibility Score: inf
ROOT
ATOM      1  C   UNL     1       6.102  22.738  -9.225  1.00  0.00     0.402 A 
ATOM      2  O   UNL     1       6.315  22.942 -10.523  1.00  0.00    -0.202 OA
ATOM      3  C   UNL     1       6.675  24.118 -11.027  1.00  0.00     0.368 A 
ATOM      4  C   UNL     1       6.878  24.234 -12.404  1.00  0.00     0.162 A 
ATOM      5  C   UNL     1       7.261  25.457 -12.960  1.00  0.00     0.128 A 
ATOM      6  C   UNL     1       7.443  26.569 -12.135  1.00  0.00     0.093 A 
ATOM      7  C   UNL     1       7.247  26.479 -10.751  1.00  0.00     0.136 A 
ATOM      8  C   UNL     1       6.855  25.239 -10.183  1.00  0.00     0.125 A 
ATOM      9  C   UNL     1       6.623  25.060  -8.809  1.00  0.00     0.078 A 
ATOM     10  C   UNL     1       6.234  23.808  -8.322  1.00  0.00     0.223 A 
ENDROOT
BRANCH   1  11
ATOM     11  C   UNL     1       5.713  21.378  -8.785  1.00  0.00     0.087 A 
ATOM     12  C   UNL     1       4.396  21.141  -8.361  1.00  0.00     0.022 A 
ATOM     13  C   UNL     1       4.001  19.863  -7.960  1.00  0.00     0.051 A 
ATOM     14  C   UNL     1       4.912  18.798  -7.992  1.00  0.00     0.157 A 
ATOM     15  C   UNL     1       6.619  20.303  -8.835  1.00  0.00     0.068 A 
ATOM     16  C   UNL     1       6.226  19.021  -8.437  1.00  0.00     0.158 A 
BRANCH  14  17
ATOM     17  O   UNL     1       4.516  17.524  -7.591  1.00  0.00    -0.504 OA
ATOM     18  H   UNL     1       4.933  16.689  -7.985  1.00  0.00     0.293 HD
ENDBRANCH  14  17
BRANCH  16  19
ATOM     19  O   UNL     1       7.153  17.980  -8.494  1.00  0.00    -0.504 OA
ATOM     20  H   UNL     1       7.354  17.486  -9.355  1.00  0.00     0.293 HD
ENDBRANCH  16  19
ENDBRANCH   1  11
BRANCH  10  21
ATOM     21  O   UNL     1       5.956  23.642  -6.965  1.00  0.00    -0.500 OA
ATOM     22  H   UNL     1       5.005  23.599  -6.618  1.00  0.00     0.294 HD
ENDBRANCH  10  21
BRANCH   5  23
ATOM     23  O   UNL     1       7.465  25.580 -14.333  1.00  0.00    -0.507 OA
ATOM     24  H   UNL     1       7.563  26.488 -14.775  1.00  0.00     0.293 HD
ENDBRANCH   5  23
BRANCH   7  25
ATOM     25  O   UNL     1       7.452  27.637  -9.996  1.00  0.00    -0.507 OA
ATOM     26  H   UNL     1       8.357  28.052  -9.823  1.00  0.00     0.293 HD
ENDBRANCH   7  25
TORSDOF 6
ENDMDL
MODEL 8
REMARK VINA RESULT:    -5.405      8.813     11.445
REMARK INTER + INTRA:          -6.793
REMARK INTER:                  -6.470
REMARK INTRA:                  -0.323
REMARK UNBOUND:                -0.282
REMARK SMILES Oc1cc(O)c2cc(O)c(-c3ccc(O)c(O)c3)[o+]c2c1
REMARK SMILES IDX 10 1 19 2 20 3 21 4 2 5 3 6 4 7 6 8 7 9 8 10 11 11 12 12
REMARK SMILES IDX 13 13 14 14 18 15 16 16 15 17 17 19 9 21 1 23 5 25
REMARK H PARENT 15 18 17 20 9 22 1 24 5 26
REMARK Flexibility Score: inf
ROOT
ATOM      1  C   UNL     1       3.281  20.989 -16.588  1.00  0.00     0.402 A 
ATOM      2  O   UNL     1       3.060  21.178 -17.887  1.00  0.00    -0.202 OA
ATOM      3  C   UNL     1       3.127  22.369 -18.472  1.00  0.00     0.368 A 
ATOM      4  C   UNL     1       2.882  22.468 -19.844  1.00  0.00     0.162 A 
ATOM      5  C   UNL     1       2.949  23.707 -20.485  1.00  0.00     0.128 A 
ATOM      6  C   UNL     1       3.264  24.854 -19.751  1.00  0.00     0.093 A 
ATOM      7  C   UNL     1       3.514  24.782 -18.376  1.00  0.00     0.136 A 
ATOM      8  C   UNL     1       3.444  23.525 -17.719  1.00  0.00     0.125 A 
ATOM      9  C   UNL     1       3.667  23.361 -16.342  1.00  0.00     0.078 A 
ATOM     10  C   UNL     1       3.576  22.091 -15.765  1.00  0.00     0.223 A 
ENDROOT
BRANCH   1  11
ATOM     11  C   UNL     1       3.186  19.610 -16.055  1.00  0.00     0.087 A 
ATOM     12  C   UNL     1       1.994  19.186 -15.447  1.00  0.00     0.022 A 
ATOM     13  C   UNL     1       1.875  17.884 -14.955  1.00  0.00     0.051 A 
ATOM     14  C   UNL     1       2.939  16.981 -15.078  1.00  0.00     0.157 A 
ATOM     15  C   UNL     1       4.245  18.695 -16.195  1.00  0.00     0.068 A 
ATOM     16  C   UNL     1       4.128  17.389 -15.706  1.00  0.00     0.158 A 
BRANCH  14  17
ATOM     17  O   UNL     1       2.818  15.683 -14.585  1.00  0.00    -0.504 OA
ATOM     18  H   UNL     1       3.385  14.924 -14.945  1.00  0.00     0.293 HD
ENDBRANCH  14  17
BRANCH  16  19
ATOM     19  O   UNL     1       5.201  16.510 -15.857  1.00  0.00    -0.504 OA
ATOM     20  H   UNL     1       5.515  16.197 -16.767  1.00  0.00     0.293 HD
ENDBRANCH  16  19
ENDBRANCH   1  11
BRANCH  10  21
ATOM     21  O   UNL     1       3.748  21.934 -14.389  1.00  0.00    -0.500 OA
ATOM     22  H   UNL     1       3.994  22.714 -13.791  1.00  0.00     0.294 HD
ENDBRANCH  10  21
BRANCH   5  23
ATOM     23  O   UNL     1       2.705  23.813 -21.852  1.00  0.00    -0.507 OA
ATOM     24  H   UNL     1       3.365  24.267 -22.475  1.00  0.00     0.293 HD
ENDBRANCH   5  23
BRANCH   7  25
ATOM     25  O   UNL     1       3.825  25.974 -17.716  1.00  0.00    -0.507 OA
ATOM     26  H   UNL     1       3.144  26.575 -17.274  1.00  0.00     0.293 HD
ENDBRANCH   7  25
TORSDOF 6
ENDMDL
MODEL 9
REMARK VINA RESULT:    -5.354      2.961      5.311
REMARK INTER + INTRA:          -6.731
REMARK INTER:                  -6.437
REMARK INTRA:                  -0.294
REMARK UNBOUND:                -0.282
REMARK SMILES Oc1cc(O)c2cc(O)c(-c3ccc(O)c(O)c3)[o+]c2c1
REMARK SMILES IDX 10 1 19 2 20 3 21 4 2 5 3 6 4 7 6 8 7 9 8 10 11 11 12 12
REMARK SMILES IDX 13 13 14 14 18 15 16 16 15 17 17 19 9 21 1 23 5 25
REMARK H PARENT 15 18 17 20 9 22 1 24 5 26
REMARK Flexibility Score: inf
ROOT
ATOM      1  C   UNL     1       6.253  23.773 -10.442  1.00  0.00     0.402 A 
ATOM      2  O   UNL     1       5.033  23.473 -10.004  1.00  0.00    -0.202 OA
ATOM      3  C   UNL     1       4.787  22.488  -9.147  1.00  0.00     0.368 A 
ATOM      4  C   UNL     1       3.471  22.251  -8.742  1.00  0.00     0.162 A 
ATOM      5  C   UNL     1       3.185  21.224  -7.839  1.00  0.00     0.128 A 
ATOM      6  C   UNL     1       4.220  20.430  -7.338  1.00  0.00     0.093 A 
ATOM      7  C   UNL     1       5.547  20.647  -7.728  1.00  0.00     0.136 A 
ATOM      8  C   UNL     1       5.842  21.687  -8.647  1.00  0.00     0.125 A 
ATOM      9  C   UNL     1       7.141  21.968  -9.103  1.00  0.00     0.078 A 
ATOM     10  C   UNL     1       7.354  23.008 -10.013  1.00  0.00     0.223 A 
ENDROOT
BRANCH   1  11
ATOM     11  C   UNL     1       6.400  24.902 -11.390  1.00  0.00     0.087 A 
ATOM     12  C   UNL     1       6.385  26.218 -10.903  1.00  0.00     0.022 A 
ATOM     13  C   UNL     1       6.542  27.297 -11.775  1.00  0.00     0.051 A 
ATOM     14  C   UNL     1       6.732  27.077 -13.145  1.00  0.00     0.157 A 
ATOM     15  C   UNL     1       6.612  24.683 -12.763  1.00  0.00     0.068 A 
ATOM     16  C   UNL     1       6.772  25.762 -13.640  1.00  0.00     0.158 A 
BRANCH  14  17
ATOM     17  O   UNL     1       6.887  28.156 -14.014  1.00  0.00    -0.504 OA
ATOM     18  H   UNL     1       6.118  28.497 -14.579  1.00  0.00     0.293 HD
ENDBRANCH  14  17
BRANCH  16  19
ATOM     19  O   UNL     1       6.973  25.509 -14.997  1.00  0.00    -0.504 OA
ATOM     20  H   UNL     1       6.252  25.102 -15.580  1.00  0.00     0.293 HD
ENDBRANCH  16  19
ENDBRANCH   1  11
BRANCH  10  21
ATOM     21  O   UNL     1       8.636  23.255 -10.504  1.00  0.00    -0.500 OA
ATOM     22  H   UNL     1       8.797  23.489 -11.477  1.00  0.00     0.294 HD
ENDBRANCH  10  21
BRANCH   5  23
ATOM     23  O   UNL     1       1.875  20.982  -7.431  1.00  0.00    -0.507 OA
ATOM     24  H   UNL     1       1.235  20.438  -7.999  1.00  0.00     0.293 HD
ENDBRANCH   5  23
BRANCH   7  25
ATOM     25  O   UNL     1       6.523  19.810  -7.178  1.00  0.00    -0.507 OA
ATOM     26  H   UNL     1       6.427  18.810  -7.082  1.00  0.00     0.293 HD
ENDBRANCH   7  25
TORSDOF 6
ENDMDL
