MODEL 1
REMARK VINA RESULT:    -0.179      0.000      0.000
REMARK INTER + INTRA:          -0.665
REMARK INTER:                  -0.237
REMARK INTRA:                  -0.429
REMARK UNBOUND:                -0.429
REMARK SMILES CC(C)=CCC[C@@H](C(=O)[O-])[C@H]1CC[C@@]2(C)C3=C(CC[C@]12C)[C@]1(C)CC[C@H](O)C(C)(C)[C@H]1CC3
REMARK SMILES IDX 6 1 7 2 8 3 9 4 10 5 11 6 12 7 20 8 13 9 14 10 19 11 21 12
REMARK SMILES IDX 15 13 16 14 18 15 17 16 33 17 22 18 32 19 31 20 24 21 23 22
REMARK SMILES IDX 28 23 25 24 26 25 29 26 30 27 27 28 5 30 4 31 2 32 1 33 3 34
REMARK H PARENT 27 29
REMARK Flexibility Score: inf
ROOT
ATOM      1  C   UNL     1     100.001 112.854 113.133  1.00  0.00     0.014 C 
ENDROOT
BRANCH   1   2
ATOM      2  C   UNL     1      99.353 112.690 114.532  1.00  0.00     0.039 C 
BRANCH   2   3
ATOM      3  C   UNL     1      98.462 111.463 114.551  1.00  0.00     0.045 C 
ATOM      4  O   UNL     1      97.267 111.547 114.166  1.00  0.00    -0.550 OA
ATOM      5  O   UNL     1      98.962 110.216 114.910  1.00  0.00    -0.550 OA
ENDBRANCH   2   3
BRANCH   2   6
ATOM      6  C   UNL     1     100.346 112.833 115.749  1.00  0.00     0.004 C 
ATOM      7  C   UNL     1     101.584 113.717 115.431  1.00  0.00     0.006 C 
ATOM      8  C   UNL     1      99.876 113.328 117.155  1.00  0.00    -0.020 C 
ATOM      9  C   UNL     1     101.968 114.445 116.732  1.00  0.00     0.012 C 
ATOM     10  C   UNL     1     101.231 113.683 117.842  1.00  0.00    -0.006 C 
ATOM     11  C   UNL     1      99.171 112.296 118.059  1.00  0.00     0.012 C 
ATOM     12  C   UNL     1      98.939 114.571 116.999  1.00  0.00     0.012 C 
ATOM     13  C   UNL     1     102.128 112.459 118.229  1.00  0.00     0.017 C 
ATOM     14  C   UNL     1     100.971 114.416 119.150  1.00  0.00    -0.064 C 
ATOM     15  C   UNL     1      99.032 112.811 119.522  1.00  0.00     0.032 C 
ATOM     16  C   UNL     1      99.971 113.958 119.975  1.00  0.00    -0.064 C 
ATOM     17  C   UNL     1     101.856 115.608 119.496  1.00  0.00     0.032 C 
ATOM     18  C   UNL     1      99.858 114.470 121.431  1.00  0.00    -0.008 C 
ATOM     19  C   UNL     1     101.798 116.052 120.958  1.00  0.00     0.009 C 
ATOM     20  C   UNL     1     100.353 115.963 121.483  1.00  0.00     0.007 C 
ATOM     21  C   UNL     1      98.382 114.428 121.920  1.00  0.00     0.014 C 
ATOM     22  C   UNL     1     100.712 113.486 122.279  1.00  0.00     0.016 C 
ATOM     23  C   UNL     1     100.078 116.779 122.813  1.00  0.00    -0.006 C 
ATOM     24  C   UNL     1      98.177 115.100 123.281  1.00  0.00     0.033 C 
ATOM     25  C   UNL     1      98.589 116.582 123.251  1.00  0.00     0.120 C 
ATOM     26  C   UNL     1     101.024 116.408 123.992  1.00  0.00     0.014 C 
ATOM     27  C   UNL     1     100.296 118.298 122.543  1.00  0.00     0.014 C 
BRANCH  25  28
ATOM     28  O   UNL     1      97.730 117.283 122.382  1.00  0.00    -0.393 OA
ATOM     29  H   UNL     1      97.105 116.618 121.990  1.00  0.00     0.210 HD
ENDBRANCH  25  28
ENDBRANCH   2   6
ENDBRANCH   1   2
BRANCH   1  30
ATOM     30  C   UNL     1      99.477 111.882 112.059  1.00  0.00     0.028 C 
BRANCH  30  31
ATOM     31  C   UNL     1     100.577 111.464 111.108  1.00  0.00    -0.028 C 
ATOM     32  C   UNL     1     100.389 111.142 109.808  1.00  0.00    -0.080 C 
ATOM     33  C   UNL     1      99.023 111.125 109.169  1.00  0.00     0.039 C 
ATOM     34  C   UNL     1     101.573 110.764 108.954  1.00  0.00     0.039 C 
ENDBRANCH  30  31
ENDBRANCH   1  30
TORSDOF 6
ENDMDL
MODEL 2
REMARK VINA RESULT:     1.085      1.816      2.093
REMARK INTER + INTRA:           1.005
REMARK INTER:                   1.273
REMARK INTRA:                  -0.268
REMARK UNBOUND:                -0.429
REMARK SMILES CC(C)=CCC[C@@H](C(=O)[O-])[C@H]1CC[C@@]2(C)C3=C(CC[C@]12C)[C@]1(C)CC[C@H](O)C(C)(C)[C@H]1CC3
REMARK SMILES IDX 6 1 7 2 8 3 9 4 10 5 11 6 12 7 20 8 13 9 14 10 19 11 21 12
REMARK SMILES IDX 15 13 16 14 18 15 17 16 33 17 22 18 32 19 31 20 24 21 23 22
REMARK SMILES IDX 28 23 25 24 26 25 29 26 30 27 27 28 5 30 4 31 2 32 1 33 3 34
REMARK H PARENT 27 29
REMARK Flexibility Score: inf
ROOT
ATOM      1  C   UNL     1      98.636 113.141 114.060  1.00  0.00     0.014 C 
ENDROOT
BRANCH   1   2
ATOM      2  C   UNL     1      98.951 112.008 115.071  1.00  0.00     0.039 C 
BRANCH   2   3
ATOM      3  C   UNL     1      99.143 110.696 114.336  1.00  0.00     0.045 C 
ATOM      4  O   UNL     1      99.447 110.696 113.115  1.00  0.00    -0.550 OA
ATOM      5  O   UNL     1      99.068 109.479 115.006  1.00  0.00    -0.550 OA
ENDBRANCH   2   3
BRANCH   2   6
ATOM      6  C   UNL     1     100.053 112.359 116.144  1.00  0.00     0.004 C 
ATOM      7  C   UNL     1     101.166 113.296 115.600  1.00  0.00     0.006 C 
ATOM      8  C   UNL     1      99.693 112.965 117.540  1.00  0.00    -0.020 C 
ATOM      9  C   UNL     1     101.621 114.188 116.769  1.00  0.00     0.012 C 
ATOM     10  C   UNL     1     101.077 113.496 118.027  1.00  0.00    -0.006 C 
ATOM     11  C   UNL     1      99.183 111.986 118.617  1.00  0.00     0.012 C 
ATOM     12  C   UNL     1      98.639 114.108 117.371  1.00  0.00     0.012 C 
ATOM     13  C   UNL     1     102.115 112.394 118.428  1.00  0.00     0.017 C 
ATOM     14  C   UNL     1     100.895 114.344 119.277  1.00  0.00    -0.064 C 
ATOM     15  C   UNL     1      99.157 112.644 120.027  1.00  0.00     0.032 C 
ATOM     16  C   UNL     1     100.033 113.902 120.253  1.00  0.00    -0.064 C 
ATOM     17  C   UNL     1     101.702 115.632 119.399  1.00  0.00     0.032 C 
ATOM     18  C   UNL     1     100.031 114.559 121.655  1.00  0.00    -0.008 C 
ATOM     19  C   UNL     1     101.761 116.226 120.807  1.00  0.00     0.009 C 
ATOM     20  C   UNL     1     100.394 116.083 121.501  1.00  0.00     0.007 C 
ATOM     21  C   UNL     1      98.626 114.457 122.312  1.00  0.00     0.014 C 
ATOM     22  C   UNL     1     101.055 113.742 122.492  1.00  0.00     0.016 C 
ATOM     23  C   UNL     1     100.192 117.014 122.767  1.00  0.00    -0.006 C 
ATOM     24  C   UNL     1      98.508 115.254 123.615  1.00  0.00     0.033 C 
ATOM     25  C   UNL     1      98.782 116.752 123.391  1.00  0.00     0.120 C 
ATOM     26  C   UNL     1     101.287 116.848 123.859  1.00  0.00     0.014 C 
ATOM     27  C   UNL     1     100.244 118.507 122.324  1.00  0.00     0.014 C 
BRANCH  25  28
ATOM     28  O   UNL     1      97.776 117.287 122.561  1.00  0.00    -0.393 OA
ATOM     29  H   UNL     1      97.832 118.275 122.634  1.00  0.00     0.210 HD
ENDBRANCH  25  28
ENDBRANCH   2   6
ENDBRANCH   1   2
BRANCH   1  30
ATOM     30  C   UNL     1      97.149 113.275 113.682  1.00  0.00     0.028 C 
BRANCH  30  31
ATOM     31  C   UNL     1      96.721 112.182 112.727  1.00  0.00    -0.028 C 
ATOM     32  C   UNL     1      95.687 112.278 111.861  1.00  0.00    -0.080 C 
ATOM     33  C   UNL     1      94.805 113.501 111.788  1.00  0.00     0.039 C 
ATOM     34  C   UNL     1      95.373 111.126 110.941  1.00  0.00     0.039 C 
ENDBRANCH  30  31
ENDBRANCH   1  30
TORSDOF 6
ENDMDL
