MODEL 1
REMARK VINA RESULT:    -4.562      0.000      0.000
REMARK INTER + INTRA:          -8.346
REMARK INTER:                  -6.962
REMARK INTRA:                  -1.385
REMARK UNBOUND:                -1.385
REMARK SMILES OC[C@@H]1O[C@@H](O[C@]2(CO)O[C@H](CO)[C@@H](O)[C@H]2O)[C@H](O)[C@H](O)[C@H]1O
REMARK SMILES IDX 6 1 5 2 3 3 22 4 4 5 20 6 18 7 2 8 1 9 23 11 21 13 19 15
REMARK SMILES IDX 7 17 16 18 10 19 14 20 11 21 8 22 9 23 17 25 15 27 12 29
REMARK SMILES IDX 13 30
REMARK H PARENT 1 10 23 12 21 14 19 16 9 24 17 26 15 28 13 31
REMARK Flexibility Score: inf
ROOT
ATOM      1  O   UNL     1      18.938  35.988   0.325  1.00  0.00    -0.313 OA
ENDROOT
BRANCH   1   2
ATOM      2  C   UNL     1      18.021  35.039  -0.214  1.00  0.00     0.285 C 
ATOM      3  C   UNL     1      16.908  36.713  -1.440  1.00  0.00     0.178 C 
ATOM      4  C   UNL     1      15.624  36.630  -0.583  1.00  0.00     0.177 C 
ATOM      5  O   UNL     1      17.563  35.454  -1.492  1.00  0.00    -0.341 OA
ATOM      6  C   UNL     1      15.972  36.119   0.829  1.00  0.00     0.179 C 
ATOM      7  C   UNL     1      16.839  34.849   0.760  1.00  0.00     0.202 C 
BRANCH   3   8
ATOM      8  C   UNL     1      16.574  37.141  -2.873  1.00  0.00     0.191 C 
BRANCH   8   9
ATOM      9  O   UNL     1      16.724  38.527  -2.999  1.00  0.00    -0.394 OA
ATOM     10  H   UNL     1      17.540  38.669  -3.546  1.00  0.00     0.210 HD
ENDBRANCH   8   9
ENDBRANCH   3   8
BRANCH   4  11
ATOM     11  O   UNL     1      15.043  37.908  -0.489  1.00  0.00    -0.387 OA
ATOM     12  H   UNL     1      15.404  38.330   0.333  1.00  0.00     0.211 HD
ENDBRANCH   4  11
BRANCH   6  13
ATOM     13  O   UNL     1      14.797  35.844   1.551  1.00  0.00    -0.387 OA
ATOM     14  H   UNL     1      14.037  36.183   1.009  1.00  0.00     0.211 HD
ENDBRANCH   6  13
BRANCH   7  15
ATOM     15  O   UNL     1      16.071  33.720   0.413  1.00  0.00    -0.385 OA
ATOM     16  H   UNL     1      15.199  33.782   0.882  1.00  0.00     0.211 HD
ENDBRANCH   7  15
ENDBRANCH   1   2
BRANCH   1  17
ATOM     17  C   UNL     1      20.320  35.685   0.126  1.00  0.00     0.224 C 
ATOM     18  C   UNL     1      21.241  36.899   0.408  1.00  0.00     0.208 C 
ATOM     19  O   UNL     1      20.656  34.708   1.094  1.00  0.00    -0.337 OA
ATOM     20  C   UNL     1      21.316  36.867   1.917  1.00  0.00     0.180 C 
ATOM     21  C   UNL     1      21.173  35.370   2.234  1.00  0.00     0.179 C 
BRANCH  17  22
ATOM     22  C   UNL     1      20.555  35.052  -1.268  1.00  0.00     0.225 C 
BRANCH  22  23
ATOM     23  O   UNL     1      20.521  36.044  -2.257  1.00  0.00    -0.391 OA
ATOM     24  H   UNL     1      20.663  35.579  -3.121  1.00  0.00     0.210 HD
ENDBRANCH  22  23
ENDBRANCH  17  22
BRANCH  18  25
ATOM     25  O   UNL     1      22.512  36.758  -0.188  1.00  0.00    -0.385 OA
ATOM     26  H   UNL     1      22.566  37.370  -0.969  1.00  0.00     0.211 HD
ENDBRANCH  18  25
BRANCH  20  27
ATOM     27  O   UNL     1      22.491  37.449   2.434  1.00  0.00    -0.387 OA
ATOM     28  H   UNL     1      22.778  36.939   3.233  1.00  0.00     0.211 HD
ENDBRANCH  20  27
BRANCH  21  29
ATOM     29  C   UNL     1      20.256  35.112   3.439  1.00  0.00     0.191 C 
BRANCH  29  30
ATOM     30  O   UNL     1      19.100  35.902   3.362  1.00  0.00    -0.394 OA
ATOM     31  H   UNL     1      19.401  36.848   3.378  1.00  0.00     0.210 HD
ENDBRANCH  29  30
ENDBRANCH  21  29
ENDBRANCH   1  17
TORSDOF 13
ENDMDL
MODEL 2
REMARK VINA RESULT:    -4.415      1.379      6.087
REMARK INTER + INTRA:          -8.123
REMARK INTER:                  -6.834
REMARK INTRA:                  -1.289
REMARK UNBOUND:                -1.385
REMARK SMILES OC[C@@H]1O[C@@H](O[C@]2(CO)O[C@H](CO)[C@@H](O)[C@H]2O)[C@H](O)[C@H](O)[C@H]1O
REMARK SMILES IDX 6 1 5 2 3 3 22 4 4 5 20 6 18 7 2 8 1 9 23 11 21 13 19 15
REMARK SMILES IDX 7 17 16 18 10 19 14 20 11 21 8 22 9 23 17 25 15 27 12 29
REMARK SMILES IDX 13 30
REMARK H PARENT 1 10 23 12 21 14 19 16 9 24 17 26 15 28 13 31
REMARK Flexibility Score: inf
ROOT
ATOM      1  O   UNL     1      17.488  36.039  -0.569  1.00  0.00    -0.313 OA
ENDROOT
BRANCH   1   2
ATOM      2  C   UNL     1      18.307  34.875  -0.483  1.00  0.00     0.285 C 
ATOM      3  C   UNL     1      19.009  35.451   1.689  1.00  0.00     0.178 C 
ATOM      4  C   UNL     1      20.459  35.757   1.250  1.00  0.00     0.177 C 
ATOM      5  O   UNL     1      18.432  34.448   0.865  1.00  0.00    -0.341 OA
ATOM      6  C   UNL     1      20.479  36.171  -0.234  1.00  0.00     0.179 C 
ATOM      7  C   UNL     1      19.691  35.168  -1.099  1.00  0.00     0.202 C 
BRANCH   3   8
ATOM      8  C   UNL     1      18.978  34.958   3.140  1.00  0.00     0.191 C 
BRANCH   8   9
ATOM      9  O   UNL     1      18.810  36.046   4.005  1.00  0.00    -0.394 OA
ATOM     10  H   UNL     1      19.587  36.033   4.621  1.00  0.00     0.210 HD
ENDBRANCH   8   9
ENDBRANCH   3   8
BRANCH   4  11
ATOM     11  O   UNL     1      20.974  36.804   2.036  1.00  0.00    -0.387 OA
ATOM     12  H   UNL     1      20.200  37.349   2.334  1.00  0.00     0.211 HD
ENDBRANCH   4  11
BRANCH   6  13
ATOM     13  O   UNL     1      21.802  36.252  -0.701  1.00  0.00    -0.387 OA
ATOM     14  H   UNL     1      22.312  36.785  -0.037  1.00  0.00     0.211 HD
ENDBRANCH   6  13
BRANCH   7  15
ATOM     15  O   UNL     1      20.421  33.979  -1.300  1.00  0.00    -0.385 OA
ATOM     16  H   UNL     1      19.899  33.393  -1.906  1.00  0.00     0.211 HD
ENDBRANCH   7  15
ENDBRANCH   1   2
BRANCH   1  17
ATOM     17  C   UNL     1      16.093  35.792  -0.755  1.00  0.00     0.224 C 
ATOM     18  C   UNL     1      15.222  37.026  -0.408  1.00  0.00     0.208 C 
ATOM     19  O   UNL     1      15.911  35.562  -2.138  1.00  0.00    -0.337 OA
ATOM     20  C   UNL     1      15.376  37.855  -1.663  1.00  0.00     0.180 C 
ATOM     21  C   UNL     1      15.569  36.791  -2.754  1.00  0.00     0.179 C 
BRANCH  17  22
ATOM     22  C   UNL     1      15.652  34.506  -0.011  1.00  0.00     0.225 C 
BRANCH  22  23
ATOM     23  O   UNL     1      15.470  34.780   1.351  1.00  0.00    -0.391 OA
ATOM     24  H   UNL     1      15.597  33.917   1.826  1.00  0.00     0.210 HD
ENDBRANCH  22  23
ENDBRANCH  17  22
BRANCH  18  25
ATOM     25  O   UNL     1      13.875  36.680  -0.165  1.00  0.00    -0.385 OA
ATOM     26  H   UNL     1      13.828  35.707   0.026  1.00  0.00     0.211 HD
ENDBRANCH  18  25
BRANCH  20  27
ATOM     27  O   UNL     1      14.290  38.723  -1.899  1.00  0.00    -0.387 OA
ATOM     28  H   UNL     1      14.517  39.623  -1.555  1.00  0.00     0.211 HD
ENDBRANCH  20  27
BRANCH  21  29
ATOM     29  C   UNL     1      16.658  37.180  -3.764  1.00  0.00     0.191 C 
BRANCH  29  30
ATOM     30  O   UNL     1      17.849  37.521  -3.105  1.00  0.00    -0.394 OA
ATOM     31  H   UNL     1      17.811  37.093  -2.210  1.00  0.00     0.210 HD
ENDBRANCH  29  30
ENDBRANCH  21  29
ENDBRANCH   1  17
TORSDOF 13
ENDMDL
MODEL 3
REMARK VINA RESULT:    -4.379      1.548      1.769
REMARK INTER + INTRA:          -8.068
REMARK INTER:                  -6.593
REMARK INTRA:                  -1.475
REMARK UNBOUND:                -1.385
REMARK SMILES OC[C@@H]1O[C@@H](O[C@]2(CO)O[C@H](CO)[C@@H](O)[C@H]2O)[C@H](O)[C@H](O)[C@H]1O
REMARK SMILES IDX 6 1 5 2 3 3 22 4 4 5 20 6 18 7 2 8 1 9 23 11 21 13 19 15
REMARK SMILES IDX 7 17 16 18 10 19 14 20 11 21 8 22 9 23 17 25 15 27 12 29
REMARK SMILES IDX 13 30
REMARK H PARENT 1 10 23 12 21 14 19 16 9 24 17 26 15 28 13 31
REMARK Flexibility Score: inf
ROOT
ATOM      1  O   UNL     1      18.014  35.004   0.329  1.00  0.00    -0.313 OA
ENDROOT
BRANCH   1   2
ATOM      2  C   UNL     1      16.832  34.444  -0.238  1.00  0.00     0.285 C 
ATOM      3  C   UNL     1      16.446  36.385  -1.514  1.00  0.00     0.178 C 
ATOM      4  C   UNL     1      15.193  36.790  -0.705  1.00  0.00     0.177 C 
ATOM      5  O   UNL     1      16.599  34.973  -1.535  1.00  0.00    -0.341 OA
ATOM      6  C   UNL     1      15.283  36.214   0.722  1.00  0.00     0.179 C 
ATOM      7  C   UNL     1      15.631  34.714   0.691  1.00  0.00     0.202 C 
BRANCH   3   8
ATOM      8  C   UNL     1      16.337  36.879  -2.960  1.00  0.00     0.191 C 
BRANCH   8   9
ATOM      9  O   UNL     1      16.914  38.150  -3.071  1.00  0.00    -0.394 OA
ATOM     10  H   UNL     1      17.673  38.166  -2.432  1.00  0.00     0.210 HD
ENDBRANCH   8   9
ENDBRANCH   3   8
BRANCH   4  11
ATOM     11  O   UNL     1      15.113  38.193  -0.640  1.00  0.00    -0.387 OA
ATOM     12  H   UNL     1      14.750  38.421   0.256  1.00  0.00     0.211 HD
ENDBRANCH   4  11
BRANCH   6  13
ATOM     13  O   UNL     1      14.066  36.398   1.400  1.00  0.00    -0.387 OA
ATOM     14  H   UNL     1      14.082  35.802   2.193  1.00  0.00     0.211 HD
ENDBRANCH   6  13
BRANCH   7  15
ATOM     15  O   UNL     1      14.516  33.935   0.322  1.00  0.00    -0.385 OA
ATOM     16  H   UNL     1      13.717  34.298   0.786  1.00  0.00     0.211 HD
ENDBRANCH   7  15
ENDBRANCH   1   2
BRANCH   1  17
ATOM     17  C   UNL     1      19.053  34.070   0.626  1.00  0.00     0.224 C 
ATOM     18  C   UNL     1      20.436  34.750   0.781  1.00  0.00     0.208 C 
ATOM     19  O   UNL     1      18.744  33.520   1.892  1.00  0.00    -0.337 OA
ATOM     20  C   UNL     1      20.341  35.291   2.190  1.00  0.00     0.180 C 
ATOM     21  C   UNL     1      19.418  34.276   2.883  1.00  0.00     0.179 C 
BRANCH  17  22
ATOM     22  C   UNL     1      19.059  32.903  -0.394  1.00  0.00     0.225 C 
BRANCH  22  23
ATOM     23  O   UNL     1      19.883  33.222  -1.481  1.00  0.00    -0.391 OA
ATOM     24  H   UNL     1      19.302  33.674  -2.147  1.00  0.00     0.210 HD
ENDBRANCH  22  23
ENDBRANCH  17  22
BRANCH  18  25
ATOM     25  O   UNL     1      21.503  33.838   0.636  1.00  0.00    -0.385 OA
ATOM     26  H   UNL     1      21.190  32.938   0.917  1.00  0.00     0.211 HD
ENDBRANCH  18  25
BRANCH  20  27
ATOM     27  O   UNL     1      21.593  35.444   2.819  1.00  0.00    -0.387 OA
ATOM     28  H   UNL     1      21.469  35.949   3.662  1.00  0.00     0.211 HD
ENDBRANCH  20  27
BRANCH  21  29
ATOM     29  C   UNL     1      18.390  34.952   3.801  1.00  0.00     0.191 C 
BRANCH  29  30
ATOM     30  O   UNL     1      17.827  36.075   3.177  1.00  0.00    -0.394 OA
ATOM     31  H   UNL     1      17.147  36.438   3.803  1.00  0.00     0.210 HD
ENDBRANCH  29  30
ENDBRANCH  21  29
ENDBRANCH   1  17
TORSDOF 13
ENDMDL
MODEL 4
REMARK VINA RESULT:    -4.305      1.349      6.169
REMARK INTER + INTRA:          -7.955
REMARK INTER:                  -6.649
REMARK INTRA:                  -1.306
REMARK UNBOUND:                -1.385
REMARK SMILES OC[C@@H]1O[C@@H](O[C@]2(CO)O[C@H](CO)[C@@H](O)[C@H]2O)[C@H](O)[C@H](O)[C@H]1O
REMARK SMILES IDX 6 1 5 2 3 3 22 4 4 5 20 6 18 7 2 8 1 9 23 11 21 13 19 15
REMARK SMILES IDX 7 17 16 18 10 19 14 20 11 21 8 22 9 23 17 25 15 27 12 29
REMARK SMILES IDX 13 30
REMARK H PARENT 1 10 23 12 21 14 19 16 9 24 17 26 15 28 13 31
REMARK Flexibility Score: inf
ROOT
ATOM      1  O   UNL     1      18.807  35.460   0.885  1.00  0.00    -0.313 OA
ENDROOT
BRANCH   1   2
ATOM      2  C   UNL     1      20.096  35.031   0.453  1.00  0.00     0.285 C 
ATOM      3  C   UNL     1      20.884  34.950   2.670  1.00  0.00     0.178 C 
ATOM      4  C   UNL     1      21.838  36.152   2.484  1.00  0.00     0.177 C 
ATOM      5  O   UNL     1      20.722  34.239   1.451  1.00  0.00    -0.341 OA
ATOM      6  C   UNL     1      21.308  37.070   1.365  1.00  0.00     0.179 C 
ATOM      7  C   UNL     1      20.962  36.259   0.102  1.00  0.00     0.202 C 
BRANCH   3   8
ATOM      8  C   UNL     1      21.436  33.981   3.722  1.00  0.00     0.191 C 
BRANCH   8   9
ATOM      9  O   UNL     1      22.829  34.105   3.795  1.00  0.00    -0.394 OA
ATOM     10  H   UNL     1      23.182  33.188   3.930  1.00  0.00     0.210 HD
ENDBRANCH   8   9
ENDBRANCH   3   8
BRANCH   4  11
ATOM     11  O   UNL     1      21.916  36.876   3.687  1.00  0.00    -0.387 OA
ATOM     12  H   UNL     1      21.676  36.249   4.418  1.00  0.00     0.211 HD
ENDBRANCH   4  11
BRANCH   6  13
ATOM     13  O   UNL     1      22.263  38.049   1.045  1.00  0.00    -0.387 OA
ATOM     14  H   UNL     1      21.845  38.657   0.381  1.00  0.00     0.211 HD
ENDBRANCH   6  13
BRANCH   7  15
ATOM     15  O   UNL     1      22.123  35.880  -0.599  1.00  0.00    -0.385 OA
ATOM     16  H   UNL     1      22.103  34.897  -0.725  1.00  0.00     0.211 HD
ENDBRANCH   7  15
ENDBRANCH   1   2
BRANCH   1  17
ATOM     17  C   UNL     1      17.707  34.711   0.366  1.00  0.00     0.224 C 
ATOM     18  C   UNL     1      16.338  35.280   0.814  1.00  0.00     0.208 C 
ATOM     19  O   UNL     1      17.752  34.861  -1.040  1.00  0.00    -0.337 OA
ATOM     20  C   UNL     1      16.173  36.436  -0.147  1.00  0.00     0.180 C 
ATOM     21  C   UNL     1      16.919  35.949  -1.399  1.00  0.00     0.179 C 
BRANCH  17  22
ATOM     22  C   UNL     1      17.869  33.201   0.674  1.00  0.00     0.225 C 
BRANCH  22  23
ATOM     23  O   UNL     1      17.831  32.987   2.058  1.00  0.00    -0.391 OA
ATOM     24  H   UNL     1      18.484  32.264   2.245  1.00  0.00     0.210 HD
ENDBRANCH  22  23
ENDBRANCH  17  22
BRANCH  18  25
ATOM     25  O   UNL     1      15.296  34.336   0.688  1.00  0.00    -0.385 OA
ATOM     26  H   UNL     1      15.640  33.551   0.187  1.00  0.00     0.211 HD
ENDBRANCH  18  25
BRANCH  20  27
ATOM     27  O   UNL     1      14.827  36.782  -0.384  1.00  0.00    -0.387 OA
ATOM     28  H   UNL     1      14.586  37.551   0.192  1.00  0.00     0.211 HD
ENDBRANCH  20  27
BRANCH  21  29
ATOM     29  C   UNL     1      17.766  37.056  -2.042  1.00  0.00     0.191 C 
BRANCH  29  30
ATOM     30  O   UNL     1      16.984  38.187  -2.315  1.00  0.00    -0.394 OA
ATOM     31  H   UNL     1      16.604  38.486  -1.447  1.00  0.00     0.210 HD
ENDBRANCH  29  30
ENDBRANCH  21  29
ENDBRANCH   1  17
TORSDOF 13
ENDMDL
MODEL 5
REMARK VINA RESULT:    -4.210      1.390      5.716
REMARK INTER + INTRA:          -7.810
REMARK INTER:                  -6.358
REMARK INTRA:                  -1.452
REMARK UNBOUND:                -1.385
REMARK SMILES OC[C@@H]1O[C@@H](O[C@]2(CO)O[C@H](CO)[C@@H](O)[C@H]2O)[C@H](O)[C@H](O)[C@H]1O
REMARK SMILES IDX 6 1 5 2 3 3 22 4 4 5 20 6 18 7 2 8 1 9 23 11 21 13 19 15
REMARK SMILES IDX 7 17 16 18 10 19 14 20 11 21 8 22 9 23 17 25 15 27 12 29
REMARK SMILES IDX 13 30
REMARK H PARENT 1 10 23 12 21 14 19 16 9 24 17 26 15 28 13 31
REMARK Flexibility Score: inf
ROOT
ATOM      1  O   UNL     1      17.816  36.529  -0.677  1.00  0.00    -0.313 OA
ENDROOT
BRANCH   1   2
ATOM      2  C   UNL     1      18.521  35.290  -0.689  1.00  0.00     0.285 C 
ATOM      3  C   UNL     1      19.221  35.593   1.538  1.00  0.00     0.178 C 
ATOM      4  C   UNL     1      20.704  35.799   1.152  1.00  0.00     0.177 C 
ATOM      5  O   UNL     1      18.573  34.730   0.615  1.00  0.00    -0.341 OA
ATOM      6  C   UNL     1      20.797  36.345  -0.287  1.00  0.00     0.179 C 
ATOM      7  C   UNL     1      19.940  35.505  -1.254  1.00  0.00     0.202 C 
BRANCH   3   8
ATOM      8  C   UNL     1      19.109  34.973   2.935  1.00  0.00     0.191 C 
BRANCH   8   9
ATOM      9  O   UNL     1      18.651  35.935   3.844  1.00  0.00    -0.394 OA
ATOM     10  H   UNL     1      19.266  35.897   4.621  1.00  0.00     0.210 HD
ENDBRANCH   8   9
ENDBRANCH   3   8
BRANCH   4  11
ATOM     11  O   UNL     1      21.295  36.715   2.040  1.00  0.00    -0.387 OA
ATOM     12  H   UNL     1      20.901  37.604   1.842  1.00  0.00     0.211 HD
ENDBRANCH   4  11
BRANCH   6  13
ATOM     13  O   UNL     1      22.133  36.342  -0.724  1.00  0.00    -0.387 OA
ATOM     14  H   UNL     1      22.321  35.435  -1.079  1.00  0.00     0.211 HD
ENDBRANCH   6  13
BRANCH   7  15
ATOM     15  O   UNL     1      20.561  34.277  -1.555  1.00  0.00    -0.385 OA
ATOM     16  H   UNL     1      21.403  34.466  -2.043  1.00  0.00     0.211 HD
ENDBRANCH   7  15
ENDBRANCH   1   2
BRANCH   1  17
ATOM     17  C   UNL     1      16.673  36.591  -1.533  1.00  0.00     0.224 C 
ATOM     18  C   UNL     1      15.962  35.221  -1.673  1.00  0.00     0.208 C 
ATOM     19  O   UNL     1      15.746  37.448  -0.895  1.00  0.00    -0.337 OA
ATOM     20  C   UNL     1      15.163  35.172  -0.391  1.00  0.00     0.180 C 
ATOM     21  C   UNL     1      14.868  36.655  -0.116  1.00  0.00     0.179 C 
BRANCH  17  22
ATOM     22  C   UNL     1      17.033  37.233  -2.896  1.00  0.00     0.225 C 
BRANCH  22  23
ATOM     23  O   UNL     1      15.948  37.979  -3.375  1.00  0.00    -0.391 OA
ATOM     24  H   UNL     1      15.132  37.482  -3.110  1.00  0.00     0.210 HD
ENDBRANCH  22  23
ENDBRANCH  17  22
BRANCH  18  25
ATOM     25  O   UNL     1      15.135  35.160  -2.815  1.00  0.00    -0.385 OA
ATOM     26  H   UNL     1      15.605  34.642  -3.519  1.00  0.00     0.211 HD
ENDBRANCH  18  25
BRANCH  20  27
ATOM     27  O   UNL     1      14.008  34.368  -0.479  1.00  0.00    -0.387 OA
ATOM     28  H   UNL     1      13.371  34.643   0.228  1.00  0.00     0.211 HD
ENDBRANCH  20  27
BRANCH  21  29
ATOM     29  C   UNL     1      15.026  37.018   1.368  1.00  0.00     0.191 C 
BRANCH  29  30
ATOM     30  O   UNL     1      16.150  36.384   1.917  1.00  0.00    -0.394 OA
ATOM     31  H   UNL     1      16.325  36.822   2.791  1.00  0.00     0.210 HD
ENDBRANCH  29  30
ENDBRANCH  21  29
ENDBRANCH   1  17
TORSDOF 13
ENDMDL
MODEL 6
REMARK VINA RESULT:    -4.184      1.601      2.398
REMARK INTER + INTRA:          -7.770
REMARK INTER:                  -6.506
REMARK INTRA:                  -1.264
REMARK UNBOUND:                -1.385
REMARK SMILES OC[C@@H]1O[C@@H](O[C@]2(CO)O[C@H](CO)[C@@H](O)[C@H]2O)[C@H](O)[C@H](O)[C@H]1O
REMARK SMILES IDX 6 1 5 2 3 3 22 4 4 5 20 6 18 7 2 8 1 9 23 11 21 13 19 15
REMARK SMILES IDX 7 17 16 18 10 19 14 20 11 21 8 22 9 23 17 25 15 27 12 29
REMARK SMILES IDX 13 30
REMARK H PARENT 1 10 23 12 21 14 19 16 9 24 17 26 15 28 13 31
REMARK Flexibility Score: inf
ROOT
ATOM      1  O   UNL     1      18.173  35.252   0.923  1.00  0.00    -0.313 OA
ENDROOT
BRANCH   1   2
ATOM      2  C   UNL     1      16.955  34.541   1.130  1.00  0.00     0.285 C 
ATOM      3  C   UNL     1      15.678  36.455   0.630  1.00  0.00     0.178 C 
ATOM      4  C   UNL     1      15.174  36.623   2.081  1.00  0.00     0.177 C 
ATOM      5  O   UNL     1      15.914  35.086   0.332  1.00  0.00    -0.341 OA
ATOM      6  C   UNL     1      16.189  36.003   3.062  1.00  0.00     0.179 C 
ATOM      7  C   UNL     1      16.579  34.578   2.626  1.00  0.00     0.202 C 
BRANCH   3   8
ATOM      8  C   UNL     1      14.644  36.992  -0.366  1.00  0.00     0.191 C 
BRANCH   8   9
ATOM      9  O   UNL     1      15.084  38.212  -0.892  1.00  0.00    -0.394 OA
ATOM     10  H   UNL     1      14.785  38.231  -1.838  1.00  0.00     0.210 HD
ENDBRANCH   8   9
ENDBRANCH   3   8
BRANCH   4  11
ATOM     11  O   UNL     1      15.022  37.992   2.367  1.00  0.00    -0.387 OA
ATOM     12  H   UNL     1      15.873  38.436   2.113  1.00  0.00     0.211 HD
ENDBRANCH   4  11
BRANCH   6  13
ATOM     13  O   UNL     1      15.652  35.965   4.360  1.00  0.00    -0.387 OA
ATOM     14  H   UNL     1      15.160  35.107   4.445  1.00  0.00     0.211 HD
ENDBRANCH   6  13
BRANCH   7  15
ATOM     15  O   UNL     1      15.556  33.654   2.918  1.00  0.00    -0.385 OA
ATOM     16  H   UNL     1      15.959  32.748   2.958  1.00  0.00     0.211 HD
ENDBRANCH   7  15
ENDBRANCH   1   2
BRANCH   1  17
ATOM     17  C   UNL     1      19.142  34.583   0.114  1.00  0.00     0.224 C 
ATOM     18  C   UNL     1      19.942  35.560  -0.783  1.00  0.00     0.208 C 
ATOM     19  O   UNL     1      20.081  34.015   1.007  1.00  0.00    -0.337 OA
ATOM     20  C   UNL     1      20.950  36.105   0.203  1.00  0.00     0.180 C 
ATOM     21  C   UNL     1      21.149  34.930   1.173  1.00  0.00     0.179 C 
BRANCH  17  22
ATOM     22  C   UNL     1      18.496  33.419  -0.678  1.00  0.00     0.225 C 
BRANCH  22  23
ATOM     23  O   UNL     1      19.427  32.387  -0.857  1.00  0.00    -0.391 OA
ATOM     24  H   UNL     1      20.312  32.825  -0.950  1.00  0.00     0.210 HD
ENDBRANCH  22  23
ENDBRANCH  17  22
BRANCH  18  25
ATOM     25  O   UNL     1      20.564  34.907  -1.868  1.00  0.00    -0.385 OA
ATOM     26  H   UNL     1      20.664  35.555  -2.613  1.00  0.00     0.211 HD
ENDBRANCH  18  25
BRANCH  20  27
ATOM     27  O   UNL     1      22.142  36.553  -0.401  1.00  0.00    -0.387 OA
ATOM     28  H   UNL     1      22.699  37.005   0.282  1.00  0.00     0.211 HD
ENDBRANCH  20  27
BRANCH  21  29
ATOM     29  C   UNL     1      21.213  35.385   2.638  1.00  0.00     0.191 C 
BRANCH  29  30
ATOM     30  O   UNL     1      20.121  36.206   2.952  1.00  0.00    -0.394 OA
ATOM     31  H   UNL     1      20.240  36.489   3.897  1.00  0.00     0.210 HD
ENDBRANCH  29  30
ENDBRANCH  21  29
ENDBRANCH   1  17
TORSDOF 13
ENDMDL
MODEL 7
REMARK VINA RESULT:    -4.048      1.539      5.804
REMARK INTER + INTRA:          -7.563
REMARK INTER:                  -6.184
REMARK INTRA:                  -1.379
REMARK UNBOUND:                -1.385
REMARK SMILES OC[C@@H]1O[C@@H](O[C@]2(CO)O[C@H](CO)[C@@H](O)[C@H]2O)[C@H](O)[C@H](O)[C@H]1O
REMARK SMILES IDX 6 1 5 2 3 3 22 4 4 5 20 6 18 7 2 8 1 9 23 11 21 13 19 15
REMARK SMILES IDX 7 17 16 18 10 19 14 20 11 21 8 22 9 23 17 25 15 27 12 29
REMARK SMILES IDX 13 30
REMARK H PARENT 1 10 23 12 21 14 19 16 9 24 17 26 15 28 13 31
REMARK Flexibility Score: inf
ROOT
ATOM      1  O   UNL     1      19.036  36.030   0.876  1.00  0.00    -0.313 OA
ENDROOT
BRANCH   1   2
ATOM      2  C   UNL     1      20.310  35.553   0.451  1.00  0.00     0.285 C 
ATOM      3  C   UNL     1      21.036  35.312   2.678  1.00  0.00     0.178 C 
ATOM      4  C   UNL     1      22.058  36.467   2.578  1.00  0.00     0.177 C 
ATOM      5  O   UNL     1      20.866  34.676   1.419  1.00  0.00    -0.341 OA
ATOM      6  C   UNL     1      21.608  37.471   1.498  1.00  0.00     0.179 C 
ATOM      7  C   UNL     1      21.250  36.747   0.185  1.00  0.00     0.202 C 
BRANCH   3   8
ATOM      8  C   UNL     1      21.507  34.261   3.689  1.00  0.00     0.191 C 
BRANCH   8   9
ATOM      9  O   UNL     1      22.906  34.231   3.722  1.00  0.00    -0.394 OA
ATOM     10  H   UNL     1      23.189  35.032   4.234  1.00  0.00     0.210 HD
ENDBRANCH   8   9
ENDBRANCH   3   8
BRANCH   4  11
ATOM     11  O   UNL     1      22.146  37.122   3.819  1.00  0.00    -0.387 OA
ATOM     12  H   UNL     1      22.513  36.466   4.467  1.00  0.00     0.211 HD
ENDBRANCH   4  11
BRANCH   6  13
ATOM     13  O   UNL     1      22.623  38.411   1.252  1.00  0.00    -0.387 OA
ATOM     14  H   UNL     1      22.786  38.892   2.104  1.00  0.00     0.211 HD
ENDBRANCH   6  13
BRANCH   7  15
ATOM     15  O   UNL     1      22.407  36.341  -0.509  1.00  0.00    -0.385 OA
ATOM     16  H   UNL     1      23.160  36.919  -0.221  1.00  0.00     0.211 HD
ENDBRANCH   7  15
ENDBRANCH   1   2
BRANCH   1  17
ATOM     17  C   UNL     1      17.930  35.628   0.066  1.00  0.00     0.224 C 
ATOM     18  C   UNL     1      17.748  34.090   0.032  1.00  0.00     0.208 C 
ATOM     19  O   UNL     1      16.771  36.144   0.691  1.00  0.00    -0.337 OA
ATOM     20  C   UNL     1      17.041  33.849   1.347  1.00  0.00     0.180 C 
ATOM     21  C   UNL     1      16.245  35.147   1.549  1.00  0.00     0.179 C 
BRANCH  17  22
ATOM     22  C   UNL     1      18.015  36.263  -1.345  1.00  0.00     0.225 C 
BRANCH  22  23
ATOM     23  O   UNL     1      16.726  36.476  -1.852  1.00  0.00    -0.391 OA
ATOM     24  H   UNL     1      16.150  36.676  -1.069  1.00  0.00     0.210 HD
ENDBRANCH  22  23
ENDBRANCH  17  22
BRANCH  18  25
ATOM     25  O   UNL     1      16.976  33.664  -1.069  1.00  0.00    -0.385 OA
ATOM     26  H   UNL     1      16.486  32.839  -0.813  1.00  0.00     0.211 HD
ENDBRANCH  18  25
BRANCH  20  27
ATOM     27  O   UNL     1      16.245  32.685   1.351  1.00  0.00    -0.387 OA
ATOM     28  H   UNL     1      15.795  32.607   2.230  1.00  0.00     0.211 HD
ENDBRANCH  20  27
BRANCH  21  29
ATOM     29  C   UNL     1      16.292  35.641   3.002  1.00  0.00     0.191 C 
BRANCH  29  30
ATOM     30  O   UNL     1      17.565  36.135   3.319  1.00  0.00    -0.394 OA
ATOM     31  H   UNL     1      17.454  37.103   3.514  1.00  0.00     0.210 HD
ENDBRANCH  29  30
ENDBRANCH  21  29
ENDBRANCH   1  17
TORSDOF 13
ENDMDL
MODEL 8
REMARK VINA RESULT:    -3.889      1.621      3.273
REMARK INTER + INTRA:          -7.321
REMARK INTER:                  -5.962
REMARK INTRA:                  -1.358
REMARK UNBOUND:                -1.385
REMARK SMILES OC[C@@H]1O[C@@H](O[C@]2(CO)O[C@H](CO)[C@@H](O)[C@H]2O)[C@H](O)[C@H](O)[C@H]1O
REMARK SMILES IDX 6 1 5 2 3 3 22 4 4 5 20 6 18 7 2 8 1 9 23 11 21 13 19 15
REMARK SMILES IDX 7 17 16 18 10 19 14 20 11 21 8 22 9 23 17 25 15 27 12 29
REMARK SMILES IDX 13 30
REMARK H PARENT 1 10 23 12 21 14 19 16 9 24 17 26 15 28 13 31
REMARK Flexibility Score: inf
ROOT
ATOM      1  O   UNL     1      18.177  35.589   2.269  1.00  0.00    -0.313 OA
ENDROOT
BRANCH   1   2
ATOM      2  C   UNL     1      17.371  34.616   1.611  1.00  0.00     0.285 C 
ATOM      3  C   UNL     1      16.913  36.097  -0.161  1.00  0.00     0.178 C 
ATOM      4  C   UNL     1      15.424  36.256   0.221  1.00  0.00     0.177 C 
ATOM      5  O   UNL     1      17.395  34.812   0.205  1.00  0.00    -0.341 OA
ATOM      6  C   UNL     1      15.242  35.997   1.730  1.00  0.00     0.179 C 
ATOM      7  C   UNL     1      15.928  34.684   2.152  1.00  0.00     0.202 C 
BRANCH   3   8
ATOM      8  C   UNL     1      17.105  36.271  -1.671  1.00  0.00     0.191 C 
BRANCH   8   9
ATOM      9  O   UNL     1      18.175  37.139  -1.916  1.00  0.00    -0.394 OA
ATOM     10  H   UNL     1      18.869  36.921  -1.241  1.00  0.00     0.210 HD
ENDBRANCH   8   9
ENDBRANCH   3   8
BRANCH   4  11
ATOM     11  O   UNL     1      15.000  37.562  -0.084  1.00  0.00    -0.387 OA
ATOM     12  H   UNL     1      14.347  37.825   0.615  1.00  0.00     0.211 HD
ENDBRANCH   4  11
BRANCH   6  13
ATOM     13  O   UNL     1      13.875  35.935   2.052  1.00  0.00    -0.387 OA
ATOM     14  H   UNL     1      13.385  35.759   1.207  1.00  0.00     0.211 HD
ENDBRANCH   6  13
BRANCH   7  15
ATOM     15  O   UNL     1      15.179  33.560   1.749  1.00  0.00    -0.385 OA
ATOM     16  H   UNL     1      14.325  33.880   1.357  1.00  0.00     0.211 HD
ENDBRANCH   7  15
ENDBRANCH   1   2
BRANCH   1  17
ATOM     17  C   UNL     1      19.174  35.065   3.148  1.00  0.00     0.224 C 
ATOM     18  C   UNL     1      19.699  33.681   2.692  1.00  0.00     0.208 C 
ATOM     19  O   UNL     1      20.278  35.947   3.068  1.00  0.00    -0.337 OA
ATOM     20  C   UNL     1      20.676  34.080   1.609  1.00  0.00     0.180 C 
ATOM     21  C   UNL     1      21.172  35.453   2.086  1.00  0.00     0.179 C 
BRANCH  17  22
ATOM     22  C   UNL     1      18.682  35.077   4.617  1.00  0.00     0.225 C 
BRANCH  22  23
ATOM     23  O   UNL     1      19.749  35.366   5.478  1.00  0.00    -0.391 OA
ATOM     24  H   UNL     1      20.549  35.473   4.901  1.00  0.00     0.210 HD
ENDBRANCH  22  23
ENDBRANCH  17  22
BRANCH  18  25
ATOM     25  O   UNL     1      20.329  32.974   3.738  1.00  0.00    -0.385 OA
ATOM     26  H   UNL     1      21.103  33.507   4.059  1.00  0.00     0.211 HD
ENDBRANCH  18  25
BRANCH  20  27
ATOM     27  O   UNL     1      21.707  33.140   1.409  1.00  0.00    -0.387 OA
ATOM     28  H   UNL     1      22.559  33.522   1.739  1.00  0.00     0.211 HD
ENDBRANCH  20  27
BRANCH  21  29
ATOM     29  C   UNL     1      21.285  36.466   0.937  1.00  0.00     0.191 C 
BRANCH  29  30
ATOM     30  O   UNL     1      20.024  36.731   0.382  1.00  0.00    -0.394 OA
ATOM     31  H   UNL     1      19.927  36.129  -0.401  1.00  0.00     0.210 HD
ENDBRANCH  29  30
ENDBRANCH  21  29
ENDBRANCH   1  17
TORSDOF 13
ENDMDL
MODEL 9
REMARK VINA RESULT:    -3.788      1.676      5.753
REMARK INTER + INTRA:          -7.167
REMARK INTER:                  -5.998
REMARK INTRA:                  -1.168
REMARK UNBOUND:                -1.385
REMARK SMILES OC[C@@H]1O[C@@H](O[C@]2(CO)O[C@H](CO)[C@@H](O)[C@H]2O)[C@H](O)[C@H](O)[C@H]1O
REMARK SMILES IDX 6 1 5 2 3 3 22 4 4 5 20 6 18 7 2 8 1 9 23 11 21 13 19 15
REMARK SMILES IDX 7 17 16 18 10 19 14 20 11 21 8 22 9 23 17 25 15 27 12 29
REMARK SMILES IDX 13 30
REMARK H PARENT 1 10 23 12 21 14 19 16 9 24 17 26 15 28 13 31
REMARK Flexibility Score: inf
ROOT
ATOM      1  O   UNL     1      17.135  35.999   0.637  1.00  0.00    -0.313 OA
ENDROOT
BRANCH   1   2
ATOM      2  C   UNL     1      17.825  34.761   0.488  1.00  0.00     0.285 C 
ATOM      3  C   UNL     1      19.650  35.553   1.748  1.00  0.00     0.178 C 
ATOM      4  C   UNL     1      20.604  35.590   0.532  1.00  0.00     0.177 C 
ATOM      5  O   UNL     1      18.680  34.526   1.598  1.00  0.00    -0.341 OA
ATOM      6  C   UNL     1      19.791  35.772  -0.765  1.00  0.00     0.179 C 
ATOM      7  C   UNL     1      18.625  34.768  -0.831  1.00  0.00     0.202 C 
BRANCH   3   8
ATOM      8  C   UNL     1      20.432  35.291   3.039  1.00  0.00     0.191 C 
BRANCH   8   9
ATOM      9  O   UNL     1      21.577  34.537   2.754  1.00  0.00    -0.394 OA
ATOM     10  H   UNL     1      21.610  34.445   1.767  1.00  0.00     0.210 HD
ENDBRANCH   8   9
ENDBRANCH   3   8
BRANCH   4  11
ATOM     11  O   UNL     1      21.503  36.663   0.676  1.00  0.00    -0.387 OA
ATOM     12  H   UNL     1      21.078  37.315   1.293  1.00  0.00     0.211 HD
ENDBRANCH   4  11
BRANCH   6  13
ATOM     13  O   UNL     1      20.619  35.602  -1.887  1.00  0.00    -0.387 OA
ATOM     14  H   UNL     1      21.537  35.861  -1.613  1.00  0.00     0.211 HD
ENDBRANCH   6  13
BRANCH   7  15
ATOM     15  O   UNL     1      19.079  33.475  -1.159  1.00  0.00    -0.385 OA
ATOM     16  H   UNL     1      20.051  33.429  -0.967  1.00  0.00     0.211 HD
ENDBRANCH   7  15
ENDBRANCH   1   2
BRANCH   1  17
ATOM     17  C   UNL     1      15.735  35.956   0.353  1.00  0.00     0.224 C 
ATOM     18  C   UNL     1      15.139  34.536   0.520  1.00  0.00     0.208 C 
ATOM     19  O   UNL     1      15.106  36.761   1.332  1.00  0.00    -0.337 OA
ATOM     20  C   UNL     1      14.969  34.463   2.020  1.00  0.00     0.180 C 
ATOM     21  C   UNL     1      14.708  35.927   2.406  1.00  0.00     0.179 C 
BRANCH  17  22
ATOM     22  C   UNL     1      15.429  36.588  -1.028  1.00  0.00     0.225 C 
BRANCH  22  23
ATOM     23  O   UNL     1      15.048  37.927  -0.869  1.00  0.00    -0.391 OA
ATOM     24  H   UNL     1      14.919  38.289  -1.784  1.00  0.00     0.210 HD
ENDBRANCH  22  23
ENDBRANCH  17  22
BRANCH  18  25
ATOM     25  O   UNL     1      13.910  34.387  -0.159  1.00  0.00    -0.385 OA
ATOM     26  H   UNL     1      13.173  34.614   0.467  1.00  0.00     0.211 HD
ENDBRANCH  18  25
BRANCH  20  27
ATOM     27  O   UNL     1      13.952  33.577   2.429  1.00  0.00    -0.387 OA
ATOM     28  H   UNL     1      14.369  32.762   2.807  1.00  0.00     0.211 HD
ENDBRANCH  20  27
BRANCH  21  29
ATOM     29  C   UNL     1      15.457  36.339   3.682  1.00  0.00     0.191 C 
BRANCH  29  30
ATOM     30  O   UNL     1      16.843  36.317   3.474  1.00  0.00    -0.394 OA
ATOM     31  H   UNL     1      17.097  37.221   3.151  1.00  0.00     0.210 HD
ENDBRANCH  29  30
ENDBRANCH  21  29
ENDBRANCH   1  17
TORSDOF 13
ENDMDL
