MODEL 1
REMARK VINA RESULT:    -5.490      0.000      0.000
REMARK INTER + INTRA:          -5.490
REMARK INTER:                  -5.490
REMARK INTRA:                   0.000
REMARK UNBOUND:                 0.000
REMARK SMILES c1ccc2ccccc2c1
REMARK SMILES IDX 2 1 1 2 10 3 9 4 8 5 7 6 6 7 5 8 4 9 3 10
REMARK H PARENT
REMARK Flexibility Score: inf
ROOT
ATOM      1  C   UNL     1     -11.558   6.498  34.611  1.00  0.00     0.001 A 
ATOM      2  C   UNL     1     -12.500   7.508  34.830  1.00  0.00     0.001 A 
ATOM      3  C   UNL     1     -12.135   8.676  35.507  1.00  0.00     0.009 A 
ATOM      4  C   UNL     1     -10.820   8.839  35.971  1.00  0.00    -0.018 A 
ATOM      5  C   UNL     1     -10.441  10.007  36.651  1.00  0.00     0.009 A 
ATOM      6  C   UNL     1      -9.128  10.157  37.108  1.00  0.00     0.001 A 
ATOM      7  C   UNL     1      -8.187   9.147  36.889  1.00  0.00     0.001 A 
ATOM      8  C   UNL     1      -8.551   7.979  36.212  1.00  0.00     0.009 A 
ATOM      9  C   UNL     1      -9.866   7.815  35.748  1.00  0.00    -0.018 A 
ATOM     10  C   UNL     1     -10.245   6.648  35.068  1.00  0.00     0.009 A 
ENDROOT
TORSDOF 0
ENDMDL
MODEL 2
REMARK VINA RESULT:    -5.490      0.035      2.082
REMARK INTER + INTRA:          -5.490
REMARK INTER:                  -5.490
REMARK INTRA:                   0.000
REMARK UNBOUND:                 0.000
REMARK SMILES c1ccc2ccccc2c1
REMARK SMILES IDX 2 1 1 2 10 3 9 4 8 5 7 6 6 7 5 8 4 9 3 10
REMARK H PARENT
REMARK Flexibility Score: inf
ROOT
ATOM      1  C   UNL     1     -12.484   7.552  34.808  1.00  0.00     0.001 A 
ATOM      2  C   UNL     1     -11.549   6.538  34.581  1.00  0.00     0.001 A 
ATOM      3  C   UNL     1     -10.237   6.673  35.045  1.00  0.00     0.009 A 
ATOM      4  C   UNL     1      -9.853   7.829  35.743  1.00  0.00    -0.018 A 
ATOM      5  C   UNL     1      -8.539   7.978  36.214  1.00  0.00     0.009 A 
ATOM      6  C   UNL     1      -8.170   9.134  36.908  1.00  0.00     0.001 A 
ATOM      7  C   UNL     1      -9.105  10.148  37.135  1.00  0.00     0.001 A 
ATOM      8  C   UNL     1     -10.417  10.013  36.671  1.00  0.00     0.009 A 
ATOM      9  C   UNL     1     -10.802   8.857  35.973  1.00  0.00    -0.018 A 
ATOM     10  C   UNL     1     -12.115   8.709  35.502  1.00  0.00     0.009 A 
ENDROOT
TORSDOF 0
ENDMDL
MODEL 3
REMARK VINA RESULT:    -5.481      0.082      3.436
REMARK INTER + INTRA:          -5.481
REMARK INTER:                  -5.481
REMARK INTRA:                   0.000
REMARK UNBOUND:                 0.000
REMARK SMILES c1ccc2ccccc2c1
REMARK SMILES IDX 2 1 1 2 10 3 9 4 8 5 7 6 6 7 5 8 4 9 3 10
REMARK H PARENT
REMARK Flexibility Score: inf
ROOT
ATOM      1  C   UNL     1      -8.225   9.196  36.899  1.00  0.00     0.001 A 
ATOM      2  C   UNL     1      -9.199  10.182  37.085  1.00  0.00     0.001 A 
ATOM      3  C   UNL     1     -10.497   9.989  36.603  1.00  0.00     0.009 A 
ATOM      4  C   UNL     1     -10.829   8.803  35.929  1.00  0.00    -0.018 A 
ATOM      5  C   UNL     1     -12.128   8.596  35.441  1.00  0.00     0.009 A 
ATOM      6  C   UNL     1     -12.445   7.410  34.772  1.00  0.00     0.001 A 
ATOM      7  C   UNL     1     -11.471   6.424  34.586  1.00  0.00     0.001 A 
ATOM      8  C   UNL     1     -10.173   6.617  35.068  1.00  0.00     0.009 A 
ATOM      9  C   UNL     1      -9.841   7.804  35.741  1.00  0.00    -0.018 A 
ATOM     10  C   UNL     1      -8.542   8.010  36.230  1.00  0.00     0.009 A 
ENDROOT
TORSDOF 0
ENDMDL
MODEL 4
REMARK VINA RESULT:    -5.469      2.463      5.678
REMARK INTER + INTRA:          -5.469
REMARK INTER:                  -5.469
REMARK INTRA:                   0.000
REMARK UNBOUND:                 0.000
REMARK SMILES c1ccc2ccccc2c1
REMARK SMILES IDX 2 1 1 2 10 3 9 4 8 5 7 6 6 7 5 8 4 9 3 10
REMARK H PARENT
REMARK Flexibility Score: inf
ROOT
ATOM      1  C   UNL     1     -11.673   7.709  35.311  1.00  0.00     0.001 A 
ATOM      2  C   UNL     1     -11.213   6.391  35.387  1.00  0.00     0.001 A 
ATOM      3  C   UNL     1     -11.994   5.342  34.891  1.00  0.00     0.009 A 
ATOM      4  C   UNL     1     -13.246   5.609  34.313  1.00  0.00    -0.018 A 
ATOM      5  C   UNL     1     -14.039   4.566  33.811  1.00  0.00     0.009 A 
ATOM      6  C   UNL     1     -15.283   4.846  33.238  1.00  0.00     0.001 A 
ATOM      7  C   UNL     1     -15.744   6.164  33.162  1.00  0.00     0.001 A 
ATOM      8  C   UNL     1     -14.963   7.212  33.658  1.00  0.00     0.009 A 
ATOM      9  C   UNL     1     -13.711   6.945  34.236  1.00  0.00    -0.018 A 
ATOM     10  C   UNL     1     -12.918   7.988  34.738  1.00  0.00     0.009 A 
ENDROOT
TORSDOF 0
ENDMDL
MODEL 5
REMARK VINA RESULT:    -5.468      0.070      4.018
REMARK INTER + INTRA:          -5.468
REMARK INTER:                  -5.468
REMARK INTRA:                   0.000
REMARK UNBOUND:                 0.000
REMARK SMILES c1ccc2ccccc2c1
REMARK SMILES IDX 2 1 1 2 10 3 9 4 8 5 7 6 6 7 5 8 4 9 3 10
REMARK H PARENT
REMARK Flexibility Score: inf
ROOT
ATOM      1  C   UNL     1      -9.179  10.238  37.049  1.00  0.00     0.001 A 
ATOM      2  C   UNL     1      -8.219   9.238  36.867  1.00  0.00     0.001 A 
ATOM      3  C   UNL     1      -8.558   8.048  36.214  1.00  0.00     0.009 A 
ATOM      4  C   UNL     1      -9.864   7.853  35.739  1.00  0.00    -0.018 A 
ATOM      5  C   UNL     1     -10.217   6.664  35.082  1.00  0.00     0.009 A 
ATOM      6  C   UNL     1     -11.521   6.482  34.614  1.00  0.00     0.001 A 
ATOM      7  C   UNL     1     -12.481   7.483  34.797  1.00  0.00     0.001 A 
ATOM      8  C   UNL     1     -12.143   8.672  35.449  1.00  0.00     0.009 A 
ATOM      9  C   UNL     1     -10.836   8.867  35.924  1.00  0.00    -0.018 A 
ATOM     10  C   UNL     1     -10.483  10.056  36.581  1.00  0.00     0.009 A 
ENDROOT
TORSDOF 0
ENDMDL
MODEL 6
REMARK VINA RESULT:    -5.466      2.460      4.567
REMARK INTER + INTRA:          -5.466
REMARK INTER:                  -5.466
REMARK INTRA:                   0.000
REMARK UNBOUND:                 0.000
REMARK SMILES c1ccc2ccccc2c1
REMARK SMILES IDX 2 1 1 2 10 3 9 4 8 5 7 6 6 7 5 8 4 9 3 10
REMARK H PARENT
REMARK Flexibility Score: inf
ROOT
ATOM      1  C   UNL     1     -15.756   6.191  33.172  1.00  0.00     0.001 A 
ATOM      2  C   UNL     1     -15.300   4.871  33.242  1.00  0.00     0.001 A 
ATOM      3  C   UNL     1     -14.054   4.585  33.807  1.00  0.00     0.009 A 
ATOM      4  C   UNL     1     -13.254   5.624  34.309  1.00  0.00    -0.018 A 
ATOM      5  C   UNL     1     -12.001   5.351  34.880  1.00  0.00     0.009 A 
ATOM      6  C   UNL     1     -11.214   6.395  35.375  1.00  0.00     0.001 A 
ATOM      7  C   UNL     1     -11.670   7.715  35.306  1.00  0.00     0.001 A 
ATOM      8  C   UNL     1     -12.916   8.001  34.740  1.00  0.00     0.009 A 
ATOM      9  C   UNL     1     -13.717   6.962  34.239  1.00  0.00    -0.018 A 
ATOM     10  C   UNL     1     -14.969   7.235  33.668  1.00  0.00     0.009 A 
ENDROOT
TORSDOF 0
ENDMDL
MODEL 7
REMARK VINA RESULT:    -5.464      2.427      5.296
REMARK INTER + INTRA:          -5.464
REMARK INTER:                  -5.464
REMARK INTRA:                   0.000
REMARK UNBOUND:                 0.000
REMARK SMILES c1ccc2ccccc2c1
REMARK SMILES IDX 2 1 1 2 10 3 9 4 8 5 7 6 6 7 5 8 4 9 3 10
REMARK H PARENT
REMARK Flexibility Score: inf
ROOT
ATOM      1  C   UNL     1     -11.211   6.537  35.415  1.00  0.00     0.001 A 
ATOM      2  C   UNL     1     -11.731   7.833  35.347  1.00  0.00     0.001 A 
ATOM      3  C   UNL     1     -12.989   8.058  34.778  1.00  0.00     0.009 A 
ATOM      4  C   UNL     1     -13.735   6.981  34.272  1.00  0.00    -0.018 A 
ATOM      5  C   UNL     1     -14.999   7.193  33.699  1.00  0.00     0.009 A 
ATOM      6  C   UNL     1     -15.732   6.113  33.199  1.00  0.00     0.001 A 
ATOM      7  C   UNL     1     -15.211   4.817  33.267  1.00  0.00     0.001 A 
ATOM      8  C   UNL     1     -13.954   4.592  33.836  1.00  0.00     0.009 A 
ATOM      9  C   UNL     1     -13.207   5.668  34.342  1.00  0.00    -0.018 A 
ATOM     10  C   UNL     1     -11.944   5.456  34.915  1.00  0.00     0.009 A 
ENDROOT
TORSDOF 0
ENDMDL
MODEL 8
REMARK VINA RESULT:    -5.450      2.470      4.133
REMARK INTER + INTRA:          -5.450
REMARK INTER:                  -5.450
REMARK INTRA:                   0.000
REMARK UNBOUND:                 0.000
REMARK SMILES c1ccc2ccccc2c1
REMARK SMILES IDX 2 1 1 2 10 3 9 4 8 5 7 6 6 7 5 8 4 9 3 10
REMARK H PARENT
REMARK Flexibility Score: inf
ROOT
ATOM      1  C   UNL     1     -15.324   4.872  33.267  1.00  0.00     0.001 A 
ATOM      2  C   UNL     1     -15.745   6.202  33.178  1.00  0.00     0.001 A 
ATOM      3  C   UNL     1     -14.933   7.231  33.663  1.00  0.00     0.009 A 
ATOM      4  C   UNL     1     -13.689   6.933  34.243  1.00  0.00    -0.018 A 
ATOM      5  C   UNL     1     -12.864   7.957  34.734  1.00  0.00     0.009 A 
ATOM      6  C   UNL     1     -11.629   7.646  35.309  1.00  0.00     0.001 A 
ATOM      7  C   UNL     1     -11.208   6.316  35.399  1.00  0.00     0.001 A 
ATOM      8  C   UNL     1     -12.020   5.287  34.913  1.00  0.00     0.009 A 
ATOM      9  C   UNL     1     -13.263   5.585  34.333  1.00  0.00    -0.018 A 
ATOM     10  C   UNL     1     -14.088   4.561  33.842  1.00  0.00     0.009 A 
ENDROOT
TORSDOF 0
ENDMDL
MODEL 9
REMARK VINA RESULT:    -5.132      1.355      4.166
REMARK INTER + INTRA:          -5.132
REMARK INTER:                  -5.132
REMARK INTRA:                   0.000
REMARK UNBOUND:                 0.000
REMARK SMILES c1ccc2ccccc2c1
REMARK SMILES IDX 2 1 1 2 10 3 9 4 8 5 7 6 6 7 5 8 4 9 3 10
REMARK H PARENT
REMARK Flexibility Score: inf
ROOT
ATOM      1  C   UNL     1     -10.128   8.387  35.738  1.00  0.00     0.001 A 
ATOM      2  C   UNL     1     -11.120   9.360  35.585  1.00  0.00     0.001 A 
ATOM      3  C   UNL     1     -12.393   9.002  35.132  1.00  0.00     0.009 A 
ATOM      4  C   UNL     1     -12.682   7.662  34.828  1.00  0.00    -0.018 A 
ATOM      5  C   UNL     1     -13.956   7.289  34.373  1.00  0.00     0.009 A 
ATOM      6  C   UNL     1     -14.229   5.952  34.074  1.00  0.00     0.001 A 
ATOM      7  C   UNL     1     -13.237   4.978  34.227  1.00  0.00     0.001 A 
ATOM      8  C   UNL     1     -11.964   5.336  34.680  1.00  0.00     0.009 A 
ATOM      9  C   UNL     1     -11.675   6.677  34.984  1.00  0.00    -0.018 A 
ATOM     10  C   UNL     1     -10.401   7.049  35.439  1.00  0.00     0.009 A 
ENDROOT
TORSDOF 0
ENDMDL
