MODEL 1
REMARK VINA RESULT:    -3.978      0.000      0.000
REMARK INTER + INTRA:          -2.179
REMARK INTER:                  -4.908
REMARK INTRA:                   2.729
REMARK UNBOUND:                 2.729
REMARK SMILES C=C1CC[C@@H]2[C@@H]([C@@H]3[C@@H](C)CC[C@@H]13)C2(C)C
REMARK SMILES IDX 3 1 2 2 1 3 12 4 9 5 8 6 10 7 7 8 11 9 4 11 5 12 6 13 13 14
REMARK SMILES IDX 14 16 15 17
REMARK H PARENT
REMARK Flexibility Score: 80.00
ROOT
ATOM      1  C   UNL     1     133.855 139.905 136.986  1.00  0.00     0.031 C 
ENDROOT
BRANCH   1   2
ATOM      2  C   UNL     1     133.495 138.477 136.565  1.00  0.00    -0.074 C 
ATOM      3  C   UNL     1     133.851 137.441 137.341  1.00  0.00     0.008 C 
BRANCH   2   4
ATOM      4  C   UNL     1     132.950 138.276 135.154  1.00  0.00     0.018 C 
ATOM      5  C   UNL     1     134.128 136.838 131.881  1.00  0.00     0.008 C 
ATOM      6  C   UNL     1     133.319 137.699 132.859  1.00  0.00    -0.010 C 
ATOM      7  C   UNL     1     132.021 136.991 133.334  1.00  0.00     0.004 C 
ATOM      8  C   UNL     1     134.069 137.976 134.157  1.00  0.00     0.003 CG0
ATOM      9  C   UNL     1     131.928 137.185 134.864  1.00  0.00     0.008 C 
ATOM     10  G   UNL     1     135.287 138.944 134.223  1.00  0.00     0.000 G0
ENDBRANCH   2   4
ENDBRANCH   1   2
BRANCH   1  11
ATOM     11  C   UNL     1     135.038 140.515 136.183  1.00  0.00     0.009 C 
BRANCH  11  12
ATOM     12  C   UNL     1     134.787 140.366 134.668  1.00  0.00    -0.001 C 
ATOM     13  C   UNL     1     135.284 138.952 134.236  1.00  0.00     0.002 CG0
ATOM     14  C   UNL     1     135.783 140.222 133.533  1.00  0.00    -0.029 C 
ATOM     15  G   UNL     1     134.058 137.996 134.157  1.00  0.00     0.000 G0
ATOM     16  C   UNL     1     137.225 140.649 133.834  1.00  0.00     0.011 C 
ATOM     17  C   UNL     1     135.266 140.492 132.114  1.00  0.00     0.011 C 
ENDBRANCH  11  12
ENDBRANCH   1  11
TORSDOF 0
ENDMDL
MODEL 2
REMARK VINA RESULT:    -3.812      2.267      4.823
REMARK INTER + INTRA:          -1.975
REMARK INTER:                  -4.656
REMARK INTRA:                   2.682
REMARK UNBOUND:                 2.729
REMARK SMILES C=C1CC[C@@H]2[C@@H]([C@@H]3[C@@H](C)CC[C@@H]13)C2(C)C
REMARK SMILES IDX 3 1 2 2 1 3 12 4 9 5 8 6 10 7 7 8 11 9 4 11 5 12 6 13 13 14
REMARK SMILES IDX 14 16 15 17
REMARK H PARENT
REMARK Flexibility Score: 80.00
ROOT
ATOM      1  C   UNL     1     133.091 139.515 135.445  1.00  0.00     0.031 C 
ENDROOT
BRANCH   1   2
ATOM      2  C   UNL     1     133.985 139.297 136.669  1.00  0.00    -0.074 C 
ATOM      3  C   UNL     1     135.234 139.790 136.684  1.00  0.00     0.008 C 
BRANCH   2   4
ATOM      4  C   UNL     1     133.495 138.316 137.731  1.00  0.00     0.018 C 
ATOM      5  C   UNL     1     134.349 134.859 138.952  1.00  0.00     0.008 C 
ATOM      6  C   UNL     1     133.515 136.117 138.681  1.00  0.00    -0.010 C 
ATOM      7  C   UNL     1     133.604 137.146 139.840  1.00  0.00     0.004 C 
ATOM      8  C   UNL     1     134.009 136.901 137.470  1.00  0.00     0.003 CG0
ATOM      9  C   UNL     1     133.824 138.537 139.202  1.00  0.00     0.008 C 
ATOM     10  G   UNL     1     133.816 136.389 136.013  1.00  0.00     0.000 G0
ENDBRANCH   2   4
ENDBRANCH   1   2
BRANCH   1  11
ATOM     11  C   UNL     1     132.941 138.255 134.547  1.00  0.00     0.009 C 
BRANCH  11  12
ATOM     12  C   UNL     1     132.521 137.040 135.399  1.00  0.00    -0.001 C 
ATOM     13  C   UNL     1     133.814 136.402 135.994  1.00  0.00     0.002 CG0
ATOM     14  C   UNL     1     132.810 135.566 135.188  1.00  0.00    -0.029 C 
ATOM     15  G   UNL     1     133.987 136.901 137.458  1.00  0.00     0.000 G0
ATOM     16  C   UNL     1     133.242 135.152 133.776  1.00  0.00     0.011 C 
ATOM     17  C   UNL     1     131.941 134.567 135.963  1.00  0.00     0.011 C 
ENDBRANCH  11  12
ENDBRANCH   1  11
TORSDOF 0
ENDMDL
MODEL 3
REMARK VINA RESULT:    -3.734      5.603      7.137
REMARK INTER + INTRA:          -1.878
REMARK INTER:                  -4.559
REMARK INTRA:                   2.681
REMARK UNBOUND:                 2.729
REMARK SMILES C=C1CC[C@@H]2[C@@H]([C@@H]3[C@@H](C)CC[C@@H]13)C2(C)C
REMARK SMILES IDX 3 1 2 2 1 3 12 4 9 5 8 6 10 7 7 8 11 9 4 11 5 12 6 13 13 14
REMARK SMILES IDX 14 16 15 17
REMARK H PARENT
REMARK Flexibility Score: 80.00
ROOT
ATOM      1  C   UNL     1     139.420 132.991 135.713  1.00  0.00     0.031 C 
ENDROOT
BRANCH   1   2
ATOM      2  C   UNL     1     138.610 133.259 136.985  1.00  0.00    -0.074 C 
ATOM      3  C   UNL     1     137.386 132.723 137.125  1.00  0.00     0.008 C 
BRANCH   2   4
ATOM      4  C   UNL     1     139.136 134.324 137.943  1.00  0.00     0.018 C 
ATOM      5  C   UNL     1     138.237 137.821 139.004  1.00  0.00     0.008 C 
ATOM      6  C   UNL     1     139.098 136.579 138.750  1.00  0.00    -0.010 C 
ATOM      7  C   UNL     1     139.135 135.626 139.976  1.00  0.00     0.004 C 
ATOM      8  C   UNL     1     138.548 135.700 137.633  1.00  0.00     0.003 CG0
ATOM      9  C   UNL     1     138.925 134.190 139.445  1.00  0.00     0.008 C 
ATOM     10  G   UNL     1     138.614 136.121 136.135  1.00  0.00     0.000 G0
ENDBRANCH   2   4
ENDBRANCH   1   2
BRANCH   1  11
ATOM     11  C   UNL     1     139.463 134.197 134.733  1.00  0.00     0.009 C 
BRANCH  11  12
ATOM     12  C   UNL     1     139.896 135.476 135.480  1.00  0.00    -0.001 C 
ATOM     13  C   UNL     1     138.622 136.118 136.110  1.00  0.00     0.002 CG0
ATOM     14  C   UNL     1     139.553 136.926 135.194  1.00  0.00    -0.029 C 
ATOM     15  G   UNL     1     138.550 135.712 137.610  1.00  0.00     0.000 G0
ATOM     16  C   UNL     1     139.027 137.236 133.787  1.00  0.00     0.011 C 
ATOM     17  C   UNL     1     140.437 137.994 135.850  1.00  0.00     0.011 C 
ENDBRANCH  11  12
ENDBRANCH   1  11
TORSDOF 0
ENDMDL
MODEL 4
REMARK VINA RESULT:    -3.721      2.524      5.351
REMARK INTER + INTRA:          -1.861
REMARK INTER:                  -4.513
REMARK INTRA:                   2.652
REMARK UNBOUND:                 2.729
REMARK SMILES C=C1CC[C@@H]2[C@@H]([C@@H]3[C@@H](C)CC[C@@H]13)C2(C)C
REMARK SMILES IDX 3 1 2 2 1 3 12 4 9 5 8 6 10 7 7 8 11 9 4 11 5 12 6 13 13 14
REMARK SMILES IDX 14 16 15 17
REMARK H PARENT
REMARK Flexibility Score: 80.00
ROOT
ATOM      1  C   UNL     1     132.182 133.996 135.594  1.00  0.00     0.031 C 
ENDROOT
BRANCH   1   2
ATOM      2  C   UNL     1     132.711 135.208 134.822  1.00  0.00    -0.074 C 
ATOM      3  C   UNL     1     133.381 135.029 133.672  1.00  0.00     0.008 C 
BRANCH   2   4
ATOM      4  C   UNL     1     132.658 136.564 135.520  1.00  0.00     0.018 C 
ATOM      5  C   UNL     1     135.062 138.991 137.099  1.00  0.00     0.008 C 
ATOM      6  C   UNL     1     133.741 138.272 136.803  1.00  0.00    -0.010 C 
ATOM      7  C   UNL     1     132.937 138.957 135.666  1.00  0.00     0.004 C 
ATOM      8  C   UNL     1     133.948 136.852 136.288  1.00  0.00     0.003 CG0
ATOM      9  C   UNL     1     132.440 137.841 134.720  1.00  0.00     0.008 C 
ATOM     10  G   UNL     1     134.438 135.696 137.208  1.00  0.00     0.000 G0
ENDBRANCH   2   4
ENDBRANCH   1   2
BRANCH   1  11
ATOM     11  C   UNL     1     133.021 133.641 136.853  1.00  0.00     0.009 C 
BRANCH  11  12
ATOM     12  C   UNL     1     133.206 134.889 137.741  1.00  0.00    -0.001 C 
ATOM     13  C   UNL     1     134.442 135.677 137.209  1.00  0.00     0.002 CG0
ATOM     14  C   UNL     1     134.341 135.248 138.680  1.00  0.00    -0.029 C 
ATOM     15  G   UNL     1     133.939 136.845 136.312  1.00  0.00     0.000 G0
ATOM     16  C   UNL     1     135.252 134.094 139.119  1.00  0.00     0.011 C 
ATOM     17  C   UNL     1     134.068 136.344 139.718  1.00  0.00     0.011 C 
ENDBRANCH  11  12
ENDBRANCH   1  11
TORSDOF 0
ENDMDL
MODEL 5
REMARK VINA RESULT:    -3.680      3.627      4.953
REMARK INTER + INTRA:          -1.811
REMARK INTER:                  -4.482
REMARK INTRA:                   2.671
REMARK UNBOUND:                 2.729
REMARK SMILES C=C1CC[C@@H]2[C@@H]([C@@H]3[C@@H](C)CC[C@@H]13)C2(C)C
REMARK SMILES IDX 3 1 2 2 1 3 12 4 9 5 8 6 10 7 7 8 11 9 4 11 5 12 6 13 13 14
REMARK SMILES IDX 14 16 15 17
REMARK H PARENT
REMARK Flexibility Score: 80.00
ROOT
ATOM      1  C   UNL     1     140.696 137.924 135.911  1.00  0.00     0.031 C 
ENDROOT
BRANCH   1   2
ATOM      2  C   UNL     1     140.037 136.582 135.580  1.00  0.00    -0.074 C 
ATOM      3  C   UNL     1     140.550 135.805 134.611  1.00  0.00     0.008 C 
BRANCH   2   4
ATOM      4  C   UNL     1     138.677 136.292 136.208  1.00  0.00     0.018 C 
ATOM      5  C   UNL     1     135.077 136.117 135.125  1.00  0.00     0.008 C 
ATOM      6  C   UNL     1     136.287 136.284 136.051  1.00  0.00    -0.010 C 
ATOM      7  C   UNL     1     136.736 134.940 136.685  1.00  0.00     0.004 C 
ATOM      8  C   UNL     1     137.532 136.762 135.312  1.00  0.00     0.003 CG0
ATOM      9  C   UNL     1     138.275 134.867 136.564  1.00  0.00     0.008 C 
ATOM     10  G   UNL     1     137.672 138.215 134.773  1.00  0.00     0.000 G0
ENDBRANCH   2   4
ENDBRANCH   1   2
BRANCH   1  11
ATOM     11  C   UNL     1     139.924 139.154 135.357  1.00  0.00     0.009 C 
BRANCH  11  12
ATOM     12  C   UNL     1     138.443 139.091 135.783  1.00  0.00    -0.001 C 
ATOM     13  C   UNL     1     137.681 138.215 134.742  1.00  0.00     0.002 CG0
ATOM     14  C   UNL     1     137.212 139.636 135.084  1.00  0.00    -0.029 C 
ATOM     15  G   UNL     1     137.525 136.778 135.320  1.00  0.00     0.000 G0
ATOM     16  C   UNL     1     137.454 140.711 134.017  1.00  0.00     0.011 C 
ATOM     17  C   UNL     1     135.936 139.774 135.925  1.00  0.00     0.011 C 
ENDBRANCH  11  12
ENDBRANCH   1  11
TORSDOF 0
ENDMDL
MODEL 6
REMARK VINA RESULT:    -3.645      1.934      5.079
REMARK INTER + INTRA:          -1.768
REMARK INTER:                  -4.474
REMARK INTRA:                   2.705
REMARK UNBOUND:                 2.729
REMARK SMILES C=C1CC[C@@H]2[C@@H]([C@@H]3[C@@H](C)CC[C@@H]13)C2(C)C
REMARK SMILES IDX 3 1 2 2 1 3 12 4 9 5 8 6 10 7 7 8 11 9 4 11 5 12 6 13 13 14
REMARK SMILES IDX 14 16 15 17
REMARK H PARENT
REMARK Flexibility Score: 80.00
ROOT
ATOM      1  C   UNL     1     132.175 136.993 133.317  1.00  0.00     0.031 C 
ENDROOT
BRANCH   1   2
ATOM      2  C   UNL     1     133.259 137.990 133.738  1.00  0.00    -0.074 C 
ATOM      3  C   UNL     1     134.262 138.285 132.895  1.00  0.00     0.008 C 
BRANCH   2   4
ATOM      4  C   UNL     1     133.281 138.429 135.200  1.00  0.00     0.018 C 
ATOM      5  C   UNL     1     135.387 137.841 138.264  1.00  0.00     0.008 C 
ATOM      6  C   UNL     1     134.158 138.191 137.416  1.00  0.00    -0.010 C 
ATOM      7  C   UNL     1     134.082 139.706 137.084  1.00  0.00     0.004 C 
ATOM      8  C   UNL     1     134.182 137.528 136.044  1.00  0.00     0.003 CG0
ATOM      9  C   UNL     1     133.739 139.830 135.583  1.00  0.00     0.008 C 
ATOM     10  G   UNL     1     133.947 136.001 135.855  1.00  0.00     0.000 G0
ENDBRANCH   2   4
ENDBRANCH   1   2
BRANCH   1  11
ATOM     11  C   UNL     1     132.325 135.592 133.973  1.00  0.00     0.009 C 
BRANCH  11  12
ATOM     12  C   UNL     1     132.461 135.732 135.504  1.00  0.00    -0.001 C 
ATOM     13  C   UNL     1     133.963 135.993 135.830  1.00  0.00     0.002 CG0
ATOM     14  C   UNL     1     133.191 134.845 136.494  1.00  0.00    -0.029 C 
ATOM     15  G   UNL     1     134.168 137.521 136.044  1.00  0.00     0.000 G0
ATOM     16  C   UNL     1     133.530 133.427 136.017  1.00  0.00     0.011 C 
ATOM     17  C   UNL     1     132.825 135.005 137.975  1.00  0.00     0.011 C 
ENDBRANCH  11  12
ENDBRANCH   1  11
TORSDOF 0
ENDMDL
MODEL 7
REMARK VINA RESULT:    -3.579      3.234      5.336
REMARK INTER + INTRA:          -1.686
REMARK INTER:                  -4.370
REMARK INTRA:                   2.684
REMARK UNBOUND:                 2.729
REMARK SMILES C=C1CC[C@@H]2[C@@H]([C@@H]3[C@@H](C)CC[C@@H]13)C2(C)C
REMARK SMILES IDX 3 1 2 2 1 3 12 4 9 5 8 6 10 7 7 8 11 9 4 11 5 12 6 13 13 14
REMARK SMILES IDX 14 16 15 17
REMARK H PARENT
REMARK Flexibility Score: 80.00
ROOT
ATOM      1  C   UNL     1     139.511 138.862 135.014  1.00  0.00     0.031 C 
ENDROOT
BRANCH   1   2
ATOM      2  C   UNL     1     139.332 138.050 136.300  1.00  0.00    -0.074 C 
ATOM      3  C   UNL     1     139.643 136.743 136.317  1.00  0.00     0.008 C 
BRANCH   2   4
ATOM      4  C   UNL     1     138.579 138.712 137.451  1.00  0.00     0.018 C 
ATOM      5  C   UNL     1     135.216 138.434 139.119  1.00  0.00     0.008 C 
ATOM      6  C   UNL     1     136.540 139.056 138.660  1.00  0.00    -0.010 C 
ATOM      7  C   UNL     1     137.683 138.839 139.688  1.00  0.00     0.004 C 
ATOM      8  C   UNL     1     137.081 138.416 137.386  1.00  0.00     0.003 CG0
ATOM      9  C   UNL     1     138.932 138.391 138.897  1.00  0.00     0.008 C 
ATOM     10  G   UNL     1     136.423 138.649 135.995  1.00  0.00     0.000 G0
ENDBRANCH   2   4
ENDBRANCH   1   2
BRANCH   1  11
ATOM     11  C   UNL     1     138.178 139.159 134.271  1.00  0.00     0.009 C 
BRANCH  11  12
ATOM     12  C   UNL     1     137.156 139.787 135.241  1.00  0.00    -0.001 C 
ATOM     13  C   UNL     1     136.425 138.628 135.985  1.00  0.00     0.002 CG0
ATOM     14  C   UNL     1     135.641 139.711 135.231  1.00  0.00    -0.029 C 
ATOM     15  G   UNL     1     137.082 138.443 137.384  1.00  0.00     0.000 G0
ATOM     16  C   UNL     1     134.989 139.287 133.909  1.00  0.00     0.011 C 
ATOM     17  C   UNL     1     134.885 140.749 136.071  1.00  0.00     0.011 C 
ENDBRANCH  11  12
ENDBRANCH   1  11
TORSDOF 0
ENDMDL
MODEL 8
REMARK VINA RESULT:    -3.491      5.059      6.028
REMARK INTER + INTRA:          -1.577
REMARK INTER:                  -4.306
REMARK INTRA:                   2.728
REMARK UNBOUND:                 2.729
REMARK SMILES C=C1CC[C@@H]2[C@@H]([C@@H]3[C@@H](C)CC[C@@H]13)C2(C)C
REMARK SMILES IDX 3 1 2 2 1 3 12 4 9 5 8 6 10 7 7 8 11 9 4 11 5 12 6 13 13 14
REMARK SMILES IDX 14 16 15 17
REMARK H PARENT
REMARK Flexibility Score: 80.00
ROOT
ATOM      1  C   UNL     1     137.745 131.896 135.642  1.00  0.00     0.031 C 
ENDROOT
BRANCH   1   2
ATOM      2  C   UNL     1     136.456 132.610 135.226  1.00  0.00    -0.074 C 
ATOM      3  C   UNL     1     135.778 132.192 134.145  1.00  0.00     0.008 C 
BRANCH   2   4
ATOM      4  C   UNL     1     136.122 133.924 135.927  1.00  0.00     0.018 C 
ATOM      5  C   UNL     1     136.096 137.599 135.111  1.00  0.00     0.008 C 
ATOM      6  C   UNL     1     136.158 136.319 135.953  1.00  0.00    -0.010 C 
ATOM      7  C   UNL     1     134.753 135.850 136.420  1.00  0.00     0.004 C 
ATOM      8  C   UNL     1     136.690 135.125 135.170  1.00  0.00     0.003 CG0
ATOM      9  C   UNL     1     134.675 134.326 136.175  1.00  0.00     0.008 C 
ATOM     10  G   UNL     1     138.187 134.998 134.762  1.00  0.00     0.000 G0
ENDBRANCH   2   4
ENDBRANCH   1   2
BRANCH   1  11
ATOM     11  C   UNL     1     139.039 132.682 135.288  1.00  0.00     0.009 C 
BRANCH  11  12
ATOM     12  C   UNL     1     138.945 134.129 135.815  1.00  0.00    -0.001 C 
ATOM     13  C   UNL     1     138.187 134.979 134.750  1.00  0.00     0.002 CG0
ATOM     14  C   UNL     1     139.569 135.399 135.269  1.00  0.00    -0.029 C 
ATOM     15  G   UNL     1     136.700 135.117 135.188  1.00  0.00     0.000 G0
ATOM     16  C   UNL     1     140.747 135.218 134.303  1.00  0.00     0.011 C 
ATOM     17  C   UNL     1     139.632 136.607 136.213  1.00  0.00     0.011 C 
ENDBRANCH  11  12
ENDBRANCH   1  11
TORSDOF 0
ENDMDL
MODEL 9
REMARK VINA RESULT:    -3.442      5.336      7.026
REMARK INTER + INTRA:          -1.517
REMARK INTER:                  -4.249
REMARK INTRA:                   2.732
REMARK UNBOUND:                 2.729
REMARK SMILES C=C1CC[C@@H]2[C@@H]([C@@H]3[C@@H](C)CC[C@@H]13)C2(C)C
REMARK SMILES IDX 3 1 2 2 1 3 12 4 9 5 8 6 10 7 7 8 11 9 4 11 5 12 6 13 13 14
REMARK SMILES IDX 14 16 15 17
REMARK H PARENT
REMARK Flexibility Score: 80.00
ROOT
ATOM      1  C   UNL     1     139.594 137.037 139.946  1.00  0.00     0.031 C 
ENDROOT
BRANCH   1   2
ATOM      2  C   UNL     1     139.236 137.963 138.780  1.00  0.00    -0.074 C 
ATOM      3  C   UNL     1     138.321 138.931 138.949  1.00  0.00     0.008 C 
BRANCH   2   4
ATOM      4  C   UNL     1     139.766 137.589 137.398  1.00  0.00     0.018 C 
ATOM      5  C   UNL     1     138.417 136.218 134.163  1.00  0.00     0.008 C 
ATOM      6  C   UNL     1     139.428 136.552 135.266  1.00  0.00    -0.010 C 
ATOM      7  C   UNL     1     140.125 137.920 135.034  1.00  0.00     0.004 C 
ATOM      8  C   UNL     1     138.775 136.712 136.634  1.00  0.00     0.003 CG0
ATOM      9  C   UNL     1     140.123 138.670 136.386  1.00  0.00     0.008 C 
ATOM     10  G   UNL     1     138.215 135.501 137.435  1.00  0.00     0.000 G0
ENDBRANCH   2   4
ENDBRANCH   1   2
BRANCH   1  11
ATOM     11  C   UNL     1     138.986 135.612 139.824  1.00  0.00     0.009 C 
BRANCH  11  12
ATOM     12  C   UNL     1     139.314 135.009 138.442  1.00  0.00    -0.001 C 
ATOM     13  C   UNL     1     138.223 135.488 137.438  1.00  0.00     0.002 CG0
ATOM     14  C   UNL     1     138.539 133.997 137.620  1.00  0.00    -0.029 C 
ATOM     15  G   UNL     1     138.783 136.695 136.632  1.00  0.00     0.000 G0
ATOM     16  C   UNL     1     137.495 133.163 138.374  1.00  0.00     0.011 C 
ATOM     17  C   UNL     1     139.296 133.292 136.487  1.00  0.00     0.011 C 
ENDBRANCH  11  12
ENDBRANCH   1  11
TORSDOF 0
ENDMDL
