MODEL 1
REMARK VINA RESULT:    -4.639      0.000      0.000
REMARK INTER + INTRA:          -8.988
REMARK INTER:                  -8.029
REMARK INTRA:                  -0.959
REMARK UNBOUND:                -0.959
REMARK SMILES CCCCCCCCCCCCCCO
REMARK SMILES IDX 8 1 7 2 6 3 5 4 4 5 3 6 2 7 1 8 9 9 10 10 11 11 12 12 13 13
REMARK SMILES IDX 14 14 15 15
REMARK H PARENT 15 16
REMARK Flexibility Score: inf
ROOT
ATOM      1  C   UNL     1      18.796  29.027  29.979  1.00  0.00     0.000 C 
ENDROOT
BRANCH   1   2
ATOM      2  C   UNL     1      17.730  29.197  31.074  1.00  0.00    -0.000 C 
BRANCH   2   3
ATOM      3  C   UNL     1      17.895  30.505  31.861  1.00  0.00    -0.000 C 
BRANCH   3   4
ATOM      4  C   UNL     1      17.041  30.487  33.138  1.00  0.00    -0.000 C 
BRANCH   4   5
ATOM      5  C   UNL     1      17.877  30.280  34.411  1.00  0.00    -0.000 C 
BRANCH   5   6
ATOM      6  C   UNL     1      17.789  28.842  34.949  1.00  0.00    -0.000 C 
BRANCH   6   7
ATOM      7  C   UNL     1      19.155  28.138  34.975  1.00  0.00    -0.003 C 
ATOM      8  C   UNL     1      19.520  27.501  33.635  1.00  0.00     0.004 C 
ENDBRANCH   6   7
ENDBRANCH   5   6
ENDBRANCH   4   5
ENDBRANCH   3   4
ENDBRANCH   2   3
ENDBRANCH   1   2
BRANCH   1   9
ATOM      9  C   UNL     1      18.480  29.843  28.714  1.00  0.00     0.000 C 
BRANCH   9  10
ATOM     10  C   UNL     1      18.408  28.973  27.448  1.00  0.00     0.000 C 
BRANCH  10  11
ATOM     11  C   UNL     1      17.660  27.650  27.684  1.00  0.00     0.000 C 
BRANCH  11  12
ATOM     12  C   UNL     1      18.501  26.421  27.305  1.00  0.00     0.002 C 
BRANCH  12  13
ATOM     13  C   UNL     1      18.739  25.474  28.491  1.00  0.00     0.028 C 
BRANCH  13  14
ATOM     14  C   UNL     1      18.934  24.032  28.013  1.00  0.00     0.156 C 
BRANCH  14  15
ATOM     15  O   UNL     1      20.263  23.829  27.616  1.00  0.00    -0.396 OA
ATOM     16  H   UNL     1      20.822  24.419  28.185  1.00  0.00     0.210 HD
ENDBRANCH  14  15
ENDBRANCH  13  14
ENDBRANCH  12  13
ENDBRANCH  11  12
ENDBRANCH  10  11
ENDBRANCH   9  10
ENDBRANCH   1   9
TORSDOF 13
ENDMDL
MODEL 2
REMARK VINA RESULT:    -4.635      1.874      3.815
REMARK INTER + INTRA:          -8.981
REMARK INTER:                  -7.611
REMARK INTRA:                  -1.370
REMARK UNBOUND:                -0.959
REMARK SMILES CCCCCCCCCCCCCCO
REMARK SMILES IDX 8 1 7 2 6 3 5 4 4 5 3 6 2 7 1 8 9 9 10 10 11 11 12 12 13 13
REMARK SMILES IDX 14 14 15 15
REMARK H PARENT 15 16
REMARK Flexibility Score: inf
ROOT
ATOM      1  C   UNL     1      20.452  27.008  33.246  1.00  0.00     0.000 C 
ENDROOT
BRANCH   1   2
ATOM      2  C   UNL     1      19.661  27.024  34.564  1.00  0.00    -0.000 C 
BRANCH   2   3
ATOM      3  C   UNL     1      20.119  28.141  35.514  1.00  0.00    -0.000 C 
BRANCH   3   4
ATOM      4  C   UNL     1      19.076  29.267  35.576  1.00  0.00    -0.000 C 
BRANCH   4   5
ATOM      5  C   UNL     1      17.758  28.897  34.875  1.00  0.00    -0.000 C 
BRANCH   5   6
ATOM      6  C   UNL     1      16.763  30.069  34.831  1.00  0.00    -0.000 C 
BRANCH   6   7
ATOM      7  C   UNL     1      16.565  30.620  33.410  1.00  0.00    -0.003 C 
ATOM      8  C   UNL     1      17.725  31.498  32.946  1.00  0.00     0.004 C 
ENDBRANCH   6   7
ENDBRANCH   5   6
ENDBRANCH   4   5
ENDBRANCH   3   4
ENDBRANCH   2   3
ENDBRANCH   1   2
BRANCH   1   9
ATOM      9  C   UNL     1      19.538  27.034  32.008  1.00  0.00     0.000 C 
BRANCH   9  10
ATOM     10  C   UNL     1      19.261  28.460  31.504  1.00  0.00     0.000 C 
BRANCH  10  11
ATOM     11  C   UNL     1      18.011  28.538  30.611  1.00  0.00     0.000 C 
BRANCH  11  12
ATOM     12  C   UNL     1      18.272  29.292  29.297  1.00  0.00     0.002 C 
BRANCH  12  13
ATOM     13  C   UNL     1      18.838  28.385  28.194  1.00  0.00     0.028 C 
BRANCH  13  14
ATOM     14  C   UNL     1      17.909  27.197  27.928  1.00  0.00     0.156 C 
BRANCH  14  15
ATOM     15  O   UNL     1      16.818  27.601  27.147  1.00  0.00    -0.396 OA
ATOM     16  H   UNL     1      16.461  28.427  27.565  1.00  0.00     0.210 HD
ENDBRANCH  14  15
ENDBRANCH  13  14
ENDBRANCH  12  13
ENDBRANCH  11  12
ENDBRANCH  10  11
ENDBRANCH   9  10
ENDBRANCH   1   9
TORSDOF 13
ENDMDL
MODEL 3
REMARK VINA RESULT:    -4.564      1.764      2.282
REMARK INTER + INTRA:          -8.858
REMARK INTER:                  -7.671
REMARK INTRA:                  -1.188
REMARK UNBOUND:                -0.959
REMARK SMILES CCCCCCCCCCCCCCO
REMARK SMILES IDX 8 1 7 2 6 3 5 4 4 5 3 6 2 7 1 8 9 9 10 10 11 11 12 12 13 13
REMARK SMILES IDX 14 14 15 15
REMARK H PARENT 15 16
REMARK Flexibility Score: inf
ROOT
ATOM      1  C   UNL     1      18.763  31.190  30.915  1.00  0.00     0.000 C 
ENDROOT
BRANCH   1   2
ATOM      2  C   UNL     1      18.203  32.333  31.777  1.00  0.00    -0.000 C 
BRANCH   2   3
ATOM      3  C   UNL     1      17.656  31.842  33.126  1.00  0.00    -0.000 C 
BRANCH   3   4
ATOM      4  C   UNL     1      17.216  30.373  33.034  1.00  0.00    -0.000 C 
BRANCH   4   5
ATOM      5  C   UNL     1      17.161  29.681  34.406  1.00  0.00    -0.000 C 
BRANCH   5   6
ATOM      6  C   UNL     1      18.288  28.651  34.594  1.00  0.00    -0.000 C 
BRANCH   6   7
ATOM      7  C   UNL     1      18.868  28.163  33.258  1.00  0.00    -0.003 C 
ATOM      8  C   UNL     1      19.813  26.974  33.419  1.00  0.00     0.004 C 
ENDBRANCH   6   7
ENDBRANCH   5   6
ENDBRANCH   4   5
ENDBRANCH   3   4
ENDBRANCH   2   3
ENDBRANCH   1   2
BRANCH   1   9
ATOM      9  C   UNL     1      18.411  31.346  29.425  1.00  0.00     0.000 C 
BRANCH   9  10
ATOM     10  C   UNL     1      18.392  30.004  28.676  1.00  0.00     0.000 C 
BRANCH  10  11
ATOM     11  C   UNL     1      18.859  28.831  29.556  1.00  0.00     0.000 C 
BRANCH  11  12
ATOM     12  C   UNL     1      18.060  27.545  29.296  1.00  0.00     0.002 C 
BRANCH  12  13
ATOM     13  C   UNL     1      18.708  26.647  28.232  1.00  0.00     0.028 C 
BRANCH  13  14
ATOM     14  C   UNL     1      18.098  26.903  26.850  1.00  0.00     0.156 C 
BRANCH  14  15
ATOM     15  O   UNL     1      16.774  27.343  26.980  1.00  0.00    -0.396 OA
ATOM     16  H   UNL     1      16.418  26.930  27.809  1.00  0.00     0.210 HD
ENDBRANCH  14  15
ENDBRANCH  13  14
ENDBRANCH  12  13
ENDBRANCH  11  12
ENDBRANCH  10  11
ENDBRANCH   9  10
ENDBRANCH   1   9
TORSDOF 13
ENDMDL
MODEL 4
REMARK VINA RESULT:    -4.532      1.480      2.603
REMARK INTER + INTRA:          -8.802
REMARK INTER:                  -7.694
REMARK INTRA:                  -1.108
REMARK UNBOUND:                -0.959
REMARK SMILES CCCCCCCCCCCCCCO
REMARK SMILES IDX 8 1 7 2 6 3 5 4 4 5 3 6 2 7 1 8 9 9 10 10 11 11 12 12 13 13
REMARK SMILES IDX 14 14 15 15
REMARK H PARENT 15 16
REMARK Flexibility Score: inf
ROOT
ATOM      1  C   UNL     1      18.230  30.992  31.884  1.00  0.00     0.000 C 
ENDROOT
BRANCH   1   2
ATOM      2  C   UNL     1      17.208  30.411  32.874  1.00  0.00    -0.000 C 
BRANCH   2   3
ATOM      3  C   UNL     1      17.767  30.296  34.300  1.00  0.00    -0.000 C 
BRANCH   3   4
ATOM      4  C   UNL     1      17.848  28.825  34.739  1.00  0.00    -0.000 C 
BRANCH   4   5
ATOM      5  C   UNL     1      19.243  28.434  35.254  1.00  0.00    -0.000 C 
BRANCH   5   6
ATOM      6  C   UNL     1      19.814  27.200  34.535  1.00  0.00    -0.000 C 
BRANCH   6   7
ATOM      7  C   UNL     1      19.550  27.227  33.021  1.00  0.00    -0.003 C 
ATOM      8  C   UNL     1      20.652  27.942  32.239  1.00  0.00     0.004 C 
ENDBRANCH   6   7
ENDBRANCH   5   6
ENDBRANCH   4   5
ENDBRANCH   3   4
ENDBRANCH   2   3
ENDBRANCH   1   2
BRANCH   1   9
ATOM      9  C   UNL     1      18.305  30.190  30.573  1.00  0.00     0.000 C 
BRANCH   9  10
ATOM     10  C   UNL     1      18.410  31.091  29.331  1.00  0.00     0.000 C 
BRANCH  10  11
ATOM     11  C   UNL     1      18.524  30.284  28.026  1.00  0.00     0.000 C 
BRANCH  11  12
ATOM     12  C   UNL     1      18.592  28.769  28.274  1.00  0.00     0.002 C 
BRANCH  12  13
ATOM     13  C   UNL     1      17.579  27.983  27.428  1.00  0.00     0.028 C 
BRANCH  13  14
ATOM     14  C   UNL     1      18.249  26.796  26.729  1.00  0.00     0.156 C 
BRANCH  14  15
ATOM     15  O   UNL     1      19.638  26.983  26.683  1.00  0.00    -0.396 OA
ATOM     16  H   UNL     1      20.048  26.137  27.000  1.00  0.00     0.210 HD
ENDBRANCH  14  15
ENDBRANCH  13  14
ENDBRANCH  12  13
ENDBRANCH  11  12
ENDBRANCH  10  11
ENDBRANCH   9  10
ENDBRANCH   1   9
TORSDOF 13
ENDMDL
MODEL 5
REMARK VINA RESULT:    -4.517      2.511      4.605
REMARK INTER + INTRA:          -8.776
REMARK INTER:                  -7.901
REMARK INTRA:                  -0.876
REMARK UNBOUND:                -0.959
REMARK SMILES CCCCCCCCCCCCCCO
REMARK SMILES IDX 8 1 7 2 6 3 5 4 4 5 3 6 2 7 1 8 9 9 10 10 11 11 12 12 13 13
REMARK SMILES IDX 14 14 15 15
REMARK H PARENT 15 16
REMARK Flexibility Score: inf
ROOT
ATOM      1  C   UNL     1      18.733  28.713  33.648  1.00  0.00     0.000 C 
ENDROOT
BRANCH   1   2
ATOM      2  C   UNL     1      17.955  28.947  34.953  1.00  0.00    -0.000 C 
BRANCH   2   3
ATOM      3  C   UNL     1      16.685  29.785  34.743  1.00  0.00    -0.000 C 
BRANCH   3   4
ATOM      4  C   UNL     1      16.776  31.115  35.507  1.00  0.00    -0.000 C 
BRANCH   4   5
ATOM      5  C   UNL     1      17.216  32.287  34.614  1.00  0.00    -0.000 C 
BRANCH   5   6
ATOM      6  C   UNL     1      16.064  32.844  33.760  1.00  0.00    -0.000 C 
BRANCH   6   7
ATOM      7  C   UNL     1      15.651  34.263  34.183  1.00  0.00    -0.003 C 
ATOM      8  C   UNL     1      14.858  34.998  33.104  1.00  0.00     0.004 C 
ENDBRANCH   6   7
ENDBRANCH   5   6
ENDBRANCH   4   5
ENDBRANCH   3   4
ENDBRANCH   2   3
ENDBRANCH   1   2
BRANCH   1   9
ATOM      9  C   UNL     1      17.988  29.249  32.412  1.00  0.00     0.000 C 
BRANCH   9  10
ATOM     10  C   UNL     1      18.803  30.296  31.636  1.00  0.00     0.000 C 
BRANCH  10  11
ATOM     11  C   UNL     1      18.315  30.468  30.187  1.00  0.00     0.000 C 
BRANCH  11  12
ATOM     12  C   UNL     1      18.226  29.132  29.433  1.00  0.00     0.002 C 
BRANCH  12  13
ATOM     13  C   UNL     1      18.284  29.305  27.908  1.00  0.00     0.028 C 
BRANCH  13  14
ATOM     14  C   UNL     1      18.089  27.964  27.194  1.00  0.00     0.156 C 
BRANCH  14  15
ATOM     15  O   UNL     1      16.729  27.628  27.157  1.00  0.00    -0.396 OA
ATOM     16  H   UNL     1      16.323  28.172  26.433  1.00  0.00     0.210 HD
ENDBRANCH  14  15
ENDBRANCH  13  14
ENDBRANCH  12  13
ENDBRANCH  11  12
ENDBRANCH  10  11
ENDBRANCH   9  10
ENDBRANCH   1   9
TORSDOF 13
ENDMDL
MODEL 6
REMARK VINA RESULT:    -4.491      1.221      2.195
REMARK INTER + INTRA:          -8.733
REMARK INTER:                  -7.152
REMARK INTRA:                  -1.581
REMARK UNBOUND:                -0.959
REMARK SMILES CCCCCCCCCCCCCCO
REMARK SMILES IDX 8 1 7 2 6 3 5 4 4 5 3 6 2 7 1 8 9 9 10 10 11 11 12 12 13 13
REMARK SMILES IDX 14 14 15 15
REMARK H PARENT 15 16
REMARK Flexibility Score: inf
ROOT
ATOM      1  C   UNL     1      18.327  30.181  30.555  1.00  0.00     0.000 C 
ENDROOT
BRANCH   1   2
ATOM      2  C   UNL     1      17.858  28.846  31.158  1.00  0.00    -0.000 C 
BRANCH   2   3
ATOM      3  C   UNL     1      19.009  28.047  31.787  1.00  0.00    -0.000 C 
BRANCH   3   4
ATOM      4  C   UNL     1      19.478  28.701  33.096  1.00  0.00    -0.000 C 
BRANCH   4   5
ATOM      5  C   UNL     1      18.816  28.085  34.340  1.00  0.00    -0.000 C 
BRANCH   5   6
ATOM      6  C   UNL     1      17.669  28.951  34.888  1.00  0.00    -0.000 C 
BRANCH   6   7
ATOM      7  C   UNL     1      17.847  30.441  34.559  1.00  0.00    -0.003 C 
ATOM      8  C   UNL     1      16.625  31.048  33.872  1.00  0.00     0.004 C 
ENDBRANCH   6   7
ENDBRANCH   5   6
ENDBRANCH   4   5
ENDBRANCH   3   4
ENDBRANCH   2   3
ENDBRANCH   1   2
BRANCH   1   9
ATOM      9  C   UNL     1      19.196  29.989  29.299  1.00  0.00     0.000 C 
BRANCH   9  10
ATOM     10  C   UNL     1      18.362  29.837  28.017  1.00  0.00     0.000 C 
BRANCH  10  11
ATOM     11  C   UNL     1      18.644  28.514  27.284  1.00  0.00     0.000 C 
BRANCH  11  12
ATOM     12  C   UNL     1      17.671  27.396  27.691  1.00  0.00     0.002 C 
BRANCH  12  13
ATOM     13  C   UNL     1      18.359  26.264  28.469  1.00  0.00     0.028 C 
BRANCH  13  14
ATOM     14  C   UNL     1      19.882  26.346  28.328  1.00  0.00     0.156 C 
BRANCH  14  15
ATOM     15  O   UNL     1      20.503  25.770  29.445  1.00  0.00    -0.396 OA
ATOM     16  H   UNL     1      21.470  25.979  29.370  1.00  0.00     0.210 HD
ENDBRANCH  14  15
ENDBRANCH  13  14
ENDBRANCH  12  13
ENDBRANCH  11  12
ENDBRANCH  10  11
ENDBRANCH   9  10
ENDBRANCH   1   9
TORSDOF 13
ENDMDL
MODEL 7
REMARK VINA RESULT:    -4.459      2.791      6.688
REMARK INTER + INTRA:          -8.676
REMARK INTER:                  -7.583
REMARK INTRA:                  -1.093
REMARK UNBOUND:                -0.959
REMARK SMILES CCCCCCCCCCCCCCO
REMARK SMILES IDX 8 1 7 2 6 3 5 4 4 5 3 6 2 7 1 8 9 9 10 10 11 11 12 12 13 13
REMARK SMILES IDX 14 14 15 15
REMARK H PARENT 15 16
REMARK Flexibility Score: inf
ROOT
ATOM      1  C   UNL     1      18.041  28.410  30.576  1.00  0.00     0.000 C 
ENDROOT
BRANCH   1   2
ATOM      2  C   UNL     1      18.351  29.555  29.596  1.00  0.00    -0.000 C 
BRANCH   2   3
ATOM      3  C   UNL     1      18.757  29.047  28.205  1.00  0.00    -0.000 C 
BRANCH   3   4
ATOM      4  C   UNL     1      17.605  28.271  27.548  1.00  0.00    -0.000 C 
BRANCH   4   5
ATOM      5  C   UNL     1      18.075  26.986  26.848  1.00  0.00    -0.000 C 
BRANCH   5   6
ATOM      6  C   UNL     1      19.191  26.265  27.623  1.00  0.00    -0.000 C 
BRANCH   6   7
ATOM      7  C   UNL     1      18.648  25.170  28.554  1.00  0.00    -0.003 C 
ATOM      8  C   UNL     1      18.988  23.760  28.074  1.00  0.00     0.004 C 
ENDBRANCH   6   7
ENDBRANCH   5   6
ENDBRANCH   4   5
ENDBRANCH   3   4
ENDBRANCH   2   3
ENDBRANCH   1   2
BRANCH   1   9
ATOM      9  C   UNL     1      19.313  27.755  31.141  1.00  0.00     0.000 C 
BRANCH   9  10
ATOM     10  C   UNL     1      19.783  28.406  32.452  1.00  0.00     0.000 C 
BRANCH  10  11
ATOM     11  C   UNL     1      19.265  27.665  33.697  1.00  0.00     0.000 C 
BRANCH  11  12
ATOM     12  C   UNL     1      18.918  28.621  34.850  1.00  0.00     0.002 C 
BRANCH  12  13
ATOM     13  C   UNL     1      17.463  29.108  34.801  1.00  0.00     0.028 C 
BRANCH  13  14
ATOM     14  C   UNL     1      17.392  30.637  34.851  1.00  0.00     0.156 C 
BRANCH  14  15
ATOM     15  O   UNL     1      18.569  31.193  34.331  1.00  0.00    -0.396 OA
ATOM     16  H   UNL     1      19.294  30.540  34.510  1.00  0.00     0.210 HD
ENDBRANCH  14  15
ENDBRANCH  13  14
ENDBRANCH  12  13
ENDBRANCH  11  12
ENDBRANCH  10  11
ENDBRANCH   9  10
ENDBRANCH   1   9
TORSDOF 13
ENDMDL
MODEL 8
REMARK VINA RESULT:    -4.411      2.798      6.307
REMARK INTER + INTRA:          -8.593
REMARK INTER:                  -7.317
REMARK INTRA:                  -1.276
REMARK UNBOUND:                -0.959
REMARK SMILES CCCCCCCCCCCCCCO
REMARK SMILES IDX 8 1 7 2 6 3 5 4 4 5 3 6 2 7 1 8 9 9 10 10 11 11 12 12 13 13
REMARK SMILES IDX 14 14 15 15
REMARK H PARENT 15 16
REMARK Flexibility Score: inf
ROOT
ATOM      1  C   UNL     1      18.949  30.525  30.609  1.00  0.00     0.000 C 
ENDROOT
BRANCH   1   2
ATOM      2  C   UNL     1      18.327  31.541  29.637  1.00  0.00    -0.000 C 
BRANCH   2   3
ATOM      3  C   UNL     1      18.602  31.195  28.166  1.00  0.00    -0.000 C 
BRANCH   3   4
ATOM      4  C   UNL     1      19.775  30.211  28.046  1.00  0.00    -0.000 C 
BRANCH   4   5
ATOM      5  C   UNL     1      19.422  28.961  27.223  1.00  0.00    -0.000 C 
BRANCH   5   6
ATOM      6  C   UNL     1      17.947  28.552  27.372  1.00  0.00    -0.000 C 
BRANCH   6   7
ATOM      7  C   UNL     1      17.743  27.034  27.249  1.00  0.00    -0.003 C 
ATOM      8  C   UNL     1      18.457  26.247  28.347  1.00  0.00     0.004 C 
ENDBRANCH   6   7
ENDBRANCH   5   6
ENDBRANCH   4   5
ENDBRANCH   3   4
ENDBRANCH   2   3
ENDBRANCH   1   2
BRANCH   1   9
ATOM      9  C   UNL     1      17.991  29.371  30.952  1.00  0.00     0.000 C 
BRANCH   9  10
ATOM     10  C   UNL     1      18.724  28.132  31.494  1.00  0.00     0.000 C 
BRANCH  10  11
ATOM     11  C   UNL     1      19.625  28.460  32.697  1.00  0.00     0.000 C 
BRANCH  11  12
ATOM     12  C   UNL     1      19.153  27.777  33.990  1.00  0.00     0.002 C 
BRANCH  12  13
ATOM     13  C   UNL     1      18.861  28.777  35.118  1.00  0.00     0.028 C 
BRANCH  13  14
ATOM     14  C   UNL     1      17.805  29.799  34.687  1.00  0.00     0.156 C 
BRANCH  14  15
ATOM     15  O   UNL     1      16.519  29.308  34.953  1.00  0.00    -0.396 OA
ATOM     16  H   UNL     1      15.933  30.099  35.075  1.00  0.00     0.210 HD
ENDBRANCH  14  15
ENDBRANCH  13  14
ENDBRANCH  12  13
ENDBRANCH  11  12
ENDBRANCH  10  11
ENDBRANCH   9  10
ENDBRANCH   1   9
TORSDOF 13
ENDMDL
MODEL 9
REMARK VINA RESULT:    -4.408      3.705      7.326
REMARK INTER + INTRA:          -8.588
REMARK INTER:                  -7.536
REMARK INTRA:                  -1.052
REMARK UNBOUND:                -0.959
REMARK SMILES CCCCCCCCCCCCCCO
REMARK SMILES IDX 8 1 7 2 6 3 5 4 4 5 3 6 2 7 1 8 9 9 10 10 11 11 12 12 13 13
REMARK SMILES IDX 14 14 15 15
REMARK H PARENT 15 16
REMARK Flexibility Score: inf
ROOT
ATOM      1  C   UNL     1      18.926  28.492  32.146  1.00  0.00     0.000 C 
ENDROOT
BRANCH   1   2
ATOM      2  C   UNL     1      17.993  28.890  30.991  1.00  0.00    -0.000 C 
BRANCH   2   3
ATOM      3  C   UNL     1      18.349  30.258  30.389  1.00  0.00    -0.000 C 
BRANCH   3   4
ATOM      4  C   UNL     1      18.378  30.189  28.854  1.00  0.00    -0.000 C 
BRANCH   4   5
ATOM      5  C   UNL     1      18.907  28.844  28.328  1.00  0.00    -0.000 C 
BRANCH   5   6
ATOM      6  C   UNL     1      17.988  28.223  27.263  1.00  0.00    -0.000 C 
BRANCH   6   7
ATOM      7  C   UNL     1      18.112  26.693  27.199  1.00  0.00    -0.003 C 
ATOM      8  C   UNL     1      18.520  26.074  28.535  1.00  0.00     0.004 C 
ENDBRANCH   6   7
ENDBRANCH   5   6
ENDBRANCH   4   5
ENDBRANCH   3   4
ENDBRANCH   2   3
ENDBRANCH   1   2
BRANCH   1   9
ATOM      9  C   UNL     1      18.865  29.480  33.324  1.00  0.00     0.000 C 
BRANCH   9  10
ATOM     10  C   UNL     1      18.105  28.913  34.535  1.00  0.00     0.000 C 
BRANCH  10  11
ATOM     11  C   UNL     1      16.765  29.629  34.777  1.00  0.00     0.000 C 
BRANCH  11  12
ATOM     12  C   UNL     1      16.570  30.843  33.856  1.00  0.00     0.002 C 
BRANCH  12  13
ATOM     13  C   UNL     1      16.559  32.174  34.621  1.00  0.00     0.028 C 
BRANCH  13  14
ATOM     14  C   UNL     1      16.212  33.341  33.691  1.00  0.00     0.156 C 
BRANCH  14  15
ATOM     15  O   UNL     1      15.422  34.281  34.368  1.00  0.00    -0.396 OA
ATOM     16  H   UNL     1      14.504  34.195  34.001  1.00  0.00     0.210 HD
ENDBRANCH  14  15
ENDBRANCH  13  14
ENDBRANCH  12  13
ENDBRANCH  11  12
ENDBRANCH  10  11
ENDBRANCH   9  10
ENDBRANCH   1   9
TORSDOF 13
ENDMDL
