MODEL 1
REMARK VINA RESULT:    -6.928      0.000      0.000
REMARK INTER + INTRA:          -8.432
REMARK INTER:                  -8.143
REMARK INTRA:                  -0.289
REMARK UNBOUND:                -0.289
REMARK SMILES O=c1cc(-c2ccc(O)c(O)c2)oc2cc(O)cc(O)c12
REMARK SMILES IDX 4 1 3 2 2 3 1 4 21 5 19 6 18 7 16 8 15 9 14 10 13 11 5 12
REMARK SMILES IDX 6 13 7 14 8 15 12 16 10 17 9 18 11 20 20 22 17 24
REMARK H PARENT 9 19 11 21 20 23 17 25
REMARK Flexibility Score: inf
ROOT
ATOM      1  C   UNL     1     -28.869 -47.623  23.546  1.00  0.00     0.138 A 
ATOM      2  C   UNL     1     -27.605 -47.083  23.814  1.00  0.00     0.100 A 
ATOM      3  C   UNL     1     -26.499 -47.930  23.911  1.00  0.00     0.197 A 
ATOM      4  O   UNL     1     -25.367 -47.410  24.089  1.00  0.00    -0.289 OA
ATOM      5  C   UNL     1     -26.669 -49.327  23.768  1.00  0.00     0.107 A 
ATOM      6  C   UNL     1     -25.622 -50.290  23.888  1.00  0.00     0.134 A 
ATOM      7  C   UNL     1     -25.888 -51.636  23.613  1.00  0.00     0.093 A 
ATOM      8  C   UNL     1     -27.176 -52.064  23.282  1.00  0.00     0.123 A 
ATOM      9  C   UNL     1     -28.217 -51.139  23.216  1.00  0.00     0.094 A 
ATOM     10  C   UNL     1     -27.976 -49.784  23.451  1.00  0.00     0.146 A 
ATOM     11  O   UNL     1     -28.993 -48.933  23.363  1.00  0.00    -0.456 OA
ENDROOT
BRANCH   1  12
ATOM     12  C   UNL     1     -30.079 -46.768  23.435  1.00  0.00     0.021 A 
ATOM     13  C   UNL     1     -31.371 -47.288  23.627  1.00  0.00     0.016 A 
ATOM     14  C   UNL     1     -32.490 -46.462  23.506  1.00  0.00     0.051 A 
ATOM     15  C   UNL     1     -32.350 -45.108  23.185  1.00  0.00     0.157 A 
ATOM     16  C   UNL     1     -29.939 -45.410  23.098  1.00  0.00     0.062 A 
ATOM     17  C   UNL     1     -31.057 -44.575  22.976  1.00  0.00     0.158 A 
BRANCH  15  18
ATOM     18  O   UNL     1     -33.510 -44.337  23.083  1.00  0.00    -0.504 OA
ATOM     19  H   UNL     1     -34.181 -44.424  22.334  1.00  0.00     0.293 HD
ENDBRANCH  15  18
BRANCH  17  20
ATOM     20  O   UNL     1     -30.837 -43.236  22.648  1.00  0.00    -0.504 OA
ATOM     21  H   UNL     1     -30.681 -42.506  23.329  1.00  0.00     0.293 HD
ENDBRANCH  17  20
ENDBRANCH   1  12
BRANCH   6  22
ATOM     22  O   UNL     1     -24.320 -49.980  24.295  1.00  0.00    -0.507 OA
ATOM     23  H   UNL     1     -23.937 -49.049  24.346  1.00  0.00     0.293 HD
ENDBRANCH   6  22
BRANCH   8  24
ATOM     24  O   UNL     1     -27.435 -53.408  23.025  1.00  0.00    -0.508 OA
ATOM     25  H   UNL     1     -28.258 -53.700  22.510  1.00  0.00     0.293 HD
ENDBRANCH   8  24
TORSDOF 5
ENDMDL
MODEL 2
REMARK VINA RESULT:    -6.858      1.321      2.923
REMARK INTER + INTRA:          -8.350
REMARK INTER:                  -8.046
REMARK INTRA:                  -0.303
REMARK UNBOUND:                -0.289
REMARK SMILES O=c1cc(-c2ccc(O)c(O)c2)oc2cc(O)cc(O)c12
REMARK SMILES IDX 4 1 3 2 2 3 1 4 21 5 19 6 18 7 16 8 15 9 14 10 13 11 5 12
REMARK SMILES IDX 6 13 7 14 8 15 12 16 10 17 9 18 11 20 20 22 17 24
REMARK H PARENT 9 19 11 21 20 23 17 25
REMARK Flexibility Score: inf
ROOT
ATOM      1  C   UNL     1     -30.339 -47.802  23.038  1.00  0.00     0.138 A 
ATOM      2  C   UNL     1     -31.056 -48.964  22.728  1.00  0.00     0.100 A 
ATOM      3  C   UNL     1     -30.402 -50.198  22.719  1.00  0.00     0.197 A 
ATOM      4  O   UNL     1     -31.086 -51.231  22.499  1.00  0.00    -0.289 OA
ATOM      5  C   UNL     1     -29.015 -50.259  22.991  1.00  0.00     0.107 A 
ATOM      6  C   UNL     1     -28.235 -51.455  22.969  1.00  0.00     0.134 A 
ATOM      7  C   UNL     1     -26.894 -51.411  23.369  1.00  0.00     0.093 A 
ATOM      8  C   UNL     1     -26.288 -50.205  23.731  1.00  0.00     0.123 A 
ATOM      9  C   UNL     1     -27.028 -49.024  23.703  1.00  0.00     0.094 A 
ATOM     10  C   UNL     1     -28.376 -49.040  23.343  1.00  0.00     0.146 A 
ATOM     11  O   UNL     1     -29.048 -47.894  23.343  1.00  0.00    -0.456 OA
ENDROOT
BRANCH   1  12
ATOM     12  C   UNL     1     -30.985 -46.464  23.061  1.00  0.00     0.021 A 
ATOM     13  C   UNL     1     -32.330 -46.300  23.434  1.00  0.00     0.016 A 
ATOM     14  C   UNL     1     -32.913 -45.031  23.437  1.00  0.00     0.051 A 
ATOM     15  C   UNL     1     -32.176 -43.904  23.062  1.00  0.00     0.157 A 
ATOM     16  C   UNL     1     -30.248 -45.333  22.670  1.00  0.00     0.062 A 
ATOM     17  C   UNL     1     -30.825 -44.057  22.671  1.00  0.00     0.158 A 
BRANCH  15  18
ATOM     18  O   UNL     1     -32.818 -42.664  23.089  1.00  0.00    -0.504 OA
ATOM     19  H   UNL     1     -33.483 -42.358  22.394  1.00  0.00     0.293 HD
ENDBRANCH  15  18
BRANCH  17  20
ATOM     20  O   UNL     1     -30.027 -42.980  22.280  1.00  0.00    -0.504 OA
ATOM     21  H   UNL     1     -30.312 -42.013  22.344  1.00  0.00     0.293 HD
ENDBRANCH  17  20
ENDBRANCH   1  12
BRANCH   6  22
ATOM     22  O   UNL     1     -28.720 -52.696  22.543  1.00  0.00    -0.507 OA
ATOM     23  H   UNL     1     -29.619 -52.847  22.113  1.00  0.00     0.293 HD
ENDBRANCH   6  22
BRANCH   8  24
ATOM     24  O   UNL     1     -24.949 -50.168  24.113  1.00  0.00    -0.508 OA
ATOM     25  H   UNL     1     -24.653 -50.467  25.035  1.00  0.00     0.293 HD
ENDBRANCH   8  24
TORSDOF 5
ENDMDL
MODEL 3
REMARK VINA RESULT:    -6.842     11.293     13.250
REMARK INTER + INTRA:          -8.331
REMARK INTER:                  -8.025
REMARK INTRA:                  -0.306
REMARK UNBOUND:                -0.289
REMARK SMILES O=c1cc(-c2ccc(O)c(O)c2)oc2cc(O)cc(O)c12
REMARK SMILES IDX 4 1 3 2 2 3 1 4 21 5 19 6 18 7 16 8 15 9 14 10 13 11 5 12
REMARK SMILES IDX 6 13 7 14 8 15 12 16 10 17 9 18 11 20 20 22 17 24
REMARK H PARENT 9 19 11 21 20 23 17 25
REMARK Flexibility Score: inf
ROOT
ATOM      1  C   UNL     1     -31.117 -47.429  34.368  1.00  0.00     0.138 A 
ATOM      2  C   UNL     1     -31.527 -46.294  33.658  1.00  0.00     0.100 A 
ATOM      3  C   UNL     1     -32.883 -46.096  33.395  1.00  0.00     0.197 A 
ATOM      4  O   UNL     1     -33.227 -45.036  32.811  1.00  0.00    -0.289 OA
ATOM      5  C   UNL     1     -33.829 -47.059  33.820  1.00  0.00     0.107 A 
ATOM      6  C   UNL     1     -35.233 -46.984  33.573  1.00  0.00     0.134 A 
ATOM      7  C   UNL     1     -36.086 -47.937  34.142  1.00  0.00     0.093 A 
ATOM      8  C   UNL     1     -35.580 -48.996  34.900  1.00  0.00     0.123 A 
ATOM      9  C   UNL     1     -34.206 -49.108  35.101  1.00  0.00     0.094 A 
ATOM     10  C   UNL     1     -33.332 -48.155  34.575  1.00  0.00     0.146 A 
ATOM     11  O   UNL     1     -32.031 -48.291  34.803  1.00  0.00    -0.456 OA
ENDROOT
BRANCH   1  12
ATOM     12  C   UNL     1     -29.686 -47.689  34.673  1.00  0.00     0.021 A 
ATOM     13  C   UNL     1     -28.660 -47.279  33.805  1.00  0.00     0.016 A 
ATOM     14  C   UNL     1     -27.324 -47.547  34.113  1.00  0.00     0.051 A 
ATOM     15  C   UNL     1     -26.983 -48.231  35.284  1.00  0.00     0.157 A 
ATOM     16  C   UNL     1     -29.344 -48.390  35.843  1.00  0.00     0.062 A 
ATOM     17  C   UNL     1     -28.007 -48.660  36.160  1.00  0.00     0.158 A 
BRANCH  15  18
ATOM     18  O   UNL     1     -25.629 -48.463  35.534  1.00  0.00    -0.504 OA
ATOM     19  H   UNL     1     -25.191 -48.334  36.434  1.00  0.00     0.293 HD
ENDBRANCH  15  18
BRANCH  17  20
ATOM     20  O   UNL     1     -27.745 -49.353  37.344  1.00  0.00    -0.504 OA
ATOM     21  H   UNL     1     -27.906 -48.975  38.266  1.00  0.00     0.293 HD
ENDBRANCH  17  20
ENDBRANCH   1  12
BRANCH   6  22
ATOM     22  O   UNL     1     -35.832 -46.015  32.761  1.00  0.00    -0.507 OA
ATOM     23  H   UNL     1     -35.333 -45.375  32.162  1.00  0.00     0.293 HD
ENDBRANCH   6  22
BRANCH   8  24
ATOM     24  O   UNL     1     -36.435 -49.949  35.450  1.00  0.00    -0.508 OA
ATOM     25  H   UNL     1     -36.077 -50.771  35.922  1.00  0.00     0.293 HD
ENDBRANCH   8  24
TORSDOF 5
ENDMDL
MODEL 4
REMARK VINA RESULT:    -6.827      8.509     11.001
REMARK INTER + INTRA:          -8.313
REMARK INTER:                  -8.020
REMARK INTRA:                  -0.294
REMARK UNBOUND:                -0.289
REMARK SMILES O=c1cc(-c2ccc(O)c(O)c2)oc2cc(O)cc(O)c12
REMARK SMILES IDX 4 1 3 2 2 3 1 4 21 5 19 6 18 7 16 8 15 9 14 10 13 11 5 12
REMARK SMILES IDX 6 13 7 14 8 15 12 16 10 17 9 18 11 20 20 22 17 24
REMARK H PARENT 9 19 11 21 20 23 17 25
REMARK Flexibility Score: inf
ROOT
ATOM      1  C   UNL     1     -34.494 -46.114  31.236  1.00  0.00     0.138 A 
ATOM      2  C   UNL     1     -35.418 -45.178  30.753  1.00  0.00     0.100 A 
ATOM      3  C   UNL     1     -35.099 -44.408  29.633  1.00  0.00     0.197 A 
ATOM      4  O   UNL     1     -35.974 -43.622  29.184  1.00  0.00    -0.289 OA
ATOM      5  C   UNL     1     -33.835 -44.556  29.015  1.00  0.00     0.107 A 
ATOM      6  C   UNL     1     -33.384 -43.797  27.893  1.00  0.00     0.134 A 
ATOM      7  C   UNL     1     -32.159 -44.111  27.295  1.00  0.00     0.093 A 
ATOM      8  C   UNL     1     -31.339 -45.117  27.814  1.00  0.00     0.123 A 
ATOM      9  C   UNL     1     -31.746 -45.827  28.941  1.00  0.00     0.094 A 
ATOM     10  C   UNL     1     -32.979 -45.561  29.540  1.00  0.00     0.146 A 
ATOM     11  O   UNL     1     -33.335 -46.271  30.605  1.00  0.00    -0.456 OA
ENDROOT
BRANCH   1  12
ATOM     12  C   UNL     1     -34.781 -46.957  32.425  1.00  0.00     0.021 A 
ATOM     13  C   UNL     1     -33.991 -48.074  32.746  1.00  0.00     0.016 A 
ATOM     14  C   UNL     1     -34.291 -48.854  33.865  1.00  0.00     0.051 A 
ATOM     15  C   UNL     1     -35.384 -48.546  34.681  1.00  0.00     0.157 A 
ATOM     16  C   UNL     1     -35.889 -46.655  33.237  1.00  0.00     0.062 A 
ATOM     17  C   UNL     1     -36.196 -47.432  34.361  1.00  0.00     0.158 A 
BRANCH  15  18
ATOM     18  O   UNL     1     -35.627 -49.365  35.785  1.00  0.00    -0.504 OA
ATOM     19  H   UNL     1     -35.450 -49.091  36.740  1.00  0.00     0.293 HD
ENDBRANCH  15  18
BRANCH  17  20
ATOM     20  O   UNL     1     -37.306 -47.065  35.124  1.00  0.00    -0.504 OA
ATOM     21  H   UNL     1     -37.925 -46.302  34.889  1.00  0.00     0.293 HD
ENDBRANCH  17  20
ENDBRANCH   1  12
BRANCH   6  22
ATOM     22  O   UNL     1     -34.087 -42.717  27.349  1.00  0.00    -0.507 OA
ATOM     23  H   UNL     1     -34.828 -42.217  27.815  1.00  0.00     0.293 HD
ENDBRANCH   6  22
BRANCH   8  24
ATOM     24  O   UNL     1     -30.114 -45.413  27.221  1.00  0.00    -0.508 OA
ATOM     25  H   UNL     1     -29.547 -46.190  27.538  1.00  0.00     0.293 HD
ENDBRANCH   8  24
TORSDOF 5
ENDMDL
MODEL 5
REMARK VINA RESULT:    -6.825      2.392      3.025
REMARK INTER + INTRA:          -8.311
REMARK INTER:                  -8.026
REMARK INTRA:                  -0.285
REMARK UNBOUND:                -0.289
REMARK SMILES O=c1cc(-c2ccc(O)c(O)c2)oc2cc(O)cc(O)c12
REMARK SMILES IDX 4 1 3 2 2 3 1 4 21 5 19 6 18 7 16 8 15 9 14 10 13 11 5 12
REMARK SMILES IDX 6 13 7 14 8 15 12 16 10 17 9 18 11 20 20 22 17 24
REMARK H PARENT 9 19 11 21 20 23 17 25
REMARK Flexibility Score: inf
ROOT
ATOM      1  C   UNL     1     -30.966 -46.738  24.292  1.00  0.00     0.138 A 
ATOM      2  C   UNL     1     -29.653 -46.311  24.534  1.00  0.00     0.100 A 
ATOM      3  C   UNL     1     -28.586 -47.005  23.963  1.00  0.00     0.197 A 
ATOM      4  O   UNL     1     -27.422 -46.561  24.146  1.00  0.00    -0.289 OA
ATOM      5  C   UNL     1     -28.835 -48.151  23.170  1.00  0.00     0.107 A 
ATOM      6  C   UNL     1     -27.824 -48.961  22.571  1.00  0.00     0.134 A 
ATOM      7  C   UNL     1     -28.194 -50.003  21.713  1.00  0.00     0.093 A 
ATOM      8  C   UNL     1     -29.538 -50.303  21.480  1.00  0.00     0.123 A 
ATOM      9  C   UNL     1     -30.533 -49.552  22.103  1.00  0.00     0.094 A 
ATOM     10  C   UNL     1     -30.196 -48.485  22.937  1.00  0.00     0.146 A 
ATOM     11  O   UNL     1     -31.175 -47.785  23.501  1.00  0.00    -0.456 OA
ENDROOT
BRANCH   1  12
ATOM     12  C   UNL     1     -32.138 -46.037  24.877  1.00  0.00     0.021 A 
ATOM     13  C   UNL     1     -33.330 -46.718  25.179  1.00  0.00     0.016 A 
ATOM     14  C   UNL     1     -34.419 -46.031  25.718  1.00  0.00     0.051 A 
ATOM     15  C   UNL     1     -34.350 -44.656  25.962  1.00  0.00     0.157 A 
ATOM     16  C   UNL     1     -32.073 -44.652  25.108  1.00  0.00     0.062 A 
ATOM     17  C   UNL     1     -33.160 -43.956  25.651  1.00  0.00     0.158 A 
BRANCH  15  18
ATOM     18  O   UNL     1     -35.473 -44.031  26.506  1.00  0.00    -0.504 OA
ATOM     19  H   UNL     1     -36.091 -44.464  27.177  1.00  0.00     0.293 HD
ENDBRANCH  15  18
BRANCH  17  20
ATOM     20  O   UNL     1     -33.017 -42.584  25.861  1.00  0.00    -0.504 OA
ATOM     21  H   UNL     1     -32.372 -42.178  26.524  1.00  0.00     0.293 HD
ENDBRANCH  17  20
ENDBRANCH   1  12
BRANCH   6  22
ATOM     22  O   UNL     1     -26.455 -48.800  22.805  1.00  0.00    -0.507 OA
ATOM     23  H   UNL     1     -25.874 -49.452  23.309  1.00  0.00     0.293 HD
ENDBRANCH   6  22
BRANCH   8  24
ATOM     24  O   UNL     1     -29.897 -51.352  20.636  1.00  0.00    -0.508 OA
ATOM     25  H   UNL     1     -29.432 -52.251  20.682  1.00  0.00     0.293 HD
ENDBRANCH   8  24
TORSDOF 5
ENDMDL
MODEL 6
REMARK VINA RESULT:    -6.821      2.700      7.558
REMARK INTER + INTRA:          -8.306
REMARK INTER:                  -8.001
REMARK INTRA:                  -0.305
REMARK UNBOUND:                -0.289
REMARK SMILES O=c1cc(-c2ccc(O)c(O)c2)oc2cc(O)cc(O)c12
REMARK SMILES IDX 4 1 3 2 2 3 1 4 21 5 19 6 18 7 16 8 15 9 14 10 13 11 5 12
REMARK SMILES IDX 6 13 7 14 8 15 12 16 10 17 9 18 11 20 20 22 17 24
REMARK H PARENT 9 19 11 21 20 23 17 25
REMARK Flexibility Score: inf
ROOT
ATOM      1  C   UNL     1     -30.414 -50.195  23.041  1.00  0.00     0.138 A 
ATOM      2  C   UNL     1     -29.675 -49.046  22.726  1.00  0.00     0.100 A 
ATOM      3  C   UNL     1     -30.306 -47.801  22.716  1.00  0.00     0.197 A 
ATOM      4  O   UNL     1     -29.603 -46.781  22.492  1.00  0.00    -0.289 OA
ATOM      5  C   UNL     1     -31.691 -47.713  22.992  1.00  0.00     0.107 A 
ATOM      6  C   UNL     1     -32.449 -46.502  22.970  1.00  0.00     0.134 A 
ATOM      7  C   UNL     1     -33.789 -46.521  23.373  1.00  0.00     0.093 A 
ATOM      8  C   UNL     1     -34.416 -47.714  23.740  1.00  0.00     0.123 A 
ATOM      9  C   UNL     1     -33.699 -48.908  23.712  1.00  0.00     0.094 A 
ATOM     10  C   UNL     1     -32.352 -48.918  23.348  1.00  0.00     0.146 A 
ATOM     11  O   UNL     1     -31.701 -50.077  23.349  1.00  0.00    -0.456 OA
ENDROOT
BRANCH   1  12
ATOM     12  C   UNL     1     -29.793 -51.544  23.065  1.00  0.00     0.021 A 
ATOM     13  C   UNL     1     -28.440 -51.729  23.398  1.00  0.00     0.016 A 
ATOM     14  C   UNL     1     -27.882 -53.008  23.402  1.00  0.00     0.051 A 
ATOM     15  C   UNL     1     -28.652 -54.127  23.070  1.00  0.00     0.157 A 
ATOM     16  C   UNL     1     -30.564 -52.667  22.717  1.00  0.00     0.062 A 
ATOM     17  C   UNL     1     -30.011 -53.954  22.721  1.00  0.00     0.158 A 
BRANCH  15  18
ATOM     18  O   UNL     1     -28.033 -55.378  23.097  1.00  0.00    -0.504 OA
ATOM     19  H   UNL     1     -28.464 -56.229  22.766  1.00  0.00     0.293 HD
ENDBRANCH  15  18
BRANCH  17  20
ATOM     20  O   UNL     1     -30.842 -55.021  22.372  1.00  0.00    -0.504 OA
ATOM     21  H   UNL     1     -30.514 -55.962  22.212  1.00  0.00     0.293 HD
ENDBRANCH  17  20
ENDBRANCH   1  12
BRANCH   6  22
ATOM     22  O   UNL     1     -31.941 -45.272  22.539  1.00  0.00    -0.507 OA
ATOM     23  H   UNL     1     -31.117 -44.826  22.910  1.00  0.00     0.293 HD
ENDBRANCH   6  22
BRANCH   8  24
ATOM     24  O   UNL     1     -35.754 -47.724  24.125  1.00  0.00    -0.508 OA
ATOM     25  H   UNL     1     -36.359 -46.928  23.961  1.00  0.00     0.293 HD
ENDBRANCH   8  24
TORSDOF 5
ENDMDL
MODEL 7
REMARK VINA RESULT:    -6.802     11.143     11.790
REMARK INTER + INTRA:          -8.284
REMARK INTER:                  -7.997
REMARK INTRA:                  -0.287
REMARK UNBOUND:                -0.289
REMARK SMILES O=c1cc(-c2ccc(O)c(O)c2)oc2cc(O)cc(O)c12
REMARK SMILES IDX 4 1 3 2 2 3 1 4 21 5 19 6 18 7 16 8 15 9 14 10 13 11 5 12
REMARK SMILES IDX 6 13 7 14 8 15 12 16 10 17 9 18 11 20 20 22 17 24
REMARK H PARENT 9 19 11 21 20 23 17 25
REMARK Flexibility Score: inf
ROOT
ATOM      1  C   UNL     1     -32.753 -48.858  33.792  1.00  0.00     0.138 A 
ATOM      2  C   UNL     1     -32.974 -50.215  33.521  1.00  0.00     0.100 A 
ATOM      3  C   UNL     1     -32.138 -51.178  34.088  1.00  0.00     0.197 A 
ATOM      4  O   UNL     1     -32.401 -52.391  33.878  1.00  0.00    -0.289 OA
ATOM      5  C   UNL     1     -31.056 -50.775  34.906  1.00  0.00     0.107 A 
ATOM      6  C   UNL     1     -30.114 -51.666  35.504  1.00  0.00     0.134 A 
ATOM      7  C   UNL     1     -29.153 -51.161  36.388  1.00  0.00     0.093 A 
ATOM      8  C   UNL     1     -29.061 -49.792  36.649  1.00  0.00     0.123 A 
ATOM      9  C   UNL     1     -29.942 -48.909  36.027  1.00  0.00     0.094 A 
ATOM     10  C   UNL     1     -30.933 -49.384  35.167  1.00  0.00     0.146 A 
ATOM     11  O   UNL     1     -31.762 -48.510  34.606  1.00  0.00    -0.456 OA
ENDROOT
BRANCH   1  12
ATOM     12  C   UNL     1     -33.610 -47.793  33.213  1.00  0.00     0.021 A 
ATOM     13  C   UNL     1     -33.132 -46.487  33.013  1.00  0.00     0.016 A 
ATOM     14  C   UNL     1     -33.965 -45.503  32.476  1.00  0.00     0.051 A 
ATOM     15  C   UNL     1     -35.289 -45.794  32.134  1.00  0.00     0.157 A 
ATOM     16  C   UNL     1     -34.946 -48.082  32.882  1.00  0.00     0.062 A 
ATOM     17  C   UNL     1     -35.787 -47.101  32.342  1.00  0.00     0.158 A 
BRANCH  15  18
ATOM     18  O   UNL     1     -36.067 -44.766  31.599  1.00  0.00    -0.504 OA
ATOM     19  H   UNL     1     -36.204 -44.618  30.610  1.00  0.00     0.293 HD
ENDBRANCH  15  18
BRANCH  17  20
ATOM     20  O   UNL     1     -37.098 -47.467  32.030  1.00  0.00    -0.504 OA
ATOM     21  H   UNL     1     -37.372 -48.394  31.741  1.00  0.00     0.293 HD
ENDBRANCH  17  20
ENDBRANCH   1  12
BRANCH   6  22
ATOM     22  O   UNL     1     -30.065 -53.039  35.245  1.00  0.00    -0.507 OA
ATOM     23  H   UNL     1     -29.620 -53.460  34.445  1.00  0.00     0.293 HD
ENDBRANCH   6  22
BRANCH   8  24
ATOM     24  O   UNL     1     -28.092 -49.297  37.518  1.00  0.00    -0.508 OA
ATOM     25  H   UNL     1     -28.283 -48.514  38.133  1.00  0.00     0.293 HD
ENDBRANCH   8  24
TORSDOF 5
ENDMDL
MODEL 8
REMARK VINA RESULT:    -6.755      2.378      4.127
REMARK INTER + INTRA:          -8.229
REMARK INTER:                  -7.934
REMARK INTRA:                  -0.295
REMARK UNBOUND:                -0.289
REMARK SMILES O=c1cc(-c2ccc(O)c(O)c2)oc2cc(O)cc(O)c12
REMARK SMILES IDX 4 1 3 2 2 3 1 4 21 5 19 6 18 7 16 8 15 9 14 10 13 11 5 12
REMARK SMILES IDX 6 13 7 14 8 15 12 16 10 17 9 18 11 20 20 22 17 24
REMARK H PARENT 9 19 11 21 20 23 17 25
REMARK Flexibility Score: inf
ROOT
ATOM      1  C   UNL     1     -29.151 -50.391  23.417  1.00  0.00     0.138 A 
ATOM      2  C   UNL     1     -29.712 -51.614  23.026  1.00  0.00     0.100 A 
ATOM      3  C   UNL     1     -29.207 -52.805  23.550  1.00  0.00     0.197 A 
ATOM      4  O   UNL     1     -29.773 -53.882  23.229  1.00  0.00    -0.289 OA
ATOM      5  C   UNL     1     -28.113 -52.770  24.447  1.00  0.00     0.107 A 
ATOM      6  C   UNL     1     -27.489 -53.923  25.013  1.00  0.00     0.134 A 
ATOM      7  C   UNL     1     -26.489 -53.760  25.979  1.00  0.00     0.093 A 
ATOM      8  C   UNL     1     -26.048 -52.489  26.355  1.00  0.00     0.123 A 
ATOM      9  C   UNL     1     -26.613 -51.359  25.767  1.00  0.00     0.094 A 
ATOM     10  C   UNL     1     -27.637 -51.487  24.827  1.00  0.00     0.146 A 
ATOM     11  O   UNL     1     -28.159 -50.384  24.302  1.00  0.00    -0.456 OA
ENDROOT
BRANCH   1  12
ATOM     12  C   UNL     1     -29.648 -49.095  22.888  1.00  0.00     0.021 A 
ATOM     13  C   UNL     1     -29.072 -47.872  23.272  1.00  0.00     0.016 A 
ATOM     14  C   UNL     1     -29.568 -46.668  22.766  1.00  0.00     0.051 A 
ATOM     15  C   UNL     1     -30.647 -46.655  21.877  1.00  0.00     0.157 A 
ATOM     16  C   UNL     1     -30.742 -49.081  22.006  1.00  0.00     0.062 A 
ATOM     17  C   UNL     1     -31.244 -47.879  21.493  1.00  0.00     0.158 A 
BRANCH  15  18
ATOM     18  O   UNL     1     -31.091 -45.418  21.406  1.00  0.00    -0.504 OA
ATOM     19  H   UNL     1     -31.718 -45.303  20.623  1.00  0.00     0.293 HD
ENDBRANCH  15  18
BRANCH  17  20
ATOM     20  O   UNL     1     -32.327 -47.946  20.614  1.00  0.00    -0.504 OA
ATOM     21  H   UNL     1     -33.094 -48.595  20.712  1.00  0.00     0.293 HD
ENDBRANCH  17  20
ENDBRANCH   1  12
BRANCH   6  22
ATOM     22  O   UNL     1     -27.796 -55.236  24.645  1.00  0.00    -0.507 OA
ATOM     23  H   UNL     1     -27.118 -55.967  24.496  1.00  0.00     0.293 HD
ENDBRANCH   6  22
BRANCH   8  24
ATOM     24  O   UNL     1     -25.041 -52.338  27.305  1.00  0.00    -0.508 OA
ATOM     25  H   UNL     1     -24.314 -51.640  27.200  1.00  0.00     0.293 HD
ENDBRANCH   8  24
TORSDOF 5
ENDMDL
MODEL 9
REMARK VINA RESULT:    -6.694      4.405      7.206
REMARK INTER + INTRA:          -8.157
REMARK INTER:                  -7.893
REMARK INTRA:                  -0.264
REMARK UNBOUND:                -0.289
REMARK SMILES O=c1cc(-c2ccc(O)c(O)c2)oc2cc(O)cc(O)c12
REMARK SMILES IDX 4 1 3 2 2 3 1 4 21 5 19 6 18 7 16 8 15 9 14 10 13 11 5 12
REMARK SMILES IDX 6 13 7 14 8 15 12 16 10 17 9 18 11 20 20 22 17 24
REMARK H PARENT 9 19 11 21 20 23 17 25
REMARK Flexibility Score: inf
ROOT
ATOM      1  C   UNL     1     -33.343 -44.863  26.417  1.00  0.00     0.138 A 
ATOM      2  C   UNL     1     -33.483 -43.765  25.558  1.00  0.00     0.100 A 
ATOM      3  C   UNL     1     -32.805 -43.751  24.339  1.00  0.00     0.197 A 
ATOM      4  O   UNL     1     -33.001 -42.781  23.561  1.00  0.00    -0.289 OA
ATOM      5  C   UNL     1     -31.957 -44.830  23.994  1.00  0.00     0.107 A 
ATOM      6  C   UNL     1     -31.183 -44.905  22.796  1.00  0.00     0.134 A 
ATOM      7  C   UNL     1     -30.470 -46.075  22.508  1.00  0.00     0.093 A 
ATOM      8  C   UNL     1     -30.452 -47.148  23.402  1.00  0.00     0.123 A 
ATOM      9  C   UNL     1     -31.160 -47.062  24.600  1.00  0.00     0.094 A 
ATOM     10  C   UNL     1     -31.910 -45.923  24.900  1.00  0.00     0.146 A 
ATOM     11  O   UNL     1     -32.582 -45.888  26.045  1.00  0.00    -0.456 OA
ENDROOT
BRANCH   1  12
ATOM     12  C   UNL     1     -34.040 -44.929  27.727  1.00  0.00     0.021 A 
ATOM     13  C   UNL     1     -33.336 -44.875  28.942  1.00  0.00     0.016 A 
ATOM     14  C   UNL     1     -34.018 -44.949  30.158  1.00  0.00     0.051 A 
ATOM     15  C   UNL     1     -35.409 -45.085  30.192  1.00  0.00     0.157 A 
ATOM     16  C   UNL     1     -35.437 -45.080  27.761  1.00  0.00     0.062 A 
ATOM     17  C   UNL     1     -36.129 -45.154  28.976  1.00  0.00     0.158 A 
BRANCH  15  18
ATOM     18  O   UNL     1     -36.029 -45.150  31.441  1.00  0.00    -0.504 OA
ATOM     19  H   UNL     1     -36.746 -45.818  31.682  1.00  0.00     0.293 HD
ENDBRANCH  15  18
BRANCH  17  20
ATOM     20  O   UNL     1     -37.517 -45.295  28.929  1.00  0.00    -0.504 OA
ATOM     21  H   UNL     1     -38.149 -44.564  28.635  1.00  0.00     0.293 HD
ENDBRANCH  17  20
ENDBRANCH   1  12
BRANCH   6  22
ATOM     22  O   UNL     1     -31.065 -43.858  21.877  1.00  0.00    -0.507 OA
ATOM     23  H   UNL     1     -30.639 -43.935  20.966  1.00  0.00     0.293 HD
ENDBRANCH   6  22
BRANCH   8  24
ATOM     24  O   UNL     1     -29.727 -48.302  23.115  1.00  0.00    -0.508 OA
ATOM     25  H   UNL     1     -29.026 -48.318  22.383  1.00  0.00     0.293 HD
ENDBRANCH   8  24
TORSDOF 5
ENDMDL
