MODEL 1
REMARK VINA RESULT:    -2.102      0.000      0.000
REMARK INTER + INTRA:          -2.791
REMARK INTER:                  -2.594
REMARK INTRA:                  -0.198
REMARK UNBOUND:                -0.198
REMARK SMILES CCCCC=CC(C)=O
REMARK SMILES IDX 4 1 3 2 2 3 1 4 5 5 6 6 7 7 9 8 8 9
REMARK H PARENT
REMARK Flexibility Score: inf
ROOT
ATOM      1  C   UNL     1     112.041  87.421  58.395  1.00  0.00     0.027 C 
ENDROOT
BRANCH   1   2
ATOM      2  C   UNL     1     112.468  88.400  57.294  1.00  0.00     0.004 C 
BRANCH   2   3
ATOM      3  C   UNL     1     113.763  89.125  57.678  1.00  0.00    -0.003 C 
ATOM      4  C   UNL     1     114.227  88.722  59.075  1.00  0.00     0.004 C 
ENDBRANCH   2   3
ENDBRANCH   1   2
BRANCH   1   5
ATOM      5  C   UNL     1     110.635  86.939  58.178  1.00  0.00    -0.023 C 
ATOM      6  C   UNL     1     109.663  87.774  57.791  1.00  0.00     0.042 C 
BRANCH   6   7
ATOM      7  C   UNL     1     108.270  87.344  57.553  1.00  0.00     0.152 C 
ATOM      8  O   UNL     1     107.718  86.593  58.401  1.00  0.00    -0.295 OA
ATOM      9  C   UNL     1     107.494  87.768  56.344  1.00  0.00     0.093 C 
ENDBRANCH   6   7
ENDBRANCH   1   5
TORSDOF 4
ENDMDL
MODEL 2
REMARK VINA RESULT:    -2.058     10.388     12.646
REMARK INTER + INTRA:          -2.737
REMARK INTER:                  -2.474
REMARK INTRA:                  -0.263
REMARK UNBOUND:                -0.198
REMARK SMILES CCCCC=CC(C)=O
REMARK SMILES IDX 4 1 3 2 2 3 1 4 5 5 6 6 7 7 9 8 8 9
REMARK H PARENT
REMARK Flexibility Score: inf
ROOT
ATOM      1  C   UNL     1     121.676  86.739  56.353  1.00  0.00     0.027 C 
ENDROOT
BRANCH   1   2
ATOM      2  C   UNL     1     121.680  88.084  57.089  1.00  0.00     0.004 C 
BRANCH   2   3
ATOM      3  C   UNL     1     120.319  88.357  57.739  1.00  0.00    -0.003 C 
ATOM      4  C   UNL     1     120.019  87.341  58.839  1.00  0.00     0.004 C 
ENDBRANCH   2   3
ENDBRANCH   1   2
BRANCH   1   5
ATOM      5  C   UNL     1     122.851  85.895  56.757  1.00  0.00    -0.023 C 
ATOM      6  C   UNL     1     122.711  84.855  57.588  1.00  0.00     0.042 C 
BRANCH   6   7
ATOM      7  C   UNL     1     123.834  83.990  58.003  1.00  0.00     0.152 C 
ATOM      8  O   UNL     1     123.734  83.350  59.085  1.00  0.00    -0.295 OA
ATOM      9  C   UNL     1     125.083  83.847  57.188  1.00  0.00     0.093 C 
ENDBRANCH   6   7
ENDBRANCH   1   5
TORSDOF 4
ENDMDL
MODEL 3
REMARK VINA RESULT:    -2.047     10.189     12.427
REMARK INTER + INTRA:          -2.723
REMARK INTER:                  -2.530
REMARK INTRA:                  -0.193
REMARK UNBOUND:                -0.198
REMARK SMILES CCCCC=CC(C)=O
REMARK SMILES IDX 4 1 3 2 2 3 1 4 5 5 6 6 7 7 9 8 8 9
REMARK H PARENT
REMARK Flexibility Score: inf
ROOT
ATOM      1  C   UNL     1     123.610  87.197  54.764  1.00  0.00     0.027 C 
ENDROOT
BRANCH   1   2
ATOM      2  C   UNL     1     124.867  86.369  55.056  1.00  0.00     0.004 C 
BRANCH   2   3
ATOM      3  C   UNL     1     124.509  84.898  55.300  1.00  0.00    -0.003 C 
ATOM      4  C   UNL     1     125.125  84.389  56.601  1.00  0.00     0.004 C 
ENDBRANCH   2   3
ENDBRANCH   1   2
BRANCH   1   5
ATOM      5  C   UNL     1     122.564  86.988  55.821  1.00  0.00    -0.023 C 
ATOM      6  C   UNL     1     122.022  88.020  56.480  1.00  0.00     0.042 C 
BRANCH   6   7
ATOM      7  C   UNL     1     120.982  87.864  57.517  1.00  0.00     0.152 C 
ATOM      8  O   UNL     1     121.106  86.936  58.362  1.00  0.00    -0.295 OA
ATOM      9  C   UNL     1     119.788  88.767  57.602  1.00  0.00     0.093 C 
ENDBRANCH   6   7
ENDBRANCH   1   5
TORSDOF 4
ENDMDL
MODEL 4
REMARK VINA RESULT:    -2.035      5.981      8.127
REMARK INTER + INTRA:          -2.709
REMARK INTER:                  -2.481
REMARK INTRA:                  -0.228
REMARK UNBOUND:                -0.198
REMARK SMILES CCCCC=CC(C)=O
REMARK SMILES IDX 4 1 3 2 2 3 1 4 5 5 6 6 7 7 9 8 8 9
REMARK H PARENT
REMARK Flexibility Score: inf
ROOT
ATOM      1  C   UNL     1     119.839  89.105  56.799  1.00  0.00     0.027 C 
ENDROOT
BRANCH   1   2
ATOM      2  C   UNL     1     120.441  88.197  57.878  1.00  0.00     0.004 C 
BRANCH   2   3
ATOM      3  C   UNL     1     121.682  87.467  57.349  1.00  0.00    -0.003 C 
ATOM      4  C   UNL     1     122.309  88.221  56.180  1.00  0.00     0.004 C 
ENDBRANCH   2   3
ENDBRANCH   1   2
BRANCH   1   5
ATOM      5  C   UNL     1     118.338  89.077  56.841  1.00  0.00    -0.023 C 
ATOM      6  C   UNL     1     117.675  88.056  57.398  1.00  0.00     0.042 C 
BRANCH   6   7
ATOM      7  C   UNL     1     116.201  87.990  57.474  1.00  0.00     0.152 C 
ATOM      8  O   UNL     1     115.619  86.969  57.020  1.00  0.00    -0.295 OA
ATOM      9  C   UNL     1     115.377  89.091  58.069  1.00  0.00     0.093 C 
ENDBRANCH   6   7
ENDBRANCH   1   5
TORSDOF 4
ENDMDL
MODEL 5
REMARK VINA RESULT:    -2.017      2.637      4.013
REMARK INTER + INTRA:          -2.687
REMARK INTER:                  -2.526
REMARK INTRA:                  -0.160
REMARK UNBOUND:                -0.198
REMARK SMILES CCCCC=CC(C)=O
REMARK SMILES IDX 4 1 3 2 2 3 1 4 5 5 6 6 7 7 9 8 8 9
REMARK H PARENT
REMARK Flexibility Score: inf
ROOT
ATOM      1  C   UNL     1     108.287  87.610  57.578  1.00  0.00     0.027 C 
ENDROOT
BRANCH   1   2
ATOM      2  C   UNL     1     109.800  87.857  57.606  1.00  0.00     0.004 C 
BRANCH   2   3
ATOM      3  C   UNL     1     110.213  88.856  56.519  1.00  0.00    -0.003 C 
ATOM      4  C   UNL     1     109.099  89.047  55.494  1.00  0.00     0.004 C 
ENDBRANCH   2   3
ENDBRANCH   1   2
BRANCH   1   5
ATOM      5  C   UNL     1     107.918  86.404  58.394  1.00  0.00    -0.023 C 
ATOM      6  C   UNL     1     107.162  85.423  57.886  1.00  0.00     0.042 C 
BRANCH   6   7
ATOM      7  C   UNL     1     106.784  84.214  58.645  1.00  0.00     0.152 C 
ATOM      8  O   UNL     1     107.700  83.492  59.125  1.00  0.00    -0.295 OA
ATOM      9  C   UNL     1     105.356  83.816  58.865  1.00  0.00     0.093 C 
ENDBRANCH   6   7
ENDBRANCH   1   5
TORSDOF 4
ENDMDL
MODEL 6
REMARK VINA RESULT:    -2.011     11.025     12.932
REMARK INTER + INTRA:          -2.678
REMARK INTER:                  -2.449
REMARK INTRA:                  -0.230
REMARK UNBOUND:                -0.198
REMARK SMILES CCCCC=CC(C)=O
REMARK SMILES IDX 4 1 3 2 2 3 1 4 5 5 6 6 7 7 9 8 8 9
REMARK H PARENT
REMARK Flexibility Score: inf
ROOT
ATOM      1  C   UNL     1     121.296  85.962  58.826  1.00  0.00     0.027 C 
ENDROOT
BRANCH   1   2
ATOM      2  C   UNL     1     120.614  87.234  58.309  1.00  0.00     0.004 C 
BRANCH   2   3
ATOM      3  C   UNL     1     121.463  87.909  57.225  1.00  0.00    -0.003 C 
ATOM      4  C   UNL     1     120.598  88.752  56.292  1.00  0.00     0.004 C 
ENDBRANCH   2   3
ENDBRANCH   1   2
BRANCH   1   5
ATOM      5  C   UNL     1     122.525  85.640  58.024  1.00  0.00    -0.023 C 
ATOM      6  C   UNL     1     123.271  84.561  58.292  1.00  0.00     0.042 C 
BRANCH   6   7
ATOM      7  C   UNL     1     124.479  84.198  57.524  1.00  0.00     0.152 C 
ATOM      8  O   UNL     1     125.125  83.171  57.865  1.00  0.00    -0.295 OA
ATOM      9  C   UNL     1     124.962  85.004  56.356  1.00  0.00     0.093 C 
ENDBRANCH   6   7
ENDBRANCH   1   5
TORSDOF 4
ENDMDL
MODEL 7
REMARK VINA RESULT:    -1.968     10.413     12.593
REMARK INTER + INTRA:          -2.626
REMARK INTER:                  -2.378
REMARK INTRA:                  -0.248
REMARK UNBOUND:                -0.198
REMARK SMILES CCCCC=CC(C)=O
REMARK SMILES IDX 4 1 3 2 2 3 1 4 5 5 6 6 7 7 9 8 8 9
REMARK H PARENT
REMARK Flexibility Score: inf
ROOT
ATOM      1  C   UNL     1     121.058  88.515  56.334  1.00  0.00     0.027 C 
ENDROOT
BRANCH   1   2
ATOM      2  C   UNL     1     120.307  88.432  57.668  1.00  0.00     0.004 C 
BRANCH   2   3
ATOM      3  C   UNL     1     120.638  87.127  58.402  1.00  0.00    -0.003 C 
ATOM      4  C   UNL     1     119.572  86.065  58.145  1.00  0.00     0.004 C 
ENDBRANCH   2   3
ENDBRANCH   1   2
BRANCH   1   5
ATOM      5  C   UNL     1     122.372  87.788  56.404  1.00  0.00    -0.023 C 
ATOM      6  C   UNL     1     122.882  87.166  55.335  1.00  0.00     0.042 C 
BRANCH   6   7
ATOM      7  C   UNL     1     124.175  86.450  55.352  1.00  0.00     0.152 C 
ATOM      8  O   UNL     1     125.125  86.904  54.659  1.00  0.00    -0.295 OA
ATOM      9  C   UNL     1     124.395  85.208  56.162  1.00  0.00     0.093 C 
ENDBRANCH   6   7
ENDBRANCH   1   5
TORSDOF 4
ENDMDL
MODEL 8
REMARK VINA RESULT:    -1.917      6.156      8.786
REMARK INTER + INTRA:          -2.562
REMARK INTER:                  -2.337
REMARK INTRA:                  -0.225
REMARK UNBOUND:                -0.198
REMARK SMILES CCCCC=CC(C)=O
REMARK SMILES IDX 4 1 3 2 2 3 1 4 5 5 6 6 7 7 9 8 8 9
REMARK H PARENT
REMARK Flexibility Score: inf
ROOT
ATOM      1  C   UNL     1     116.899  88.628  56.145  1.00  0.00     0.027 C 
ENDROOT
BRANCH   1   2
ATOM      2  C   UNL     1     115.648  89.125  56.878  1.00  0.00     0.004 C 
BRANCH   2   3
ATOM      3  C   UNL     1     115.644  88.653  58.337  1.00  0.00    -0.003 C 
ATOM      4  C   UNL     1     114.249  88.757  58.947  1.00  0.00     0.004 C 
ENDBRANCH   2   3
ENDBRANCH   1   2
BRANCH   1   5
ATOM      5  C   UNL     1     117.931  88.122  57.112  1.00  0.00    -0.023 C 
ATOM      6  C   UNL     1     119.237  88.335  56.914  1.00  0.00     0.042 C 
BRANCH   6   7
ATOM      7  C   UNL     1     120.286  87.868  57.844  1.00  0.00     0.152 C 
ATOM      8  O   UNL     1     121.493  88.077  57.546  1.00  0.00    -0.295 OA
ATOM      9  C   UNL     1     119.968  87.157  59.124  1.00  0.00     0.093 C 
ENDBRANCH   6   7
ENDBRANCH   1   5
TORSDOF 4
ENDMDL
MODEL 9
REMARK VINA RESULT:    -1.910      8.810     11.535
REMARK INTER + INTRA:          -2.554
REMARK INTER:                  -2.288
REMARK INTRA:                  -0.266
REMARK UNBOUND:                -0.198
REMARK SMILES CCCCC=CC(C)=O
REMARK SMILES IDX 4 1 3 2 2 3 1 4 5 5 6 6 7 7 9 8 8 9
REMARK H PARENT
REMARK Flexibility Score: inf
ROOT
ATOM      1  C   UNL     1     120.601  88.365  57.706  1.00  0.00     0.027 C 
ENDROOT
BRANCH   1   2
ATOM      2  C   UNL     1     119.881  87.559  58.794  1.00  0.00     0.004 C 
BRANCH   2   3
ATOM      3  C   UNL     1     118.408  87.344  58.431  1.00  0.00    -0.003 C 
ATOM      4  C   UNL     1     117.983  88.255  57.282  1.00  0.00     0.004 C 
ENDBRANCH   2   3
ENDBRANCH   1   2
BRANCH   1   5
ATOM      5  C   UNL     1     121.785  87.613  57.167  1.00  0.00    -0.023 C 
ATOM      6  C   UNL     1     121.909  86.292  57.338  1.00  0.00     0.042 C 
BRANCH   6   7
ATOM      7  C   UNL     1     123.048  85.509  56.817  1.00  0.00     0.152 C 
ATOM      8  O   UNL     1     123.339  84.419  57.380  1.00  0.00    -0.295 OA
ATOM      9  C   UNL     1     123.867  85.962  55.647  1.00  0.00     0.093 C 
ENDBRANCH   6   7
ENDBRANCH   1   5
TORSDOF 4
ENDMDL
