MODEL 1
REMARK VINA RESULT:    -3.341      0.000      0.000
REMARK INTER + INTRA:          -7.712
REMARK INTER:                  -5.879
REMARK INTRA:                  -1.833
REMARK UNBOUND:                -1.833
REMARK SMILES CCCCCCC=CCCCCCCCC(=O)[O-]
REMARK SMILES IDX 10 1 11 2 12 3 13 4 14 5 15 6 16 7 17 8 18 9 9 10 8 11 7 12
REMARK SMILES IDX 6 13 5 14 4 15 3 16 2 17 1 18
REMARK H PARENT
REMARK Flexibility Score: inf
ROOT
ATOM      1  C   UNL     1      64.437  30.063  61.423  1.00  0.00     0.004 C 
ENDROOT
BRANCH   1   2
ATOM      2  C   UNL     1      64.095  28.660  60.908  1.00  0.00     0.000 C 
BRANCH   2   3
ATOM      3  C   UNL     1      62.650  28.283  61.256  1.00  0.00     0.000 C 
BRANCH   3   4
ATOM      4  C   UNL     1      61.661  29.316  60.696  1.00  0.00     0.000 C 
BRANCH   4   5
ATOM      5  C   UNL     1      61.542  29.253  59.166  1.00  0.00     0.006 C 
BRANCH   5   6
ATOM      6  C   UNL     1      60.179  29.743  58.659  1.00  0.00     0.053 C 
BRANCH   6   7
ATOM      7  C   UNL     1      60.310  31.097  58.036  1.00  0.00     0.041 C 
ATOM      8  O   UNL     1      60.967  31.245  56.971  1.00  0.00    -0.550 OA
ATOM      9  O   UNL     1      59.665  32.189  58.603  1.00  0.00    -0.550 OA
ENDBRANCH   6   7
ENDBRANCH   5   6
ENDBRANCH   4   5
ENDBRANCH   3   4
ENDBRANCH   2   3
ENDBRANCH   1   2
BRANCH   1  10
ATOM     10  C   UNL     1      65.609  30.666  60.639  1.00  0.00     0.027 C 
BRANCH  10  11
ATOM     11  C   UNL     1      65.126  31.631  59.592  1.00  0.00    -0.031 C 
ATOM     12  C   UNL     1      63.869  32.102  59.596  1.00  0.00    -0.031 C 
BRANCH  12  13
ATOM     13  C   UNL     1      63.386  33.068  58.550  1.00  0.00     0.027 C 
BRANCH  13  14
ATOM     14  C   UNL     1      62.524  34.174  59.171  1.00  0.00     0.004 C 
BRANCH  14  15
ATOM     15  C   UNL     1      63.393  35.333  59.671  1.00  0.00     0.000 C 
BRANCH  15  16
ATOM     16  C   UNL     1      63.005  35.735  61.101  1.00  0.00    -0.000 C 
BRANCH  16  17
ATOM     17  C   UNL     1      64.226  35.916  62.016  1.00  0.00    -0.003 C 
ATOM     18  C   UNL     1      65.300  34.851  61.788  1.00  0.00     0.004 C 
ENDBRANCH  16  17
ENDBRANCH  15  16
ENDBRANCH  14  15
ENDBRANCH  13  14
ENDBRANCH  12  13
ENDBRANCH  10  11
ENDBRANCH   1  10
TORSDOF 13
ENDMDL
MODEL 2
REMARK VINA RESULT:    -3.232     13.032     14.798
REMARK INTER + INTRA:          -7.521
REMARK INTER:                  -6.577
REMARK INTRA:                  -0.943
REMARK UNBOUND:                -1.833
REMARK SMILES CCCCCCC=CCCCCCCCC(=O)[O-]
REMARK SMILES IDX 10 1 11 2 12 3 13 4 14 5 15 6 16 7 17 8 18 9 9 10 8 11 7 12
REMARK SMILES IDX 6 13 5 14 4 15 3 16 2 17 1 18
REMARK H PARENT
REMARK Flexibility Score: inf
ROOT
ATOM      1  C   UNL     1      61.648  22.941  50.605  1.00  0.00     0.004 C 
ENDROOT
BRANCH   1   2
ATOM      2  C   UNL     1      61.248  22.199  49.325  1.00  0.00     0.000 C 
BRANCH   2   3
ATOM      3  C   UNL     1      60.825  20.758  49.632  1.00  0.00     0.000 C 
BRANCH   3   4
ATOM      4  C   UNL     1      60.187  20.657  51.025  1.00  0.00     0.000 C 
BRANCH   4   5
ATOM      5  C   UNL     1      59.236  19.458  51.156  1.00  0.00     0.006 C 
BRANCH   5   6
ATOM      6  C   UNL     1      59.034  18.716  49.828  1.00  0.00     0.053 C 
BRANCH   6   7
ATOM      7  C   UNL     1      59.228  17.245  50.018  1.00  0.00     0.041 C 
ATOM      8  O   UNL     1      60.221  16.813  50.662  1.00  0.00    -0.550 OA
ATOM      9  O   UNL     1      58.286  16.350  49.526  1.00  0.00    -0.550 OA
ENDBRANCH   6   7
ENDBRANCH   5   6
ENDBRANCH   4   5
ENDBRANCH   3   4
ENDBRANCH   2   3
ENDBRANCH   1   2
BRANCH   1  10
ATOM     10  C   UNL     1      61.617  24.460  50.392  1.00  0.00     0.027 C 
BRANCH  10  11
ATOM     11  C   UNL     1      60.289  24.907  49.847  1.00  0.00    -0.031 C 
ATOM     12  C   UNL     1      59.168  24.839  50.582  1.00  0.00    -0.031 C 
BRANCH  12  13
ATOM     13  C   UNL     1      57.839  25.287  50.037  1.00  0.00     0.027 C 
BRANCH  13  14
ATOM     14  C   UNL     1      57.129  26.232  51.013  1.00  0.00     0.004 C 
BRANCH  14  15
ATOM     15  C   UNL     1      55.611  26.023  50.973  1.00  0.00     0.000 C 
BRANCH  15  16
ATOM     16  C   UNL     1      54.902  27.254  50.389  1.00  0.00    -0.000 C 
BRANCH  16  17
ATOM     17  C   UNL     1      53.969  26.900  49.221  1.00  0.00    -0.003 C 
ATOM     18  C   UNL     1      54.317  25.560  48.571  1.00  0.00     0.004 C 
ENDBRANCH  16  17
ENDBRANCH  15  16
ENDBRANCH  14  15
ENDBRANCH  13  14
ENDBRANCH  12  13
ENDBRANCH  10  11
ENDBRANCH   1  10
TORSDOF 13
ENDMDL
MODEL 3
REMARK VINA RESULT:    -3.182      2.475      4.095
REMARK INTER + INTRA:          -7.433
REMARK INTER:                  -6.005
REMARK INTRA:                  -1.428
REMARK UNBOUND:                -1.833
REMARK SMILES CCCCCCC=CCCCCCCCC(=O)[O-]
REMARK SMILES IDX 10 1 11 2 12 3 13 4 14 5 15 6 16 7 17 8 18 9 9 10 8 11 7 12
REMARK SMILES IDX 6 13 5 14 4 15 3 16 2 17 1 18
REMARK H PARENT
REMARK Flexibility Score: inf
ROOT
ATOM      1  C   UNL     1      61.106  29.105  58.811  1.00  0.00     0.004 C 
ENDROOT
BRANCH   1   2
ATOM      2  C   UNL     1      60.863  28.492  60.195  1.00  0.00     0.000 C 
BRANCH   2   3
ATOM      3  C   UNL     1      61.884  29.009  61.214  1.00  0.00     0.000 C 
BRANCH   3   4
ATOM      4  C   UNL     1      63.284  29.106  60.590  1.00  0.00     0.000 C 
BRANCH   4   5
ATOM      5  C   UNL     1      64.246  29.969  61.420  1.00  0.00     0.006 C 
BRANCH   5   6
ATOM      6  C   UNL     1      65.070  30.933  60.556  1.00  0.00     0.053 C 
BRANCH   6   7
ATOM      7  C   UNL     1      66.347  30.283  60.124  1.00  0.00     0.041 C 
ATOM      8  O   UNL     1      66.824  29.321  60.782  1.00  0.00    -0.550 OA
ATOM      9  O   UNL     1      66.985  30.708  58.966  1.00  0.00    -0.550 OA
ENDBRANCH   6   7
ENDBRANCH   5   6
ENDBRANCH   4   5
ENDBRANCH   3   4
ENDBRANCH   2   3
ENDBRANCH   1   2
BRANCH   1  10
ATOM     10  C   UNL     1      59.912  29.961  58.370  1.00  0.00     0.027 C 
BRANCH  10  11
ATOM     11  C   UNL     1      60.333  31.376  58.083  1.00  0.00    -0.031 C 
ATOM     12  C   UNL     1      61.530  31.846  58.469  1.00  0.00    -0.031 C 
BRANCH  12  13
ATOM     13  C   UNL     1      61.950  33.261  58.181  1.00  0.00     0.027 C 
BRANCH  13  14
ATOM     14  C   UNL     1      62.881  33.796  59.276  1.00  0.00     0.004 C 
BRANCH  14  15
ATOM     15  C   UNL     1      62.393  35.153  59.796  1.00  0.00     0.000 C 
BRANCH  15  16
ATOM     16  C   UNL     1      63.301  35.669  60.922  1.00  0.00    -0.000 C 
BRANCH  16  17
ATOM     17  C   UNL     1      64.560  34.808  61.107  1.00  0.00    -0.003 C 
ATOM     18  C   UNL     1      65.481  35.336  62.207  1.00  0.00     0.004 C 
ENDBRANCH  16  17
ENDBRANCH  15  16
ENDBRANCH  14  15
ENDBRANCH  13  14
ENDBRANCH  12  13
ENDBRANCH  10  11
ENDBRANCH   1  10
TORSDOF 13
ENDMDL
MODEL 4
REMARK VINA RESULT:    -3.177      2.199      2.348
REMARK INTER + INTRA:          -7.425
REMARK INTER:                  -5.846
REMARK INTRA:                  -1.578
REMARK UNBOUND:                -1.833
REMARK SMILES CCCCCCC=CCCCCCCCC(=O)[O-]
REMARK SMILES IDX 10 1 11 2 12 3 13 4 14 5 15 6 16 7 17 8 18 9 9 10 8 11 7 12
REMARK SMILES IDX 6 13 5 14 4 15 3 16 2 17 1 18
REMARK H PARENT
REMARK Flexibility Score: inf
ROOT
ATOM      1  C   UNL     1      64.662  29.794  61.359  1.00  0.00     0.004 C 
ENDROOT
BRANCH   1   2
ATOM      2  C   UNL     1      64.556  28.321  60.948  1.00  0.00     0.000 C 
BRANCH   2   3
ATOM      3  C   UNL     1      63.169  27.757  61.273  1.00  0.00     0.000 C 
BRANCH   3   4
ATOM      4  C   UNL     1      62.079  28.817  61.053  1.00  0.00     0.000 C 
BRANCH   4   5
ATOM      5  C   UNL     1      61.476  28.764  59.641  1.00  0.00     0.006 C 
BRANCH   5   6
ATOM      6  C   UNL     1      59.957  28.544  59.656  1.00  0.00     0.053 C 
BRANCH   6   7
ATOM      7  C   UNL     1      59.620  27.277  60.376  1.00  0.00     0.041 C 
ATOM      8  O   UNL     1      60.028  26.169  59.936  1.00  0.00    -0.550 OA
ATOM      9  O   UNL     1      58.896  27.322  61.560  1.00  0.00    -0.550 OA
ENDBRANCH   6   7
ENDBRANCH   5   6
ENDBRANCH   4   5
ENDBRANCH   3   4
ENDBRANCH   2   3
ENDBRANCH   1   2
BRANCH   1  10
ATOM     10  C   UNL     1      65.731  30.520  60.531  1.00  0.00     0.027 C 
BRANCH  10  11
ATOM     11  C   UNL     1      65.106  31.360  59.452  1.00  0.00    -0.031 C 
ATOM     12  C   UNL     1      63.807  31.698  59.486  1.00  0.00    -0.031 C 
BRANCH  12  13
ATOM     13  C   UNL     1      63.183  32.538  58.406  1.00  0.00     0.027 C 
BRANCH  13  14
ATOM     14  C   UNL     1      62.530  33.796  58.991  1.00  0.00     0.004 C 
BRANCH  14  15
ATOM     15  C   UNL     1      63.580  34.874  59.286  1.00  0.00     0.000 C 
BRANCH  15  16
ATOM     16  C   UNL     1      63.666  35.159  60.792  1.00  0.00    -0.000 C 
BRANCH  16  17
ATOM     17  C   UNL     1      64.944  34.591  61.430  1.00  0.00    -0.003 C 
ATOM     18  C   UNL     1      65.855  35.678  61.999  1.00  0.00     0.004 C 
ENDBRANCH  16  17
ENDBRANCH  15  16
ENDBRANCH  14  15
ENDBRANCH  13  14
ENDBRANCH  12  13
ENDBRANCH  10  11
ENDBRANCH   1  10
TORSDOF 13
ENDMDL
MODEL 5
REMARK VINA RESULT:    -3.154      3.643      5.228
REMARK INTER + INTRA:          -7.384
REMARK INTER:                  -5.924
REMARK INTRA:                  -1.459
REMARK UNBOUND:                -1.833
REMARK SMILES CCCCCCC=CCCCCCCCC(=O)[O-]
REMARK SMILES IDX 10 1 11 2 12 3 13 4 14 5 15 6 16 7 17 8 18 9 9 10 8 11 7 12
REMARK SMILES IDX 6 13 5 14 4 15 3 16 2 17 1 18
REMARK H PARENT
REMARK Flexibility Score: inf
ROOT
ATOM      1  C   UNL     1      62.475  28.859  61.387  1.00  0.00     0.004 C 
ENDROOT
BRANCH   1   2
ATOM      2  C   UNL     1      63.995  28.781  61.202  1.00  0.00     0.000 C 
BRANCH   2   3
ATOM      3  C   UNL     1      64.642  30.160  61.369  1.00  0.00     0.000 C 
BRANCH   3   4
ATOM      4  C   UNL     1      65.908  30.282  60.508  1.00  0.00     0.000 C 
BRANCH   4   5
ATOM      5  C   UNL     1      66.594  28.928  60.268  1.00  0.00     0.006 C 
BRANCH   5   6
ATOM      6  C   UNL     1      68.071  29.075  59.879  1.00  0.00     0.053 C 
BRANCH   6   7
ATOM      7  C   UNL     1      68.951  28.814  61.061  1.00  0.00     0.041 C 
ATOM      8  O   UNL     1      68.457  28.381  62.135  1.00  0.00    -0.550 OA
ATOM      9  O   UNL     1      70.323  29.002  60.961  1.00  0.00    -0.550 OA
ENDBRANCH   6   7
ENDBRANCH   5   6
ENDBRANCH   4   5
ENDBRANCH   3   4
ENDBRANCH   2   3
ENDBRANCH   1   2
BRANCH   1  10
ATOM     10  C   UNL     1      61.747  28.636  60.056  1.00  0.00     0.027 C 
BRANCH  10  11
ATOM     11  C   UNL     1      62.087  29.711  59.061  1.00  0.00    -0.031 C 
ATOM     12  C   UNL     1      61.605  30.958  59.180  1.00  0.00    -0.031 C 
BRANCH  12  13
ATOM     13  C   UNL     1      61.947  32.033  58.186  1.00  0.00     0.027 C 
BRANCH  13  14
ATOM     14  C   UNL     1      63.438  32.385  58.240  1.00  0.00     0.004 C 
BRANCH  14  15
ATOM     15  C   UNL     1      63.762  33.213  59.489  1.00  0.00     0.000 C 
BRANCH  15  16
ATOM     16  C   UNL     1      62.947  34.515  59.512  1.00  0.00    -0.000 C 
BRANCH  16  17
ATOM     17  C   UNL     1      63.227  35.366  60.761  1.00  0.00    -0.003 C 
ATOM     18  C   UNL     1      64.588  35.064  61.389  1.00  0.00     0.004 C 
ENDBRANCH  16  17
ENDBRANCH  15  16
ENDBRANCH  14  15
ENDBRANCH  13  14
ENDBRANCH  12  13
ENDBRANCH  10  11
ENDBRANCH   1  10
TORSDOF 13
ENDMDL
MODEL 6
REMARK VINA RESULT:    -3.113      3.595      6.529
REMARK INTER + INTRA:          -7.311
REMARK INTER:                  -4.902
REMARK INTRA:                  -2.410
REMARK UNBOUND:                -1.833
REMARK SMILES CCCCCCC=CCCCCCCCC(=O)[O-]
REMARK SMILES IDX 10 1 11 2 12 3 13 4 14 5 15 6 16 7 17 8 18 9 9 10 8 11 7 12
REMARK SMILES IDX 6 13 5 14 4 15 3 16 2 17 1 18
REMARK H PARENT
REMARK Flexibility Score: inf
ROOT
ATOM      1  C   UNL     1      64.265  32.249  58.638  1.00  0.00     0.004 C 
ENDROOT
BRANCH   1   2
ATOM      2  C   UNL     1      65.458  31.612  59.360  1.00  0.00     0.000 C 
BRANCH   2   3
ATOM      3  C   UNL     1      65.160  31.416  60.850  1.00  0.00     0.000 C 
BRANCH   3   4
ATOM      4  C   UNL     1      64.796  29.954  61.151  1.00  0.00     0.000 C 
BRANCH   4   5
ATOM      5  C   UNL     1      65.435  28.968  60.160  1.00  0.00     0.006 C 
BRANCH   5   6
ATOM      6  C   UNL     1      66.440  28.024  60.833  1.00  0.00     0.053 C 
BRANCH   6   7
ATOM      7  C   UNL     1      67.798  28.650  60.875  1.00  0.00     0.041 C 
ATOM      8  O   UNL     1      68.189  29.380  59.926  1.00  0.00    -0.550 OA
ATOM      9  O   UNL     1      68.613  28.468  61.985  1.00  0.00    -0.550 OA
ENDBRANCH   6   7
ENDBRANCH   5   6
ENDBRANCH   4   5
ENDBRANCH   3   4
ENDBRANCH   2   3
ENDBRANCH   1   2
BRANCH   1  10
ATOM     10  C   UNL     1      63.790  31.367  57.476  1.00  0.00     0.027 C 
BRANCH  10  11
ATOM     11  C   UNL     1      62.837  30.307  57.952  1.00  0.00    -0.031 C 
ATOM     12  C   UNL     1      61.937  30.551  58.917  1.00  0.00    -0.031 C 
BRANCH  12  13
ATOM     13  C   UNL     1      60.982  29.490  59.392  1.00  0.00     0.027 C 
BRANCH  13  14
ATOM     14  C   UNL     1      61.190  29.183  60.880  1.00  0.00     0.004 C 
BRANCH  14  15
ATOM     15  C   UNL     1      61.794  27.787  61.073  1.00  0.00     0.000 C 
BRANCH  15  16
ATOM     16  C   UNL     1      62.049  27.106  59.720  1.00  0.00    -0.000 C 
BRANCH  16  17
ATOM     17  C   UNL     1      62.930  25.854  59.846  1.00  0.00    -0.003 C 
ATOM     18  C   UNL     1      63.574  25.719  61.227  1.00  0.00     0.004 C 
ENDBRANCH  16  17
ENDBRANCH  15  16
ENDBRANCH  14  15
ENDBRANCH  13  14
ENDBRANCH  12  13
ENDBRANCH  10  11
ENDBRANCH   1  10
TORSDOF 13
ENDMDL
MODEL 7
REMARK VINA RESULT:    -3.099      5.571      8.031
REMARK INTER + INTRA:          -7.288
REMARK INTER:                  -6.134
REMARK INTRA:                  -1.154
REMARK UNBOUND:                -1.833
REMARK SMILES CCCCCCC=CCCCCCCCC(=O)[O-]
REMARK SMILES IDX 10 1 11 2 12 3 13 4 14 5 15 6 16 7 17 8 18 9 9 10 8 11 7 12
REMARK SMILES IDX 6 13 5 14 4 15 3 16 2 17 1 18
REMARK H PARENT
REMARK Flexibility Score: inf
ROOT
ATOM      1  C   UNL     1      67.523  27.195  60.038  1.00  0.00     0.004 C 
ENDROOT
BRANCH   1   2
ATOM      2  C   UNL     1      67.464  28.295  61.103  1.00  0.00     0.000 C 
BRANCH   2   3
ATOM      3  C   UNL     1      68.852  28.563  61.696  1.00  0.00     0.000 C 
BRANCH   3   4
ATOM      4  C   UNL     1      69.824  29.064  60.617  1.00  0.00     0.000 C 
BRANCH   4   5
ATOM      5  C   UNL     1      71.257  28.550  60.825  1.00  0.00     0.006 C 
BRANCH   5   6
ATOM      6  C   UNL     1      72.312  29.479  60.211  1.00  0.00     0.053 C 
BRANCH   6   7
ATOM      7  C   UNL     1      72.817  30.445  61.237  1.00  0.00     0.041 C 
ATOM      8  O   UNL     1      73.315  30.022  62.314  1.00  0.00    -0.550 OA
ATOM      9  O   UNL     1      72.784  31.810  60.983  1.00  0.00    -0.550 OA
ENDBRANCH   6   7
ENDBRANCH   5   6
ENDBRANCH   4   5
ENDBRANCH   3   4
ENDBRANCH   2   3
ENDBRANCH   1   2
BRANCH   1  10
ATOM     10  C   UNL     1      66.172  26.478  59.912  1.00  0.00     0.027 C 
BRANCH  10  11
ATOM     11  C   UNL     1      65.078  27.255  60.591  1.00  0.00    -0.031 C 
ATOM     12  C   UNL     1      63.905  26.686  60.910  1.00  0.00    -0.031 C 
BRANCH  12  13
ATOM     13  C   UNL     1      62.811  27.464  61.589  1.00  0.00     0.027 C 
BRANCH  13  14
ATOM     14  C   UNL     1      63.056  28.974  61.484  1.00  0.00     0.004 C 
BRANCH  14  15
ATOM     15  C   UNL     1      62.270  29.578  60.315  1.00  0.00     0.000 C 
BRANCH  15  16
ATOM     16  C   UNL     1      63.099  30.647  59.589  1.00  0.00    -0.000 C 
BRANCH  16  17
ATOM     17  C   UNL     1      64.591  30.584  59.950  1.00  0.00    -0.003 C 
ATOM     18  C   UNL     1      65.098  31.872  60.600  1.00  0.00     0.004 C 
ENDBRANCH  16  17
ENDBRANCH  15  16
ENDBRANCH  14  15
ENDBRANCH  13  14
ENDBRANCH  12  13
ENDBRANCH  10  11
ENDBRANCH   1  10
TORSDOF 13
ENDMDL
MODEL 8
REMARK VINA RESULT:    -3.036      9.828     12.700
REMARK INTER + INTRA:          -7.176
REMARK INTER:                  -5.736
REMARK INTRA:                  -1.440
REMARK UNBOUND:                -1.833
REMARK SMILES CCCCCCC=CCCCCCCCC(=O)[O-]
REMARK SMILES IDX 10 1 11 2 12 3 13 4 14 5 15 6 16 7 17 8 18 9 9 10 8 11 7 12
REMARK SMILES IDX 6 13 5 14 4 15 3 16 2 17 1 18
REMARK H PARENT
REMARK Flexibility Score: inf
ROOT
ATOM      1  C   UNL     1      61.244  28.916  51.692  1.00  0.00     0.004 C 
ENDROOT
BRANCH   1   2
ATOM      2  C   UNL     1      61.641  27.638  50.946  1.00  0.00     0.000 C 
BRANCH   2   3
ATOM      3  C   UNL     1      60.910  27.535  49.602  1.00  0.00     0.000 C 
BRANCH   3   4
ATOM      4  C   UNL     1      60.261  26.153  49.434  1.00  0.00     0.000 C 
BRANCH   4   5
ATOM      5  C   UNL     1      60.578  25.203  50.599  1.00  0.00     0.006 C 
BRANCH   5   6
ATOM      6  C   UNL     1      61.350  23.955  50.150  1.00  0.00     0.053 C 
BRANCH   6   7
ATOM      7  C   UNL     1      60.498  22.734  50.293  1.00  0.00     0.041 C 
ATOM      8  O   UNL     1      60.577  21.802  49.449  1.00  0.00    -0.550 OA
ATOM      9  O   UNL     1      59.650  22.602  51.386  1.00  0.00    -0.550 OA
ENDBRANCH   6   7
ENDBRANCH   5   6
ENDBRANCH   4   5
ENDBRANCH   3   4
ENDBRANCH   2   3
ENDBRANCH   1   2
BRANCH   1  10
ATOM     10  C   UNL     1      59.742  29.192  51.552  1.00  0.00     0.027 C 
BRANCH  10  11
ATOM     11  C   UNL     1      58.939  28.319  52.476  1.00  0.00    -0.031 C 
ATOM     12  C   UNL     1      57.991  27.488  52.013  1.00  0.00    -0.031 C 
BRANCH  12  13
ATOM     13  C   UNL     1      57.189  26.614  52.938  1.00  0.00     0.027 C 
BRANCH  13  14
ATOM     14  C   UNL     1      56.084  25.870  52.178  1.00  0.00     0.004 C 
BRANCH  14  15
ATOM     15  C   UNL     1      56.010  26.337  50.720  1.00  0.00     0.000 C 
BRANCH  15  16
ATOM     16  C   UNL     1      54.831  27.299  50.510  1.00  0.00    -0.000 C 
BRANCH  16  17
ATOM     17  C   UNL     1      53.923  26.876  49.345  1.00  0.00    -0.003 C 
ATOM     18  C   UNL     1      54.352  25.553  48.711  1.00  0.00     0.004 C 
ENDBRANCH  16  17
ENDBRANCH  15  16
ENDBRANCH  14  15
ENDBRANCH  13  14
ENDBRANCH  12  13
ENDBRANCH  10  11
ENDBRANCH   1  10
TORSDOF 13
ENDMDL
MODEL 9
REMARK VINA RESULT:    -2.987      3.966      5.651
REMARK INTER + INTRA:          -7.089
REMARK INTER:                  -5.463
REMARK INTRA:                  -1.627
REMARK UNBOUND:                -1.833
REMARK SMILES CCCCCCC=CCCCCCCCC(=O)[O-]
REMARK SMILES IDX 10 1 11 2 12 3 13 4 14 5 15 6 16 7 17 8 18 9 9 10 8 11 7 12
REMARK SMILES IDX 6 13 5 14 4 15 3 16 2 17 1 18
REMARK H PARENT
REMARK Flexibility Score: inf
ROOT
ATOM      1  C   UNL     1      61.714  25.578  61.011  1.00  0.00     0.004 C 
ENDROOT
BRANCH   1   2
ATOM      2  C   UNL     1      60.845  25.297  62.243  1.00  0.00     0.000 C 
BRANCH   2   3
ATOM      3  C   UNL     1      59.469  25.961  62.110  1.00  0.00     0.000 C 
BRANCH   3   4
ATOM      4  C   UNL     1      59.515  27.126  61.110  1.00  0.00     0.000 C 
BRANCH   4   5
ATOM      5  C   UNL     1      58.222  27.254  60.290  1.00  0.00     0.006 C 
BRANCH   5   6
ATOM      6  C   UNL     1      57.022  26.582  60.970  1.00  0.00     0.053 C 
BRANCH   6   7
ATOM      7  C   UNL     1      56.191  27.600  61.686  1.00  0.00     0.041 C 
ATOM      8  O   UNL     1      56.403  27.851  62.901  1.00  0.00    -0.550 OA
ATOM      9  O   UNL     1      55.214  28.308  60.997  1.00  0.00    -0.550 OA
ENDBRANCH   6   7
ENDBRANCH   5   6
ENDBRANCH   4   5
ENDBRANCH   3   4
ENDBRANCH   2   3
ENDBRANCH   1   2
BRANCH   1  10
ATOM     10  C   UNL     1      63.163  25.875  61.417  1.00  0.00     0.027 C 
BRANCH  10  11
ATOM     11  C   UNL     1      63.444  27.352  61.390  1.00  0.00    -0.031 C 
ATOM     12  C   UNL     1      62.926  28.149  60.443  1.00  0.00    -0.031 C 
BRANCH  12  13
ATOM     13  C   UNL     1      63.207  29.627  60.417  1.00  0.00     0.027 C 
BRANCH  13  14
ATOM     14  C   UNL     1      64.319  29.997  61.405  1.00  0.00     0.004 C 
BRANCH  14  15
ATOM     15  C   UNL     1      65.423  30.804  60.712  1.00  0.00     0.000 C 
BRANCH  15  16
ATOM     16  C   UNL     1      66.421  29.875  60.006  1.00  0.00    -0.000 C 
BRANCH  16  17
ATOM     17  C   UNL     1      66.953  28.767  60.929  1.00  0.00    -0.003 C 
ATOM     18  C   UNL     1      66.917  27.385  60.276  1.00  0.00     0.004 C 
ENDBRANCH  16  17
ENDBRANCH  15  16
ENDBRANCH  14  15
ENDBRANCH  13  14
ENDBRANCH  12  13
ENDBRANCH  10  11
ENDBRANCH   1  10
TORSDOF 13
ENDMDL
