MODEL 1
REMARK VINA RESULT:    -5.819      0.000      0.000
REMARK INTER + INTRA:         -10.964
REMARK INTER:                 -10.071
REMARK INTRA:                  -0.892
REMARK UNBOUND:                -0.892
REMARK SMILES CCCCCCCCCCCCCCO
REMARK SMILES IDX 8 1 7 2 6 3 5 4 4 5 3 6 2 7 1 8 9 9 10 10 11 11 12 12 13 13
REMARK SMILES IDX 14 14 15 15
REMARK H PARENT 15 16
REMARK Flexibility Score: inf
ROOT
ATOM      1  C   UNL     1     -13.953  -0.851 -10.439  1.00  0.00     0.000 C 
ENDROOT
BRANCH   1   2
ATOM      2  C   UNL     1     -12.636  -1.405 -11.001  1.00  0.00    -0.000 C 
BRANCH   2   3
ATOM      3  C   UNL     1     -11.513  -0.361 -10.901  1.00  0.00    -0.000 C 
BRANCH   3   4
ATOM      4  C   UNL     1     -10.270  -0.889 -10.164  1.00  0.00    -0.000 C 
BRANCH   4   5
ATOM      5  C   UNL     1     -10.421  -2.302  -9.563  1.00  0.00    -0.000 C 
BRANCH   5   6
ATOM      6  C   UNL     1      -9.103  -3.077  -9.372  1.00  0.00    -0.000 C 
BRANCH   6   7
ATOM      7  C   UNL     1      -9.145  -4.166  -8.286  1.00  0.00    -0.003 C 
ATOM      8  C   UNL     1     -10.160  -3.867  -7.183  1.00  0.00     0.004 C 
ENDBRANCH   6   7
ENDBRANCH   5   6
ENDBRANCH   4   5
ENDBRANCH   3   4
ENDBRANCH   2   3
ENDBRANCH   1   2
BRANCH   1   9
ATOM      9  C   UNL     1     -13.976   0.687 -10.369  1.00  0.00     0.000 C 
BRANCH   9  10
ATOM     10  C   UNL     1     -14.909   1.273  -9.294  1.00  0.00     0.000 C 
BRANCH  10  11
ATOM     11  C   UNL     1     -14.330   2.520  -8.611  1.00  0.00     0.000 C 
BRANCH  11  12
ATOM     12  C   UNL     1     -13.042   2.980  -9.310  1.00  0.00     0.002 C 
BRANCH  12  13
ATOM     13  C   UNL     1     -12.271   4.037  -8.499  1.00  0.00     0.028 C 
BRANCH  13  14
ATOM     14  C   UNL     1     -10.774   3.731  -8.356  1.00  0.00     0.156 C 
BRANCH  14  15
ATOM     15  O   UNL     1     -10.511   2.374  -8.590  1.00  0.00    -0.396 OA
ATOM     16  H   UNL     1     -11.308   1.872  -8.273  1.00  0.00     0.210 HD
ENDBRANCH  14  15
ENDBRANCH  13  14
ENDBRANCH  12  13
ENDBRANCH  11  12
ENDBRANCH  10  11
ENDBRANCH   9  10
ENDBRANCH   1   9
TORSDOF 13
ENDMDL
MODEL 2
REMARK VINA RESULT:    -5.689      2.203      6.352
REMARK INTER + INTRA:         -10.739
REMARK INTER:                  -9.746
REMARK INTRA:                  -0.992
REMARK UNBOUND:                -0.892
REMARK SMILES CCCCCCCCCCCCCCO
REMARK SMILES IDX 8 1 7 2 6 3 5 4 4 5 3 6 2 7 1 8 9 9 10 10 11 11 12 12 13 13
REMARK SMILES IDX 14 14 15 15
REMARK H PARENT 15 16
REMARK Flexibility Score: inf
ROOT
ATOM      1  C   UNL     1     -12.388   0.676 -10.338  1.00  0.00     0.000 C 
ENDROOT
BRANCH   1   2
ATOM      2  C   UNL     1     -13.866   0.260 -10.316  1.00  0.00    -0.000 C 
BRANCH   2   3
ATOM      3  C   UNL     1     -14.668   1.137  -9.343  1.00  0.00    -0.000 C 
BRANCH   3   4
ATOM      4  C   UNL     1     -14.359   2.637  -9.496  1.00  0.00    -0.000 C 
BRANCH   4   5
ATOM      5  C   UNL     1     -13.881   3.337  -8.208  1.00  0.00    -0.000 C 
BRANCH   5   6
ATOM      6  C   UNL     1     -12.950   4.546  -8.426  1.00  0.00    -0.000 C 
BRANCH   6   7
ATOM      7  C   UNL     1     -11.660   4.236  -9.207  1.00  0.00    -0.003 C 
ATOM      8  C   UNL     1     -10.658   3.414  -8.396  1.00  0.00     0.004 C 
ENDBRANCH   6   7
ENDBRANCH   5   6
ENDBRANCH   4   5
ENDBRANCH   3   4
ENDBRANCH   2   3
ENDBRANCH   1   2
BRANCH   1   9
ATOM      9  C   UNL     1     -11.451  -0.460 -10.787  1.00  0.00     0.000 C 
BRANCH   9  10
ATOM     10  C   UNL     1     -12.149  -1.803 -11.069  1.00  0.00     0.000 C 
BRANCH  10  11
ATOM     11  C   UNL     1     -11.792  -2.892 -10.047  1.00  0.00     0.000 C 
BRANCH  11  12
ATOM     12  C   UNL     1     -10.288  -2.879  -9.734  1.00  0.00     0.002 C 
BRANCH  12  13
ATOM     13  C   UNL     1      -9.973  -3.383  -8.314  1.00  0.00     0.028 C 
BRANCH  13  14
ATOM     14  C   UNL     1      -8.792  -4.363  -8.258  1.00  0.00     0.156 C 
BRANCH  14  15
ATOM     15  O   UNL     1      -8.828  -5.259  -9.335  1.00  0.00    -0.396 OA
ATOM     16  H   UNL     1      -8.859  -4.709 -10.161  1.00  0.00     0.210 HD
ENDBRANCH  14  15
ENDBRANCH  13  14
ENDBRANCH  12  13
ENDBRANCH  11  12
ENDBRANCH  10  11
ENDBRANCH   9  10
ENDBRANCH   1   9
TORSDOF 13
ENDMDL
MODEL 3
REMARK VINA RESULT:    -5.627      1.486      2.376
REMARK INTER + INTRA:         -10.631
REMARK INTER:                  -9.552
REMARK INTRA:                  -1.079
REMARK UNBOUND:                -0.892
REMARK SMILES CCCCCCCCCCCCCCO
REMARK SMILES IDX 8 1 7 2 6 3 5 4 4 5 3 6 2 7 1 8 9 9 10 10 11 11 12 12 13 13
REMARK SMILES IDX 14 14 15 15
REMARK H PARENT 15 16
REMARK Flexibility Score: inf
ROOT
ATOM      1  C   UNL     1     -15.033   0.054  -9.258  1.00  0.00     0.000 C 
ENDROOT
BRANCH   1   2
ATOM      2  C   UNL     1     -14.664  -0.436 -10.666  1.00  0.00    -0.000 C 
BRANCH   2   3
ATOM      3  C   UNL     1     -14.287  -1.925 -10.648  1.00  0.00    -0.000 C 
BRANCH   3   4
ATOM      4  C   UNL     1     -12.809  -2.172 -10.993  1.00  0.00    -0.000 C 
BRANCH   4   5
ATOM      5  C   UNL     1     -11.895  -0.937 -10.860  1.00  0.00    -0.000 C 
BRANCH   5   6
ATOM      6  C   UNL     1     -10.572  -1.179 -10.106  1.00  0.00    -0.000 C 
BRANCH   6   7
ATOM      7  C   UNL     1     -10.290  -2.649  -9.750  1.00  0.00    -0.003 C 
ATOM      8  C   UNL     1      -9.874  -2.838  -8.291  1.00  0.00     0.004 C 
ENDBRANCH   6   7
ENDBRANCH   5   6
ENDBRANCH   4   5
ENDBRANCH   3   4
ENDBRANCH   2   3
ENDBRANCH   1   2
BRANCH   1   9
ATOM      9  C   UNL     1     -14.951   1.584  -9.113  1.00  0.00     0.000 C 
BRANCH   9  10
ATOM     10  C   UNL     1     -13.960   2.274 -10.070  1.00  0.00     0.000 C 
BRANCH  10  11
ATOM     11  C   UNL     1     -12.516   2.263  -9.549  1.00  0.00     0.000 C 
BRANCH  11  12
ATOM     12  C   UNL     1     -11.928   3.683  -9.533  1.00  0.00     0.002 C 
BRANCH  12  13
ATOM     13  C   UNL     1     -11.557   4.156  -8.116  1.00  0.00     0.028 C 
BRANCH  13  14
ATOM     14  C   UNL     1     -12.774   4.434  -7.222  1.00  0.00     0.156 C 
BRANCH  14  15
ATOM     15  O   UNL     1     -13.759   5.148  -7.918  1.00  0.00    -0.396 OA
ATOM     16  H   UNL     1     -14.097   4.544  -8.631  1.00  0.00     0.210 HD
ENDBRANCH  14  15
ENDBRANCH  13  14
ENDBRANCH  12  13
ENDBRANCH  11  12
ENDBRANCH  10  11
ENDBRANCH   9  10
ENDBRANCH   1   9
TORSDOF 13
ENDMDL
MODEL 4
REMARK VINA RESULT:    -4.977      1.646      2.052
REMARK INTER + INTRA:          -9.506
REMARK INTER:                  -8.532
REMARK INTRA:                  -0.974
REMARK UNBOUND:                -0.892
REMARK SMILES CCCCCCCCCCCCCCO
REMARK SMILES IDX 8 1 7 2 6 3 5 4 4 5 3 6 2 7 1 8 9 9 10 10 11 11 12 12 13 13
REMARK SMILES IDX 14 14 15 15
REMARK H PARENT 15 16
REMARK Flexibility Score: inf
ROOT
ATOM      1  C   UNL     1     -13.097  -0.933 -11.124  1.00  0.00     0.000 C 
ENDROOT
BRANCH   1   2
ATOM      2  C   UNL     1     -13.355  -2.288 -10.450  1.00  0.00    -0.000 C 
BRANCH   2   3
ATOM      3  C   UNL     1     -12.053  -3.095 -10.323  1.00  0.00    -0.000 C 
BRANCH   3   4
ATOM      4  C   UNL     1     -10.798  -2.204 -10.298  1.00  0.00    -0.000 C 
BRANCH   4   5
ATOM      5  C   UNL     1     -10.254  -1.887  -8.890  1.00  0.00    -0.000 C 
BRANCH   5   6
ATOM      6  C   UNL     1     -10.104  -3.105  -7.956  1.00  0.00    -0.000 C 
BRANCH   6   7
ATOM      7  C   UNL     1      -8.794  -3.893  -8.128  1.00  0.00    -0.003 C 
ATOM      8  C   UNL     1      -8.798  -4.789  -9.367  1.00  0.00     0.004 C 
ENDBRANCH   6   7
ENDBRANCH   5   6
ENDBRANCH   4   5
ENDBRANCH   3   4
ENDBRANCH   2   3
ENDBRANCH   1   2
BRANCH   1   9
ATOM      9  C   UNL     1     -13.995   0.191 -10.576  1.00  0.00     0.000 C 
BRANCH   9  10
ATOM     10  C   UNL     1     -13.316   1.123  -9.555  1.00  0.00     0.000 C 
BRANCH  10  11
ATOM     11  C   UNL     1     -11.820   1.329  -9.831  1.00  0.00     0.000 C 
BRANCH  11  12
ATOM     12  C   UNL     1     -11.254   2.465  -8.966  1.00  0.00     0.002 C 
BRANCH  12  13
ATOM     13  C   UNL     1     -11.954   3.812  -9.220  1.00  0.00     0.028 C 
BRANCH  13  14
ATOM     14  C   UNL     1     -12.637   4.394  -7.974  1.00  0.00     0.156 C 
BRANCH  14  15
ATOM     15  O   UNL     1     -13.564   5.385  -8.323  1.00  0.00    -0.396 OA
ATOM     16  H   UNL     1     -14.368   5.232  -7.761  1.00  0.00     0.210 HD
ENDBRANCH  14  15
ENDBRANCH  13  14
ENDBRANCH  12  13
ENDBRANCH  11  12
ENDBRANCH  10  11
ENDBRANCH   9  10
ENDBRANCH   1   9
TORSDOF 13
ENDMDL
MODEL 5
REMARK VINA RESULT:    -4.970      1.425      2.524
REMARK INTER + INTRA:          -9.494
REMARK INTER:                  -8.351
REMARK INTRA:                  -1.143
REMARK UNBOUND:                -0.892
REMARK SMILES CCCCCCCCCCCCCCO
REMARK SMILES IDX 8 1 7 2 6 3 5 4 4 5 3 6 2 7 1 8 9 9 10 10 11 11 12 12 13 13
REMARK SMILES IDX 14 14 15 15
REMARK H PARENT 15 16
REMARK Flexibility Score: inf
ROOT
ATOM      1  C   UNL     1     -14.763  -0.469  -9.999  1.00  0.00     0.000 C 
ENDROOT
BRANCH   1   2
ATOM      2  C   UNL     1     -14.577  -1.589 -11.034  1.00  0.00    -0.000 C 
BRANCH   2   3
ATOM      3  C   UNL     1     -14.709  -2.971 -10.377  1.00  0.00    -0.000 C 
BRANCH   3   4
ATOM      4  C   UNL     1     -13.350  -3.576  -9.982  1.00  0.00    -0.000 C 
BRANCH   4   5
ATOM      5  C   UNL     1     -12.124  -2.895 -10.622  1.00  0.00    -0.000 C 
BRANCH   5   6
ATOM      6  C   UNL     1     -11.031  -2.447  -9.631  1.00  0.00    -0.000 C 
BRANCH   6   7
ATOM      7  C   UNL     1     -10.582  -0.983  -9.782  1.00  0.00    -0.003 C 
ATOM      8  C   UNL     1     -10.992  -0.371 -11.122  1.00  0.00     0.004 C 
ENDBRANCH   6   7
ENDBRANCH   5   6
ENDBRANCH   4   5
ENDBRANCH   3   4
ENDBRANCH   2   3
ENDBRANCH   1   2
BRANCH   1   9
ATOM      9  C   UNL     1     -14.083   0.848 -10.411  1.00  0.00     0.000 C 
BRANCH   9  10
ATOM     10  C   UNL     1     -13.448   1.640  -9.253  1.00  0.00     0.000 C 
BRANCH  10  11
ATOM     11  C   UNL     1     -13.882   3.113  -9.223  1.00  0.00     0.000 C 
BRANCH  11  12
ATOM     12  C   UNL     1     -12.662   4.045  -9.279  1.00  0.00     0.002 C 
BRANCH  12  13
ATOM     13  C   UNL     1     -11.937   4.157  -7.926  1.00  0.00     0.028 C 
BRANCH  13  14
ATOM     14  C   UNL     1     -10.446   3.802  -7.997  1.00  0.00     0.156 C 
BRANCH  14  15
ATOM     15  O   UNL     1     -10.250   2.567  -8.631  1.00  0.00    -0.396 OA
ATOM     16  H   UNL     1      -9.447   2.157  -8.212  1.00  0.00     0.210 HD
ENDBRANCH  14  15
ENDBRANCH  13  14
ENDBRANCH  12  13
ENDBRANCH  11  12
ENDBRANCH  10  11
ENDBRANCH   9  10
ENDBRANCH   1   9
TORSDOF 13
ENDMDL
MODEL 6
REMARK VINA RESULT:    -4.840      2.399      5.123
REMARK INTER + INTRA:          -9.270
REMARK INTER:                  -7.897
REMARK INTRA:                  -1.373
REMARK UNBOUND:                -0.892
REMARK SMILES CCCCCCCCCCCCCCO
REMARK SMILES IDX 8 1 7 2 6 3 5 4 4 5 3 6 2 7 1 8 9 9 10 10 11 11 12 12 13 13
REMARK SMILES IDX 14 14 15 15
REMARK H PARENT 15 16
REMARK Flexibility Score: inf
ROOT
ATOM      1  C   UNL     1     -14.515   2.400  -8.196  1.00  0.00     0.000 C 
ENDROOT
BRANCH   1   2
ATOM      2  C   UNL     1     -13.678   3.419  -8.984  1.00  0.00    -0.000 C 
BRANCH   2   3
ATOM      3  C   UNL     1     -12.573   4.020  -8.102  1.00  0.00    -0.000 C 
BRANCH   3   4
ATOM      4  C   UNL     1     -11.192   3.395  -8.366  1.00  0.00    -0.000 C 
BRANCH   4   5
ATOM      5  C   UNL     1     -11.156   2.355  -9.504  1.00  0.00    -0.000 C 
BRANCH   5   6
ATOM      6  C   UNL     1     -10.971   0.893  -9.051  1.00  0.00    -0.000 C 
BRANCH   6   7
ATOM      7  C   UNL     1     -10.835  -0.126 -10.196  1.00  0.00    -0.003 C 
ATOM      8  C   UNL     1     -10.521  -1.538  -9.700  1.00  0.00     0.004 C 
ENDBRANCH   6   7
ENDBRANCH   5   6
ENDBRANCH   4   5
ENDBRANCH   3   4
ENDBRANCH   2   3
ENDBRANCH   1   2
BRANCH   1   9
ATOM      9  C   UNL     1     -14.905   1.169  -9.033  1.00  0.00     0.000 C 
BRANCH   9  10
ATOM     10  C   UNL     1     -14.268   1.108 -10.434  1.00  0.00     0.000 C 
BRANCH  10  11
ATOM     11  C   UNL     1     -14.333  -0.291 -11.063  1.00  0.00     0.000 C 
BRANCH  11  12
ATOM     12  C   UNL     1     -14.657  -1.355 -10.003  1.00  0.00     0.002 C 
BRANCH  12  13
ATOM     13  C   UNL     1     -15.043  -2.711 -10.620  1.00  0.00     0.028 C 
BRANCH  13  14
ATOM     14  C   UNL     1     -14.435  -3.915  -9.889  1.00  0.00     0.156 C 
BRANCH  14  15
ATOM     15  O   UNL     1     -13.065  -4.035 -10.166  1.00  0.00    -0.396 OA
ATOM     16  H   UNL     1     -12.895  -4.997 -10.343  1.00  0.00     0.210 HD
ENDBRANCH  14  15
ENDBRANCH  13  14
ENDBRANCH  12  13
ENDBRANCH  11  12
ENDBRANCH  10  11
ENDBRANCH   9  10
ENDBRANCH   1   9
TORSDOF 13
ENDMDL
MODEL 7
REMARK VINA RESULT:    -4.625      2.073      5.909
REMARK INTER + INTRA:          -8.897
REMARK INTER:                  -7.962
REMARK INTRA:                  -0.935
REMARK UNBOUND:                -0.892
REMARK SMILES CCCCCCCCCCCCCCO
REMARK SMILES IDX 8 1 7 2 6 3 5 4 4 5 3 6 2 7 1 8 9 9 10 10 11 11 12 12 13 13
REMARK SMILES IDX 14 14 15 15
REMARK H PARENT 15 16
REMARK Flexibility Score: inf
ROOT
ATOM      1  C   UNL     1     -14.354  -2.370 -10.969  1.00  0.00     0.000 C 
ENDROOT
BRANCH   1   2
ATOM      2  C   UNL     1     -15.125  -1.237 -10.276  1.00  0.00    -0.000 C 
BRANCH   2   3
ATOM      3  C   UNL     1     -14.382   0.100 -10.419  1.00  0.00    -0.000 C 
BRANCH   3   4
ATOM      4  C   UNL     1     -14.798   1.132  -9.356  1.00  0.00    -0.000 C 
BRANCH   4   5
ATOM      5  C   UNL     1     -13.770   2.252  -9.099  1.00  0.00    -0.000 C 
BRANCH   5   6
ATOM      6  C   UNL     1     -12.295   1.846  -9.293  1.00  0.00    -0.000 C 
BRANCH   6   7
ATOM      7  C   UNL     1     -11.270   2.880  -8.798  1.00  0.00    -0.003 C 
ATOM      8  C   UNL     1     -11.497   4.272  -9.389  1.00  0.00     0.004 C 
ENDBRANCH   6   7
ENDBRANCH   5   6
ENDBRANCH   4   5
ENDBRANCH   3   4
ENDBRANCH   2   3
ENDBRANCH   1   2
BRANCH   1   9
ATOM      9  C   UNL     1     -13.308  -3.031 -10.053  1.00  0.00     0.000 C 
BRANCH   9  10
ATOM     10  C   UNL     1     -11.857  -2.954 -10.565  1.00  0.00     0.000 C 
BRANCH  10  11
ATOM     11  C   UNL     1     -11.083  -1.756  -9.998  1.00  0.00     0.000 C 
BRANCH  11  12
ATOM     12  C   UNL     1      -9.590  -2.088  -9.850  1.00  0.00     0.002 C 
BRANCH  12  13
ATOM     13  C   UNL     1      -9.336  -3.584  -9.592  1.00  0.00     0.028 C 
BRANCH  13  14
ATOM     14  C   UNL     1      -9.056  -3.915  -8.119  1.00  0.00     0.156 C 
BRANCH  14  15
ATOM     15  O   UNL     1     -10.238  -4.242  -7.441  1.00  0.00    -0.396 OA
ATOM     16  H   UNL     1     -10.109  -5.154  -7.070  1.00  0.00     0.210 HD
ENDBRANCH  14  15
ENDBRANCH  13  14
ENDBRANCH  12  13
ENDBRANCH  11  12
ENDBRANCH  10  11
ENDBRANCH   9  10
ENDBRANCH   1   9
TORSDOF 13
ENDMDL
MODEL 8
REMARK VINA RESULT:    -4.576      2.627      6.557
REMARK INTER + INTRA:          -8.813
REMARK INTER:                  -7.696
REMARK INTRA:                  -1.117
REMARK UNBOUND:                -0.892
REMARK SMILES CCCCCCCCCCCCCCO
REMARK SMILES IDX 8 1 7 2 6 3 5 4 4 5 3 6 2 7 1 8 9 9 10 10 11 11 12 12 13 13
REMARK SMILES IDX 14 14 15 15
REMARK H PARENT 15 16
REMARK Flexibility Score: inf
ROOT
ATOM      1  C   UNL     1     -10.922  -0.139  -9.541  1.00  0.00     0.000 C 
ENDROOT
BRANCH   1   2
ATOM      2  C   UNL     1     -11.872   0.813 -10.282  1.00  0.00    -0.000 C 
BRANCH   2   3
ATOM      3  C   UNL     1     -13.333   0.549  -9.887  1.00  0.00    -0.000 C 
BRANCH   3   4
ATOM      4  C   UNL     1     -14.188   1.828  -9.868  1.00  0.00    -0.000 C 
BRANCH   4   5
ATOM      5  C   UNL     1     -13.402   3.132  -9.620  1.00  0.00    -0.000 C 
BRANCH   5   6
ATOM      6  C   UNL     1     -13.479   3.680  -8.181  1.00  0.00    -0.000 C 
BRANCH   6   7
ATOM      7  C   UNL     1     -12.187   4.342  -7.672  1.00  0.00    -0.003 C 
ATOM      8  C   UNL     1     -10.957   3.955  -8.492  1.00  0.00     0.004 C 
ENDBRANCH   6   7
ENDBRANCH   5   6
ENDBRANCH   4   5
ENDBRANCH   3   4
ENDBRANCH   2   3
ENDBRANCH   1   2
BRANCH   1   9
ATOM      9  C   UNL     1     -10.048  -0.976 -10.492  1.00  0.00     0.000 C 
BRANCH   9  10
ATOM     10  C   UNL     1      -9.794  -2.424 -10.034  1.00  0.00     0.000 C 
BRANCH  10  11
ATOM     11  C   UNL     1     -11.040  -3.092  -9.435  1.00  0.00     0.000 C 
BRANCH  11  12
ATOM     12  C   UNL     1     -12.119  -3.303 -10.508  1.00  0.00     0.002 C 
BRANCH  12  13
ATOM     13  C   UNL     1     -13.535  -2.982  -9.998  1.00  0.00     0.028 C 
BRANCH  13  14
ATOM     14  C   UNL     1     -14.580  -4.042 -10.374  1.00  0.00     0.156 C 
BRANCH  14  15
ATOM     15  O   UNL     1     -14.008  -5.321 -10.419  1.00  0.00    -0.396 OA
ATOM     16  H   UNL     1     -14.756  -5.962 -10.546  1.00  0.00     0.210 HD
ENDBRANCH  14  15
ENDBRANCH  13  14
ENDBRANCH  12  13
ENDBRANCH  11  12
ENDBRANCH  10  11
ENDBRANCH   9  10
ENDBRANCH   1   9
TORSDOF 13
ENDMDL
MODEL 9
REMARK VINA RESULT:    -4.571     15.204     17.764
REMARK INTER + INTRA:          -8.804
REMARK INTER:                  -8.063
REMARK INTRA:                  -0.741
REMARK UNBOUND:                -0.892
REMARK SMILES CCCCCCCCCCCCCCO
REMARK SMILES IDX 8 1 7 2 6 3 5 4 4 5 3 6 2 7 1 8 9 9 10 10 11 11 12 12 13 13
REMARK SMILES IDX 14 14 15 15
REMARK H PARENT 15 16
REMARK Flexibility Score: inf
ROOT
ATOM      1  C   UNL     1      -9.955   5.594   7.989  1.00  0.00     0.000 C 
ENDROOT
BRANCH   1   2
ATOM      2  C   UNL     1      -9.186   5.875   6.690  1.00  0.00    -0.000 C 
BRANCH   2   3
ATOM      3  C   UNL     1      -9.568   7.246   6.111  1.00  0.00    -0.000 C 
BRANCH   3   4
ATOM      4  C   UNL     1      -8.433   7.887   5.295  1.00  0.00    -0.000 C 
BRANCH   4   5
ATOM      5  C   UNL     1      -8.400   9.429   5.326  1.00  0.00    -0.000 C 
BRANCH   5   6
ATOM      6  C   UNL     1      -6.994  10.053   5.419  1.00  0.00    -0.000 C 
BRANCH   6   7
ATOM      7  C   UNL     1      -6.445  10.200   6.849  1.00  0.00    -0.003 C 
ATOM      8  C   UNL     1      -5.323  11.233   6.953  1.00  0.00     0.004 C 
ENDBRANCH   6   7
ENDBRANCH   5   6
ENDBRANCH   4   5
ENDBRANCH   3   4
ENDBRANCH   2   3
ENDBRANCH   1   2
BRANCH   1   9
ATOM      9  C   UNL     1     -10.567   4.182   8.032  1.00  0.00     0.000 C 
BRANCH   9  10
ATOM     10  C   UNL     1     -11.478   3.834   6.841  1.00  0.00     0.000 C 
BRANCH  10  11
ATOM     11  C   UNL     1     -12.727   4.724   6.759  1.00  0.00     0.000 C 
BRANCH  11  12
ATOM     12  C   UNL     1     -12.717   5.566   5.475  1.00  0.00     0.002 C 
BRANCH  12  13
ATOM     13  C   UNL     1     -14.039   6.322   5.250  1.00  0.00     0.028 C 
BRANCH  13  14
ATOM     14  C   UNL     1     -14.736   5.963   3.931  1.00  0.00     0.156 C 
BRANCH  14  15
ATOM     15  O   UNL     1     -13.873   5.260   3.078  1.00  0.00    -0.396 OA
ATOM     16  H   UNL     1     -13.690   4.387   3.516  1.00  0.00     0.210 HD
ENDBRANCH  14  15
ENDBRANCH  13  14
ENDBRANCH  12  13
ENDBRANCH  11  12
ENDBRANCH  10  11
ENDBRANCH   9  10
ENDBRANCH   1   9
TORSDOF 13
ENDMDL
