MODEL 1
REMARK VINA RESULT:    -5.182      0.000      0.000
REMARK INTER + INTRA:          -8.233
REMARK INTER:                  -7.909
REMARK INTRA:                  -0.324
REMARK UNBOUND:                -0.324
REMARK SMILES O=C([O-])CCCCCCCCC(=O)[O-]
REMARK SMILES IDX 7 1 6 2 5 3 4 4 2 5 1 6 3 7 8 8 9 9 10 10 11 11 12 12 13 13
REMARK SMILES IDX 14 14
REMARK H PARENT
REMARK Flexibility Score: inf
ROOT
ATOM      1  C   UNL     1      18.882  27.043   1.103  1.00  0.00     0.000 C 
ENDROOT
BRANCH   1   2
ATOM      2  C   UNL     1      18.918  25.643   1.737  1.00  0.00     0.000 C 
BRANCH   2   3
ATOM      3  C   UNL     1      19.223  25.682   3.242  1.00  0.00     0.006 C 
BRANCH   3   4
ATOM      4  C   UNL     1      19.709  24.317   3.737  1.00  0.00     0.053 C 
BRANCH   4   5
ATOM      5  C   UNL     1      21.083  24.031   3.220  1.00  0.00     0.041 C 
ATOM      6  O   UNL     1      22.088  24.218   3.955  1.00  0.00    -0.550 OA
ATOM      7  O   UNL     1      21.251  23.512   1.942  1.00  0.00    -0.550 OA
ENDBRANCH   4   5
ENDBRANCH   3   4
ENDBRANCH   2   3
ENDBRANCH   1   2
BRANCH   1   8
ATOM      8  C   UNL     1      18.524  27.009  -0.391  1.00  0.00     0.000 C 
BRANCH   8   9
ATOM      9  C   UNL     1      18.891  25.656  -1.012  1.00  0.00     0.000 C 
BRANCH   9  10
ATOM     10  C   UNL     1      17.677  25.019  -1.702  1.00  0.00     0.006 C 
BRANCH  10  11
ATOM     11  C   UNL     1      16.355  25.667  -1.271  1.00  0.00     0.053 C 
BRANCH  11  12
ATOM     12  C   UNL     1      15.195  25.131  -2.052  1.00  0.00     0.041 C 
ATOM     13  O   UNL     1      14.357  24.370  -1.501  1.00  0.00    -0.550 OA
ATOM     14  O   UNL     1      15.056  25.447  -3.397  1.00  0.00    -0.550 OA
ENDBRANCH  11  12
ENDBRANCH  10  11
ENDBRANCH   9  10
ENDBRANCH   8   9
ENDBRANCH   1   8
TORSDOF 9
ENDMDL
MODEL 2
REMARK VINA RESULT:    -5.149      0.072      6.584
REMARK INTER + INTRA:          -8.182
REMARK INTER:                  -7.836
REMARK INTRA:                  -0.346
REMARK UNBOUND:                -0.324
REMARK SMILES O=C([O-])CCCCCCCCC(=O)[O-]
REMARK SMILES IDX 7 1 6 2 5 3 4 4 2 5 1 6 3 7 8 8 9 9 10 10 11 11 12 12 13 13
REMARK SMILES IDX 14 14
REMARK H PARENT
REMARK Flexibility Score: inf
ROOT
ATOM      1  C   UNL     1      18.499  27.026  -0.394  1.00  0.00     0.000 C 
ENDROOT
BRANCH   1   2
ATOM      2  C   UNL     1      18.867  25.686  -1.052  1.00  0.00     0.000 C 
BRANCH   2   3
ATOM      3  C   UNL     1      17.653  24.980  -1.676  1.00  0.00     0.006 C 
BRANCH   3   4
ATOM      4  C   UNL     1      16.348  25.663  -1.255  1.00  0.00     0.053 C 
BRANCH   4   5
ATOM      5  C   UNL     1      15.197  25.120  -2.041  1.00  0.00     0.041 C 
ATOM      6  O   UNL     1      14.333  24.395  -1.481  1.00  0.00    -0.550 OA
ATOM      7  O   UNL     1      15.050  25.454  -3.382  1.00  0.00    -0.550 OA
ENDBRANCH   4   5
ENDBRANCH   3   4
ENDBRANCH   2   3
ENDBRANCH   1   2
BRANCH   1   8
ATOM      8  C   UNL     1      18.836  27.062   1.105  1.00  0.00     0.000 C 
BRANCH   8   9
ATOM      9  C   UNL     1      18.905  25.645   1.686  1.00  0.00     0.000 C 
BRANCH   9  10
ATOM     10  C   UNL     1      19.279  25.677   3.175  1.00  0.00     0.006 C 
BRANCH  10  11
ATOM     11  C   UNL     1      19.766  24.314   3.682  1.00  0.00     0.053 C 
BRANCH  11  12
ATOM     12  C   UNL     1      21.142  23.996   3.183  1.00  0.00     0.041 C 
ATOM     13  O   UNL     1      21.303  23.498   2.038  1.00  0.00    -0.550 OA
ATOM     14  O   UNL     1      22.246  24.223   3.996  1.00  0.00    -0.550 OA
ENDBRANCH  11  12
ENDBRANCH  10  11
ENDBRANCH   9  10
ENDBRANCH   8   9
ENDBRANCH   1   8
TORSDOF 9
ENDMDL
MODEL 3
REMARK VINA RESULT:    -4.458      1.600      2.094
REMARK INTER + INTRA:          -7.128
REMARK INTER:                  -7.034
REMARK INTRA:                  -0.094
REMARK UNBOUND:                -0.324
REMARK SMILES O=C([O-])CCCCCCCCC(=O)[O-]
REMARK SMILES IDX 7 1 6 2 5 3 4 4 2 5 1 6 3 7 8 8 9 9 10 10 11 11 12 12 13 13
REMARK SMILES IDX 14 14
REMARK H PARENT
REMARK Flexibility Score: inf
ROOT
ATOM      1  C   UNL     1      19.308  24.025  -0.121  1.00  0.00     0.000 C 
ENDROOT
BRANCH   1   2
ATOM      2  C   UNL     1      19.365  24.257   1.398  1.00  0.00     0.000 C 
BRANCH   2   3
ATOM      3  C   UNL     1      20.661  23.728   2.029  1.00  0.00     0.006 C 
BRANCH   3   4
ATOM      4  C   UNL     1      20.795  24.200   3.480  1.00  0.00     0.053 C 
BRANCH   4   5
ATOM      5  C   UNL     1      19.475  24.675   4.000  1.00  0.00     0.041 C 
ATOM      6  O   UNL     1      18.724  23.888   4.633  1.00  0.00    -0.550 OA
ATOM      7  O   UNL     1      19.095  26.000   3.828  1.00  0.00    -0.550 OA
ENDBRANCH   4   5
ENDBRANCH   3   4
ENDBRANCH   2   3
ENDBRANCH   1   2
BRANCH   1   8
ATOM      8  C   UNL     1      19.125  25.329  -0.913  1.00  0.00     0.000 C 
BRANCH   8   9
ATOM      9  C   UNL     1      18.245  26.320  -0.142  1.00  0.00     0.000 C 
BRANCH   9  10
ATOM     10  C   UNL     1      16.841  26.406  -0.758  1.00  0.00     0.006 C 
BRANCH  10  11
ATOM     11  C   UNL     1      16.725  25.599  -2.057  1.00  0.00     0.053 C 
BRANCH  11  12
ATOM     12  C   UNL     1      15.300  25.265  -2.376  1.00  0.00     0.041 C 
ATOM     13  O   UNL     1      14.541  24.805  -1.484  1.00  0.00    -0.550 OA
ATOM     14  O   UNL     1      14.819  25.435  -3.668  1.00  0.00    -0.550 OA
ENDBRANCH  11  12
ENDBRANCH  10  11
ENDBRANCH   9  10
ENDBRANCH   8   9
ENDBRANCH   1   8
TORSDOF 9
ENDMDL
MODEL 4
REMARK VINA RESULT:    -4.325      1.637      6.375
REMARK INTER + INTRA:          -6.925
REMARK INTER:                  -6.479
REMARK INTRA:                  -0.445
REMARK UNBOUND:                -0.324
REMARK SMILES O=C([O-])CCCCCCCCC(=O)[O-]
REMARK SMILES IDX 7 1 6 2 5 3 4 4 2 5 1 6 3 7 8 8 9 9 10 10 11 11 12 12 13 13
REMARK SMILES IDX 14 14
REMARK H PARENT
REMARK Flexibility Score: inf
ROOT
ATOM      1  C   UNL     1      18.455  26.826   0.030  1.00  0.00     0.000 C 
ENDROOT
BRANCH   1   2
ATOM      2  C   UNL     1      18.885  25.815  -1.045  1.00  0.00     0.000 C 
BRANCH   2   3
ATOM      3  C   UNL     1      17.693  25.081  -1.677  1.00  0.00     0.006 C 
BRANCH   3   4
ATOM      4  C   UNL     1      16.368  25.713  -1.242  1.00  0.00     0.053 C 
BRANCH   4   5
ATOM      5  C   UNL     1      15.236  25.165  -2.051  1.00  0.00     0.041 C 
ATOM      6  O   UNL     1      15.136  25.447  -3.275  1.00  0.00    -0.550 OA
ATOM      7  O   UNL     1      14.316  24.303  -1.467  1.00  0.00    -0.550 OA
ENDBRANCH   4   5
ENDBRANCH   3   4
ENDBRANCH   2   3
ENDBRANCH   1   2
BRANCH   1   8
ATOM      8  C   UNL     1      18.888  26.409   1.444  1.00  0.00     0.000 C 
BRANCH   8   9
ATOM      9  C   UNL     1      19.297  24.932   1.479  1.00  0.00     0.000 C 
BRANCH   9  10
ATOM     10  C   UNL     1      20.088  24.609   2.755  1.00  0.00     0.006 C 
BRANCH  10  11
ATOM     11  C   UNL     1      19.326  25.002   4.027  1.00  0.00     0.053 C 
BRANCH  11  12
ATOM     12  C   UNL     1      18.562  23.845   4.594  1.00  0.00     0.041 C 
ATOM     13  O   UNL     1      18.071  23.915   5.751  1.00  0.00    -0.550 OA
ATOM     14  O   UNL     1      18.419  22.677   3.856  1.00  0.00    -0.550 OA
ENDBRANCH  11  12
ENDBRANCH  10  11
ENDBRANCH   9  10
ENDBRANCH   8   9
ENDBRANCH   1   8
TORSDOF 9
ENDMDL
MODEL 5
REMARK VINA RESULT:    -3.640     16.043     17.848
REMARK INTER + INTRA:          -5.879
REMARK INTER:                  -4.776
REMARK INTRA:                  -1.104
REMARK UNBOUND:                -0.324
REMARK SMILES O=C([O-])CCCCCCCCC(=O)[O-]
REMARK SMILES IDX 7 1 6 2 5 3 4 4 2 5 1 6 3 7 8 8 9 9 10 10 11 11 12 12 13 13
REMARK SMILES IDX 14 14
REMARK H PARENT
REMARK Flexibility Score: inf
ROOT
ATOM      1  C   UNL     1      24.445  36.784  14.274  1.00  0.00     0.000 C 
ENDROOT
BRANCH   1   2
ATOM      2  C   UNL     1      24.153  36.078  15.608  1.00  0.00     0.000 C 
BRANCH   2   3
ATOM      3  C   UNL     1      22.787  35.377  15.620  1.00  0.00     0.006 C 
BRANCH   3   4
ATOM      4  C   UNL     1      22.093  35.508  14.262  1.00  0.00     0.053 C 
BRANCH   4   5
ATOM      5  C   UNL     1      21.111  34.396  14.066  1.00  0.00     0.041 C 
ATOM      6  O   UNL     1      20.272  34.450  13.128  1.00  0.00    -0.550 OA
ATOM      7  O   UNL     1      21.152  33.278  14.889  1.00  0.00    -0.550 OA
ENDBRANCH   4   5
ENDBRANCH   3   4
ENDBRANCH   2   3
ENDBRANCH   1   2
BRANCH   1   8
ATOM      8  C   UNL     1      25.769  36.328  13.640  1.00  0.00     0.000 C 
BRANCH   8   9
ATOM      9  C   UNL     1      26.461  35.275  14.512  1.00  0.00     0.000 C 
BRANCH   9  10
ATOM     10  C   UNL     1      26.660  33.963  13.740  1.00  0.00     0.006 C 
BRANCH  10  11
ATOM     11  C   UNL     1      25.594  33.759  12.656  1.00  0.00     0.053 C 
BRANCH  11  12
ATOM     12  C   UNL     1      24.454  32.923  13.150  1.00  0.00     0.041 C 
ATOM     13  O   UNL     1      23.512  32.612  12.375  1.00  0.00    -0.550 OA
ATOM     14  O   UNL     1      24.416  32.513  14.477  1.00  0.00    -0.550 OA
ENDBRANCH  11  12
ENDBRANCH  10  11
ENDBRANCH   9  10
ENDBRANCH   8   9
ENDBRANCH   1   8
TORSDOF 9
ENDMDL
MODEL 6
REMARK VINA RESULT:    -3.615     15.888     18.022
REMARK INTER + INTRA:          -5.841
REMARK INTER:                  -4.782
REMARK INTRA:                  -1.059
REMARK UNBOUND:                -0.324
REMARK SMILES O=C([O-])CCCCCCCCC(=O)[O-]
REMARK SMILES IDX 7 1 6 2 5 3 4 4 2 5 1 6 3 7 8 8 9 9 10 10 11 11 12 12 13 13
REMARK SMILES IDX 14 14
REMARK H PARENT
REMARK Flexibility Score: inf
ROOT
ATOM      1  C   UNL     1      24.500  36.726  14.585  1.00  0.00     0.000 C 
ENDROOT
BRANCH   1   2
ATOM      2  C   UNL     1      22.981  36.661  14.814  1.00  0.00     0.000 C 
BRANCH   2   3
ATOM      3  C   UNL     1      22.361  35.354  14.300  1.00  0.00     0.006 C 
BRANCH   3   4
ATOM      4  C   UNL     1      23.195  34.764  13.160  1.00  0.00     0.053 C 
BRANCH   4   5
ATOM      5  C   UNL     1      23.265  33.274  13.278  1.00  0.00     0.041 C 
ATOM      6  O   UNL     1      23.278  32.556  12.244  1.00  0.00    -0.550 OA
ATOM      7  O   UNL     1      23.366  32.680  14.530  1.00  0.00    -0.550 OA
ENDBRANCH   4   5
ENDBRANCH   3   4
ENDBRANCH   2   3
ENDBRANCH   1   2
BRANCH   1   8
ATOM      8  C   UNL     1      25.305  36.389  15.850  1.00  0.00     0.000 C 
BRANCH   8   9
ATOM      9  C   UNL     1      26.185  35.153  15.627  1.00  0.00     0.000 C 
BRANCH   9  10
ATOM     10  C   UNL     1      26.919  35.235  14.281  1.00  0.00     0.006 C 
BRANCH  10  11
ATOM     11  C   UNL     1      26.928  33.892  13.540  1.00  0.00     0.053 C 
BRANCH  11  12
ATOM     12  C   UNL     1      26.689  34.067  12.072  1.00  0.00     0.041 C 
ATOM     13  O   UNL     1      26.631  33.064  11.314  1.00  0.00    -0.550 OA
ATOM     14  O   UNL     1      26.561  35.343  11.536  1.00  0.00    -0.550 OA
ENDBRANCH  11  12
ENDBRANCH  10  11
ENDBRANCH   9  10
ENDBRANCH   8   9
ENDBRANCH   1   8
TORSDOF 9
ENDMDL
MODEL 7
REMARK VINA RESULT:    -3.613     15.625     17.647
REMARK INTER + INTRA:          -5.839
REMARK INTER:                  -4.945
REMARK INTRA:                  -0.893
REMARK UNBOUND:                -0.324
REMARK SMILES O=C([O-])CCCCCCCCC(=O)[O-]
REMARK SMILES IDX 7 1 6 2 5 3 4 4 2 5 1 6 3 7 8 8 9 9 10 10 11 11 12 12 13 13
REMARK SMILES IDX 14 14
REMARK H PARENT
REMARK Flexibility Score: inf
ROOT
ATOM      1  C   UNL     1      24.894  32.877  15.022  1.00  0.00     0.000 C 
ENDROOT
BRANCH   1   2
ATOM      2  C   UNL     1      23.520  32.531  14.425  1.00  0.00     0.000 C 
BRANCH   2   3
ATOM      3  C   UNL     1      23.404  32.922  12.944  1.00  0.00     0.006 C 
BRANCH   3   4
ATOM      4  C   UNL     1      22.921  34.367  12.796  1.00  0.00     0.053 C 
BRANCH   4   5
ATOM      5  C   UNL     1      21.426  34.423  12.795  1.00  0.00     0.041 C 
ATOM      6  O   UNL     1      20.786  34.281  13.870  1.00  0.00    -0.550 OA
ATOM      7  O   UNL     1      20.740  34.680  11.615  1.00  0.00    -0.550 OA
ENDBRANCH   4   5
ENDBRANCH   3   4
ENDBRANCH   2   3
ENDBRANCH   1   2
BRANCH   1   8
ATOM      8  C   UNL     1      24.843  34.092  15.961  1.00  0.00     0.000 C 
BRANCH   8   9
ATOM      9  C   UNL     1      25.675  35.252  15.402  1.00  0.00     0.000 C 
BRANCH   9  10
ATOM     10  C   UNL     1      26.696  34.752  14.370  1.00  0.00     0.006 C 
BRANCH  10  11
ATOM     11  C   UNL     1      26.602  35.514  13.042  1.00  0.00     0.053 C 
BRANCH  11  12
ATOM     12  C   UNL     1      26.854  34.616  11.869  1.00  0.00     0.041 C 
ATOM     13  O   UNL     1      27.125  35.106  10.742  1.00  0.00    -0.550 OA
ATOM     14  O   UNL     1      26.758  33.238  12.016  1.00  0.00    -0.550 OA
ENDBRANCH  11  12
ENDBRANCH  10  11
ENDBRANCH   9  10
ENDBRANCH   8   9
ENDBRANCH   1   8
TORSDOF 9
ENDMDL
MODEL 8
REMARK VINA RESULT:    -3.594     15.440     17.238
REMARK INTER + INTRA:          -5.809
REMARK INTER:                  -5.016
REMARK INTRA:                  -0.793
REMARK UNBOUND:                -0.324
REMARK SMILES O=C([O-])CCCCCCCCC(=O)[O-]
REMARK SMILES IDX 7 1 6 2 5 3 4 4 2 5 1 6 3 7 8 8 9 9 10 10 11 11 12 12 13 13
REMARK SMILES IDX 14 14
REMARK H PARENT
REMARK Flexibility Score: inf
ROOT
ATOM      1  C   UNL     1      23.920  36.047  14.166  1.00  0.00     0.000 C 
ENDROOT
BRANCH   1   2
ATOM      2  C   UNL     1      23.879  34.790  15.051  1.00  0.00     0.000 C 
BRANCH   2   3
ATOM      3  C   UNL     1      23.060  33.652  14.424  1.00  0.00     0.006 C 
BRANCH   3   4
ATOM      4  C   UNL     1      22.853  33.889  12.925  1.00  0.00     0.053 C 
BRANCH   4   5
ATOM      5  C   UNL     1      21.443  34.305  12.651  1.00  0.00     0.041 C 
ATOM      6  O   UNL     1      21.110  34.698  11.501  1.00  0.00    -0.550 OA
ATOM      7  O   UNL     1      20.483  34.215  13.651  1.00  0.00    -0.550 OA
ENDBRANCH   4   5
ENDBRANCH   3   4
ENDBRANCH   2   3
ENDBRANCH   1   2
BRANCH   1   8
ATOM      8  C   UNL     1      25.349  36.568  13.943  1.00  0.00     0.000 C 
BRANCH   8   9
ATOM      9  C   UNL     1      25.874  36.155  12.563  1.00  0.00     0.000 C 
BRANCH   9  10
ATOM     10  C   UNL     1      27.100  35.239  12.691  1.00  0.00     0.006 C 
BRANCH  10  11
ATOM     11  C   UNL     1      26.711  33.760  12.803  1.00  0.00     0.053 C 
BRANCH  11  12
ATOM     12  C   UNL     1      26.492  33.141  11.456  1.00  0.00     0.041 C 
ATOM     13  O   UNL     1      27.089  33.595  10.445  1.00  0.00    -0.550 OA
ATOM     14  O   UNL     1      25.605  32.082  11.313  1.00  0.00    -0.550 OA
ENDBRANCH  11  12
ENDBRANCH  10  11
ENDBRANCH   9  10
ENDBRANCH   8   9
ENDBRANCH   1   8
TORSDOF 9
ENDMDL
MODEL 9
REMARK VINA RESULT:    -3.580     16.225     18.089
REMARK INTER + INTRA:          -5.787
REMARK INTER:                  -4.756
REMARK INTRA:                  -1.031
REMARK UNBOUND:                -0.324
REMARK SMILES O=C([O-])CCCCCCCCC(=O)[O-]
REMARK SMILES IDX 7 1 6 2 5 3 4 4 2 5 1 6 3 7 8 8 9 9 10 10 11 11 12 12 13 13
REMARK SMILES IDX 14 14
REMARK H PARENT
REMARK Flexibility Score: inf
ROOT
ATOM      1  C   UNL     1      22.389  33.659  12.831  1.00  0.00     0.000 C 
ENDROOT
BRANCH   1   2
ATOM      2  C   UNL     1      23.004  32.813  13.958  1.00  0.00     0.000 C 
BRANCH   2   3
ATOM      3  C   UNL     1      24.537  32.900  13.993  1.00  0.00     0.006 C 
BRANCH   3   4
ATOM      4  C   UNL     1      25.097  33.250  12.612  1.00  0.00     0.053 C 
BRANCH   4   5
ATOM      5  C   UNL     1      26.507  33.737  12.726  1.00  0.00     0.041 C 
ATOM      6  O   UNL     1      27.125  34.134  11.703  1.00  0.00    -0.550 OA
ATOM      7  O   UNL     1      27.123  33.798  13.970  1.00  0.00    -0.550 OA
ENDBRANCH   4   5
ENDBRANCH   3   4
ENDBRANCH   2   3
ENDBRANCH   1   2
BRANCH   1   8
ATOM      8  C   UNL     1      21.402  34.715  13.353  1.00  0.00     0.000 C 
BRANCH   8   9
ATOM      9  C   UNL     1      21.789  35.178  14.762  1.00  0.00     0.000 C 
BRANCH   9  10
ATOM     10  C   UNL     1      22.688  36.421  14.707  1.00  0.00     0.006 C 
BRANCH  10  11
ATOM     11  C   UNL     1      23.971  36.248  15.531  1.00  0.00     0.053 C 
BRANCH  11  12
ATOM     12  C   UNL     1      25.186  36.653  14.754  1.00  0.00     0.041 C 
ATOM     13  O   UNL     1      25.138  36.739  13.499  1.00  0.00    -0.550 OA
ATOM     14  O   UNL     1      26.381  36.905  15.416  1.00  0.00    -0.550 OA
ENDBRANCH  11  12
ENDBRANCH  10  11
ENDBRANCH   9  10
ENDBRANCH   8   9
ENDBRANCH   1   8
TORSDOF 9
ENDMDL
