MODEL 1
REMARK VINA RESULT:    -3.737      0.000      0.000
REMARK INTER + INTRA:          -4.642
REMARK INTER:                  -4.611
REMARK INTRA:                  -0.031
REMARK UNBOUND:                -0.031
REMARK SMILES CCCCCC=O
REMARK SMILES IDX 4 1 3 2 2 3 1 4 5 5 6 6 7 7
REMARK H PARENT
REMARK Flexibility Score: inf
ROOT
ATOM      1  C   UNL     1      25.455  56.374  -9.147  1.00  0.00     0.008 C 
ENDROOT
BRANCH   1   2
ATOM      2  C   UNL     1      25.673  57.895  -9.079  1.00  0.00     0.000 C 
BRANCH   2   3
ATOM      3  C   UNL     1      26.821  58.367  -9.985  1.00  0.00    -0.003 C 
ATOM      4  C   UNL     1      27.170  59.841  -9.779  1.00  0.00     0.004 C 
ENDBRANCH   2   3
ENDBRANCH   1   2
BRANCH   1   5
ATOM      5  C   UNL     1      24.775  55.831  -7.882  1.00  0.00     0.072 C 
BRANCH   5   6
ATOM      6  C   UNL     1      23.568  54.995  -8.195  1.00  0.00     0.224 C 
ATOM      7  O   UNL     1      22.747  54.762  -7.323  1.00  0.00    -0.303 OA
ENDBRANCH   5   6
ENDBRANCH   1   5
TORSDOF 4
ENDMDL
MODEL 2
REMARK VINA RESULT:    -3.715      2.584      4.739
REMARK INTER + INTRA:          -4.615
REMARK INTER:                  -4.567
REMARK INTRA:                  -0.048
REMARK UNBOUND:                -0.031
REMARK SMILES CCCCCC=O
REMARK SMILES IDX 4 1 3 2 2 3 1 4 5 5 6 6 7 7
REMARK H PARENT
REMARK Flexibility Score: inf
ROOT
ATOM      1  C   UNL     1      25.758  56.655  -9.011  1.00  0.00     0.008 C 
ENDROOT
BRANCH   1   2
ATOM      2  C   UNL     1      24.958  55.919  -7.923  1.00  0.00     0.000 C 
BRANCH   2   3
ATOM      3  C   UNL     1      23.635  55.343  -8.452  1.00  0.00    -0.003 C 
ATOM      4  C   UNL     1      22.788  54.699  -7.353  1.00  0.00     0.004 C 
ENDBRANCH   2   3
ENDBRANCH   1   2
BRANCH   1   5
ATOM      5  C   UNL     1      25.418  58.152  -9.063  1.00  0.00     0.072 C 
BRANCH   5   6
ATOM      6  C   UNL     1      26.523  58.968  -9.669  1.00  0.00     0.224 C 
ATOM      7  O   UNL     1      27.255  58.471 -10.511  1.00  0.00    -0.303 OA
ENDBRANCH   5   6
ENDBRANCH   1   5
TORSDOF 4
ENDMDL
MODEL 3
REMARK VINA RESULT:    -3.491      2.317      4.794
REMARK INTER + INTRA:          -4.338
REMARK INTER:                  -4.287
REMARK INTRA:                  -0.051
REMARK UNBOUND:                -0.031
REMARK SMILES CCCCCC=O
REMARK SMILES IDX 4 1 3 2 2 3 1 4 5 5 6 6 7 7
REMARK H PARENT
REMARK Flexibility Score: inf
ROOT
ATOM      1  C   UNL     1      24.325  56.291  -8.637  1.00  0.00     0.008 C 
ENDROOT
BRANCH   1   2
ATOM      2  C   UNL     1      24.046  54.832  -8.238  1.00  0.00     0.000 C 
BRANCH   2   3
ATOM      3  C   UNL     1      22.668  54.654  -7.583  1.00  0.00    -0.003 C 
ATOM      4  C   UNL     1      22.754  54.427  -6.073  1.00  0.00     0.004 C 
ENDBRANCH   2   3
ENDBRANCH   1   2
BRANCH   1   5
ATOM      5  C   UNL     1      25.824  56.621  -8.600  1.00  0.00     0.072 C 
BRANCH   5   6
ATOM      6  C   UNL     1      26.163  57.832  -9.421  1.00  0.00     0.224 C 
ATOM      7  O   UNL     1      25.593  58.891  -9.208  1.00  0.00    -0.303 OA
ENDBRANCH   5   6
ENDBRANCH   1   5
TORSDOF 4
ENDMDL
MODEL 4
REMARK VINA RESULT:    -3.453      3.260      5.172
REMARK INTER + INTRA:          -4.291
REMARK INTER:                  -4.260
REMARK INTRA:                  -0.031
REMARK UNBOUND:                -0.031
REMARK SMILES CCCCCC=O
REMARK SMILES IDX 4 1 3 2 2 3 1 4 5 5 6 6 7 7
REMARK H PARENT
REMARK Flexibility Score: inf
ROOT
ATOM      1  C   UNL     1      25.803  58.099  -9.307  1.00  0.00     0.008 C 
ENDROOT
BRANCH   1   2
ATOM      2  C   UNL     1      25.652  56.570  -9.237  1.00  0.00     0.000 C 
BRANCH   2   3
ATOM      3  C   UNL     1      24.912  56.109  -7.971  1.00  0.00    -0.003 C 
ATOM      4  C   UNL     1      23.759  55.152  -8.275  1.00  0.00     0.004 C 
ENDBRANCH   2   3
ENDBRANCH   1   2
BRANCH   1   5
ATOM      5  C   UNL     1      26.884  58.526 -10.311  1.00  0.00     0.072 C 
BRANCH   5   6
ATOM      6  C   UNL     1      27.376  59.922 -10.062  1.00  0.00     0.224 C 
ATOM      7  O   UNL     1      28.328  60.354 -10.694  1.00  0.00    -0.303 OA
ENDBRANCH   5   6
ENDBRANCH   1   5
TORSDOF 4
ENDMDL
MODEL 5
REMARK VINA RESULT:    -3.418      1.334      2.182
REMARK INTER + INTRA:          -4.248
REMARK INTER:                  -4.212
REMARK INTRA:                  -0.035
REMARK UNBOUND:                -0.031
REMARK SMILES CCCCCC=O
REMARK SMILES IDX 4 1 3 2 2 3 1 4 5 5 6 6 7 7
REMARK H PARENT
REMARK Flexibility Score: inf
ROOT
ATOM      1  C   UNL     1      23.995  54.967  -8.417  1.00  0.00     0.008 C 
ENDROOT
BRANCH   1   2
ATOM      2  C   UNL     1      24.197  56.486  -8.558  1.00  0.00     0.000 C 
BRANCH   2   3
ATOM      3  C   UNL     1      25.661  56.861  -8.838  1.00  0.00    -0.003 C 
ATOM      4  C   UNL     1      25.829  58.324  -9.249  1.00  0.00     0.004 C 
ENDBRANCH   2   3
ENDBRANCH   1   2
BRANCH   1   5
ATOM      5  C   UNL     1      22.721  54.627  -7.630  1.00  0.00     0.072 C 
BRANCH   5   6
ATOM      6  C   UNL     1      22.934  54.684  -6.145  1.00  0.00     0.224 C 
ATOM      7  O   UNL     1      22.184  54.075  -5.398  1.00  0.00    -0.303 OA
ENDBRANCH   5   6
ENDBRANCH   1   5
TORSDOF 4
ENDMDL
MODEL 6
REMARK VINA RESULT:    -3.279     16.490     17.676
REMARK INTER + INTRA:          -4.076
REMARK INTER:                  -3.918
REMARK INTRA:                  -0.158
REMARK UNBOUND:                -0.031
REMARK SMILES CCCCCC=O
REMARK SMILES IDX 4 1 3 2 2 3 1 4 5 5 6 6 7 7
REMARK H PARENT
REMARK Flexibility Score: inf
ROOT
ATOM      1  C   UNL     1      19.131  44.822  -0.010  1.00  0.00     0.008 C 
ENDROOT
BRANCH   1   2
ATOM      2  C   UNL     1      17.601  44.810  -0.176  1.00  0.00     0.000 C 
BRANCH   2   3
ATOM      3  C   UNL     1      16.888  44.096   0.983  1.00  0.00    -0.003 C 
ATOM      4  C   UNL     1      15.529  44.715   1.313  1.00  0.00     0.004 C 
ENDBRANCH   2   3
ENDBRANCH   1   2
BRANCH   1   5
ATOM      5  C   UNL     1      19.572  44.170   1.309  1.00  0.00     0.072 C 
BRANCH   5   6
ATOM      6  C   UNL     1      20.490  43.003   1.091  1.00  0.00     0.224 C 
ATOM      7  O   UNL     1      20.322  42.268   0.130  1.00  0.00    -0.303 OA
ENDBRANCH   5   6
ENDBRANCH   1   5
TORSDOF 4
ENDMDL
MODEL 7
REMARK VINA RESULT:    -3.212      1.317      2.084
REMARK INTER + INTRA:          -3.994
REMARK INTER:                  -3.926
REMARK INTRA:                  -0.068
REMARK UNBOUND:                -0.031
REMARK SMILES CCCCCC=O
REMARK SMILES IDX 4 1 3 2 2 3 1 4 5 5 6 6 7 7
REMARK H PARENT
REMARK Flexibility Score: inf
ROOT
ATOM      1  C   UNL     1      26.404  58.164  -9.672  1.00  0.00     0.008 C 
ENDROOT
BRANCH   1   2
ATOM      2  C   UNL     1      26.538  59.683  -9.465  1.00  0.00     0.000 C 
BRANCH   2   3
ATOM      3  C   UNL     1      27.907  60.219  -9.910  1.00  0.00    -0.003 C 
ATOM      4  C   UNL     1      28.675  59.228 -10.786  1.00  0.00     0.004 C 
ENDBRANCH   2   3
ENDBRANCH   1   2
BRANCH   1   5
ATOM      5  C   UNL     1      25.230  57.576  -8.874  1.00  0.00     0.072 C 
BRANCH   5   6
ATOM      6  C   UNL     1      25.201  56.076  -8.923  1.00  0.00     0.224 C 
ATOM      7  O   UNL     1      24.131  55.488  -8.942  1.00  0.00    -0.303 OA
ENDBRANCH   5   6
ENDBRANCH   1   5
TORSDOF 4
ENDMDL
MODEL 8
REMARK VINA RESULT:    -3.095     15.766     17.144
REMARK INTER + INTRA:          -3.849
REMARK INTER:                  -3.740
REMARK INTRA:                  -0.109
REMARK UNBOUND:                -0.031
REMARK SMILES CCCCCC=O
REMARK SMILES IDX 4 1 3 2 2 3 1 4 5 5 6 6 7 7
REMARK H PARENT
REMARK Flexibility Score: inf
ROOT
ATOM      1  C   UNL     1      19.037  44.799  -0.034  1.00  0.00     0.008 C 
ENDROOT
BRANCH   1   2
ATOM      2  C   UNL     1      18.362  44.003   1.097  1.00  0.00     0.000 C 
BRANCH   2   3
ATOM      3  C   UNL     1      19.214  42.816   1.572  1.00  0.00    -0.003 C 
ATOM      4  C   UNL     1      20.603  42.791   0.932  1.00  0.00     0.004 C 
ENDBRANCH   2   3
ENDBRANCH   1   2
BRANCH   1   5
ATOM      5  C   UNL     1      18.040  45.696  -0.782  1.00  0.00     0.072 C 
BRANCH   5   6
ATOM      6  C   UNL     1      16.614  45.302  -0.526  1.00  0.00     0.224 C 
ATOM      7  O   UNL     1      15.725  45.737  -1.242  1.00  0.00    -0.303 OA
ENDBRANCH   5   6
ENDBRANCH   1   5
TORSDOF 4
ENDMDL
MODEL 9
REMARK VINA RESULT:    -3.043     17.516     18.094
REMARK INTER + INTRA:          -3.785
REMARK INTER:                  -3.698
REMARK INTRA:                  -0.087
REMARK UNBOUND:                -0.031
REMARK SMILES CCCCCC=O
REMARK SMILES IDX 4 1 3 2 2 3 1 4 5 5 6 6 7 7
REMARK H PARENT
REMARK Flexibility Score: inf
ROOT
ATOM      1  C   UNL     1      17.870  43.877   1.494  1.00  0.00     0.008 C 
ENDROOT
BRANCH   1   2
ATOM      2  C   UNL     1      17.440  44.241   0.063  1.00  0.00     0.000 C 
BRANCH   2   3
ATOM      3  C   UNL     1      16.099  44.989   0.023  1.00  0.00    -0.003 C 
ATOM      4  C   UNL     1      15.328  44.893   1.340  1.00  0.00     0.004 C 
ENDBRANCH   2   3
ENDBRANCH   1   2
BRANCH   1   5
ATOM      5  C   UNL     1      18.919  42.755   1.513  1.00  0.00     0.072 C 
BRANCH   5   6
ATOM      6  C   UNL     1      20.260  43.218   1.024  1.00  0.00     0.224 C 
ATOM      7  O   UNL     1      21.046  42.412   0.550  1.00  0.00    -0.303 OA
ENDBRANCH   5   6
ENDBRANCH   1   5
TORSDOF 4
ENDMDL
