MODEL 1
REMARK VINA RESULT:    -5.986      0.000      0.000
REMARK INTER + INTRA:          -6.686
REMARK INTER:                  -6.510
REMARK INTRA:                  -0.175
REMARK UNBOUND:                -0.175
REMARK SMILES O=C([O-])c1ccccc1O
REMARK SMILES IDX 4 1 9 2 5 3 8 4 6 5 7 6 2 7 1 8 3 9 10 10
REMARK H PARENT 10 11
REMARK Flexibility Score: inf
ROOT
ATOM      1  C   UNL     1     -30.871  -2.333 -20.062  1.00  0.00     0.039 A 
ATOM      2  C   UNL     1     -32.288  -2.278 -20.088  1.00  0.00     0.124 A 
ATOM      3  C   UNL     1     -30.233  -2.881 -18.932  1.00  0.00     0.014 A 
ATOM      4  C   UNL     1     -33.019  -2.706 -18.973  1.00  0.00     0.047 A 
ATOM      5  C   UNL     1     -30.978  -3.323 -17.837  1.00  0.00     0.001 A 
ATOM      6  C   UNL     1     -32.370  -3.227 -17.854  1.00  0.00     0.004 A 
ENDROOT
BRANCH   1   7
ATOM      7  C   UNL     1     -30.035  -1.804 -21.160  1.00  0.00     0.075 C 
ATOM      8  O   UNL     1     -30.575  -1.323 -22.193  1.00  0.00    -0.545 OA
ATOM      9  O   UNL     1     -28.649  -1.892 -21.105  1.00  0.00    -0.545 OA
ENDBRANCH   1   7
BRANCH   2  10
ATOM     10  O   UNL     1     -33.001  -1.842 -21.206  1.00  0.00    -0.507 OA
ATOM     11  H   UNL     1     -32.964  -0.894 -21.556  1.00  0.00     0.293 HD
ENDBRANCH   2  10
TORSDOF 2
ENDMDL
MODEL 2
REMARK VINA RESULT:    -5.871      0.105      1.026
REMARK INTER + INTRA:          -6.561
REMARK INTER:                  -6.369
REMARK INTRA:                  -0.192
REMARK UNBOUND:                -0.175
REMARK SMILES O=C([O-])c1ccccc1O
REMARK SMILES IDX 4 1 9 2 5 3 8 4 6 5 7 6 2 7 1 8 3 9 10 10
REMARK H PARENT 10 11
REMARK Flexibility Score: inf
ROOT
ATOM      1  C   UNL     1     -30.829  -2.391 -20.081  1.00  0.00     0.039 A 
ATOM      2  C   UNL     1     -32.242  -2.280 -20.052  1.00  0.00     0.124 A 
ATOM      3  C   UNL     1     -30.171  -2.989 -18.989  1.00  0.00     0.014 A 
ATOM      4  C   UNL     1     -32.948  -2.705 -18.919  1.00  0.00     0.047 A 
ATOM      5  C   UNL     1     -30.892  -3.427 -17.875  1.00  0.00     0.001 A 
ATOM      6  C   UNL     1     -32.278  -3.277 -17.837  1.00  0.00     0.004 A 
ENDROOT
BRANCH   1   7
ATOM      7  C   UNL     1     -30.014  -1.870 -21.199  1.00  0.00     0.075 C 
ATOM      8  O   UNL     1     -28.756  -1.869 -21.120  1.00  0.00    -0.545 OA
ATOM      9  O   UNL     1     -30.618  -1.311 -22.319  1.00  0.00    -0.545 OA
ENDBRANCH   1   7
BRANCH   2  10
ATOM     10  O   UNL     1     -32.980  -1.791 -21.132  1.00  0.00    -0.507 OA
ATOM     11  H   UNL     1     -33.317  -0.841 -21.192  1.00  0.00     0.293 HD
ENDBRANCH   2  10
TORSDOF 2
ENDMDL
MODEL 3
REMARK VINA RESULT:    -5.678      1.802      3.599
REMARK INTER + INTRA:          -6.351
REMARK INTER:                  -6.160
REMARK INTRA:                  -0.191
REMARK UNBOUND:                -0.175
REMARK SMILES O=C([O-])c1ccccc1O
REMARK SMILES IDX 4 1 9 2 5 3 8 4 6 5 7 6 2 7 1 8 3 9 10 10
REMARK H PARENT 10 11
REMARK Flexibility Score: inf
ROOT
ATOM      1  C   UNL     1     -32.172  -2.756 -19.045  1.00  0.00     0.039 A 
ATOM      2  C   UNL     1     -32.038  -2.202 -20.343  1.00  0.00     0.124 A 
ATOM      3  C   UNL     1     -31.010  -3.112 -18.334  1.00  0.00     0.014 A 
ATOM      4  C   UNL     1     -30.766  -2.078 -20.916  1.00  0.00     0.047 A 
ATOM      5  C   UNL     1     -29.747  -2.962 -18.912  1.00  0.00     0.001 A 
ATOM      6  C   UNL     1     -29.626  -2.454 -20.205  1.00  0.00     0.004 A 
ENDROOT
BRANCH   1   7
ATOM      7  C   UNL     1     -33.489  -3.010 -18.422  1.00  0.00     0.075 C 
ATOM      8  O   UNL     1     -33.562  -3.616 -17.319  1.00  0.00    -0.545 OA
ATOM      9  O   UNL     1     -34.664  -2.651 -19.071  1.00  0.00    -0.545 OA
ENDBRANCH   1   7
BRANCH   2  10
ATOM     10  O   UNL     1     -33.131  -1.733 -21.076  1.00  0.00    -0.507 OA
ATOM     11  H   UNL     1     -33.455  -2.165 -21.930  1.00  0.00     0.293 HD
ENDBRANCH   2  10
TORSDOF 2
ENDMDL
MODEL 4
REMARK VINA RESULT:    -5.648      1.811      3.462
REMARK INTER + INTRA:          -6.318
REMARK INTER:                  -6.143
REMARK INTRA:                  -0.175
REMARK UNBOUND:                -0.175
REMARK SMILES O=C([O-])c1ccccc1O
REMARK SMILES IDX 4 1 9 2 5 3 8 4 6 5 7 6 2 7 1 8 3 9 10 10
REMARK H PARENT 10 11
REMARK Flexibility Score: inf
ROOT
ATOM      1  C   UNL     1     -32.183  -2.747 -19.172  1.00  0.00     0.039 A 
ATOM      2  C   UNL     1     -32.044  -2.129 -20.440  1.00  0.00     0.124 A 
ATOM      3  C   UNL     1     -31.023  -3.132 -18.472  1.00  0.00     0.014 A 
ATOM      4  C   UNL     1     -30.769  -1.973 -20.999  1.00  0.00     0.047 A 
ATOM      5  C   UNL     1     -29.757  -2.949 -19.034  1.00  0.00     0.001 A 
ATOM      6  C   UNL     1     -29.631  -2.379 -20.301  1.00  0.00     0.004 A 
ENDROOT
BRANCH   1   7
ATOM      7  C   UNL     1     -33.502  -3.036 -18.569  1.00  0.00     0.075 C 
ATOM      8  O   UNL     1     -34.559  -2.698 -19.167  1.00  0.00    -0.545 OA
ATOM      9  O   UNL     1     -33.597  -3.617 -17.311  1.00  0.00    -0.545 OA
ENDBRANCH   1   7
BRANCH   2  10
ATOM     10  O   UNL     1     -33.134  -1.629 -21.156  1.00  0.00    -0.507 OA
ATOM     11  H   UNL     1     -34.084  -1.654 -20.812  1.00  0.00     0.293 HD
ENDBRANCH   2  10
TORSDOF 2
ENDMDL
MODEL 5
REMARK VINA RESULT:    -5.080     10.348     11.459
REMARK INTER + INTRA:          -5.701
REMARK INTER:                  -5.474
REMARK INTRA:                  -0.226
REMARK UNBOUND:                -0.175
REMARK SMILES O=C([O-])c1ccccc1O
REMARK SMILES IDX 4 1 9 2 5 3 8 4 6 5 7 6 2 7 1 8 3 9 10 10
REMARK H PARENT 10 11
REMARK Flexibility Score: inf
ROOT
ATOM      1  C   UNL     1     -38.649  -7.860 -13.716  1.00  0.00     0.039 A 
ATOM      2  C   UNL     1     -39.072  -6.530 -13.463  1.00  0.00     0.124 A 
ATOM      3  C   UNL     1     -39.614  -8.884 -13.755  1.00  0.00     0.014 A 
ATOM      4  C   UNL     1     -40.422  -6.270 -13.194  1.00  0.00     0.047 A 
ATOM      5  C   UNL     1     -40.960  -8.605 -13.506  1.00  0.00     0.001 A 
ATOM      6  C   UNL     1     -41.362  -7.301 -13.217  1.00  0.00     0.004 A 
ENDROOT
BRANCH   1   7
ATOM      7  C   UNL     1     -37.227  -8.219 -13.906  1.00  0.00     0.075 C 
ATOM      8  O   UNL     1     -36.376  -7.922 -13.025  1.00  0.00    -0.545 OA
ATOM      9  O   UNL     1     -36.797  -8.821 -15.081  1.00  0.00    -0.545 OA
ENDBRANCH   1   7
BRANCH   2  10
ATOM     10  O   UNL     1     -38.196  -5.443 -13.505  1.00  0.00    -0.507 OA
ATOM     11  H   UNL     1     -38.078  -4.793 -12.739  1.00  0.00     0.293 HD
ENDBRANCH   2  10
TORSDOF 2
ENDMDL
MODEL 6
REMARK VINA RESULT:    -4.922      9.415     11.273
REMARK INTER + INTRA:          -5.529
REMARK INTER:                  -5.297
REMARK INTRA:                  -0.231
REMARK UNBOUND:                -0.175
REMARK SMILES O=C([O-])c1ccccc1O
REMARK SMILES IDX 4 1 9 2 5 3 8 4 6 5 7 6 2 7 1 8 3 9 10 10
REMARK H PARENT 10 11
REMARK Flexibility Score: inf
ROOT
ATOM      1  C   UNL     1     -38.935  -7.763 -14.184  1.00  0.00     0.039 A 
ATOM      2  C   UNL     1     -38.751  -6.756 -15.164  1.00  0.00     0.124 A 
ATOM      3  C   UNL     1     -37.925  -8.727 -14.001  1.00  0.00     0.014 A 
ATOM      4  C   UNL     1     -37.607  -6.775 -15.972  1.00  0.00     0.047 A 
ATOM      5  C   UNL     1     -36.779  -8.719 -14.801  1.00  0.00     0.001 A 
ATOM      6  C   UNL     1     -36.625  -7.749 -15.791  1.00  0.00     0.004 A 
ENDROOT
BRANCH   1   7
ATOM      7  C   UNL     1     -40.165  -7.863 -13.368  1.00  0.00     0.075 C 
ATOM      8  O   UNL     1     -40.515  -6.904 -12.630  1.00  0.00    -0.545 OA
ATOM      9  O   UNL     1     -40.911  -9.035 -13.347  1.00  0.00    -0.545 OA
ENDBRANCH   1   7
BRANCH   2  10
ATOM     10  O   UNL     1     -39.656  -5.707 -15.342  1.00  0.00    -0.507 OA
ATOM     11  H   UNL     1     -39.739  -4.929 -14.703  1.00  0.00     0.293 HD
ENDBRANCH   2  10
TORSDOF 2
ENDMDL
MODEL 7
REMARK VINA RESULT:    -4.921      2.922      4.420
REMARK INTER + INTRA:          -5.527
REMARK INTER:                  -5.319
REMARK INTRA:                  -0.208
REMARK UNBOUND:                -0.175
REMARK SMILES O=C([O-])c1ccccc1O
REMARK SMILES IDX 4 1 9 2 5 3 8 4 6 5 7 6 2 7 1 8 3 9 10 10
REMARK H PARENT 10 11
REMARK Flexibility Score: inf
ROOT
ATOM      1  C   UNL     1     -32.917  -2.937 -18.702  1.00  0.00     0.039 A 
ATOM      2  C   UNL     1     -31.770  -3.083 -17.881  1.00  0.00     0.124 A 
ATOM      3  C   UNL     1     -32.743  -2.640 -20.068  1.00  0.00     0.014 A 
ATOM      4  C   UNL     1     -30.497  -2.867 -18.424  1.00  0.00     0.047 A 
ATOM      5  C   UNL     1     -31.465  -2.448 -20.598  1.00  0.00     0.001 A 
ATOM      6  C   UNL     1     -30.344  -2.553 -19.775  1.00  0.00     0.004 A 
ENDROOT
BRANCH   1   7
ATOM      7  C   UNL     1     -34.293  -3.050 -18.172  1.00  0.00     0.075 C 
ATOM      8  O   UNL     1     -34.500  -3.604 -17.059  1.00  0.00    -0.545 OA
ATOM      9  O   UNL     1     -35.381  -2.614 -18.919  1.00  0.00    -0.545 OA
ENDBRANCH   1   7
BRANCH   2  10
ATOM     10  O   UNL     1     -31.849  -3.473 -16.543  1.00  0.00    -0.507 OA
ATOM     11  H   UNL     1     -32.015  -2.828 -15.784  1.00  0.00     0.293 HD
ENDBRANCH   2  10
TORSDOF 2
ENDMDL
MODEL 8
REMARK VINA RESULT:    -4.885     10.783     11.851
REMARK INTER + INTRA:          -5.488
REMARK INTER:                  -5.244
REMARK INTRA:                  -0.245
REMARK UNBOUND:                -0.175
REMARK SMILES O=C([O-])c1ccccc1O
REMARK SMILES IDX 4 1 9 2 5 3 8 4 6 5 7 6 2 7 1 8 3 9 10 10
REMARK H PARENT 10 11
REMARK Flexibility Score: inf
ROOT
ATOM      1  C   UNL     1     -39.332  -6.953 -13.410  1.00  0.00     0.039 A 
ATOM      2  C   UNL     1     -39.189  -8.257 -13.948  1.00  0.00     0.124 A 
ATOM      3  C   UNL     1     -38.208  -6.104 -13.375  1.00  0.00     0.014 A 
ATOM      4  C   UNL     1     -37.929  -8.697 -14.374  1.00  0.00     0.047 A 
ATOM      5  C   UNL     1     -36.963  -6.551 -13.823  1.00  0.00     0.001 A 
ATOM      6  C   UNL     1     -36.822  -7.849 -14.313  1.00  0.00     0.004 A 
ENDROOT
BRANCH   1   7
ATOM      7  C   UNL     1     -40.608  -6.461 -12.849  1.00  0.00     0.075 C 
ATOM      8  O   UNL     1     -40.608  -5.703 -11.842  1.00  0.00    -0.545 OA
ATOM      9  O   UNL     1     -41.824  -6.879 -13.375  1.00  0.00    -0.545 OA
ENDBRANCH   1   7
BRANCH   2  10
ATOM     10  O   UNL     1     -40.270  -9.125 -14.110  1.00  0.00    -0.507 OA
ATOM     11  H   UNL     1     -40.723  -9.600 -13.341  1.00  0.00     0.293 HD
ENDBRANCH   2  10
TORSDOF 2
ENDMDL
MODEL 9
REMARK VINA RESULT:    -4.706      2.597      4.376
REMARK INTER + INTRA:          -5.294
REMARK INTER:                  -5.041
REMARK INTRA:                  -0.253
REMARK UNBOUND:                -0.175
REMARK SMILES O=C([O-])c1ccccc1O
REMARK SMILES IDX 4 1 9 2 5 3 8 4 6 5 7 6 2 7 1 8 3 9 10 10
REMARK H PARENT 10 11
REMARK Flexibility Score: inf
ROOT
ATOM      1  C   UNL     1     -33.140  -3.709 -17.895  1.00  0.00     0.039 A 
ATOM      2  C   UNL     1     -32.997  -2.860 -19.022  1.00  0.00     0.124 A 
ATOM      3  C   UNL     1     -32.007  -3.987 -17.106  1.00  0.00     0.014 A 
ATOM      4  C   UNL     1     -31.731  -2.368 -19.364  1.00  0.00     0.047 A 
ATOM      5  C   UNL     1     -30.755  -3.471 -17.448  1.00  0.00     0.001 A 
ATOM      6  C   UNL     1     -30.616  -2.669 -18.581  1.00  0.00     0.004 A 
ENDROOT
BRANCH   1   7
ATOM      7  C   UNL     1     -34.426  -4.345 -17.538  1.00  0.00     0.075 C 
ATOM      8  O   UNL     1     -34.461  -5.560 -17.207  1.00  0.00    -0.545 OA
ATOM      9  O   UNL     1     -35.618  -3.637 -17.627  1.00  0.00    -0.545 OA
ENDBRANCH   1   7
BRANCH   2  10
ATOM     10  O   UNL     1     -34.084  -2.455 -19.799  1.00  0.00    -0.507 OA
ATOM     11  H   UNL     1     -34.014  -2.237 -20.784  1.00  0.00     0.293 HD
ENDBRANCH   2  10
TORSDOF 2
ENDMDL
