MODEL 1
REMARK VINA RESULT:    -2.027      0.000      0.000
REMARK INTER + INTRA:          -2.642
REMARK INTER:                  -2.323
REMARK INTRA:                  -0.318
REMARK UNBOUND:                -0.318
REMARK SMILES COC(=O)c1ccccc1O
REMARK SMILES IDX 5 1 6 2 7 3 8 4 9 5 10 6 3 7 4 8 2 9 1 10 11 11
REMARK H PARENT 11 12
REMARK Flexibility Score: inf
ROOT
ATOM      1  C   UNL     1      93.573  16.363 120.044  1.00  0.00     0.101 A 
ATOM      2  C   UNL     1      92.931  16.999 121.125  1.00  0.00     0.019 A 
ATOM      3  C   UNL     1      91.779  17.762 120.922  1.00  0.00     0.001 A 
ATOM      4  C   UNL     1      91.250  17.904 119.639  1.00  0.00     0.004 A 
ATOM      5  C   UNL     1      91.872  17.283 118.556  1.00  0.00     0.047 A 
ATOM      6  C   UNL     1      93.030  16.512 118.745  1.00  0.00     0.130 A 
ENDROOT
BRANCH   1   7
ATOM      7  C   UNL     1      94.798  15.558 120.291  1.00  0.00     0.341 C 
ATOM      8  O   UNL     1      94.870  14.374 119.856  1.00  0.00    -0.246 OA
BRANCH   7   9
ATOM      9  O   UNL     1      95.875  16.101 121.000  1.00  0.00    -0.465 OA
ATOM     10  C   UNL     1      96.842  16.953 120.397  1.00  0.00     0.282 C 
ENDBRANCH   7   9
ENDBRANCH   1   7
BRANCH   6  11
ATOM     11  O   UNL     1      93.630  15.903 117.644  1.00  0.00    -0.507 OA
ATOM     12  H   UNL     1      94.219  16.421 117.003  1.00  0.00     0.293 HD
ENDBRANCH   6  11
TORSDOF 3
ENDMDL
MODEL 2
REMARK VINA RESULT:    -1.097      2.164      3.937
REMARK INTER + INTRA:          -1.575
REMARK INTER:                  -1.331
REMARK INTRA:                  -0.244
REMARK UNBOUND:                -0.318
REMARK SMILES COC(=O)c1ccccc1O
REMARK SMILES IDX 5 1 6 2 7 3 8 4 9 5 10 6 3 7 4 8 2 9 1 10 11 11
REMARK H PARENT 11 12
REMARK Flexibility Score: inf
ROOT
ATOM      1  C   UNL     1      92.985  16.696 119.923  1.00  0.00     0.101 A 
ATOM      2  C   UNL     1      93.597  16.289 121.125  1.00  0.00     0.019 A 
ATOM      3  C   UNL     1      94.584  15.302 121.125  1.00  0.00     0.001 A 
ATOM      4  C   UNL     1      94.977  14.704 119.927  1.00  0.00     0.004 A 
ATOM      5  C   UNL     1      94.383  15.094 118.726  1.00  0.00     0.047 A 
ATOM      6  C   UNL     1      93.389  16.085 118.712  1.00  0.00     0.130 A 
ENDROOT
BRANCH   1   7
ATOM      7  C   UNL     1      91.936  17.749 119.955  1.00  0.00     0.341 C 
ATOM      8  O   UNL     1      91.753  18.484 118.944  1.00  0.00    -0.246 OA
BRANCH   7   9
ATOM      9  O   UNL     1      91.147  17.933 121.096  1.00  0.00    -0.465 OA
ATOM     10  C   UNL     1      89.741  18.137 121.034  1.00  0.00     0.282 C 
ENDBRANCH   7   9
ENDBRANCH   1   7
BRANCH   6  11
ATOM     11  O   UNL     1      92.812  16.454 117.497  1.00  0.00    -0.507 OA
ATOM     12  H   UNL     1      93.321  16.388 116.623  1.00  0.00     0.293 HD
ENDBRANCH   6  11
TORSDOF 3
ENDMDL
MODEL 3
REMARK VINA RESULT:    -0.074      1.588      3.535
REMARK INTER + INTRA:          -0.403
REMARK INTER:                  -0.428
REMARK INTRA:                   0.025
REMARK UNBOUND:                -0.318
REMARK SMILES COC(=O)c1ccccc1O
REMARK SMILES IDX 5 1 6 2 7 3 8 4 9 5 10 6 3 7 4 8 2 9 1 10 11 11
REMARK H PARENT 11 12
REMARK Flexibility Score: inf
ROOT
ATOM      1  C   UNL     1      95.055  16.075 120.312  1.00  0.00     0.101 A 
ATOM      2  C   UNL     1      96.185  16.299 121.125  1.00  0.00     0.019 A 
ATOM      3  C   UNL     1      97.288  17.003 120.637  1.00  0.00     0.001 A 
ATOM      4  C   UNL     1      97.283  17.493 119.331  1.00  0.00     0.004 A 
ATOM      5  C   UNL     1      96.174  17.282 118.511  1.00  0.00     0.047 A 
ATOM      6  C   UNL     1      95.058  16.577 118.989  1.00  0.00     0.130 A 
ENDROOT
BRANCH   1   7
ATOM      7  C   UNL     1      93.896  15.322 120.860  1.00  0.00     0.341 C 
ATOM      8  O   UNL     1      94.006  14.087 121.099  1.00  0.00    -0.246 OA
BRANCH   7   9
ATOM      9  O   UNL     1      92.684  15.972 121.115  1.00  0.00    -0.465 OA
ATOM     10  C   UNL     1      92.506  17.370 120.926  1.00  0.00     0.282 C 
ENDBRANCH   7   9
ENDBRANCH   1   7
BRANCH   6  11
ATOM     11  O   UNL     1      93.964  16.381 118.147  1.00  0.00    -0.507 OA
ATOM     12  H   UNL     1      94.058  15.922 117.248  1.00  0.00     0.293 HD
ENDBRANCH   6  11
TORSDOF 3
ENDMDL
