MODEL 1
REMARK VINA RESULT:    -3.076      0.000      0.000
REMARK INTER + INTRA:          -3.632
REMARK INTER:                  -3.616
REMARK INTRA:                  -0.016
REMARK UNBOUND:                -0.016
REMARK SMILES CCCCC(=O)[O-]
REMARK SMILES IDX 4 1 5 2 6 3 7 4 3 5 2 6 1 7
REMARK H PARENT
REMARK Flexibility Score: inf
ROOT
ATOM      1  C   UNL     1      18.829  25.760  27.589  1.00  0.00     0.053 C 
ENDROOT
BRANCH   1   2
ATOM      2  C   UNL     1      17.990  26.925  28.018  1.00  0.00     0.041 C 
ATOM      3  O   UNL     1      17.231  27.497  27.192  1.00  0.00    -0.550 OA
ATOM      4  O   UNL     1      18.071  27.398  29.321  1.00  0.00    -0.550 OA
ENDBRANCH   1   2
BRANCH   1   5
ATOM      5  C   UNL     1      18.717  24.580  28.568  1.00  0.00     0.006 C 
BRANCH   5   6
ATOM      6  C   UNL     1      19.084  23.217  27.954  1.00  0.00    -0.003 C 
ATOM      7  C   UNL     1      18.782  22.044  28.886  1.00  0.00     0.004 C 
ENDBRANCH   5   6
ENDBRANCH   1   5
TORSDOF 3
ENDMDL
MODEL 2
REMARK VINA RESULT:    -3.043      2.261      3.413
REMARK INTER + INTRA:          -3.593
REMARK INTER:                  -3.488
REMARK INTRA:                  -0.105
REMARK UNBOUND:                -0.016
REMARK SMILES CCCCC(=O)[O-]
REMARK SMILES IDX 4 1 5 2 6 3 7 4 3 5 2 6 1 7
REMARK H PARENT
REMARK Flexibility Score: inf
ROOT
ATOM      1  C   UNL     1      18.474  29.002  27.789  1.00  0.00     0.053 C 
ENDROOT
BRANCH   1   2
ATOM      2  C   UNL     1      18.295  29.364  29.232  1.00  0.00     0.041 C 
ATOM      3  O   UNL     1      18.091  28.465  30.090  1.00  0.00    -0.550 OA
ATOM      4  O   UNL     1      18.323  30.696  29.624  1.00  0.00    -0.550 OA
ENDBRANCH   1   2
BRANCH   1   5
ATOM      5  C   UNL     1      17.511  27.886  27.354  1.00  0.00     0.006 C 
BRANCH   5   6
ATOM      6  C   UNL     1      18.208  26.655  26.746  1.00  0.00    -0.003 C 
ATOM      7  C   UNL     1      18.708  25.672  27.803  1.00  0.00     0.004 C 
ENDBRANCH   5   6
ENDBRANCH   1   5
TORSDOF 3
ENDMDL
MODEL 3
REMARK VINA RESULT:    -3.036      2.230      4.378
REMARK INTER + INTRA:          -3.585
REMARK INTER:                  -3.502
REMARK INTRA:                  -0.083
REMARK UNBOUND:                -0.016
REMARK SMILES CCCCC(=O)[O-]
REMARK SMILES IDX 4 1 5 2 6 3 7 4 3 5 2 6 1 7
REMARK H PARENT
REMARK Flexibility Score: inf
ROOT
ATOM      1  C   UNL     1      18.422  26.680  26.914  1.00  0.00     0.053 C 
ENDROOT
BRANCH   1   2
ATOM      2  C   UNL     1      18.716  25.680  27.990  1.00  0.00     0.041 C 
ATOM      3  O   UNL     1      18.953  26.066  29.165  1.00  0.00    -0.550 OA
ATOM      4  O   UNL     1      18.760  24.325  27.688  1.00  0.00    -0.550 OA
ENDBRANCH   1   2
BRANCH   1   5
ATOM      5  C   UNL     1      17.653  27.896  27.454  1.00  0.00     0.006 C 
BRANCH   5   6
ATOM      6  C   UNL     1      18.511  29.165  27.611  1.00  0.00    -0.003 C 
ATOM      7  C   UNL     1      18.419  29.776  29.008  1.00  0.00     0.004 C 
ENDBRANCH   5   6
ENDBRANCH   1   5
TORSDOF 3
ENDMDL
MODEL 4
REMARK VINA RESULT:    -2.976      3.619      4.403
REMARK INTER + INTRA:          -3.514
REMARK INTER:                  -3.494
REMARK INTRA:                  -0.020
REMARK UNBOUND:                -0.016
REMARK SMILES CCCCC(=O)[O-]
REMARK SMILES IDX 4 1 5 2 6 3 7 4 3 5 2 6 1 7
REMARK H PARENT
REMARK Flexibility Score: inf
ROOT
ATOM      1  C   UNL     1      18.312  28.960  28.503  1.00  0.00     0.053 C 
ENDROOT
BRANCH   1   2
ATOM      2  C   UNL     1      18.168  28.115  27.273  1.00  0.00     0.041 C 
ATOM      3  O   UNL     1      17.166  27.365  27.134  1.00  0.00    -0.550 OA
ATOM      4  O   UNL     1      19.156  28.133  26.297  1.00  0.00    -0.550 OA
ENDBRANCH   1   2
BRANCH   1   5
ATOM      5  C   UNL     1      18.158  28.132  29.789  1.00  0.00     0.006 C 
BRANCH   5   6
ATOM      6  C   UNL     1      17.896  28.974  31.051  1.00  0.00    -0.003 C 
ATOM      7  C   UNL     1      18.682  28.484  32.266  1.00  0.00     0.004 C 
ENDBRANCH   5   6
ENDBRANCH   1   5
TORSDOF 3
ENDMDL
MODEL 5
REMARK VINA RESULT:    -2.959      3.000      5.189
REMARK INTER + INTRA:          -3.494
REMARK INTER:                  -3.458
REMARK INTRA:                  -0.036
REMARK UNBOUND:                -0.016
REMARK SMILES CCCCC(=O)[O-]
REMARK SMILES IDX 4 1 5 2 6 3 7 4 3 5 2 6 1 7
REMARK H PARENT
REMARK Flexibility Score: inf
ROOT
ATOM      1  C   UNL     1      18.386  28.623  28.986  1.00  0.00     0.053 C 
ENDROOT
BRANCH   1   2
ATOM      2  C   UNL     1      17.944  27.384  28.268  1.00  0.00     0.041 C 
ATOM      3  O   UNL     1      17.250  27.472  27.222  1.00  0.00    -0.550 OA
ATOM      4  O   UNL     1      18.272  26.133  28.773  1.00  0.00    -0.550 OA
ENDBRANCH   1   2
BRANCH   1   5
ATOM      5  C   UNL     1      18.464  29.835  28.044  1.00  0.00     0.006 C 
BRANCH   5   6
ATOM      6  C   UNL     1      18.488  31.194  28.768  1.00  0.00    -0.003 C 
ATOM      7  C   UNL     1      18.454  31.057  30.290  1.00  0.00     0.004 C 
ENDBRANCH   5   6
ENDBRANCH   1   5
TORSDOF 3
ENDMDL
MODEL 6
REMARK VINA RESULT:    -2.951      3.719      4.753
REMARK INTER + INTRA:          -3.484
REMARK INTER:                  -3.461
REMARK INTRA:                  -0.024
REMARK UNBOUND:                -0.016
REMARK SMILES CCCCC(=O)[O-]
REMARK SMILES IDX 4 1 5 2 6 3 7 4 3 5 2 6 1 7
REMARK H PARENT
REMARK Flexibility Score: inf
ROOT
ATOM      1  C   UNL     1      18.379  29.590  29.183  1.00  0.00     0.053 C 
ENDROOT
BRANCH   1   2
ATOM      2  C   UNL     1      18.411  31.088  29.201  1.00  0.00     0.041 C 
ATOM      3  O   UNL     1      18.336  31.710  30.293  1.00  0.00    -0.550 OA
ATOM      4  O   UNL     1      18.491  31.796  28.009  1.00  0.00    -0.550 OA
ENDBRANCH   1   2
BRANCH   1   5
ATOM      5  C   UNL     1      18.345  29.034  27.751  1.00  0.00     0.006 C 
BRANCH   5   6
ATOM      6  C   UNL     1      17.507  27.752  27.593  1.00  0.00    -0.003 C 
ATOM      7  C   UNL     1      18.100  26.773  26.581  1.00  0.00     0.004 C 
ENDBRANCH   5   6
ENDBRANCH   1   5
TORSDOF 3
ENDMDL
MODEL 7
REMARK VINA RESULT:    -2.944      7.216      8.014
REMARK INTER + INTRA:          -3.476
REMARK INTER:                  -3.446
REMARK INTRA:                  -0.030
REMARK UNBOUND:                -0.016
REMARK SMILES CCCCC(=O)[O-]
REMARK SMILES IDX 4 1 5 2 6 3 7 4 3 5 2 6 1 7
REMARK H PARENT
REMARK Flexibility Score: inf
ROOT
ATOM      1  C   UNL     1      17.757  28.914  34.906  1.00  0.00     0.053 C 
ENDROOT
BRANCH   1   2
ATOM      2  C   UNL     1      16.889  30.100  34.614  1.00  0.00     0.041 C 
ATOM      3  O   UNL     1      16.429  30.796  35.556  1.00  0.00    -0.550 OA
ATOM      4  O   UNL     1      16.564  30.417  33.301  1.00  0.00    -0.550 OA
ENDBRANCH   1   2
BRANCH   1   5
ATOM      5  C   UNL     1      19.003  29.300  35.718  1.00  0.00     0.006 C 
BRANCH   5   6
ATOM      6  C   UNL     1      20.090  28.211  35.759  1.00  0.00    -0.003 C 
ATOM      7  C   UNL     1      19.832  27.075  34.770  1.00  0.00     0.004 C 
ENDBRANCH   5   6
ENDBRANCH   1   5
TORSDOF 3
ENDMDL
MODEL 8
REMARK VINA RESULT:    -2.899      4.116      4.826
REMARK INTER + INTRA:          -3.423
REMARK INTER:                  -3.398
REMARK INTRA:                  -0.025
REMARK UNBOUND:                -0.016
REMARK SMILES CCCCC(=O)[O-]
REMARK SMILES IDX 4 1 5 2 6 3 7 4 3 5 2 6 1 7
REMARK H PARENT
REMARK Flexibility Score: inf
ROOT
ATOM      1  C   UNL     1      18.109  28.329  30.113  1.00  0.00     0.053 C 
ENDROOT
BRANCH   1   2
ATOM      2  C   UNL     1      18.193  28.801  31.533  1.00  0.00     0.041 C 
ATOM      3  O   UNL     1      17.667  29.894  31.869  1.00  0.00    -0.550 OA
ATOM      4  O   UNL     1      18.880  28.047  32.476  1.00  0.00    -0.550 OA
ENDBRANCH   1   2
BRANCH   1   5
ATOM      5  C   UNL     1      18.384  29.464  29.114  1.00  0.00     0.006 C 
BRANCH   5   6
ATOM      6  C   UNL     1      18.485  29.002  27.649  1.00  0.00    -0.003 C 
ATOM      7  C   UNL     1      17.619  27.780  27.349  1.00  0.00     0.004 C 
ENDBRANCH   5   6
ENDBRANCH   1   5
TORSDOF 3
ENDMDL
MODEL 9
REMARK VINA RESULT:    -2.882     11.687     12.317
REMARK INTER + INTRA:          -3.404
REMARK INTER:                  -3.322
REMARK INTRA:                  -0.082
REMARK UNBOUND:                -0.016
REMARK SMILES CCCCC(=O)[O-]
REMARK SMILES IDX 4 1 5 2 6 3 7 4 3 5 2 6 1 7
REMARK H PARENT
REMARK Flexibility Score: inf
ROOT
ATOM      1  C   UNL     1      11.190  21.019  36.390  1.00  0.00     0.053 C 
ENDROOT
BRANCH   1   2
ATOM      2  C   UNL     1      10.898  20.547  37.781  1.00  0.00     0.041 C 
ATOM      3  O   UNL     1       9.942  19.756  37.994  1.00  0.00    -0.550 OA
ATOM      4  O   UNL     1      11.661  21.007  38.847  1.00  0.00    -0.550 OA
ENDBRANCH   1   2
BRANCH   1   5
ATOM      5  C   UNL     1      11.827  19.915  35.531  1.00  0.00     0.006 C 
BRANCH   5   6
ATOM      6  C   UNL     1      13.302  19.628  35.870  1.00  0.00    -0.003 C 
ATOM      7  C   UNL     1      13.664  18.149  35.739  1.00  0.00     0.004 C 
ENDBRANCH   5   6
ENDBRANCH   1   5
TORSDOF 3
ENDMDL
