MODEL 1
REMARK VINA RESULT:    -6.186      0.000      0.000
REMARK INTER + INTRA:          -7.609
REMARK INTER:                  -7.452
REMARK INTRA:                  -0.156
REMARK UNBOUND:                -0.156
REMARK SMILES Oc1cc(O)c2c(c1)O[C@@H](c1ccc(O)c(O)c1)[C@H](O)C2
REMARK SMILES IDX 21 1 19 2 10 3 9 4 7 5 8 6 2 7 3 8 4 9 6 10 20 11 11 13
REMARK SMILES IDX 18 14 12 15 16 16 13 17 14 18 17 19 15 21 5 23 1 25
REMARK H PARENT 20 12 17 20 15 22 5 24 1 26
REMARK Flexibility Score: inf
ROOT
ATOM      1  C   UNL     1      20.145  -3.044  -6.008  1.00  0.00     0.079 C 
ATOM      2  C   UNL     1      18.927  -2.740  -6.902  1.00  0.00     0.164 C 
ATOM      3  C   UNL     1      19.084  -1.359  -7.567  1.00  0.00     0.232 C 
ATOM      4  O   UNL     1      20.306  -1.316  -8.303  1.00  0.00    -0.482 OA
ATOM      5  C   UNL     1      21.480  -1.919  -7.839  1.00  0.00     0.131 A 
ATOM      6  C   UNL     1      22.679  -1.677  -8.516  1.00  0.00     0.093 A 
ATOM      7  C   UNL     1      23.871  -2.253  -8.067  1.00  0.00     0.122 A 
ATOM      8  C   UNL     1      23.866  -3.066  -6.932  1.00  0.00     0.092 A 
ATOM      9  C   UNL     1      22.676  -3.319  -6.240  1.00  0.00     0.126 A 
ATOM     10  C   UNL     1      21.458  -2.774  -6.715  1.00  0.00     0.039 A 
ENDROOT
BRANCH   2  11
ATOM     11  O   UNL     1      17.736  -2.820  -6.158  1.00  0.00    -0.389 OA
ATOM     12  H   UNL     1      17.868  -3.507  -5.451  1.00  0.00     0.211 HD
ENDBRANCH   2  11
BRANCH   3  13
ATOM     13  C   UNL     1      17.924  -1.062  -8.489  1.00  0.00    -0.001 A 
ATOM     14  C   UNL     1      17.270  -2.101  -9.172  1.00  0.00     0.057 A 
ATOM     15  C   UNL     1      17.457   0.255  -8.634  1.00  0.00     0.012 A 
ATOM     16  C   UNL     1      16.175  -1.827 -10.005  1.00  0.00     0.157 A 
ATOM     17  C   UNL     1      16.367   0.528  -9.465  1.00  0.00     0.050 A 
ATOM     18  C   UNL     1      15.724  -0.506 -10.153  1.00  0.00     0.157 A 
BRANCH  16  19
ATOM     19  O   UNL     1      15.536  -2.864 -10.683  1.00  0.00    -0.504 OA
ATOM     20  H   UNL     1      16.053  -3.527 -11.249  1.00  0.00     0.293 HD
ENDBRANCH  16  19
BRANCH  18  21
ATOM     21  O   UNL     1      14.640  -0.201 -10.975  1.00  0.00    -0.504 OA
ATOM     22  H   UNL     1      14.760   0.201 -11.897  1.00  0.00     0.293 HD
ENDBRANCH  18  21
ENDBRANCH   3  13
BRANCH   9  23
ATOM     23  O   UNL     1      22.741  -4.104  -5.087  1.00  0.00    -0.507 OA
ATOM     24  H   UNL     1      23.042  -3.748  -4.188  1.00  0.00     0.293 HD
ENDBRANCH   9  23
BRANCH   7  25
ATOM     25  O   UNL     1      25.069  -2.017  -8.738  1.00  0.00    -0.508 OA
ATOM     26  H   UNL     1      25.163  -2.188  -9.732  1.00  0.00     0.293 HD
ENDBRANCH   7  25
TORSDOF 6
ENDMDL
MODEL 2
REMARK VINA RESULT:    -6.172      7.312      9.694
REMARK INTER + INTRA:          -7.591
REMARK INTER:                  -7.293
REMARK INTRA:                  -0.298
REMARK UNBOUND:                -0.156
REMARK SMILES Oc1cc(O)c2c(c1)O[C@@H](c1ccc(O)c(O)c1)[C@H](O)C2
REMARK SMILES IDX 21 1 19 2 10 3 9 4 7 5 8 6 2 7 3 8 4 9 6 10 20 11 11 13
REMARK SMILES IDX 18 14 12 15 16 16 13 17 14 18 17 19 15 21 5 23 1 25
REMARK H PARENT 20 12 17 20 15 22 5 24 1 26
REMARK Flexibility Score: inf
ROOT
ATOM      1  C   UNL     1      16.393  -0.095 -13.959  1.00  0.00     0.079 C 
ATOM      2  C   UNL     1      17.122   0.247 -15.273  1.00  0.00     0.164 C 
ATOM      3  C   UNL     1      18.319  -0.702 -15.481  1.00  0.00     0.232 C 
ATOM      4  O   UNL     1      17.866  -2.056 -15.463  1.00  0.00    -0.482 OA
ATOM      5  C   UNL     1      16.868  -2.499 -14.588  1.00  0.00     0.131 A 
ATOM      6  C   UNL     1      16.610  -3.869 -14.494  1.00  0.00     0.093 A 
ATOM      7  C   UNL     1      15.629  -4.344 -13.618  1.00  0.00     0.122 A 
ATOM      8  C   UNL     1      14.909  -3.444 -12.828  1.00  0.00     0.092 A 
ATOM      9  C   UNL     1      15.154  -2.069 -12.908  1.00  0.00     0.126 A 
ATOM     10  C   UNL     1      16.116  -1.578 -13.824  1.00  0.00     0.039 A 
ENDROOT
BRANCH   2  11
ATOM     11  O   UNL     1      17.528   1.594 -15.275  1.00  0.00    -0.389 OA
ATOM     12  H   UNL     1      16.754   2.143 -14.979  1.00  0.00     0.211 HD
ENDBRANCH   2  11
BRANCH   3  13
ATOM     13  C   UNL     1      19.019  -0.418 -16.790  1.00  0.00    -0.001 A 
ATOM     14  C   UNL     1      20.192   0.354 -16.820  1.00  0.00     0.057 A 
ATOM     15  C   UNL     1      18.529  -0.967 -17.987  1.00  0.00     0.012 A 
ATOM     16  C   UNL     1      20.857   0.594 -18.032  1.00  0.00     0.157 A 
ATOM     17  C   UNL     1      19.190  -0.729 -19.194  1.00  0.00     0.050 A 
ATOM     18  C   UNL     1      20.351   0.051 -19.224  1.00  0.00     0.157 A 
BRANCH  16  19
ATOM     19  O   UNL     1      22.017   1.367 -18.053  1.00  0.00    -0.504 OA
ATOM     20  H   UNL     1      22.706   1.311 -17.313  1.00  0.00     0.293 HD
ENDBRANCH  16  19
BRANCH  18  21
ATOM     21  O   UNL     1      20.988   0.272 -20.445  1.00  0.00    -0.504 OA
ATOM     22  H   UNL     1      21.240  -0.488 -21.065  1.00  0.00     0.293 HD
ENDBRANCH  18  21
ENDBRANCH   3  13
BRANCH   9  23
ATOM     23  O   UNL     1      14.434  -1.224 -12.061  1.00  0.00    -0.507 OA
ATOM     24  H   UNL     1      14.172  -0.278 -12.310  1.00  0.00     0.293 HD
ENDBRANCH   9  23
BRANCH   7  25
ATOM     25  O   UNL     1      15.366  -5.708 -13.520  1.00  0.00    -0.508 OA
ATOM     26  H   UNL     1      15.281  -6.293 -14.343  1.00  0.00     0.293 HD
ENDBRANCH   7  25
TORSDOF 6
ENDMDL
MODEL 3
REMARK VINA RESULT:    -5.979      6.964      8.919
REMARK INTER + INTRA:          -7.358
REMARK INTER:                  -6.986
REMARK INTRA:                  -0.373
REMARK UNBOUND:                -0.156
REMARK SMILES Oc1cc(O)c2c(c1)O[C@@H](c1ccc(O)c(O)c1)[C@H](O)C2
REMARK SMILES IDX 21 1 19 2 10 3 9 4 7 5 8 6 2 7 3 8 4 9 6 10 20 11 11 13
REMARK SMILES IDX 18 14 12 15 16 16 13 17 14 18 17 19 15 21 5 23 1 25
REMARK H PARENT 20 12 17 20 15 22 5 24 1 26
REMARK Flexibility Score: inf
ROOT
ATOM      1  C   UNL     1      19.837   1.002 -15.444  1.00  0.00     0.079 C 
ATOM      2  C   UNL     1      18.791   0.302 -14.553  1.00  0.00     0.164 C 
ATOM      3  C   UNL     1      17.454   0.166 -15.307  1.00  0.00     0.232 C 
ATOM      4  O   UNL     1      17.662  -0.536 -16.532  1.00  0.00    -0.482 OA
ATOM      5  C   UNL     1      18.802  -0.343 -17.320  1.00  0.00     0.131 A 
ATOM      6  C   UNL     1      18.850  -0.918 -18.593  1.00  0.00     0.093 A 
ATOM      7  C   UNL     1      19.969  -0.730 -19.410  1.00  0.00     0.122 A 
ATOM      8  C   UNL     1      21.039   0.043 -18.955  1.00  0.00     0.092 A 
ATOM      9  C   UNL     1      21.009   0.629 -17.684  1.00  0.00     0.126 A 
ATOM     10  C   UNL     1      19.898   0.406 -16.836  1.00  0.00     0.039 A 
ENDROOT
BRANCH   2  11
ATOM     11  O   UNL     1      18.630   0.998 -13.342  1.00  0.00    -0.389 OA
ATOM     12  H   UNL     1      19.008   0.433 -12.617  1.00  0.00     0.211 HD
ENDBRANCH   2  11
BRANCH   3  13
ATOM     13  C   UNL     1      16.428  -0.564 -14.471  1.00  0.00    -0.001 A 
ATOM     14  C   UNL     1      16.659  -1.884 -14.048  1.00  0.00     0.057 A 
ATOM     15  C   UNL     1      15.253   0.089 -14.067  1.00  0.00     0.012 A 
ATOM     16  C   UNL     1      15.720  -2.550 -13.248  1.00  0.00     0.157 A 
ATOM     17  C   UNL     1      14.315  -0.574 -13.270  1.00  0.00     0.050 A 
ATOM     18  C   UNL     1      14.541  -1.891 -12.860  1.00  0.00     0.157 A 
BRANCH  16  19
ATOM     19  O   UNL     1      15.954  -3.862 -12.838  1.00  0.00    -0.504 OA
ATOM     20  H   UNL     1      15.888  -4.640 -13.483  1.00  0.00     0.293 HD
ENDBRANCH  16  19
BRANCH  18  21
ATOM     21  O   UNL     1      13.587  -2.527 -12.067  1.00  0.00    -0.504 OA
ATOM     22  H   UNL     1      12.610  -2.567 -12.328  1.00  0.00     0.293 HD
ENDBRANCH  18  21
ENDBRANCH   3  13
BRANCH   9  23
ATOM     23  O   UNL     1      22.089   1.427 -17.304  1.00  0.00    -0.507 OA
ATOM     24  H   UNL     1      21.987   2.291 -16.786  1.00  0.00     0.293 HD
ENDBRANCH   9  23
BRANCH   7  25
ATOM     25  O   UNL     1      20.025  -1.302 -20.679  1.00  0.00    -0.508 OA
ATOM     26  H   UNL     1      20.008  -0.733 -21.518  1.00  0.00     0.293 HD
ENDBRANCH   7  25
TORSDOF 6
ENDMDL
MODEL 4
REMARK VINA RESULT:    -5.959      7.576     10.261
REMARK INTER + INTRA:          -7.335
REMARK INTER:                  -6.981
REMARK INTRA:                  -0.353
REMARK UNBOUND:                -0.156
REMARK SMILES Oc1cc(O)c2c(c1)O[C@@H](c1ccc(O)c(O)c1)[C@H](O)C2
REMARK SMILES IDX 21 1 19 2 10 3 9 4 7 5 8 6 2 7 3 8 4 9 6 10 20 11 11 13
REMARK SMILES IDX 18 14 12 15 16 16 13 17 14 18 17 19 15 21 5 23 1 25
REMARK H PARENT 20 12 17 20 15 22 5 24 1 26
REMARK Flexibility Score: inf
ROOT
ATOM      1  C   UNL     1      11.908  -8.281 -11.239  1.00  0.00     0.079 C 
ATOM      2  C   UNL     1      10.580  -7.647 -10.779  1.00  0.00     0.164 C 
ATOM      3  C   UNL     1      10.839  -6.626  -9.653  1.00  0.00     0.232 C 
ATOM      4  O   UNL     1      11.770  -5.642 -10.101  1.00  0.00    -0.482 OA
ATOM      5  C   UNL     1      12.865  -5.962 -10.912  1.00  0.00     0.131 A 
ATOM      6  C   UNL     1      13.835  -4.987 -11.154  1.00  0.00     0.093 A 
ATOM      7  C   UNL     1      14.949  -5.281 -11.947  1.00  0.00     0.122 A 
ATOM      8  C   UNL     1      15.095  -6.558 -12.491  1.00  0.00     0.092 A 
ATOM      9  C   UNL     1      14.134  -7.549 -12.259  1.00  0.00     0.126 A 
ATOM     10  C   UNL     1      12.983  -7.244 -11.493  1.00  0.00     0.039 A 
ENDROOT
BRANCH   2  11
ATOM     11  O   UNL     1       9.673  -8.641 -10.374  1.00  0.00    -0.389 OA
ATOM     12  H   UNL     1       9.637  -8.632  -9.381  1.00  0.00     0.211 HD
ENDBRANCH   2  11
BRANCH   3  13
ATOM     13  C   UNL     1       9.555  -5.954  -9.222  1.00  0.00    -0.001 A 
ATOM     14  C   UNL     1       9.183  -5.926  -7.868  1.00  0.00     0.057 A 
ATOM     15  C   UNL     1       8.746  -5.304 -10.169  1.00  0.00     0.012 A 
ATOM     16  C   UNL     1       8.006  -5.277  -7.466  1.00  0.00     0.157 A 
ATOM     17  C   UNL     1       7.574  -4.657  -9.769  1.00  0.00     0.050 A 
ATOM     18  C   UNL     1       7.198  -4.642  -8.422  1.00  0.00     0.157 A 
BRANCH  16  19
ATOM     19  O   UNL     1       7.641  -5.260  -6.120  1.00  0.00    -0.504 OA
ATOM     20  H   UNL     1       7.321  -6.097  -5.647  1.00  0.00     0.293 HD
ENDBRANCH  16  19
BRANCH  18  21
ATOM     21  O   UNL     1       6.022  -3.990  -8.054  1.00  0.00    -0.504 OA
ATOM     22  H   UNL     1       5.446  -4.311  -7.286  1.00  0.00     0.293 HD
ENDBRANCH  18  21
ENDBRANCH   3  13
BRANCH   9  23
ATOM     23  O   UNL     1      14.359  -8.819 -12.794  1.00  0.00    -0.507 OA
ATOM     24  H   UNL     1      13.622  -9.496 -12.947  1.00  0.00     0.293 HD
ENDBRANCH   9  23
BRANCH   7  25
ATOM     25  O   UNL     1      15.920  -4.313 -12.194  1.00  0.00    -0.508 OA
ATOM     26  H   UNL     1      15.861  -3.387 -11.787  1.00  0.00     0.293 HD
ENDBRANCH   7  25
TORSDOF 6
ENDMDL
MODEL 5
REMARK VINA RESULT:    -5.841      4.323      7.384
REMARK INTER + INTRA:          -7.192
REMARK INTER:                  -6.850
REMARK INTRA:                  -0.343
REMARK UNBOUND:                -0.156
REMARK SMILES Oc1cc(O)c2c(c1)O[C@@H](c1ccc(O)c(O)c1)[C@H](O)C2
REMARK SMILES IDX 21 1 19 2 10 3 9 4 7 5 8 6 2 7 3 8 4 9 6 10 20 11 11 13
REMARK SMILES IDX 18 14 12 15 16 16 13 17 14 18 17 19 15 21 5 23 1 25
REMARK H PARENT 20 12 17 20 15 22 5 24 1 26
REMARK Flexibility Score: inf
ROOT
ATOM      1  C   UNL     1      15.171  -4.374 -13.345  1.00  0.00     0.079 C 
ATOM      2  C   UNL     1      15.587  -3.374 -12.248  1.00  0.00     0.164 C 
ATOM      3  C   UNL     1      16.683  -3.989 -11.355  1.00  0.00     0.232 C 
ATOM      4  O   UNL     1      17.793  -4.384 -12.160  1.00  0.00    -0.482 OA
ATOM      5  C   UNL     1      17.632  -4.956 -13.427  1.00  0.00     0.131 A 
ATOM      6  C   UNL     1      18.749  -5.490 -14.075  1.00  0.00     0.093 A 
ATOM      7  C   UNL     1      18.617  -6.082 -15.335  1.00  0.00     0.122 A 
ATOM      8  C   UNL     1      17.362  -6.147 -15.944  1.00  0.00     0.092 A 
ATOM      9  C   UNL     1      16.232  -5.619 -15.310  1.00  0.00     0.126 A 
ATOM     10  C   UNL     1      16.366  -4.980 -14.053  1.00  0.00     0.039 A 
ENDROOT
BRANCH   2  11
ATOM     11  O   UNL     1      14.469  -2.979 -11.492  1.00  0.00    -0.389 OA
ATOM     12  H   UNL     1      13.870  -2.457 -12.088  1.00  0.00     0.211 HD
ENDBRANCH   2  11
BRANCH   3  13
ATOM     13  C   UNL     1      17.143  -3.006 -10.303  1.00  0.00    -0.001 A 
ATOM     14  C   UNL     1      17.207  -3.384  -8.951  1.00  0.00     0.057 A 
ATOM     15  C   UNL     1      17.560  -1.717 -10.674  1.00  0.00     0.012 A 
ATOM     16  C   UNL     1      17.660  -2.481  -7.979  1.00  0.00     0.157 A 
ATOM     17  C   UNL     1      18.012  -0.816  -9.706  1.00  0.00     0.050 A 
ATOM     18  C   UNL     1      18.062  -1.190  -8.360  1.00  0.00     0.157 A 
BRANCH  16  19
ATOM     19  O   UNL     1      17.714  -2.862  -6.639  1.00  0.00    -0.504 OA
ATOM     20  H   UNL     1      18.316  -2.388  -5.976  1.00  0.00     0.293 HD
ENDBRANCH  16  19
BRANCH  18  21
ATOM     21  O   UNL     1      18.517  -0.269  -7.417  1.00  0.00    -0.504 OA
ATOM     22  H   UNL     1      18.130  -0.220  -6.482  1.00  0.00     0.293 HD
ENDBRANCH  18  21
ENDBRANCH   3  13
BRANCH   9  23
ATOM     23  O   UNL     1      14.997  -5.755 -15.949  1.00  0.00    -0.507 OA
ATOM     24  H   UNL     1      14.432  -4.967 -16.240  1.00  0.00     0.293 HD
ENDBRANCH   9  23
BRANCH   7  25
ATOM     25  O   UNL     1      19.726  -6.615 -15.988  1.00  0.00    -0.508 OA
ATOM     26  H   UNL     1      19.939  -7.605 -15.949  1.00  0.00     0.293 HD
ENDBRANCH   7  25
TORSDOF 6
ENDMDL
MODEL 6
REMARK VINA RESULT:    -5.755      8.579      9.575
REMARK INTER + INTRA:          -7.089
REMARK INTER:                  -6.716
REMARK INTRA:                  -0.373
REMARK UNBOUND:                -0.156
REMARK SMILES Oc1cc(O)c2c(c1)O[C@@H](c1ccc(O)c(O)c1)[C@H](O)C2
REMARK SMILES IDX 21 1 19 2 10 3 9 4 7 5 8 6 2 7 3 8 4 9 6 10 20 11 11 13
REMARK SMILES IDX 18 14 12 15 16 16 13 17 14 18 17 19 15 21 5 23 1 25
REMARK H PARENT 20 12 17 20 15 22 5 24 1 26
REMARK Flexibility Score: inf
ROOT
ATOM      1  C   UNL     1      21.937  -8.676 -16.129  1.00  0.00     0.079 C 
ATOM      2  C   UNL     1      20.585  -8.090 -16.582  1.00  0.00     0.164 C 
ATOM      3  C   UNL     1      19.473  -8.489 -15.592  1.00  0.00     0.232 C 
ATOM      4  O   UNL     1      19.824  -8.061 -14.277  1.00  0.00    -0.482 OA
ATOM      5  C   UNL     1      21.135  -8.124 -13.794  1.00  0.00     0.131 A 
ATOM      6  C   UNL     1      21.372  -7.868 -12.441  1.00  0.00     0.093 A 
ATOM      7  C   UNL     1      22.669  -7.938 -11.926  1.00  0.00     0.122 A 
ATOM      8  C   UNL     1      23.733  -8.276 -12.766  1.00  0.00     0.092 A 
ATOM      9  C   UNL     1      23.516  -8.537 -14.124  1.00  0.00     0.126 A 
ATOM     10  C   UNL     1      22.210  -8.425 -14.660  1.00  0.00     0.039 A 
ENDROOT
BRANCH   2  11
ATOM     11  O   UNL     1      20.282  -8.503 -17.891  1.00  0.00    -0.389 OA
ATOM     12  H   UNL     1      19.496  -7.978 -18.199  1.00  0.00     0.211 HD
ENDBRANCH   2  11
BRANCH   3  13
ATOM     13  C   UNL     1      18.147  -7.882 -15.988  1.00  0.00    -0.001 A 
ATOM     14  C   UNL     1      17.065  -8.702 -16.351  1.00  0.00     0.057 A 
ATOM     15  C   UNL     1      17.968  -6.490 -15.949  1.00  0.00     0.012 A 
ATOM     16  C   UNL     1      15.826  -8.138 -16.691  1.00  0.00     0.157 A 
ATOM     17  C   UNL     1      16.735  -5.927 -16.288  1.00  0.00     0.050 A 
ATOM     18  C   UNL     1      15.663  -6.744 -16.661  1.00  0.00     0.157 A 
BRANCH  16  19
ATOM     19  O   UNL     1      14.760  -8.959 -17.056  1.00  0.00    -0.504 OA
ATOM     20  H   UNL     1      14.672  -9.904 -16.701  1.00  0.00     0.293 HD
ENDBRANCH  16  19
BRANCH  18  21
ATOM     21  O   UNL     1      14.445  -6.153 -16.994  1.00  0.00    -0.504 OA
ATOM     22  H   UNL     1      13.700  -6.035 -16.318  1.00  0.00     0.293 HD
ENDBRANCH  18  21
ENDBRANCH   3  13
BRANCH   9  23
ATOM     23  O   UNL     1      24.612  -8.913 -14.903  1.00  0.00    -0.507 OA
ATOM     24  H   UNL     1      25.305  -9.585 -14.601  1.00  0.00     0.293 HD
ENDBRANCH   9  23
BRANCH   7  25
ATOM     25  O   UNL     1      22.913  -7.682 -10.578  1.00  0.00    -0.508 OA
ATOM     26  H   UNL     1      22.728  -6.774 -10.169  1.00  0.00     0.293 HD
ENDBRANCH   7  25
TORSDOF 6
ENDMDL
MODEL 7
REMARK VINA RESULT:    -5.667      3.128      5.433
REMARK INTER + INTRA:          -6.982
REMARK INTER:                  -6.616
REMARK INTRA:                  -0.366
REMARK UNBOUND:                -0.156
REMARK SMILES Oc1cc(O)c2c(c1)O[C@@H](c1ccc(O)c(O)c1)[C@H](O)C2
REMARK SMILES IDX 21 1 19 2 10 3 9 4 7 5 8 6 2 7 3 8 4 9 6 10 20 11 11 13
REMARK SMILES IDX 18 14 12 15 16 16 13 17 14 18 17 19 15 21 5 23 1 25
REMARK H PARENT 20 12 17 20 15 22 5 24 1 26
REMARK Flexibility Score: inf
ROOT
ATOM      1  C   UNL     1      16.372  -3.117 -10.112  1.00  0.00     0.079 C 
ATOM      2  C   UNL     1      16.048  -2.556 -11.510  1.00  0.00     0.164 C 
ATOM      3  C   UNL     1      15.578  -1.092 -11.401  1.00  0.00     0.232 C 
ATOM      4  O   UNL     1      16.574  -0.316 -10.736  1.00  0.00    -0.482 OA
ATOM      5  C   UNL     1      17.311  -0.813  -9.656  1.00  0.00     0.131 A 
ATOM      6  C   UNL     1      18.130   0.061  -8.936  1.00  0.00     0.093 A 
ATOM      7  C   UNL     1      18.867  -0.402  -7.842  1.00  0.00     0.122 A 
ATOM      8  C   UNL     1      18.778  -1.743  -7.462  1.00  0.00     0.092 A 
ATOM      9  C   UNL     1      17.962  -2.633  -8.170  1.00  0.00     0.126 A 
ATOM     10  C   UNL     1      17.247  -2.180  -9.304  1.00  0.00     0.039 A 
ENDROOT
BRANCH   2  11
ATOM     11  O   UNL     1      15.088  -3.358 -12.153  1.00  0.00    -0.389 OA
ATOM     12  H   UNL     1      14.424  -2.753 -12.577  1.00  0.00     0.211 HD
ENDBRANCH   2  11
BRANCH   3  13
ATOM     13  C   UNL     1      15.304  -0.504 -12.767  1.00  0.00    -0.001 A 
ATOM     14  C   UNL     1      14.041   0.029 -13.074  1.00  0.00     0.057 A 
ATOM     15  C   UNL     1      16.326  -0.441 -13.727  1.00  0.00     0.012 A 
ATOM     16  C   UNL     1      13.796   0.600 -14.332  1.00  0.00     0.157 A 
ATOM     17  C   UNL     1      16.083   0.127 -14.980  1.00  0.00     0.050 A 
ATOM     18  C   UNL     1      14.822   0.646 -15.289  1.00  0.00     0.157 A 
BRANCH  16  19
ATOM     19  O   UNL     1      12.538   1.121 -14.631  1.00  0.00    -0.504 OA
ATOM     20  H   UNL     1      12.430   1.978 -15.160  1.00  0.00     0.293 HD
ENDBRANCH  16  19
BRANCH  18  21
ATOM     21  O   UNL     1      14.610   1.206 -16.548  1.00  0.00    -0.504 OA
ATOM     22  H   UNL     1      14.245   0.665 -17.323  1.00  0.00     0.293 HD
ENDBRANCH  18  21
ENDBRANCH   3  13
BRANCH   9  23
ATOM     23  O   UNL     1      17.879  -3.951  -7.714  1.00  0.00    -0.507 OA
ATOM     24  H   UNL     1      17.179  -4.607  -8.036  1.00  0.00     0.293 HD
ENDBRANCH   9  23
BRANCH   7  25
ATOM     25  O   UNL     1      19.687   0.464  -7.121  1.00  0.00    -0.508 OA
ATOM     26  H   UNL     1      20.696   0.368  -7.129  1.00  0.00     0.293 HD
ENDBRANCH   7  25
TORSDOF 6
ENDMDL
MODEL 8
REMARK VINA RESULT:    -5.657     12.579     16.614
REMARK INTER + INTRA:          -6.970
REMARK INTER:                  -6.607
REMARK INTRA:                  -0.363
REMARK UNBOUND:                -0.156
REMARK SMILES Oc1cc(O)c2c(c1)O[C@@H](c1ccc(O)c(O)c1)[C@H](O)C2
REMARK SMILES IDX 21 1 19 2 10 3 9 4 7 5 8 6 2 7 3 8 4 9 6 10 20 11 11 13
REMARK SMILES IDX 18 14 12 15 16 16 13 17 14 18 17 19 15 21 5 23 1 25
REMARK H PARENT 20 12 17 20 15 22 5 24 1 26
REMARK Flexibility Score: inf
ROOT
ATOM      1  C   UNL     1       8.602   2.523 -20.416  1.00  0.00     0.079 C 
ATOM      2  C   UNL     1      10.056   2.793 -19.978  1.00  0.00     0.164 C 
ATOM      3  C   UNL     1      10.123   4.061 -19.104  1.00  0.00     0.232 C 
ATOM      4  O   UNL     1       9.249   3.920 -17.985  1.00  0.00    -0.482 OA
ATOM      5  C   UNL     1       7.998   3.302 -18.086  1.00  0.00     0.131 A 
ATOM      6  C   UNL     1       7.120   3.369 -17.000  1.00  0.00     0.093 A 
ATOM      7  C   UNL     1       5.857   2.774 -17.076  1.00  0.00     0.122 A 
ATOM      8  C   UNL     1       5.468   2.119 -18.246  1.00  0.00     0.092 A 
ATOM      9  C   UNL     1       6.332   2.043 -19.345  1.00  0.00     0.126 A 
ATOM     10  C   UNL     1       7.628   2.605 -19.258  1.00  0.00     0.039 A 
ENDROOT
BRANCH   2  11
ATOM     11  O   UNL     1      10.898   2.895 -21.099  1.00  0.00    -0.389 OA
ATOM     12  H   UNL     1      11.639   2.244 -20.980  1.00  0.00     0.211 HD
ENDBRANCH   2  11
BRANCH   3  13
ATOM     13  C   UNL     1      11.532   4.315 -18.620  1.00  0.00    -0.001 A 
ATOM     14  C   UNL     1      12.223   3.337 -17.886  1.00  0.00     0.057 A 
ATOM     15  C   UNL     1      12.184   5.516 -18.944  1.00  0.00     0.012 A 
ATOM     16  C   UNL     1      13.541   3.563 -17.462  1.00  0.00     0.157 A 
ATOM     17  C   UNL     1      13.496   5.743 -18.522  1.00  0.00     0.050 A 
ATOM     18  C   UNL     1      14.178   4.773 -17.780  1.00  0.00     0.157 A 
BRANCH  16  19
ATOM     19  O   UNL     1      14.217   2.589 -16.728  1.00  0.00    -0.504 OA
ATOM     20  H   UNL     1      15.045   2.131 -17.090  1.00  0.00     0.293 HD
ENDBRANCH  16  19
BRANCH  18  21
ATOM     21  O   UNL     1      15.487   5.028 -17.372  1.00  0.00    -0.504 OA
ATOM     22  H   UNL     1      16.288   4.702 -17.898  1.00  0.00     0.293 HD
ENDBRANCH  18  21
ENDBRANCH   3  13
BRANCH   9  23
ATOM     23  O   UNL     1       5.868   1.413 -20.502  1.00  0.00    -0.507 OA
ATOM     24  H   UNL     1       4.895   1.188 -20.661  1.00  0.00     0.293 HD
ENDBRANCH   9  23
BRANCH   7  25
ATOM     25  O   UNL     1       4.978   2.835 -15.997  1.00  0.00    -0.508 OA
ATOM     26  H   UNL     1       5.179   3.401 -15.181  1.00  0.00     0.293 HD
ENDBRANCH   7  25
TORSDOF 6
ENDMDL
