MODEL 1
REMARK VINA RESULT:    -2.606      0.000      0.000
REMARK INTER + INTRA:          -4.047
REMARK INTER:                  -3.977
REMARK INTRA:                  -0.070
REMARK UNBOUND:                -0.070
REMARK SMILES CC1=CCC[C@H](C)C(=O)C[C@@H](C(C)C)C(=O)C1
REMARK SMILES IDX 8 1 9 2 6 3 7 4 5 5 4 6 3 7 2 8 1 9 10 11 11 12 15 13 16 14
REMARK SMILES IDX 17 15 12 17 13 18 14 19
REMARK H PARENT
REMARK Flexibility Score: 70.00
ROOT
ATOM      1  C   UNL     1     -10.460 -13.761  -6.640  1.00  0.00     0.136 C 
ATOM      2  O   UNL     1     -11.154 -12.793  -6.362  1.00  0.00    -0.299 OA
ENDROOT
BRANCH   1   3
ATOM      3  C   UNL     1     -10.920 -14.742  -7.698  1.00  0.00     0.053 C 
ATOM      4  C   UNL     1     -12.434 -14.945  -7.577  1.00  0.00     0.016 C 
BRANCH   3   5
ATOM      5  C   UNL     1     -10.556 -14.266  -9.123  1.00  0.00     0.015 C 
BRANCH   5   6
ATOM      6  C   UNL     1      -9.046 -14.290  -9.405  1.00  0.00     0.028 C 
BRANCH   6   7
ATOM      7  C   UNL     1      -8.478 -12.894  -9.472  1.00  0.00    -0.028 C 
ATOM      8  C   UNL     1      -7.543 -12.380  -8.639  1.00  0.00    -0.070 CG0
ATOM      9  C   UNL     1      -7.094 -10.959  -8.872  1.00  0.00     0.039 C 
ATOM     10  G   UNL     1      -6.901 -13.170  -7.514  1.00  0.00     0.000 G0
ENDBRANCH   6   7
ENDBRANCH   5   6
ENDBRANCH   3   5
ENDBRANCH   1   3
BRANCH   1  11
ATOM     11  C   UNL     1      -9.173 -13.978  -5.885  1.00  0.00     0.087 C 
BRANCH  11  12
ATOM     12  C   UNL     1      -8.501 -12.636  -5.496  1.00  0.00     0.066 C 
BRANCH  12  13
ATOM     13  C   UNL     1      -7.140 -12.546  -6.168  1.00  0.00     0.140 C 
ATOM     14  O   UNL     1      -6.252 -11.888  -5.643  1.00  0.00    -0.299 OA
BRANCH  13  15
ATOM     15  C   UNL     1      -6.884 -13.171  -7.516  1.00  0.00     0.106 CG0
ATOM     16  G   UNL     1      -7.536 -12.365  -8.624  1.00  0.00     0.000 G0
ENDBRANCH  13  15
ENDBRANCH  12  13
BRANCH  12  17
ATOM     17  C   UNL     1      -8.354 -12.473  -3.946  1.00  0.00    -0.006 C 
ATOM     18  C   UNL     1      -8.461 -13.820  -3.206  1.00  0.00     0.008 C 
ATOM     19  C   UNL     1      -9.422 -11.516  -3.376  1.00  0.00     0.008 C 
ENDBRANCH  12  17
ENDBRANCH  11  12
ENDBRANCH   1  11
TORSDOF 1
ENDMDL
MODEL 2
REMARK VINA RESULT:    -2.525      4.719      6.655
REMARK INTER + INTRA:          -3.923
REMARK INTER:                  -3.788
REMARK INTRA:                  -0.136
REMARK UNBOUND:                -0.070
REMARK SMILES CC1=CCC[C@H](C)C(=O)C[C@@H](C(C)C)C(=O)C1
REMARK SMILES IDX 8 1 9 2 6 3 7 4 5 5 4 6 3 7 2 8 1 9 10 11 11 12 15 13 16 14
REMARK SMILES IDX 17 15 12 17 13 18 14 19
REMARK H PARENT
REMARK Flexibility Score: 70.00
ROOT
ATOM      1  C   UNL     1      -7.981 -14.349  -1.680  1.00  0.00     0.136 C 
ATOM      2  O   UNL     1      -7.273 -13.628  -0.991  1.00  0.00    -0.299 OA
ENDROOT
BRANCH   1   3
ATOM      3  C   UNL     1      -8.116 -14.080  -3.165  1.00  0.00     0.053 C 
ATOM      4  C   UNL     1      -8.874 -12.766  -3.375  1.00  0.00     0.016 C 
BRANCH   3   5
ATOM      5  C   UNL     1      -6.739 -14.022  -3.867  1.00  0.00     0.015 C 
BRANCH   5   6
ATOM      6  C   UNL     1      -6.167 -15.408  -4.198  1.00  0.00     0.028 C 
BRANCH   6   7
ATOM      7  C   UNL     1      -7.254 -16.363  -4.628  1.00  0.00    -0.028 C 
ATOM      8  C   UNL     1      -7.616 -17.494  -3.979  1.00  0.00    -0.070 CG0
ATOM      9  C   UNL     1      -8.735 -18.317  -4.564  1.00  0.00     0.039 C 
ATOM     10  G   UNL     1      -6.981 -17.950  -2.679  1.00  0.00     0.000 G0
ENDBRANCH   6   7
ENDBRANCH   5   6
ENDBRANCH   3   5
ENDBRANCH   1   3
BRANCH   1  11
ATOM     11  C   UNL     1      -8.742 -15.471  -1.021  1.00  0.00     0.087 C 
BRANCH  11  12
ATOM     12  C   UNL     1      -7.799 -16.608  -0.550  1.00  0.00     0.066 C 
BRANCH  12  13
ATOM     13  C   UNL     1      -7.921 -17.785  -1.505  1.00  0.00     0.140 C 
ATOM     14  O   UNL     1      -8.752 -18.655  -1.284  1.00  0.00    -0.299 OA
BRANCH  13  15
ATOM     15  C   UNL     1      -6.978 -17.956  -2.669  1.00  0.00     0.106 CG0
ATOM     16  G   UNL     1      -7.622 -17.499  -3.964  1.00  0.00     0.000 G0
ENDBRANCH  13  15
ENDBRANCH  12  13
BRANCH  12  17
ATOM     17  C   UNL     1      -8.103 -17.063   0.916  1.00  0.00    -0.006 C 
ATOM     18  C   UNL     1      -9.442 -16.504   1.434  1.00  0.00     0.008 C 
ATOM     19  C   UNL     1      -6.984 -16.628   1.885  1.00  0.00     0.008 C 
ENDBRANCH  12  17
ENDBRANCH  11  12
ENDBRANCH   1  11
TORSDOF 1
ENDMDL
MODEL 3
REMARK VINA RESULT:    -2.513      2.277      3.332
REMARK INTER + INTRA:          -3.906
REMARK INTER:                  -3.808
REMARK INTRA:                  -0.098
REMARK UNBOUND:                -0.070
REMARK SMILES CC1=CCC[C@H](C)C(=O)C[C@@H](C(C)C)C(=O)C1
REMARK SMILES IDX 8 1 9 2 6 3 7 4 5 5 4 6 3 7 2 8 1 9 10 11 11 12 15 13 16 14
REMARK SMILES IDX 17 15 12 17 13 18 14 19
REMARK H PARENT
REMARK Flexibility Score: 70.00
ROOT
ATOM      1  C   UNL     1      -9.319 -12.093  -3.991  1.00  0.00     0.136 C 
ATOM      2  O   UNL     1      -9.266 -11.539  -2.901  1.00  0.00    -0.299 OA
ENDROOT
BRANCH   1   3
ATOM      3  C   UNL     1      -9.823 -11.333  -5.201  1.00  0.00     0.053 C 
ATOM      4  C   UNL     1      -8.694 -10.461  -5.758  1.00  0.00     0.016 C 
BRANCH   3   5
ATOM      5  C   UNL     1     -10.356 -12.284  -6.297  1.00  0.00     0.015 C 
BRANCH   5   6
ATOM      6  C   UNL     1      -9.363 -12.500  -7.449  1.00  0.00     0.028 C 
BRANCH   6   7
ATOM      7  C   UNL     1      -9.083 -13.967  -7.665  1.00  0.00    -0.028 C 
ATOM      8  C   UNL     1      -7.981 -14.632  -7.248  1.00  0.00    -0.070 CG0
ATOM      9  C   UNL     1      -7.887 -16.105  -7.555  1.00  0.00     0.039 C 
ATOM     10  G   UNL     1      -6.861 -13.980  -6.459  1.00  0.00     0.000 G0
ENDBRANCH   6   7
ENDBRANCH   5   6
ENDBRANCH   3   5
ENDBRANCH   1   3
BRANCH   1  11
ATOM     11  C   UNL     1      -8.917 -13.542  -4.095  1.00  0.00     0.087 C 
BRANCH  11  12
ATOM     12  C   UNL     1      -7.395 -13.735  -3.871  1.00  0.00     0.066 C 
BRANCH  12  13
ATOM     13  C   UNL     1      -6.815 -14.523  -5.035  1.00  0.00     0.140 C 
ATOM     14  O   UNL     1      -6.239 -15.580  -4.818  1.00  0.00    -0.299 OA
BRANCH  13  15
ATOM     15  C   UNL     1      -6.849 -13.986  -6.444  1.00  0.00     0.106 CG0
ATOM     16  G   UNL     1      -7.974 -14.621  -7.241  1.00  0.00     0.000 G0
ENDBRANCH  13  15
ENDBRANCH  12  13
BRANCH  12  17
ATOM     17  C   UNL     1      -7.079 -14.453  -2.517  1.00  0.00    -0.006 C 
ATOM     18  C   UNL     1      -8.346 -15.032  -1.856  1.00  0.00     0.008 C 
ATOM     19  C   UNL     1      -6.399 -13.497  -1.516  1.00  0.00     0.008 C 
ENDBRANCH  12  17
ENDBRANCH  11  12
ENDBRANCH   1  11
TORSDOF 1
ENDMDL
MODEL 4
REMARK VINA RESULT:    -2.509      2.392      5.115
REMARK INTER + INTRA:          -3.899
REMARK INTER:                  -3.697
REMARK INTRA:                  -0.203
REMARK UNBOUND:                -0.070
REMARK SMILES CC1=CCC[C@H](C)C(=O)C[C@@H](C(C)C)C(=O)C1
REMARK SMILES IDX 8 1 9 2 6 3 7 4 5 5 4 6 3 7 2 8 1 9 10 11 11 12 15 13 16 14
REMARK SMILES IDX 17 15 12 17 13 18 14 19
REMARK H PARENT
REMARK Flexibility Score: 70.00
ROOT
ATOM      1  C   UNL     1      -9.537 -12.666  -5.287  1.00  0.00     0.136 C 
ATOM      2  O   UNL     1     -10.700 -12.325  -5.455  1.00  0.00    -0.299 OA
ENDROOT
BRANCH   1   3
ATOM      3  C   UNL     1      -8.832 -12.333  -3.989  1.00  0.00     0.053 C 
ATOM      4  C   UNL     1      -9.605 -11.229  -3.261  1.00  0.00     0.016 C 
BRANCH   3   5
ATOM      5  C   UNL     1      -8.685 -13.574  -3.078  1.00  0.00     0.015 C 
BRANCH   5   6
ATOM      6  C   UNL     1      -7.224 -13.993  -2.854  1.00  0.00     0.028 C 
BRANCH   6   7
ATOM      7  C   UNL     1      -7.043 -15.479  -3.046  1.00  0.00    -0.028 C 
ATOM      8  C   UNL     1      -6.863 -16.107  -4.231  1.00  0.00    -0.070 CG0
ATOM      9  C   UNL     1      -6.693 -17.606  -4.217  1.00  0.00     0.039 C 
ATOM     10  G   UNL     1      -6.783 -15.378  -5.559  1.00  0.00     0.000 G0
ENDBRANCH   6   7
ENDBRANCH   5   6
ENDBRANCH   3   5
ENDBRANCH   1   3
BRANCH   1  11
ATOM     11  C   UNL     1      -8.818 -13.380  -6.403  1.00  0.00     0.087 C 
BRANCH  11  12
ATOM     12  C   UNL     1      -9.193 -14.883  -6.462  1.00  0.00     0.066 C 
BRANCH  12  13
ATOM     13  C   UNL     1      -7.920 -15.715  -6.478  1.00  0.00     0.140 C 
ATOM     14  O   UNL     1      -7.865 -16.717  -7.178  1.00  0.00    -0.299 OA
BRANCH  13  15
ATOM     15  C   UNL     1      -6.753 -15.388  -5.580  1.00  0.00     0.106 CG0
ATOM     16  G   UNL     1      -6.868 -16.113  -4.252  1.00  0.00     0.000 G0
ENDBRANCH  13  15
ENDBRANCH  12  13
BRANCH  12  17
ATOM     17  C   UNL     1     -10.082 -15.226  -7.703  1.00  0.00    -0.006 C 
ATOM     18  C   UNL     1     -10.022 -14.127  -8.783  1.00  0.00     0.008 C 
ATOM     19  C   UNL     1     -11.556 -15.435  -7.300  1.00  0.00     0.008 C 
ENDBRANCH  12  17
ENDBRANCH  11  12
ENDBRANCH   1  11
TORSDOF 1
ENDMDL
MODEL 5
REMARK VINA RESULT:    -2.357      1.966      4.626
REMARK INTER + INTRA:          -3.668
REMARK INTER:                  -3.899
REMARK INTRA:                   0.231
REMARK UNBOUND:                -0.070
REMARK SMILES CC1=CCC[C@H](C)C(=O)C[C@@H](C(C)C)C(=O)C1
REMARK SMILES IDX 8 1 9 2 6 3 7 4 5 5 4 6 3 7 2 8 1 9 10 11 11 12 15 13 16 14
REMARK SMILES IDX 17 15 12 17 13 18 14 19
REMARK H PARENT
REMARK Flexibility Score: 70.00
ROOT
ATOM      1  C   UNL     1      -7.651 -14.477  -4.477  1.00  0.00     0.136 C 
ATOM      2  O   UNL     1      -6.444 -14.284  -4.446  1.00  0.00    -0.299 OA
ENDROOT
BRANCH   1   3
ATOM      3  C   UNL     1      -8.490 -14.213  -3.244  1.00  0.00     0.053 C 
ATOM      4  C   UNL     1      -7.966 -15.064  -2.083  1.00  0.00     0.016 C 
BRANCH   3   5
ATOM      5  C   UNL     1      -8.488 -12.717  -2.855  1.00  0.00     0.015 C 
BRANCH   5   6
ATOM      6  C   UNL     1      -9.353 -11.848  -3.780  1.00  0.00     0.028 C 
BRANCH   6   7
ATOM      7  C   UNL     1      -8.504 -11.061  -4.748  1.00  0.00    -0.028 C 
ATOM      8  C   UNL     1      -8.681 -11.000  -6.088  1.00  0.00    -0.070 CG0
ATOM      9  C   UNL     1      -7.727 -10.150  -6.889  1.00  0.00     0.039 C 
ATOM     10  G   UNL     1      -9.808 -11.710  -6.814  1.00  0.00     0.000 G0
ENDBRANCH   6   7
ENDBRANCH   5   6
ENDBRANCH   3   5
ENDBRANCH   1   3
BRANCH   1  11
ATOM     11  C   UNL     1      -8.272 -15.018  -5.740  1.00  0.00     0.087 C 
BRANCH  11  12
ATOM     12  C   UNL     1      -8.370 -13.934  -6.844  1.00  0.00     0.066 C 
BRANCH  12  13
ATOM     13  C   UNL     1      -9.701 -13.209  -6.716  1.00  0.00     0.140 C 
ATOM     14  O   UNL     1     -10.729 -13.860  -6.590  1.00  0.00    -0.299 OA
BRANCH  13  15
ATOM     15  C   UNL     1      -9.796 -11.709  -6.837  1.00  0.00     0.106 CG0
ATOM     16  G   UNL     1      -8.674 -11.029  -6.075  1.00  0.00     0.000 G0
ENDBRANCH  13  15
ENDBRANCH  12  13
BRANCH  12  17
ATOM     17  C   UNL     1      -8.211 -14.533  -8.281  1.00  0.00    -0.006 C 
ATOM     18  C   UNL     1      -7.223 -15.715  -8.313  1.00  0.00     0.008 C 
ATOM     19  C   UNL     1      -7.731 -13.467  -9.287  1.00  0.00     0.008 C 
ENDBRANCH  12  17
ENDBRANCH  11  12
ENDBRANCH   1  11
TORSDOF 1
ENDMDL
MODEL 6
REMARK VINA RESULT:    -2.232      4.449      6.786
REMARK INTER + INTRA:          -3.476
REMARK INTER:                  -3.726
REMARK INTRA:                   0.249
REMARK UNBOUND:                -0.070
REMARK SMILES CC1=CCC[C@H](C)C(=O)C[C@@H](C(C)C)C(=O)C1
REMARK SMILES IDX 8 1 9 2 6 3 7 4 5 5 4 6 3 7 2 8 1 9 10 11 11 12 15 13 16 14
REMARK SMILES IDX 17 15 12 17 13 18 14 19
REMARK H PARENT
REMARK Flexibility Score: 70.00
ROOT
ATOM      1  C   UNL     1      -9.138 -16.102  -0.444  1.00  0.00     0.136 C 
ATOM      2  O   UNL     1     -10.354 -16.010  -0.358  1.00  0.00    -0.299 OA
ENDROOT
BRANCH   1   3
ATOM      3  C   UNL     1      -8.425 -17.289   0.169  1.00  0.00     0.053 C 
ATOM      4  C   UNL     1      -8.755 -17.362   1.663  1.00  0.00     0.016 C 
BRANCH   3   5
ATOM      5  C   UNL     1      -8.807 -18.615  -0.529  1.00  0.00     0.015 C 
BRANCH   5   6
ATOM      6  C   UNL     1      -7.807 -19.040  -1.615  1.00  0.00     0.028 C 
BRANCH   6   7
ATOM      7  C   UNL     1      -8.400 -18.892  -2.995  1.00  0.00    -0.028 C 
ATOM      8  C   UNL     1      -7.931 -18.085  -3.975  1.00  0.00    -0.070 CG0
ATOM      9  C   UNL     1      -8.660 -18.080  -5.295  1.00  0.00     0.039 C 
ATOM     10  G   UNL     1      -6.695 -17.219  -3.823  1.00  0.00     0.000 G0
ENDBRANCH   6   7
ENDBRANCH   5   6
ENDBRANCH   3   5
ENDBRANCH   1   3
BRANCH   1  11
ATOM     11  C   UNL     1      -8.368 -15.001  -1.128  1.00  0.00     0.087 C 
BRANCH  11  12
ATOM     12  C   UNL     1      -8.103 -15.325  -2.621  1.00  0.00     0.066 C 
BRANCH  12  13
ATOM     13  C   UNL     1      -6.853 -16.184  -2.731  1.00  0.00     0.140 C 
ATOM     14  O   UNL     1      -5.928 -16.002  -1.952  1.00  0.00    -0.299 OA
BRANCH  13  15
ATOM     15  C   UNL     1      -6.686 -17.194  -3.839  1.00  0.00     0.106 CG0
ATOM     16  G   UNL     1      -7.911 -18.081  -3.957  1.00  0.00     0.000 G0
ENDBRANCH  13  15
ENDBRANCH  12  13
BRANCH  12  17
ATOM     17  C   UNL     1      -7.955 -14.034  -3.493  1.00  0.00    -0.006 C 
ATOM     18  C   UNL     1      -8.499 -12.782  -2.776  1.00  0.00     0.008 C 
ATOM     19  C   UNL     1      -8.683 -14.178  -4.845  1.00  0.00     0.008 C 
ENDBRANCH  12  17
ENDBRANCH  11  12
ENDBRANCH   1  11
TORSDOF 1
ENDMDL
MODEL 7
REMARK VINA RESULT:    -2.169      1.609      3.925
REMARK INTER + INTRA:          -3.380
REMARK INTER:                  -3.432
REMARK INTRA:                   0.052
REMARK UNBOUND:                -0.070
REMARK SMILES CC1=CCC[C@H](C)C(=O)C[C@@H](C(C)C)C(=O)C1
REMARK SMILES IDX 8 1 9 2 6 3 7 4 5 5 4 6 3 7 2 8 1 9 10 11 11 12 15 13 16 14
REMARK SMILES IDX 17 15 12 17 13 18 14 19
REMARK H PARENT
REMARK Flexibility Score: 70.00
ROOT
ATOM      1  C   UNL     1     -10.103 -12.160  -5.231  1.00  0.00     0.136 C 
ATOM      2  O   UNL     1     -11.213 -12.077  -4.722  1.00  0.00    -0.299 OA
ENDROOT
BRANCH   1   3
ATOM      3  C   UNL     1      -8.865 -11.985  -4.376  1.00  0.00     0.053 C 
ATOM      4  C   UNL     1      -9.251 -11.304  -3.059  1.00  0.00     0.016 C 
BRANCH   3   5
ATOM      5  C   UNL     1      -8.162 -13.334  -4.096  1.00  0.00     0.015 C 
BRANCH   5   6
ATOM      6  C   UNL     1      -6.677 -13.338  -4.489  1.00  0.00     0.028 C 
BRANCH   6   7
ATOM      7  C   UNL     1      -6.370 -12.249  -5.487  1.00  0.00    -0.028 C 
ATOM      8  C   UNL     1      -6.404 -12.378  -6.834  1.00  0.00    -0.070 CG0
ATOM      9  C   UNL     1      -6.070 -11.167  -7.668  1.00  0.00     0.039 C 
ATOM     10  G   UNL     1      -6.796 -13.662  -7.540  1.00  0.00     0.000 G0
ENDBRANCH   6   7
ENDBRANCH   5   6
ENDBRANCH   3   5
ENDBRANCH   1   3
BRANCH   1  11
ATOM     11  C   UNL     1      -9.996 -12.396  -6.716  1.00  0.00     0.087 C 
BRANCH  11  12
ATOM     12  C   UNL     1      -9.390 -13.787  -7.036  1.00  0.00     0.066 C 
BRANCH  12  13
ATOM     13  C   UNL     1      -8.239 -13.616  -8.015  1.00  0.00     0.140 C 
ATOM     14  O   UNL     1      -8.476 -13.527  -9.212  1.00  0.00    -0.299 OA
BRANCH  13  15
ATOM     15  C   UNL     1      -6.803 -13.649  -7.556  1.00  0.00     0.106 CG0
ATOM     16  G   UNL     1      -6.433 -12.368  -6.832  1.00  0.00     0.000 G0
ENDBRANCH  13  15
ENDBRANCH  12  13
BRANCH  12  17
ATOM     17  C   UNL     1     -10.453 -14.780  -7.614  1.00  0.00    -0.006 C 
ATOM     18  C   UNL     1     -11.891 -14.385  -7.225  1.00  0.00     0.008 C 
ATOM     19  C   UNL     1     -10.197 -16.223  -7.134  1.00  0.00     0.008 C 
ENDBRANCH  12  17
ENDBRANCH  11  12
ENDBRANCH   1  11
TORSDOF 1
ENDMDL
MODEL 8
REMARK VINA RESULT:    -2.149      2.710      4.768
REMARK INTER + INTRA:          -3.350
REMARK INTER:                  -3.332
REMARK INTRA:                  -0.018
REMARK UNBOUND:                -0.070
REMARK SMILES CC1=CCC[C@H](C)C(=O)C[C@@H](C(C)C)C(=O)C1
REMARK SMILES IDX 8 1 9 2 6 3 7 4 5 5 4 6 3 7 2 8 1 9 10 11 11 12 15 13 16 14
REMARK SMILES IDX 17 15 12 17 13 18 14 19
REMARK H PARENT
REMARK Flexibility Score: 70.00
ROOT
ATOM      1  C   UNL     1      -7.884 -13.335  -3.364  1.00  0.00     0.136 C 
ATOM      2  O   UNL     1      -8.563 -12.465  -2.837  1.00  0.00    -0.299 OA
ENDROOT
BRANCH   1   3
ATOM      3  C   UNL     1      -7.346 -14.481  -2.533  1.00  0.00     0.053 C 
ATOM      4  C   UNL     1      -8.470 -15.044  -1.657  1.00  0.00     0.016 C 
BRANCH   3   5
ATOM      5  C   UNL     1      -6.744 -15.600  -3.414  1.00  0.00     0.015 C 
BRANCH   5   6
ATOM      6  C   UNL     1      -7.790 -16.605  -3.918  1.00  0.00     0.028 C 
BRANCH   6   7
ATOM      7  C   UNL     1      -7.359 -17.243  -5.217  1.00  0.00    -0.028 C 
ATOM      8  C   UNL     1      -7.881 -16.982  -6.437  1.00  0.00    -0.070 CG0
ATOM      9  C   UNL     1      -7.309 -17.719  -7.622  1.00  0.00     0.039 C 
ATOM     10  G   UNL     1      -8.979 -15.963  -6.676  1.00  0.00     0.000 G0
ENDBRANCH   6   7
ENDBRANCH   5   6
ENDBRANCH   3   5
ENDBRANCH   1   3
BRANCH   1  11
ATOM     11  C   UNL     1      -7.564 -13.222  -4.833  1.00  0.00     0.087 C 
BRANCH  11  12
ATOM     12  C   UNL     1      -8.805 -13.507  -5.717  1.00  0.00     0.066 C 
BRANCH  12  13
ATOM     13  C   UNL     1      -8.447 -14.557  -6.757  1.00  0.00     0.140 C 
ATOM     14  O   UNL     1      -7.770 -14.238  -7.724  1.00  0.00    -0.299 OA
BRANCH  13  15
ATOM     15  C   UNL     1      -8.986 -15.964  -6.674  1.00  0.00     0.106 CG0
ATOM     16  G   UNL     1      -7.866 -16.963  -6.452  1.00  0.00     0.000 G0
ENDBRANCH  13  15
ENDBRANCH  12  13
BRANCH  12  17
ATOM     17  C   UNL     1      -9.349 -12.215  -6.413  1.00  0.00    -0.006 C 
ATOM     18  C   UNL     1      -8.251 -11.150  -6.602  1.00  0.00     0.008 C 
ATOM     19  C   UNL     1     -10.506 -11.586  -5.610  1.00  0.00     0.008 C 
ENDBRANCH  12  17
ENDBRANCH  11  12
ENDBRANCH   1  11
TORSDOF 1
ENDMDL
MODEL 9
REMARK VINA RESULT:    -2.117      2.498      3.988
REMARK INTER + INTRA:          -3.301
REMARK INTER:                  -3.147
REMARK INTRA:                  -0.154
REMARK UNBOUND:                -0.070
REMARK SMILES CC1=CCC[C@H](C)C(=O)C[C@@H](C(C)C)C(=O)C1
REMARK SMILES IDX 8 1 9 2 6 3 7 4 5 5 4 6 3 7 2 8 1 9 10 11 11 12 15 13 16 14
REMARK SMILES IDX 17 15 12 17 13 18 14 19
REMARK H PARENT
REMARK Flexibility Score: 70.00
ROOT
ATOM      1  C   UNL     1      -9.636 -13.237  -7.098  1.00  0.00     0.136 C 
ATOM      2  O   UNL     1     -10.000 -12.215  -7.664  1.00  0.00    -0.299 OA
ENDROOT
BRANCH   1   3
ATOM      3  C   UNL     1      -9.088 -14.395  -7.907  1.00  0.00     0.053 C 
ATOM      4  C   UNL     1      -7.587 -14.189  -8.133  1.00  0.00     0.016 C 
BRANCH   3   5
ATOM      5  C   UNL     1      -9.344 -15.754  -7.215  1.00  0.00     0.015 C 
BRANCH   5   6
ATOM      6  C   UNL     1      -8.054 -16.482  -6.809  1.00  0.00     0.028 C 
BRANCH   6   7
ATOM      7  C   UNL     1      -8.153 -17.036  -5.409  1.00  0.00    -0.028 C 
ATOM      8  C   UNL     1      -7.718 -16.424  -4.284  1.00  0.00    -0.070 CG0
ATOM      9  C   UNL     1      -7.914 -17.139  -2.970  1.00  0.00     0.039 C 
ATOM     10  G   UNL     1      -7.082 -15.047  -4.274  1.00  0.00     0.000 G0
ENDBRANCH   6   7
ENDBRANCH   5   6
ENDBRANCH   3   5
ENDBRANCH   1   3
BRANCH   1  11
ATOM     11  C   UNL     1      -9.781 -13.334  -5.601  1.00  0.00     0.087 C 
BRANCH  11  12
ATOM     12  C   UNL     1      -8.488 -12.895  -4.866  1.00  0.00     0.066 C 
BRANCH  12  13
ATOM     13  C   UNL     1      -8.080 -13.980  -3.882  1.00  0.00     0.140 C 
ATOM     14  O   UNL     1      -8.508 -13.944  -2.736  1.00  0.00    -0.299 OA
BRANCH  13  15
ATOM     15  C   UNL     1      -7.085 -15.050  -4.257  1.00  0.00     0.106 CG0
ATOM     16  G   UNL     1      -7.738 -16.419  -4.272  1.00  0.00     0.000 G0
ENDBRANCH  13  15
ENDBRANCH  12  13
BRANCH  12  17
ATOM     17  C   UNL     1      -8.660 -11.526  -4.127  1.00  0.00    -0.006 C 
ATOM     18  C   UNL     1     -10.122 -11.267  -3.715  1.00  0.00     0.008 C 
ATOM     19  C   UNL     1      -8.183 -10.349  -5.002  1.00  0.00     0.008 C 
ENDBRANCH  12  17
ENDBRANCH  11  12
ENDBRANCH   1  11
TORSDOF 1
ENDMDL
