MODEL 1
REMARK VINA RESULT:    -5.863      0.000      0.000
REMARK INTER + INTRA:          -6.299
REMARK INTER:                  -6.206
REMARK INTRA:                  -0.093
REMARK UNBOUND:                -0.093
REMARK SMILES C=C(C)[C@H]1CC=C(C)C(=O)C1
REMARK SMILES IDX 8 1 7 2 6 3 5 4 4 5 11 6 9 7 10 8 2 9 1 10 3 11
REMARK H PARENT
REMARK Flexibility Score: inf
ROOT
ATOM      1  C   UNL     1     -24.835  14.583 -30.190  1.00  0.00     0.048 C 
ATOM      2  C   UNL     1     -24.699  15.981 -30.726  1.00  0.00    -0.012 C 
ATOM      3  C   UNL     1     -25.641  16.899 -30.446  1.00  0.00    -0.019 C 
ATOM      4  C   UNL     1     -25.564  18.308 -30.971  1.00  0.00     0.036 C 
ATOM      5  C   UNL     1     -24.100  18.774 -31.098  1.00  0.00     0.025 C 
ATOM      6  C   UNL     1     -23.299  17.783 -31.964  1.00  0.00     0.089 C 
ATOM      7  C   UNL     1     -23.469  16.378 -31.455  1.00  0.00     0.158 C 
ATOM      8  O   UNL     1     -22.567  15.527 -31.687  1.00  0.00    -0.295 OA
ENDROOT
BRANCH   5   9
ATOM      9  C   UNL     1     -24.007  20.195 -31.637  1.00  0.00    -0.077 C 
ATOM     10  C   UNL     1     -24.531  20.526 -32.830  1.00  0.00     0.008 C 
ATOM     11  C   UNL     1     -23.318  21.265 -30.831  1.00  0.00     0.039 C 
ENDBRANCH   5   9
TORSDOF 1
ENDMDL
MODEL 2
REMARK VINA RESULT:    -5.422      1.361      4.774
REMARK INTER + INTRA:          -5.832
REMARK INTER:                  -5.735
REMARK INTRA:                  -0.097
REMARK UNBOUND:                -0.093
REMARK SMILES C=C(C)[C@H]1CC=C(C)C(=O)C1
REMARK SMILES IDX 8 1 7 2 6 3 5 4 4 5 11 6 9 7 10 8 2 9 1 10 3 11
REMARK H PARENT
REMARK Flexibility Score: inf
ROOT
ATOM      1  C   UNL     1     -24.255  19.159 -31.818  1.00  0.00     0.048 C 
ATOM      2  C   UNL     1     -24.640  17.839 -31.210  1.00  0.00    -0.012 C 
ATOM      3  C   UNL     1     -25.881  17.664 -30.724  1.00  0.00    -0.019 C 
ATOM      4  C   UNL     1     -26.314  16.369 -30.088  1.00  0.00     0.036 C 
ATOM      5  C   UNL     1     -25.603  15.166 -30.738  1.00  0.00     0.025 C 
ATOM      6  C   UNL     1     -24.075  15.359 -30.689  1.00  0.00     0.089 C 
ATOM      7  C   UNL     1     -23.692  16.698 -31.258  1.00  0.00     0.158 C 
ATOM      8  O   UNL     1     -22.540  16.851 -31.746  1.00  0.00    -0.295 OA
ENDROOT
BRANCH   5   9
ATOM      9  C   UNL     1     -26.024  13.850 -30.099  1.00  0.00    -0.077 C 
ATOM     10  C   UNL     1     -25.120  12.913 -29.768  1.00  0.00     0.008 C 
ATOM     11  C   UNL     1     -27.480  13.577 -29.822  1.00  0.00     0.039 C 
ENDBRANCH   5   9
TORSDOF 1
ENDMDL
MODEL 3
REMARK VINA RESULT:    -5.347      3.748      5.126
REMARK INTER + INTRA:          -5.752
REMARK INTER:                  -5.659
REMARK INTRA:                  -0.094
REMARK UNBOUND:                -0.093
REMARK SMILES C=C(C)[C@H]1CC=C(C)C(=O)C1
REMARK SMILES IDX 8 1 7 2 6 3 5 4 4 5 11 6 9 7 10 8 2 9 1 10 3 11
REMARK H PARENT
REMARK Flexibility Score: inf
ROOT
ATOM      1  C   UNL     1     -30.436  19.696 -34.049  1.00  0.00     0.048 C 
ATOM      2  C   UNL     1     -28.938  19.775 -33.950  1.00  0.00    -0.012 C 
ATOM      3  C   UNL     1     -28.257  20.599 -34.765  1.00  0.00    -0.019 C 
ATOM      4  C   UNL     1     -26.755  20.705 -34.720  1.00  0.00     0.036 C 
ATOM      5  C   UNL     1     -26.225  20.483 -33.291  1.00  0.00     0.025 C 
ATOM      6  C   UNL     1     -26.733  19.140 -32.735  1.00  0.00     0.089 C 
ATOM      7  C   UNL     1     -28.227  19.040 -32.873  1.00  0.00     0.158 C 
ATOM      8  O   UNL     1     -28.869  18.295 -32.084  1.00  0.00    -0.295 OA
ENDROOT
BRANCH   5   9
ATOM      9  C   UNL     1     -24.706  20.578 -33.233  1.00  0.00    -0.077 C 
ATOM     10  C   UNL     1     -23.935  20.032 -34.188  1.00  0.00     0.008 C 
ATOM     11  C   UNL     1     -24.037  21.295 -32.089  1.00  0.00     0.039 C 
ENDBRANCH   5   9
TORSDOF 1
ENDMDL
MODEL 4
REMARK VINA RESULT:    -5.196      3.186      4.786
REMARK INTER + INTRA:          -5.593
REMARK INTER:                  -5.504
REMARK INTRA:                  -0.090
REMARK UNBOUND:                -0.093
REMARK SMILES C=C(C)[C@H]1CC=C(C)C(=O)C1
REMARK SMILES IDX 8 1 7 2 6 3 5 4 4 5 11 6 9 7 10 8 2 9 1 10 3 11
REMARK H PARENT
REMARK Flexibility Score: inf
ROOT
ATOM      1  C   UNL     1     -29.449  20.146 -34.277  1.00  0.00     0.048 C 
ATOM      2  C   UNL     1     -28.041  19.871 -33.825  1.00  0.00    -0.012 C 
ATOM      3  C   UNL     1     -27.016  20.528 -34.395  1.00  0.00    -0.019 C 
ATOM      4  C   UNL     1     -25.586  20.279 -33.993  1.00  0.00     0.036 C 
ATOM      5  C   UNL     1     -25.485  19.913 -32.500  1.00  0.00     0.025 C 
ATOM      6  C   UNL     1     -26.398  18.715 -32.181  1.00  0.00     0.089 C 
ATOM      7  C   UNL     1     -27.797  18.970 -32.671  1.00  0.00     0.158 C 
ATOM      8  O   UNL     1     -28.761  18.381 -32.112  1.00  0.00    -0.295 OA
ENDROOT
BRANCH   5   9
ATOM      9  C   UNL     1     -24.044  19.649 -32.082  1.00  0.00    -0.077 C 
ATOM     10  C   UNL     1     -23.218  20.654 -31.745  1.00  0.00     0.008 C 
ATOM     11  C   UNL     1     -23.517  18.237 -32.039  1.00  0.00     0.039 C 
ENDBRANCH   5   9
TORSDOF 1
ENDMDL
MODEL 5
REMARK VINA RESULT:    -4.953      3.102      4.492
REMARK INTER + INTRA:          -5.336
REMARK INTER:                  -5.240
REMARK INTRA:                  -0.096
REMARK UNBOUND:                -0.093
REMARK SMILES C=C(C)[C@H]1CC=C(C)C(=O)C1
REMARK SMILES IDX 8 1 7 2 6 3 5 4 4 5 11 6 9 7 10 8 2 9 1 10 3 11
REMARK H PARENT
REMARK Flexibility Score: inf
ROOT
ATOM      1  C   UNL     1     -22.526  20.544 -29.663  1.00  0.00     0.048 C 
ATOM      2  C   UNL     1     -23.493  20.337 -30.795  1.00  0.00    -0.012 C 
ATOM      3  C   UNL     1     -24.171  19.179 -30.892  1.00  0.00    -0.019 C 
ATOM      4  C   UNL     1     -25.138  18.912 -32.015  1.00  0.00     0.036 C 
ATOM      5  C   UNL     1     -25.833  20.210 -32.469  1.00  0.00     0.025 C 
ATOM      6  C   UNL     1     -24.785  21.274 -32.843  1.00  0.00     0.089 C 
ATOM      7  C   UNL     1     -23.791  21.452 -31.728  1.00  0.00     0.158 C 
ATOM      8  O   UNL     1     -23.183  22.551 -31.616  1.00  0.00    -0.295 OA
ENDROOT
BRANCH   5   9
ATOM      9  C   UNL     1     -26.808  19.955 -33.612  1.00  0.00    -0.077 C 
ATOM     10  C   UNL     1     -26.567  20.414 -34.851  1.00  0.00     0.008 C 
ATOM     11  C   UNL     1     -28.073  19.174 -33.365  1.00  0.00     0.039 C 
ENDBRANCH   5   9
TORSDOF 1
ENDMDL
MODEL 6
REMARK VINA RESULT:    -4.841      3.030      4.176
REMARK INTER + INTRA:          -5.217
REMARK INTER:                  -5.123
REMARK INTRA:                  -0.094
REMARK UNBOUND:                -0.093
REMARK SMILES C=C(C)[C@H]1CC=C(C)C(=O)C1
REMARK SMILES IDX 8 1 7 2 6 3 5 4 4 5 11 6 9 7 10 8 2 9 1 10 3 11
REMARK H PARENT
REMARK Flexibility Score: inf
ROOT
ATOM      1  C   UNL     1     -23.835  17.733 -31.351  1.00  0.00     0.048 C 
ATOM      2  C   UNL     1     -25.044  18.518 -31.775  1.00  0.00    -0.012 C 
ATOM      3  C   UNL     1     -24.892  19.643 -32.497  1.00  0.00    -0.019 C 
ATOM      4  C   UNL     1     -26.067  20.477 -32.934  1.00  0.00     0.036 C 
ATOM      5  C   UNL     1     -27.305  19.598 -33.197  1.00  0.00     0.025 C 
ATOM      6  C   UNL     1     -27.625  18.742 -31.957  1.00  0.00     0.089 C 
ATOM      7  C   UNL     1     -26.404  17.988 -31.505  1.00  0.00     0.158 C 
ATOM      8  O   UNL     1     -26.549  16.915 -30.859  1.00  0.00    -0.295 OA
ENDROOT
BRANCH   5   9
ATOM      9  C   UNL     1     -28.504  20.431 -33.630  1.00  0.00    -0.077 C 
ATOM     10  C   UNL     1     -29.584  19.862 -34.191  1.00  0.00     0.008 C 
ATOM     11  C   UNL     1     -28.497  21.925 -33.432  1.00  0.00     0.039 C 
ENDBRANCH   5   9
TORSDOF 1
ENDMDL
MODEL 7
REMARK VINA RESULT:    -4.785      1.552      2.381
REMARK INTER + INTRA:          -5.157
REMARK INTER:                  -5.064
REMARK INTRA:                  -0.093
REMARK UNBOUND:                -0.093
REMARK SMILES C=C(C)[C@H]1CC=C(C)C(=O)C1
REMARK SMILES IDX 8 1 7 2 6 3 5 4 4 5 11 6 9 7 10 8 2 9 1 10 3 11
REMARK H PARENT
REMARK Flexibility Score: inf
ROOT
ATOM      1  C   UNL     1     -25.226  14.422 -30.515  1.00  0.00     0.048 C 
ATOM      2  C   UNL     1     -24.863  15.861 -30.756  1.00  0.00    -0.012 C 
ATOM      3  C   UNL     1     -23.649  16.172 -31.244  1.00  0.00    -0.019 C 
ATOM      4  C   UNL     1     -23.228  17.598 -31.488  1.00  0.00     0.036 C 
ATOM      5  C   UNL     1     -24.431  18.469 -31.901  1.00  0.00     0.025 C 
ATOM      6  C   UNL     1     -25.552  18.363 -30.850  1.00  0.00     0.089 C 
ATOM      7  C   UNL     1     -25.885  16.922 -30.575  1.00  0.00     0.158 C 
ATOM      8  O   UNL     1     -27.036  16.628 -30.152  1.00  0.00    -0.295 OA
ENDROOT
BRANCH   5   9
ATOM      9  C   UNL     1     -24.020  19.915 -32.141  1.00  0.00    -0.077 C 
ATOM     10  C   UNL     1     -23.302  20.599 -31.235  1.00  0.00     0.008 C 
ATOM     11  C   UNL     1     -24.419  20.611 -33.418  1.00  0.00     0.039 C 
ENDBRANCH   5   9
TORSDOF 1
ENDMDL
MODEL 8
REMARK VINA RESULT:    -4.623      2.307      4.870
REMARK INTER + INTRA:          -4.986
REMARK INTER:                  -4.895
REMARK INTRA:                  -0.091
REMARK UNBOUND:                -0.093
REMARK SMILES C=C(C)[C@H]1CC=C(C)C(=O)C1
REMARK SMILES IDX 8 1 7 2 6 3 5 4 4 5 11 6 9 7 10 8 2 9 1 10 3 11
REMARK H PARENT
REMARK Flexibility Score: inf
ROOT
ATOM      1  C   UNL     1     -23.655  22.915 -31.639  1.00  0.00     0.048 C 
ATOM      2  C   UNL     1     -23.834  21.425 -31.552  1.00  0.00    -0.012 C 
ATOM      3  C   UNL     1     -23.210  20.732 -30.584  1.00  0.00    -0.019 C 
ATOM      4  C   UNL     1     -23.340  19.237 -30.461  1.00  0.00     0.036 C 
ATOM      5  C   UNL     1     -24.731  18.761 -30.925  1.00  0.00     0.025 C 
ATOM      6  C   UNL     1     -25.015  19.257 -32.355  1.00  0.00     0.089 C 
ATOM      7  C   UNL     1     -24.794  20.741 -32.455  1.00  0.00     0.158 C 
ATOM      8  O   UNL     1     -25.408  21.396 -33.340  1.00  0.00    -0.295 OA
ENDROOT
BRANCH   5   9
ATOM      9  C   UNL     1     -24.873  17.249 -30.815  1.00  0.00    -0.077 C 
ATOM     10  C   UNL     1     -26.013  16.684 -30.384  1.00  0.00     0.008 C 
ATOM     11  C   UNL     1     -23.723  16.353 -31.194  1.00  0.00     0.039 C 
ENDBRANCH   5   9
TORSDOF 1
ENDMDL
MODEL 9
REMARK VINA RESULT:    -4.612      3.560      4.814
REMARK INTER + INTRA:          -4.975
REMARK INTER:                  -4.879
REMARK INTRA:                  -0.096
REMARK UNBOUND:                -0.093
REMARK SMILES C=C(C)[C@H]1CC=C(C)C(=O)C1
REMARK SMILES IDX 8 1 7 2 6 3 5 4 4 5 11 6 9 7 10 8 2 9 1 10 3 11
REMARK H PARENT
REMARK Flexibility Score: inf
ROOT
ATOM      1  C   UNL     1     -29.772  19.496 -33.978  1.00  0.00     0.048 C 
ATOM      2  C   UNL     1     -28.392  19.544 -33.383  1.00  0.00    -0.012 C 
ATOM      3  C   UNL     1     -28.059  18.693 -32.397  1.00  0.00    -0.019 C 
ATOM      4  C   UNL     1     -26.698  18.710 -31.753  1.00  0.00     0.036 C 
ATOM      5  C   UNL     1     -25.611  19.124 -32.764  1.00  0.00     0.025 C 
ATOM      6  C   UNL     1     -25.969  20.476 -33.409  1.00  0.00     0.089 C 
ATOM      7  C   UNL     1     -27.365  20.443 -33.967  1.00  0.00     0.158 C 
ATOM      8  O   UNL     1     -27.666  21.217 -34.916  1.00  0.00    -0.295 OA
ENDROOT
BRANCH   5   9
ATOM      9  C   UNL     1     -24.229  19.154 -32.124  1.00  0.00    -0.077 C 
ATOM     10  C   UNL     1     -23.548  20.304 -31.987  1.00  0.00     0.008 C 
ATOM     11  C   UNL     1     -23.599  17.879 -31.627  1.00  0.00     0.039 C 
ENDBRANCH   5   9
TORSDOF 1
ENDMDL
