MODEL 1
REMARK VINA RESULT:    -5.816      0.000      0.000
REMARK INTER + INTRA:         -10.044
REMARK INTER:                  -8.366
REMARK INTRA:                  -1.678
REMARK UNBOUND:                -1.678
REMARK SMILES O=c1c(O[C@H]2O[C@@H](CO)[C@H](O)[C@H](O)[C@@H]2O)c(-c2ccc(O)cc2)oc2cc(O)cc(O)c12
REMARK SMILES IDX 4 1 3 2 16 3 24 4 2 5 25 6 1 7 32 8 26 9 30 10 27 11 29 12
REMARK SMILES IDX 17 13 18 14 19 15 20 16 23 17 22 18 21 19 31 21 28 23 5 25
REMARK SMILES IDX 14 26 6 27 12 28 7 29 10 30 15 31 13 33 8 35 9 36 11 38
REMARK H PARENT 21 20 31 22 28 24 15 32 13 34 9 37 11 39
REMARK Flexibility Score: inf
ROOT
ATOM      1  O   UNL     1      33.861   4.048 -20.262  1.00  0.00    -0.454 OA
ENDROOT
BRANCH   1   2
ATOM      2  C   UNL     1      34.865   4.601 -21.066  1.00  0.00     0.214 A 
ATOM      3  C   UNL     1      34.690   5.831 -21.728  1.00  0.00     0.180 A 
ATOM      4  O   UNL     1      35.692   6.345 -22.432  1.00  0.00    -0.452 OA
ATOM      5  C   UNL     1      36.073   3.912 -21.219  1.00  0.00     0.239 A 
ATOM      6  C   UNL     1      36.870   5.750 -22.571  1.00  0.00     0.146 A 
ATOM      7  O   UNL     1      36.177   2.767 -20.708  1.00  0.00    -0.285 OA
ATOM      8  C   UNL     1      37.134   4.501 -21.949  1.00  0.00     0.111 A 
ATOM      9  C   UNL     1      37.842   6.370 -23.359  1.00  0.00     0.094 A 
ATOM     10  C   UNL     1      38.427   3.919 -22.115  1.00  0.00     0.134 A 
ATOM     11  C   UNL     1      39.081   5.768 -23.558  1.00  0.00     0.123 A 
ATOM     12  C   UNL     1      39.366   4.547 -22.942  1.00  0.00     0.093 A 
BRANCH   3  13
ATOM     13  C   UNL     1      33.411   6.577 -21.692  1.00  0.00     0.021 A 
ATOM     14  C   UNL     1      33.115   7.467 -20.643  1.00  0.00     0.016 A 
ATOM     15  C   UNL     1      31.900   8.157 -20.625  1.00  0.00     0.047 A 
ATOM     16  C   UNL     1      30.960   7.954 -21.643  1.00  0.00     0.115 A 
ATOM     17  C   UNL     1      32.456   6.363 -22.697  1.00  0.00     0.016 A 
ATOM     18  C   UNL     1      31.240   7.053 -22.676  1.00  0.00     0.047 A 
BRANCH  16  19
ATOM     19  O   UNL     1      29.746   8.637 -21.636  1.00  0.00    -0.508 OA
ATOM     20  H   UNL     1      28.875   8.171 -21.857  1.00  0.00     0.293 HD
ENDBRANCH  16  19
ENDBRANCH   3  13
BRANCH  10  21
ATOM     21  O   UNL     1      38.846   2.748 -21.476  1.00  0.00    -0.507 OA
ATOM     22  H   UNL     1      39.041   1.873 -21.939  1.00  0.00     0.293 HD
ENDBRANCH  10  21
BRANCH  11  23
ATOM     23  O   UNL     1      40.028   6.395 -24.365  1.00  0.00    -0.508 OA
ATOM     24  H   UNL     1      39.778   7.167 -24.973  1.00  0.00     0.293 HD
ENDBRANCH  11  23
ENDBRANCH   1   2
BRANCH   1  25
ATOM     25  C   UNL     1      32.895   3.115 -20.756  1.00  0.00     0.339 C 
ATOM     26  C   UNL     1      31.470   3.691 -20.681  1.00  0.00     0.214 C 
ATOM     27  O   UNL     1      33.015   1.865 -20.089  1.00  0.00    -0.332 OA
ATOM     28  C   UNL     1      31.020   3.798 -19.217  1.00  0.00     0.180 C 
ATOM     29  C   UNL     1      32.635   1.897 -18.716  1.00  0.00     0.179 C 
ATOM     30  C   UNL     1      31.205   2.448 -18.498  1.00  0.00     0.177 C 
BRANCH  26  31
ATOM     31  O   UNL     1      30.601   2.861 -21.410  1.00  0.00    -0.384 OA
ATOM     32  H   UNL     1      30.981   2.773 -22.324  1.00  0.00     0.211 HD
ENDBRANCH  26  31
BRANCH  28  33
ATOM     33  O   UNL     1      29.681   4.214 -19.158  1.00  0.00    -0.387 OA
ATOM     34  H   UNL     1      29.207   3.764 -19.906  1.00  0.00     0.211 HD
ENDBRANCH  28  33
BRANCH  29  35
ATOM     35  C   UNL     1      33.704   2.566 -17.823  1.00  0.00     0.191 C 
BRANCH  35  36
ATOM     36  O   UNL     1      34.986   2.093 -18.150  1.00  0.00    -0.394 OA
ATOM     37  H   UNL     1      34.874   1.438 -18.887  1.00  0.00     0.210 HD
ENDBRANCH  35  36
ENDBRANCH  29  35
BRANCH  30  38
ATOM     38  O   UNL     1      30.279   1.506 -18.984  1.00  0.00    -0.387 OA
ATOM     39  H   UNL     1      29.429   1.992 -19.151  1.00  0.00     0.211 HD
ENDBRANCH  30  38
ENDBRANCH   1  25
TORSDOF 11
ENDMDL
MODEL 2
REMARK VINA RESULT:    -5.811      2.265      4.689
REMARK INTER + INTRA:         -10.037
REMARK INTER:                  -8.721
REMARK INTRA:                  -1.316
REMARK UNBOUND:                -1.678
REMARK SMILES O=c1c(O[C@H]2O[C@@H](CO)[C@H](O)[C@H](O)[C@@H]2O)c(-c2ccc(O)cc2)oc2cc(O)cc(O)c12
REMARK SMILES IDX 4 1 3 2 16 3 24 4 2 5 25 6 1 7 32 8 26 9 30 10 27 11 29 12
REMARK SMILES IDX 17 13 18 14 19 15 20 16 23 17 22 18 21 19 31 21 28 23 5 25
REMARK SMILES IDX 14 26 6 27 12 28 7 29 10 30 15 31 13 33 8 35 9 36 11 38
REMARK H PARENT 21 20 31 22 28 24 15 32 13 34 9 37 11 39
REMARK Flexibility Score: inf
ROOT
ATOM      1  O   UNL     1      33.289   4.912 -21.459  1.00  0.00    -0.454 OA
ENDROOT
BRANCH   1   2
ATOM      2  C   UNL     1      34.279   4.036 -21.923  1.00  0.00     0.214 A 
ATOM      3  C   UNL     1      33.955   2.839 -22.587  1.00  0.00     0.180 A 
ATOM      4  O   UNL     1      34.926   2.068 -23.062  1.00  0.00    -0.452 OA
ATOM      5  C   UNL     1      35.625   4.358 -21.719  1.00  0.00     0.239 A 
ATOM      6  C   UNL     1      36.216   2.353 -22.931  1.00  0.00     0.146 A 
ATOM      7  O   UNL     1      35.899   5.377 -21.034  1.00  0.00    -0.285 OA
ATOM      8  C   UNL     1      36.639   3.534 -22.265  1.00  0.00     0.111 A 
ATOM      9  C   UNL     1      37.153   1.454 -23.446  1.00  0.00     0.094 A 
ATOM     10  C   UNL     1      38.039   3.799 -22.173  1.00  0.00     0.134 A 
ATOM     11  C   UNL     1      38.517   1.696 -23.304  1.00  0.00     0.123 A 
ATOM     12  C   UNL     1      38.953   2.860 -22.667  1.00  0.00     0.093 A 
BRANCH   3  13
ATOM     13  C   UNL     1      32.557   2.381 -22.763  1.00  0.00     0.021 A 
ATOM     14  C   UNL     1      31.870   2.584 -23.973  1.00  0.00     0.016 A 
ATOM     15  C   UNL     1      30.549   2.149 -24.116  1.00  0.00     0.047 A 
ATOM     16  C   UNL     1      29.894   1.524 -23.047  1.00  0.00     0.115 A 
ATOM     17  C   UNL     1      31.887   1.774 -21.689  1.00  0.00     0.016 A 
ATOM     18  C   UNL     1      30.566   1.341 -21.834  1.00  0.00     0.047 A 
BRANCH  16  19
ATOM     19  O   UNL     1      28.578   1.086 -23.179  1.00  0.00    -0.508 OA
ATOM     20  H   UNL     1      28.305   0.146 -22.921  1.00  0.00     0.293 HD
ENDBRANCH  16  19
ENDBRANCH   3  13
BRANCH  10  21
ATOM     21  O   UNL     1      38.579   4.971 -21.635  1.00  0.00    -0.507 OA
ATOM     22  H   UNL     1      38.042   5.767 -21.325  1.00  0.00     0.293 HD
ENDBRANCH  10  21
BRANCH  11  23
ATOM     23  O   UNL     1      39.434   0.776 -23.809  1.00  0.00    -0.508 OA
ATOM     24  H   UNL     1      39.800   0.855 -24.751  1.00  0.00     0.293 HD
ENDBRANCH  11  23
ENDBRANCH   1   2
BRANCH   1  25
ATOM     25  C   UNL     1      32.647   5.875 -22.300  1.00  0.00     0.339 C 
ATOM     26  C   UNL     1      33.043   7.310 -21.910  1.00  0.00     0.214 C 
ATOM     27  O   UNL     1      31.239   5.680 -22.306  1.00  0.00    -0.332 OA
ATOM     28  C   UNL     1      32.426   7.679 -20.554  1.00  0.00     0.180 C 
ATOM     29  C   UNL     1      30.602   5.982 -21.069  1.00  0.00     0.179 C 
ATOM     30  C   UNL     1      30.908   7.414 -20.565  1.00  0.00     0.177 C 
BRANCH  26  31
ATOM     31  O   UNL     1      32.608   8.194 -22.913  1.00  0.00    -0.384 OA
ATOM     32  H   UNL     1      32.882   9.107 -22.634  1.00  0.00     0.211 HD
ENDBRANCH  26  31
BRANCH  28  33
ATOM     33  O   UNL     1      32.693   9.025 -20.257  1.00  0.00    -0.387 OA
ATOM     34  H   UNL     1      32.143   9.259 -19.465  1.00  0.00     0.211 HD
ENDBRANCH  28  33
BRANCH  29  35
ATOM     35  C   UNL     1      30.829   4.884 -20.005  1.00  0.00     0.191 C 
BRANCH  35  36
ATOM     36  O   UNL     1      29.626   4.578 -19.348  1.00  0.00    -0.394 OA
ATOM     37  H   UNL     1      29.396   3.642 -19.585  1.00  0.00     0.210 HD
ENDBRANCH  35  36
ENDBRANCH  29  35
BRANCH  30  38
ATOM     38  O   UNL     1      30.257   8.337 -21.405  1.00  0.00    -0.387 OA
ATOM     39  H   UNL     1      29.653   7.817 -21.997  1.00  0.00     0.211 HD
ENDBRANCH  30  38
ENDBRANCH   1  25
TORSDOF 11
ENDMDL
MODEL 3
REMARK VINA RESULT:    -5.778      2.853      3.113
REMARK INTER + INTRA:          -9.990
REMARK INTER:                  -8.347
REMARK INTRA:                  -1.643
REMARK UNBOUND:                -1.678
REMARK SMILES O=c1c(O[C@H]2O[C@@H](CO)[C@H](O)[C@H](O)[C@@H]2O)c(-c2ccc(O)cc2)oc2cc(O)cc(O)c12
REMARK SMILES IDX 4 1 3 2 16 3 24 4 2 5 25 6 1 7 32 8 26 9 30 10 27 11 29 12
REMARK SMILES IDX 17 13 18 14 19 15 20 16 23 17 22 18 21 19 31 21 28 23 5 25
REMARK SMILES IDX 14 26 6 27 12 28 7 29 10 30 15 31 13 33 8 35 9 36 11 38
REMARK H PARENT 21 20 31 22 28 24 15 32 13 34 9 37 11 39
REMARK Flexibility Score: inf
ROOT
ATOM      1  O   UNL     1      34.790   4.445 -19.781  1.00  0.00    -0.454 OA
ENDROOT
BRANCH   1   2
ATOM      2  C   UNL     1      35.882   5.321 -19.761  1.00  0.00     0.214 A 
ATOM      3  C   UNL     1      35.943   6.447 -20.603  1.00  0.00     0.180 A 
ATOM      4  O   UNL     1      36.971   7.283 -20.508  1.00  0.00    -0.452 OA
ATOM      5  C   UNL     1      36.942   5.072 -18.882  1.00  0.00     0.239 A 
ATOM      6  C   UNL     1      37.978   7.111 -19.661  1.00  0.00     0.146 A 
ATOM      7  O   UNL     1      36.922   4.008 -18.210  1.00  0.00    -0.285 OA
ATOM      8  C   UNL     1      38.007   5.998 -18.779  1.00  0.00     0.111 A 
ATOM      9  C   UNL     1      39.021   8.040 -19.667  1.00  0.00     0.094 A 
ATOM     10  C   UNL     1      39.105   5.876 -17.874  1.00  0.00     0.134 A 
ATOM     11  C   UNL     1      40.113   7.883 -18.817  1.00  0.00     0.123 A 
ATOM     12  C   UNL     1      40.153   6.803 -17.931  1.00  0.00     0.093 A 
BRANCH   3  13
ATOM     13  C   UNL     1      34.908   6.732 -21.624  1.00  0.00     0.021 A 
ATOM     14  C   UNL     1      33.649   7.246 -21.262  1.00  0.00     0.016 A 
ATOM     15  C   UNL     1      32.685   7.503 -22.241  1.00  0.00     0.047 A 
ATOM     16  C   UNL     1      32.959   7.233 -23.588  1.00  0.00     0.115 A 
ATOM     17  C   UNL     1      35.168   6.445 -22.973  1.00  0.00     0.016 A 
ATOM     18  C   UNL     1      34.201   6.701 -23.950  1.00  0.00     0.047 A 
BRANCH  16  19
ATOM     19  O   UNL     1      32.005   7.486 -24.571  1.00  0.00    -0.508 OA
ATOM     20  H   UNL     1      31.767   8.431 -24.847  1.00  0.00     0.293 HD
ENDBRANCH  16  19
ENDBRANCH   3  13
BRANCH  10  21
ATOM     21  O   UNL     1      39.202   4.887 -16.891  1.00  0.00    -0.507 OA
ATOM     22  H   UNL     1      38.929   5.001 -15.926  1.00  0.00     0.293 HD
ENDBRANCH  10  21
BRANCH  11  23
ATOM     23  O   UNL     1      41.151   8.811 -18.854  1.00  0.00    -0.508 OA
ATOM     24  H   UNL     1      41.042   9.743 -18.470  1.00  0.00     0.293 HD
ENDBRANCH  11  23
ENDBRANCH   1   2
BRANCH   1  25
ATOM     25  C   UNL     1      34.664   3.382 -20.730  1.00  0.00     0.339 C 
ATOM     26  C   UNL     1      33.381   3.527 -21.567  1.00  0.00     0.214 C 
ATOM     27  O   UNL     1      34.755   2.118 -20.085  1.00  0.00    -0.332 OA
ATOM     28  C   UNL     1      32.147   3.259 -20.693  1.00  0.00     0.180 C 
ATOM     29  C   UNL     1      33.652   1.813 -19.238  1.00  0.00     0.179 C 
ATOM     30  C   UNL     1      32.288   1.909 -19.965  1.00  0.00     0.177 C 
BRANCH  26  31
ATOM     31  O   UNL     1      33.433   2.627 -22.646  1.00  0.00    -0.384 OA
ATOM     32  H   UNL     1      33.735   3.142 -23.440  1.00  0.00     0.211 HD
ENDBRANCH  26  31
BRANCH  28  33
ATOM     33  O   UNL     1      30.988   3.279 -21.485  1.00  0.00    -0.387 OA
ATOM     34  H   UNL     1      30.222   3.427 -20.870  1.00  0.00     0.211 HD
ENDBRANCH  28  33
BRANCH  29  35
ATOM     35  C   UNL     1      33.702   2.587 -17.902  1.00  0.00     0.191 C 
BRANCH  35  36
ATOM     36  O   UNL     1      34.946   2.407 -17.275  1.00  0.00    -0.394 OA
ATOM     37  H   UNL     1      34.762   2.163 -16.330  1.00  0.00     0.210 HD
ENDBRANCH  35  36
ENDBRANCH  29  35
BRANCH  30  38
ATOM     38  O   UNL     1      32.190   0.846 -20.884  1.00  0.00    -0.387 OA
ATOM     39  H   UNL     1      33.082   0.744 -21.307  1.00  0.00     0.211 HD
ENDBRANCH  30  38
ENDBRANCH   1  25
TORSDOF 11
ENDMDL
MODEL 4
REMARK VINA RESULT:    -5.740      3.526      7.551
REMARK INTER + INTRA:          -9.935
REMARK INTER:                  -8.995
REMARK INTRA:                  -0.940
REMARK UNBOUND:                -1.678
REMARK SMILES O=c1c(O[C@H]2O[C@@H](CO)[C@H](O)[C@H](O)[C@@H]2O)c(-c2ccc(O)cc2)oc2cc(O)cc(O)c12
REMARK SMILES IDX 4 1 3 2 16 3 24 4 2 5 25 6 1 7 32 8 26 9 30 10 27 11 29 12
REMARK SMILES IDX 17 13 18 14 19 15 20 16 23 17 22 18 21 19 31 21 28 23 5 25
REMARK SMILES IDX 14 26 6 27 12 28 7 29 10 30 15 31 13 33 8 35 9 36 11 38
REMARK H PARENT 21 20 31 22 28 24 15 32 13 34 9 37 11 39
REMARK Flexibility Score: inf
ROOT
ATOM      1  O   UNL     1      32.182   4.815 -22.708  1.00  0.00    -0.454 OA
ENDROOT
BRANCH   1   2
ATOM      2  C   UNL     1      31.290   3.934 -23.332  1.00  0.00     0.214 A 
ATOM      3  C   UNL     1      30.919   2.713 -22.739  1.00  0.00     0.180 A 
ATOM      4  O   UNL     1      30.025   1.936 -23.340  1.00  0.00    -0.452 OA
ATOM      5  C   UNL     1      30.754   4.275 -24.579  1.00  0.00     0.239 A 
ATOM      6  C   UNL     1      29.458   2.237 -24.502  1.00  0.00     0.146 A 
ATOM      7  O   UNL     1      31.174   5.318 -25.144  1.00  0.00    -0.285 OA
ATOM      8  C   UNL     1      29.779   3.443 -25.179  1.00  0.00     0.111 A 
ATOM      9  C   UNL     1      28.550   1.332 -25.055  1.00  0.00     0.094 A 
ATOM     10  C   UNL     1      29.121   3.724 -26.416  1.00  0.00     0.134 A 
ATOM     11  C   UNL     1      27.954   1.591 -26.287  1.00  0.00     0.123 A 
ATOM     12  C   UNL     1      28.245   2.779 -26.962  1.00  0.00     0.093 A 
BRANCH   3  13
ATOM     13  C   UNL     1      31.508   2.237 -21.466  1.00  0.00     0.021 A 
ATOM     14  C   UNL     1      32.817   1.723 -21.417  1.00  0.00     0.016 A 
ATOM     15  C   UNL     1      33.353   1.273 -20.206  1.00  0.00     0.047 A 
ATOM     16  C   UNL     1      32.583   1.315 -19.037  1.00  0.00     0.115 A 
ATOM     17  C   UNL     1      30.736   2.255 -20.295  1.00  0.00     0.016 A 
ATOM     18  C   UNL     1      31.273   1.804 -19.086  1.00  0.00     0.047 A 
BRANCH  16  19
ATOM     19  O   UNL     1      33.107   0.871 -17.825  1.00  0.00    -0.508 OA
ATOM     20  H   UNL     1      33.570  -0.026 -17.745  1.00  0.00     0.293 HD
ENDBRANCH  16  19
ENDBRANCH   3  13
BRANCH  10  21
ATOM     21  O   UNL     1      29.272   4.918 -27.128  1.00  0.00    -0.507 OA
ATOM     22  H   UNL     1      29.567   5.796 -26.730  1.00  0.00     0.293 HD
ENDBRANCH  10  21
BRANCH  11  23
ATOM     23  O   UNL     1      27.067   0.664 -26.829  1.00  0.00    -0.508 OA
ATOM     24  H   UNL     1      26.663  -0.076 -26.265  1.00  0.00     0.293 HD
ENDBRANCH  11  23
ENDBRANCH   1   2
BRANCH   1  25
ATOM     25  C   UNL     1      32.025   5.249 -21.353  1.00  0.00     0.339 C 
ATOM     26  C   UNL     1      30.700   6.008 -21.159  1.00  0.00     0.214 C 
ATOM     27  O   UNL     1      33.153   6.005 -20.932  1.00  0.00    -0.332 OA
ATOM     28  C   UNL     1      30.758   7.364 -21.876  1.00  0.00     0.180 C 
ATOM     29  C   UNL     1      33.282   7.269 -21.575  1.00  0.00     0.179 C 
ATOM     30  C   UNL     1      32.013   8.146 -21.443  1.00  0.00     0.177 C 
BRANCH  26  31
ATOM     31  O   UNL     1      30.467   6.179 -19.784  1.00  0.00    -0.384 OA
ATOM     32  H   UNL     1      31.281   5.866 -19.309  1.00  0.00     0.211 HD
ENDBRANCH  26  31
BRANCH  28  33
ATOM     33  O   UNL     1      29.594   8.100 -21.600  1.00  0.00    -0.387 OA
ATOM     34  H   UNL     1      29.231   7.754 -20.743  1.00  0.00     0.211 HD
ENDBRANCH  28  33
BRANCH  29  35
ATOM     35  C   UNL     1      33.807   7.145 -23.023  1.00  0.00     0.191 C 
BRANCH  35  36
ATOM     36  O   UNL     1      32.833   7.573 -23.939  1.00  0.00    -0.394 OA
ATOM     37  H   UNL     1      32.777   6.880 -24.648  1.00  0.00     0.210 HD
ENDBRANCH  35  36
ENDBRANCH  29  35
BRANCH  30  38
ATOM     38  O   UNL     1      31.890   8.566 -20.105  1.00  0.00    -0.387 OA
ATOM     39  H   UNL     1      32.092   9.538 -20.085  1.00  0.00     0.211 HD
ENDBRANCH  30  38
ENDBRANCH   1  25
TORSDOF 11
ENDMDL
MODEL 5
REMARK VINA RESULT:    -5.715      1.633      4.839
REMARK INTER + INTRA:          -9.899
REMARK INTER:                  -8.857
REMARK INTRA:                  -1.042
REMARK UNBOUND:                -1.678
REMARK SMILES O=c1c(O[C@H]2O[C@@H](CO)[C@H](O)[C@H](O)[C@@H]2O)c(-c2ccc(O)cc2)oc2cc(O)cc(O)c12
REMARK SMILES IDX 4 1 3 2 16 3 24 4 2 5 25 6 1 7 32 8 26 9 30 10 27 11 29 12
REMARK SMILES IDX 17 13 18 14 19 15 20 16 23 17 22 18 21 19 31 21 28 23 5 25
REMARK SMILES IDX 14 26 6 27 12 28 7 29 10 30 15 31 13 33 8 35 9 36 11 38
REMARK H PARENT 21 20 31 22 28 24 15 32 13 34 9 37 11 39
REMARK Flexibility Score: inf
ROOT
ATOM      1  O   UNL     1      32.835   5.181 -20.533  1.00  0.00    -0.454 OA
ENDROOT
BRANCH   1   2
ATOM      2  C   UNL     1      34.043   4.552 -20.857  1.00  0.00     0.214 A 
ATOM      3  C   UNL     1      34.337   3.246 -20.422  1.00  0.00     0.180 A 
ATOM      4  O   UNL     1      35.469   2.667 -20.803  1.00  0.00    -0.452 OA
ATOM      5  C   UNL     1      34.984   5.239 -21.632  1.00  0.00     0.239 A 
ATOM      6  C   UNL     1      36.373   3.262 -21.572  1.00  0.00     0.146 A 
ATOM      7  O   UNL     1      34.753   6.440 -21.926  1.00  0.00    -0.285 OA
ATOM      8  C   UNL     1      36.168   4.584 -22.050  1.00  0.00     0.111 A 
ATOM      9  C   UNL     1      37.543   2.567 -21.887  1.00  0.00     0.094 A 
ATOM     10  C   UNL     1      37.164   5.165 -22.891  1.00  0.00     0.134 A 
ATOM     11  C   UNL     1      38.532   3.163 -22.664  1.00  0.00     0.123 A 
ATOM     12  C   UNL     1      38.342   4.456 -23.158  1.00  0.00     0.093 A 
BRANCH   3  13
ATOM     13  C   UNL     1      33.436   2.487 -19.525  1.00  0.00     0.021 A 
ATOM     14  C   UNL     1      33.466   2.675 -18.131  1.00  0.00     0.016 A 
ATOM     15  C   UNL     1      32.610   1.944 -17.302  1.00  0.00     0.047 A 
ATOM     16  C   UNL     1      31.730   1.004 -17.852  1.00  0.00     0.115 A 
ATOM     17  C   UNL     1      32.565   1.528 -20.067  1.00  0.00     0.016 A 
ATOM     18  C   UNL     1      31.712   0.797 -19.235  1.00  0.00     0.047 A 
BRANCH  16  19
ATOM     19  O   UNL     1      30.872   0.271 -17.035  1.00  0.00    -0.508 OA
ATOM     20  H   UNL     1      30.903   0.353 -16.026  1.00  0.00     0.293 HD
ENDBRANCH  16  19
ENDBRANCH   3  13
BRANCH  10  21
ATOM     21  O   UNL     1      37.037   6.414 -23.507  1.00  0.00    -0.507 OA
ATOM     22  H   UNL     1      36.757   6.561 -24.465  1.00  0.00     0.293 HD
ENDBRANCH  10  21
BRANCH  11  23
ATOM     23  O   UNL     1      39.699   2.458 -22.950  1.00  0.00    -0.508 OA
ATOM     24  H   UNL     1      40.615   2.847 -22.753  1.00  0.00     0.293 HD
ENDBRANCH  11  23
ENDBRANCH   1   2
BRANCH   1  25
ATOM     25  C   UNL     1      31.559   4.666 -20.927  1.00  0.00     0.339 C 
ATOM     26  C   UNL     1      31.513   4.380 -22.438  1.00  0.00     0.214 C 
ATOM     27  O   UNL     1      30.513   5.529 -20.503  1.00  0.00    -0.332 OA
ATOM     28  C   UNL     1      31.528   5.698 -23.226  1.00  0.00     0.180 C 
ATOM     29  C   UNL     1      30.481   6.783 -21.177  1.00  0.00     0.179 C 
ATOM     30  C   UNL     1      30.419   6.639 -22.718  1.00  0.00     0.177 C 
BRANCH  26  31
ATOM     31  O   UNL     1      30.356   3.637 -22.730  1.00  0.00    -0.384 OA
ATOM     32  H   UNL     1      29.886   4.109 -23.467  1.00  0.00     0.211 HD
ENDBRANCH  26  31
BRANCH  28  33
ATOM     33  O   UNL     1      31.370   5.437 -24.596  1.00  0.00    -0.387 OA
ATOM     34  H   UNL     1      30.459   5.745 -24.844  1.00  0.00     0.211 HD
ENDBRANCH  28  33
BRANCH  29  35
ATOM     35  C   UNL     1      31.584   7.747 -20.684  1.00  0.00     0.191 C 
BRANCH  35  36
ATOM     36  O   UNL     1      31.266   8.251 -19.413  1.00  0.00    -0.394 OA
ATOM     37  H   UNL     1      30.280   8.191 -19.315  1.00  0.00     0.210 HD
ENDBRANCH  35  36
ENDBRANCH  29  35
BRANCH  30  38
ATOM     38  O   UNL     1      29.153   6.139 -23.075  1.00  0.00    -0.387 OA
ATOM     39  H   UNL     1      29.218   5.826 -24.015  1.00  0.00     0.211 HD
ENDBRANCH  30  38
ENDBRANCH   1  25
TORSDOF 11
ENDMDL
MODEL 6
REMARK VINA RESULT:    -5.630      2.381      5.166
REMARK INTER + INTRA:          -9.776
REMARK INTER:                  -8.604
REMARK INTRA:                  -1.172
REMARK UNBOUND:                -1.678
REMARK SMILES O=c1c(O[C@H]2O[C@@H](CO)[C@H](O)[C@H](O)[C@@H]2O)c(-c2ccc(O)cc2)oc2cc(O)cc(O)c12
REMARK SMILES IDX 4 1 3 2 16 3 24 4 2 5 25 6 1 7 32 8 26 9 30 10 27 11 29 12
REMARK SMILES IDX 17 13 18 14 19 15 20 16 23 17 22 18 21 19 31 21 28 23 5 25
REMARK SMILES IDX 14 26 6 27 12 28 7 29 10 30 15 31 13 33 8 35 9 36 11 38
REMARK H PARENT 21 20 31 22 28 24 15 32 13 34 9 37 11 39
REMARK Flexibility Score: inf
ROOT
ATOM      1  O   UNL     1      32.966   4.539 -22.302  1.00  0.00    -0.454 OA
ENDROOT
BRANCH   1   2
ATOM      2  C   UNL     1      33.907   3.502 -22.320  1.00  0.00     0.214 A 
ATOM      3  C   UNL     1      33.535   2.161 -22.108  1.00  0.00     0.180 A 
ATOM      4  O   UNL     1      34.452   1.204 -22.191  1.00  0.00    -0.452 OA
ATOM      5  C   UNL     1      35.253   3.805 -22.551  1.00  0.00     0.239 A 
ATOM      6  C   UNL     1      35.732   1.439 -22.451  1.00  0.00     0.146 A 
ATOM      7  O   UNL     1      35.587   5.015 -22.636  1.00  0.00    -0.285 OA
ATOM      8  C   UNL     1      36.202   2.761 -22.668  1.00  0.00     0.111 A 
ATOM      9  C   UNL     1      36.614   0.357 -22.488  1.00  0.00     0.094 A 
ATOM     10  C   UNL     1      37.586   2.951 -22.965  1.00  0.00     0.134 A 
ATOM     11  C   UNL     1      37.972   0.558 -22.726  1.00  0.00     0.123 A 
ATOM     12  C   UNL     1      38.451   1.850 -22.958  1.00  0.00     0.093 A 
BRANCH   3  13
ATOM     13  C   UNL     1      32.149   1.767 -21.766  1.00  0.00     0.021 A 
ATOM     14  C   UNL     1      31.186   1.544 -22.768  1.00  0.00     0.016 A 
ATOM     15  C   UNL     1      29.882   1.177 -22.424  1.00  0.00     0.047 A 
ATOM     16  C   UNL     1      29.519   1.047 -21.077  1.00  0.00     0.115 A 
ATOM     17  C   UNL     1      31.772   1.654 -20.419  1.00  0.00     0.016 A 
ATOM     18  C   UNL     1      30.466   1.289 -20.077  1.00  0.00     0.047 A 
BRANCH  16  19
ATOM     19  O   UNL     1      28.222   0.681 -20.723  1.00  0.00    -0.508 OA
ATOM     20  H   UNL     1      27.716  -0.033 -21.231  1.00  0.00     0.293 HD
ENDBRANCH  16  19
ENDBRANCH   3  13
BRANCH  10  21
ATOM     21  O   UNL     1      38.153   4.185 -23.297  1.00  0.00    -0.507 OA
ATOM     22  H   UNL     1      38.811   4.337 -24.047  1.00  0.00     0.293 HD
ENDBRANCH  10  21
BRANCH  11  23
ATOM     23  O   UNL     1      38.836  -0.534 -22.738  1.00  0.00    -0.508 OA
ATOM     24  H   UNL     1      38.498  -1.479 -22.595  1.00  0.00     0.293 HD
ENDBRANCH  11  23
ENDBRANCH   1   2
BRANCH   1  25
ATOM     25  C   UNL     1      32.541   5.183 -21.097  1.00  0.00     0.339 C 
ATOM     26  C   UNL     1      31.006   5.245 -21.007  1.00  0.00     0.214 C 
ATOM     27  O   UNL     1      33.148   6.462 -20.968  1.00  0.00    -0.332 OA
ATOM     28  C   UNL     1      30.455   6.228 -22.050  1.00  0.00     0.180 C 
ATOM     29  C   UNL     1      32.699   7.420 -21.922  1.00  0.00     0.179 C 
ATOM     30  C   UNL     1      31.160   7.592 -21.926  1.00  0.00     0.177 C 
BRANCH  26  31
ATOM     31  O   UNL     1      30.638   5.637 -19.709  1.00  0.00    -0.384 OA
ATOM     32  H   UNL     1      29.652   5.542 -19.644  1.00  0.00     0.211 HD
ENDBRANCH  26  31
BRANCH  28  33
ATOM     33  O   UNL     1      29.068   6.369 -21.888  1.00  0.00    -0.387 OA
ATOM     34  H   UNL     1      28.915   6.641 -20.945  1.00  0.00     0.211 HD
ENDBRANCH  28  33
BRANCH  29  35
ATOM     35  C   UNL     1      33.305   7.187 -23.323  1.00  0.00     0.191 C 
BRANCH  35  36
ATOM     36  O   UNL     1      32.429   7.640 -24.322  1.00  0.00    -0.394 OA
ATOM     37  H   UNL     1      31.521   7.320 -24.079  1.00  0.00     0.210 HD
ENDBRANCH  35  36
ENDBRANCH  29  35
BRANCH  30  38
ATOM     38  O   UNL     1      30.774   8.235 -20.735  1.00  0.00    -0.387 OA
ATOM     39  H   UNL     1      29.861   8.598 -20.883  1.00  0.00     0.211 HD
ENDBRANCH  30  38
ENDBRANCH   1  25
TORSDOF 11
ENDMDL
MODEL 7
REMARK VINA RESULT:    -5.537     13.253     15.239
REMARK INTER + INTRA:          -9.643
REMARK INTER:                  -7.919
REMARK INTRA:                  -1.724
REMARK UNBOUND:                -1.678
REMARK SMILES O=c1c(O[C@H]2O[C@@H](CO)[C@H](O)[C@H](O)[C@@H]2O)c(-c2ccc(O)cc2)oc2cc(O)cc(O)c12
REMARK SMILES IDX 4 1 3 2 16 3 24 4 2 5 25 6 1 7 32 8 26 9 30 10 27 11 29 12
REMARK SMILES IDX 17 13 18 14 19 15 20 16 23 17 22 18 21 19 31 21 28 23 5 25
REMARK SMILES IDX 14 26 6 27 12 28 7 29 10 30 15 31 13 33 8 35 9 36 11 38
REMARK H PARENT 21 20 31 22 28 24 15 32 13 34 9 37 11 39
REMARK Flexibility Score: inf
ROOT
ATOM      1  O   UNL     1      25.603  -3.498 -30.183  1.00  0.00    -0.454 OA
ENDROOT
BRANCH   1   2
ATOM      2  C   UNL     1      25.708  -2.594 -31.247  1.00  0.00     0.214 A 
ATOM      3  C   UNL     1      25.763  -1.204 -31.034  1.00  0.00     0.180 A 
ATOM      4  O   UNL     1      25.922  -0.387 -32.069  1.00  0.00    -0.452 OA
ATOM      5  C   UNL     1      25.758  -3.084 -32.557  1.00  0.00     0.239 A 
ATOM      6  C   UNL     1      26.017  -0.807 -33.325  1.00  0.00     0.146 A 
ATOM      7  O   UNL     1      25.604  -4.319 -32.739  1.00  0.00    -0.285 OA
ATOM      8  C   UNL     1      25.961  -2.192 -33.637  1.00  0.00     0.111 A 
ATOM      9  C   UNL     1      26.155   0.144 -34.338  1.00  0.00     0.094 A 
ATOM     10  C   UNL     1      26.091  -2.587 -35.003  1.00  0.00     0.134 A 
ATOM     11  C   UNL     1      26.227  -0.249 -35.672  1.00  0.00     0.123 A 
ATOM     12  C   UNL     1      26.190  -1.607 -35.999  1.00  0.00     0.093 A 
BRANCH   3  13
ATOM     13  C   UNL     1      25.624  -0.600 -29.689  1.00  0.00     0.021 A 
ATOM     14  C   UNL     1      24.403  -0.049 -29.259  1.00  0.00     0.016 A 
ATOM     15  C   UNL     1      24.295   0.520 -27.987  1.00  0.00     0.047 A 
ATOM     16  C   UNL     1      25.408   0.563 -27.138  1.00  0.00     0.115 A 
ATOM     17  C   UNL     1      26.740  -0.535 -28.841  1.00  0.00     0.016 A 
ATOM     18  C   UNL     1      26.630   0.037 -27.570  1.00  0.00     0.047 A 
BRANCH  16  19
ATOM     19  O   UNL     1      25.312   1.127 -25.868  1.00  0.00    -0.508 OA
ATOM     20  H   UNL     1      26.128   1.261 -25.285  1.00  0.00     0.293 HD
ENDBRANCH  16  19
ENDBRANCH   3  13
BRANCH  10  21
ATOM     21  O   UNL     1      26.154  -3.916 -35.431  1.00  0.00    -0.507 OA
ATOM     22  H   UNL     1      25.525  -4.649 -35.139  1.00  0.00     0.293 HD
ENDBRANCH  10  21
BRANCH  11  23
ATOM     23  O   UNL     1      26.344   0.718 -36.668  1.00  0.00    -0.508 OA
ATOM     24  H   UNL     1      26.541   1.688 -36.444  1.00  0.00     0.293 HD
ENDBRANCH  11  23
ENDBRANCH   1   2
BRANCH   1  25
ATOM     25  C   UNL     1      24.347  -3.974 -29.689  1.00  0.00     0.339 C 
ATOM     26  C   UNL     1      24.140  -3.578 -28.216  1.00  0.00     0.214 C 
ATOM     27  O   UNL     1      24.219  -5.373 -29.901  1.00  0.00    -0.332 OA
ATOM     28  C   UNL     1      25.102  -4.367 -27.317  1.00  0.00     0.180 C 
ATOM     29  C   UNL     1      25.101  -6.167 -29.114  1.00  0.00     0.179 C 
ATOM     30  C   UNL     1      24.984  -5.877 -27.597  1.00  0.00     0.177 C 
BRANCH  26  31
ATOM     31  O   UNL     1      22.804  -3.829 -27.857  1.00  0.00    -0.384 OA
ATOM     32  H   UNL     1      22.287  -3.910 -28.701  1.00  0.00     0.211 HD
ENDBRANCH  26  31
BRANCH  28  33
ATOM     33  O   UNL     1      24.831  -4.089 -25.967  1.00  0.00    -0.387 OA
ATOM     34  H   UNL     1      24.529  -3.144 -25.924  1.00  0.00     0.211 HD
ENDBRANCH  28  33
BRANCH  29  35
ATOM     35  C   UNL     1      26.552  -6.140 -29.644  1.00  0.00     0.191 C 
BRANCH  35  36
ATOM     36  O   UNL     1      26.576  -6.380 -31.027  1.00  0.00    -0.394 OA
ATOM     37  H   UNL     1      26.810  -5.522 -31.467  1.00  0.00     0.210 HD
ENDBRANCH  35  36
ENDBRANCH  29  35
BRANCH  30  38
ATOM     38  O   UNL     1      23.745  -6.363 -27.138  1.00  0.00    -0.387 OA
ATOM     39  H   UNL     1      23.800  -7.354 -27.146  1.00  0.00     0.211 HD
ENDBRANCH  30  38
ENDBRANCH   1  25
TORSDOF 11
ENDMDL
MODEL 8
REMARK VINA RESULT:    -5.515      1.378      2.672
REMARK INTER + INTRA:          -9.611
REMARK INTER:                  -8.245
REMARK INTRA:                  -1.366
REMARK UNBOUND:                -1.678
REMARK SMILES O=c1c(O[C@H]2O[C@@H](CO)[C@H](O)[C@H](O)[C@@H]2O)c(-c2ccc(O)cc2)oc2cc(O)cc(O)c12
REMARK SMILES IDX 4 1 3 2 16 3 24 4 2 5 25 6 1 7 32 8 26 9 30 10 27 11 29 12
REMARK SMILES IDX 17 13 18 14 19 15 20 16 23 17 22 18 21 19 31 21 28 23 5 25
REMARK SMILES IDX 14 26 6 27 12 28 7 29 10 30 15 31 13 33 8 35 9 36 11 38
REMARK H PARENT 21 20 31 22 28 24 15 32 13 34 9 37 11 39
REMARK Flexibility Score: inf
ROOT
ATOM      1  O   UNL     1      34.003   3.041 -20.839  1.00  0.00    -0.454 OA
ENDROOT
BRANCH   1   2
ATOM      2  C   UNL     1      34.901   3.830 -21.569  1.00  0.00     0.214 A 
ATOM      3  C   UNL     1      34.462   4.900 -22.371  1.00  0.00     0.180 A 
ATOM      4  O   UNL     1      35.354   5.658 -22.999  1.00  0.00    -0.452 OA
ATOM      5  C   UNL     1      36.269   3.546 -21.503  1.00  0.00     0.239 A 
ATOM      6  C   UNL     1      36.664   5.455 -22.932  1.00  0.00     0.146 A 
ATOM      7  O   UNL     1      36.637   2.525 -20.867  1.00  0.00    -0.285 OA
ATOM      8  C   UNL     1      37.198   4.392 -22.156  1.00  0.00     0.111 A 
ATOM      9  C   UNL     1      37.508   6.298 -23.657  1.00  0.00     0.094 A 
ATOM     10  C   UNL     1      38.617   4.234 -22.104  1.00  0.00     0.134 A 
ATOM     11  C   UNL     1      38.887   6.103 -23.641  1.00  0.00     0.123 A 
ATOM     12  C   UNL     1      39.433   5.073 -22.872  1.00  0.00     0.093 A 
BRANCH   3  13
ATOM     13  C   UNL     1      33.027   5.209 -22.567  1.00  0.00     0.021 A 
ATOM     14  C   UNL     1      32.301   4.651 -23.635  1.00  0.00     0.016 A 
ATOM     15  C   UNL     1      30.948   4.960 -23.805  1.00  0.00     0.047 A 
ATOM     16  C   UNL     1      30.311   5.843 -22.925  1.00  0.00     0.115 A 
ATOM     17  C   UNL     1      32.387   6.109 -21.701  1.00  0.00     0.016 A 
ATOM     18  C   UNL     1      31.035   6.418 -21.875  1.00  0.00     0.047 A 
BRANCH  16  19
ATOM     19  O   UNL     1      28.963   6.157 -23.084  1.00  0.00    -0.508 OA
ATOM     20  H   UNL     1      28.552   6.967 -22.638  1.00  0.00     0.293 HD
ENDBRANCH  16  19
ENDBRANCH   3  13
BRANCH  10  21
ATOM     21  O   UNL     1      39.270   3.295 -21.300  1.00  0.00    -0.507 OA
ATOM     22  H   UNL     1      38.866   2.430 -20.976  1.00  0.00     0.293 HD
ENDBRANCH  10  21
BRANCH  11  23
ATOM     23  O   UNL     1      39.708   6.945 -24.388  1.00  0.00    -0.508 OA
ATOM     24  H   UNL     1      39.711   7.948 -24.242  1.00  0.00     0.293 HD
ENDBRANCH  11  23
ENDBRANCH   1   2
BRANCH   1  25
ATOM     25  C   UNL     1      33.605   3.353 -19.501  1.00  0.00     0.339 C 
ATOM     26  C   UNL     1      34.258   2.397 -18.486  1.00  0.00     0.214 C 
ATOM     27  O   UNL     1      32.188   3.381 -19.390  1.00  0.00    -0.332 OA
ATOM     28  C   UNL     1      33.662   0.990 -18.626  1.00  0.00     0.180 C 
ATOM     29  C   UNL     1      31.565   2.109 -19.533  1.00  0.00     0.179 C 
ATOM     30  C   UNL     1      32.124   1.049 -18.553  1.00  0.00     0.177 C 
BRANCH  26  31
ATOM     31  O   UNL     1      34.055   2.898 -17.188  1.00  0.00    -0.384 OA
ATOM     32  H   UNL     1      34.134   2.130 -16.564  1.00  0.00     0.211 HD
ENDBRANCH  26  31
BRANCH  28  33
ATOM     33  O   UNL     1      34.176   0.151 -17.624  1.00  0.00    -0.387 OA
ATOM     34  H   UNL     1      35.041  -0.201 -17.960  1.00  0.00     0.211 HD
ENDBRANCH  28  33
BRANCH  29  35
ATOM     35  C   UNL     1      31.519   1.637 -21.004  1.00  0.00     0.191 C 
BRANCH  35  36
ATOM     36  O   UNL     1      30.464   2.260 -21.689  1.00  0.00    -0.394 OA
ATOM     37  H   UNL     1      29.623   1.836 -21.376  1.00  0.00     0.210 HD
ENDBRANCH  35  36
ENDBRANCH  29  35
BRANCH  30  38
ATOM     38  O   UNL     1      31.709   1.376 -17.248  1.00  0.00    -0.387 OA
ATOM     39  H   UNL     1      30.871   0.873 -17.074  1.00  0.00     0.211 HD
ENDBRANCH  30  38
ENDBRANCH   1  25
TORSDOF 11
ENDMDL
MODEL 9
REMARK VINA RESULT:    -5.476      2.613      7.463
REMARK INTER + INTRA:          -9.556
REMARK INTER:                  -8.142
REMARK INTRA:                  -1.413
REMARK UNBOUND:                -1.678
REMARK SMILES O=c1c(O[C@H]2O[C@@H](CO)[C@H](O)[C@H](O)[C@@H]2O)c(-c2ccc(O)cc2)oc2cc(O)cc(O)c12
REMARK SMILES IDX 4 1 3 2 16 3 24 4 2 5 25 6 1 7 32 8 26 9 30 10 27 11 29 12
REMARK SMILES IDX 17 13 18 14 19 15 20 16 23 17 22 18 21 19 31 21 28 23 5 25
REMARK SMILES IDX 14 26 6 27 12 28 7 29 10 30 15 31 13 33 8 35 9 36 11 38
REMARK H PARENT 21 20 31 22 28 24 15 32 13 34 9 37 11 39
REMARK Flexibility Score: inf
ROOT
ATOM      1  O   UNL     1      36.674   5.273 -21.237  1.00  0.00    -0.454 OA
ENDROOT
BRANCH   1   2
ATOM      2  C   UNL     1      35.274   5.289 -21.218  1.00  0.00     0.214 A 
ATOM      3  C   UNL     1      34.519   4.109 -21.363  1.00  0.00     0.180 A 
ATOM      4  O   UNL     1      33.195   4.164 -21.280  1.00  0.00    -0.452 OA
ATOM      5  C   UNL     1      34.606   6.507 -21.055  1.00  0.00     0.239 A 
ATOM      6  C   UNL     1      32.519   5.289 -21.083  1.00  0.00     0.146 A 
ATOM      7  O   UNL     1      35.290   7.564 -21.031  1.00  0.00    -0.285 OA
ATOM      8  C   UNL     1      33.196   6.530 -20.937  1.00  0.00     0.111 A 
ATOM      9  C   UNL     1      31.125   5.232 -21.041  1.00  0.00     0.094 A 
ATOM     10  C   UNL     1      32.418   7.705 -20.705  1.00  0.00     0.134 A 
ATOM     11  C   UNL     1      30.374   6.392 -20.867  1.00  0.00     0.123 A 
ATOM     12  C   UNL     1      31.021   7.619 -20.706  1.00  0.00     0.093 A 
BRANCH   3  13
ATOM     13  C   UNL     1      35.145   2.794 -21.631  1.00  0.00     0.021 A 
ATOM     14  C   UNL     1      35.290   1.835 -20.612  1.00  0.00     0.016 A 
ATOM     15  C   UNL     1      35.889   0.601 -20.885  1.00  0.00     0.047 A 
ATOM     16  C   UNL     1      36.365   0.319 -22.172  1.00  0.00     0.115 A 
ATOM     17  C   UNL     1      35.643   2.512 -22.912  1.00  0.00     0.016 A 
ATOM     18  C   UNL     1      36.243   1.278 -23.182  1.00  0.00     0.047 A 
BRANCH  16  19
ATOM     19  O   UNL     1      36.962  -0.907 -22.456  1.00  0.00    -0.508 OA
ATOM     20  H   UNL     1      37.925  -0.969 -22.760  1.00  0.00     0.293 HD
ENDBRANCH  16  19
ENDBRANCH   3  13
BRANCH  10  21
ATOM     21  O   UNL     1      32.965   8.965 -20.445  1.00  0.00    -0.507 OA
ATOM     22  H   UNL     1      32.445   9.764 -20.112  1.00  0.00     0.293 HD
ENDBRANCH  10  21
BRANCH  11  23
ATOM     23  O   UNL     1      28.983   6.313 -20.848  1.00  0.00    -0.508 OA
ATOM     24  H   UNL     1      28.427   6.559 -21.660  1.00  0.00     0.293 HD
ENDBRANCH  11  23
ENDBRANCH   1   2
BRANCH   1  25
ATOM     25  C   UNL     1      37.462   4.897 -20.104  1.00  0.00     0.339 C 
ATOM     26  C   UNL     1      37.786   6.113 -19.219  1.00  0.00     0.214 C 
ATOM     27  O   UNL     1      38.628   4.193 -20.512  1.00  0.00    -0.332 OA
ATOM     28  C   UNL     1      38.773   7.043 -19.939  1.00  0.00     0.180 C 
ATOM     29  C   UNL     1      39.579   4.992 -21.209  1.00  0.00     0.179 C 
ATOM     30  C   UNL     1      40.005   6.252 -20.416  1.00  0.00     0.177 C 
BRANCH  26  31
ATOM     31  O   UNL     1      38.324   5.664 -18.000  1.00  0.00    -0.384 OA
ATOM     32  H   UNL     1      37.735   4.933 -17.674  1.00  0.00     0.211 HD
ENDBRANCH  26  31
BRANCH  28  33
ATOM     33  O   UNL     1      39.154   8.090 -19.084  1.00  0.00    -0.387 OA
ATOM     34  H   UNL     1      39.947   7.773 -18.578  1.00  0.00     0.211 HD
ENDBRANCH  28  33
BRANCH  29  35
ATOM     35  C   UNL     1      39.150   5.284 -22.664  1.00  0.00     0.191 C 
BRANCH  35  36
ATOM     36  O   UNL     1      38.729   4.106 -23.301  1.00  0.00    -0.394 OA
ATOM     37  H   UNL     1      37.890   4.321 -23.785  1.00  0.00     0.210 HD
ENDBRANCH  35  36
ENDBRANCH  29  35
BRANCH  30  38
ATOM     38  O   UNL     1      40.785   5.852 -19.315  1.00  0.00    -0.387 OA
ATOM     39  H   UNL     1      40.931   4.873 -19.402  1.00  0.00     0.211 HD
ENDBRANCH  30  38
ENDBRANCH   1  25
TORSDOF 11
ENDMDL
