MODEL 1
REMARK VINA RESULT:    -6.982      0.000      0.000
REMARK INTER + INTRA:          -6.982
REMARK INTER:                  -6.982
REMARK INTRA:                   0.000
REMARK UNBOUND:                 0.000
REMARK SMILES C[NH+]1CCN(C2=[NH+]c3ccccc3Oc3ccc(Cl)cc32)CC1
REMARK SMILES IDX 7 1 6 2 21 3 5 4 8 5 9 6 13 7 10 8 12 9 14 10 11 11 15 12
REMARK SMILES IDX 16 13 17 14 18 15 20 16 19 17 4 18 22 19 3 20 23 21 2 22
REMARK SMILES IDX 1 23
REMARK H PARENT 7 24 2 25
REMARK Flexibility Score: inf
ROOT
ATOM      1  N   UNL     1      10.807 -14.902 -27.161  1.00  0.00    -0.237 N 
ATOM      2  C   UNL     1      10.387 -16.070 -27.572  1.00  0.00     0.286 C 
ATOM      3  C   UNL     1      10.320 -17.274 -26.702  1.00  0.00     0.108 A 
ATOM      4  N   UNL     1      10.009 -16.224 -28.955  1.00  0.00    -0.250 N 
ATOM      5  C   UNL     1      11.266 -14.548 -25.844  1.00  0.00     0.168 A 
ATOM      6  C   UNL     1      12.255 -13.555 -25.731  1.00  0.00     0.056 A 
ATOM      7  C   UNL     1      10.632 -15.015 -24.675  1.00  0.00     0.173 A 
ATOM      8  C   UNL     1      12.615 -13.043 -24.483  1.00  0.00     0.005 A 
ATOM      9  C   UNL     1      10.976 -14.469 -23.430  1.00  0.00     0.052 A 
ATOM     10  O   UNL     1       9.666 -16.016 -24.702  1.00  0.00    -0.452 OA
ATOM     11  C   UNL     1      11.970 -13.494 -23.333  1.00  0.00     0.004 A 
ATOM     12  C   UNL     1       9.865 -17.219 -25.370  1.00  0.00     0.143 A 
ATOM     13  C   UNL     1       9.608 -18.406 -24.670  1.00  0.00     0.049 A 
ATOM     14  C   UNL     1       9.852 -19.646 -25.261  1.00  0.00     0.024 A 
ATOM     15  C   UNL     1      10.346 -19.710 -26.563  1.00  0.00     0.042 A 
ATOM     16  C   UNL     1      10.572 -18.534 -27.282  1.00  0.00     0.041 A 
ATOM     17  Cl  UNL     1      10.654 -21.268 -27.309  1.00  0.00    -0.084 Cl
ATOM     18  C   UNL     1       8.642 -16.623 -29.295  1.00  0.00     0.298 C 
ATOM     19  C   UNL     1      10.873 -15.723 -30.025  1.00  0.00     0.298 C 
ATOM     20  C   UNL     1       8.655 -17.560 -30.511  1.00  0.00     0.308 C 
ATOM     21  C   UNL     1      10.832 -16.683 -31.223  1.00  0.00     0.308 C 
ATOM     22  N   UNL     1       9.452 -17.024 -31.637  1.00  0.00    -0.331 N 
ATOM     23  C   UNL     1       8.779 -15.898 -32.312  1.00  0.00     0.332 C 
ATOM     24  H   UNL     1      10.857 -14.133 -27.869  1.00  0.00     0.312 HD
ATOM     25  H   UNL     1       9.528 -17.791 -32.348  1.00  0.00     0.348 HD
ENDROOT
TORSDOF 0
ENDMDL
MODEL 2
REMARK VINA RESULT:    -6.792      3.059      6.172
REMARK INTER + INTRA:          -6.792
REMARK INTER:                  -6.792
REMARK INTRA:                   0.000
REMARK UNBOUND:                 0.000
REMARK SMILES C[NH+]1CCN(C2=[NH+]c3ccccc3Oc3ccc(Cl)cc32)CC1
REMARK SMILES IDX 7 1 6 2 21 3 5 4 8 5 9 6 13 7 10 8 12 9 14 10 11 11 15 12
REMARK SMILES IDX 16 13 17 14 18 15 20 16 19 17 4 18 22 19 3 20 23 21 2 22
REMARK SMILES IDX 1 23
REMARK H PARENT 7 24 2 25
REMARK Flexibility Score: inf
ROOT
ATOM      1  N   UNL     1      10.800 -16.593 -27.357  1.00  0.00    -0.237 N 
ATOM      2  C   UNL     1       9.961 -16.068 -26.503  1.00  0.00     0.286 C 
ATOM      3  C   UNL     1       8.491 -16.287 -26.554  1.00  0.00     0.108 A 
ATOM      4  N   UNL     1      10.470 -15.188 -25.481  1.00  0.00    -0.250 N 
ATOM      5  C   UNL     1      10.498 -17.457 -28.467  1.00  0.00     0.168 A 
ATOM      6  C   UNL     1      11.317 -17.382 -29.607  1.00  0.00     0.056 A 
ATOM      7  C   UNL     1       9.546 -18.493 -28.378  1.00  0.00     0.173 A 
ATOM      8  C   UNL     1      11.188 -18.310 -30.642  1.00  0.00     0.005 A 
ATOM      9  C   UNL     1       9.448 -19.440 -29.406  1.00  0.00     0.052 A 
ATOM     10  O   UNL     1       8.680 -18.615 -27.296  1.00  0.00    -0.452 OA
ATOM     11  C   UNL     1      10.259 -19.344 -30.539  1.00  0.00     0.004 A 
ATOM     12  C   UNL     1       7.923 -17.547 -26.828  1.00  0.00     0.143 A 
ATOM     13  C   UNL     1       6.550 -17.750 -26.642  1.00  0.00     0.049 A 
ATOM     14  C   UNL     1       5.724 -16.700 -26.239  1.00  0.00     0.024 A 
ATOM     15  C   UNL     1       6.269 -15.437 -26.008  1.00  0.00     0.042 A 
ATOM     16  C   UNL     1       7.642 -15.233 -26.158  1.00  0.00     0.041 A 
ATOM     17  Cl  UNL     1       5.234 -14.114 -25.503  1.00  0.00    -0.084 Cl
ATOM     18  C   UNL     1      10.285 -15.529 -24.069  1.00  0.00     0.298 C 
ATOM     19  C   UNL     1      11.404 -14.112 -25.819  1.00  0.00     0.298 C 
ATOM     20  C   UNL     1      10.020 -14.257 -23.252  1.00  0.00     0.308 C 
ATOM     21  C   UNL     1      11.111 -12.875 -24.959  1.00  0.00     0.308 C 
ATOM     22  N   UNL     1      11.012 -13.191 -23.515  1.00  0.00    -0.331 N 
ATOM     23  C   UNL     1      12.328 -13.492 -22.920  1.00  0.00     0.332 C 
ATOM     24  H   UNL     1      11.810 -16.337 -27.257  1.00  0.00     0.312 HD
ATOM     25  H   UNL     1      10.663 -12.325 -23.037  1.00  0.00     0.348 HD
ENDROOT
TORSDOF 0
ENDMDL
MODEL 3
REMARK VINA RESULT:    -6.643      2.472      6.000
REMARK INTER + INTRA:          -6.643
REMARK INTER:                  -6.643
REMARK INTRA:                   0.000
REMARK UNBOUND:                 0.000
REMARK SMILES C[NH+]1CCN(C2=[NH+]c3ccccc3Oc3ccc(Cl)cc32)CC1
REMARK SMILES IDX 7 1 6 2 21 3 5 4 8 5 9 6 13 7 10 8 12 9 14 10 11 11 15 12
REMARK SMILES IDX 16 13 17 14 18 15 20 16 19 17 4 18 22 19 3 20 23 21 2 22
REMARK SMILES IDX 1 23
REMARK H PARENT 7 24 2 25
REMARK Flexibility Score: inf
ROOT
ATOM      1  N   UNL     1       9.580 -16.492 -30.269  1.00  0.00    -0.237 N 
ATOM      2  C   UNL     1      10.189 -16.738 -29.139  1.00  0.00     0.286 C 
ATOM      3  C   UNL     1      10.082 -18.030 -28.410  1.00  0.00     0.108 A 
ATOM      4  N   UNL     1      10.973 -15.692 -28.531  1.00  0.00    -0.250 N 
ATOM      5  C   UNL     1       8.724 -17.375 -31.015  1.00  0.00     0.168 A 
ATOM      6  C   UNL     1       7.675 -16.809 -31.762  1.00  0.00     0.056 A 
ATOM      7  C   UNL     1       9.012 -18.745 -31.176  1.00  0.00     0.173 A 
ATOM      8  C   UNL     1       6.923 -17.588 -32.642  1.00  0.00     0.005 A 
ATOM      9  C   UNL     1       8.274 -19.511 -32.089  1.00  0.00     0.052 A 
ATOM     10  O   UNL     1      10.014 -19.385 -30.452  1.00  0.00    -0.452 OA
ATOM     11  C   UNL     1       7.227 -18.937 -32.812  1.00  0.00     0.004 A 
ATOM     12  C   UNL     1      10.113 -19.274 -29.069  1.00  0.00     0.143 A 
ATOM     13  C   UNL     1      10.237 -20.456 -28.327  1.00  0.00     0.049 A 
ATOM     14  C   UNL     1      10.273 -20.418 -26.933  1.00  0.00     0.024 A 
ATOM     15  C   UNL     1      10.197 -19.194 -26.268  1.00  0.00     0.042 A 
ATOM     16  C   UNL     1      10.109 -18.008 -27.001  1.00  0.00     0.041 A 
ATOM     17  Cl  UNL     1      10.241 -19.142 -24.515  1.00  0.00    -0.084 Cl
ATOM     18  C   UNL     1      12.405 -15.895 -28.302  1.00  0.00     0.298 C 
ATOM     19  C   UNL     1      10.433 -14.338 -28.394  1.00  0.00     0.298 C 
ATOM     20  C   UNL     1      12.824 -15.238 -26.981  1.00  0.00     0.308 C 
ATOM     21  C   UNL     1      10.900 -13.719 -27.069  1.00  0.00     0.308 C 
ATOM     22  N   UNL     1      12.363 -13.836 -26.867  1.00  0.00    -0.331 N 
ATOM     23  C   UNL     1      13.121 -12.925 -27.745  1.00  0.00     0.332 C 
ATOM     24  H   UNL     1       9.687 -15.533 -30.674  1.00  0.00     0.312 HD
ATOM     25  H   UNL     1      12.560 -13.529 -25.883  1.00  0.00     0.348 HD
ENDROOT
TORSDOF 0
ENDMDL
MODEL 4
REMARK VINA RESULT:    -6.559      2.377      6.361
REMARK INTER + INTRA:          -6.559
REMARK INTER:                  -6.559
REMARK INTRA:                   0.000
REMARK UNBOUND:                 0.000
REMARK SMILES C[NH+]1CCN(C2=[NH+]c3ccccc3Oc3ccc(Cl)cc32)CC1
REMARK SMILES IDX 7 1 6 2 21 3 5 4 8 5 9 6 13 7 10 8 12 9 14 10 11 11 15 12
REMARK SMILES IDX 16 13 17 14 18 15 20 16 19 17 4 18 22 19 3 20 23 21 2 22
REMARK SMILES IDX 1 23
REMARK H PARENT 7 24 2 25
REMARK Flexibility Score: inf
ROOT
ATOM      1  N   UNL     1       8.615 -15.814 -29.986  1.00  0.00    -0.237 N 
ATOM      2  C   UNL     1       9.274 -16.602 -29.176  1.00  0.00     0.286 C 
ATOM      3  C   UNL     1       9.776 -17.946 -29.564  1.00  0.00     0.108 A 
ATOM      4  N   UNL     1       9.490 -16.175 -27.816  1.00  0.00    -0.250 N 
ATOM      5  C   UNL     1       8.260 -16.064 -31.357  1.00  0.00     0.168 A 
ATOM      6  C   UNL     1       7.065 -15.504 -31.845  1.00  0.00     0.056 A 
ATOM      7  C   UNL     1       9.146 -16.676 -32.265  1.00  0.00     0.173 A 
ATOM      8  C   UNL     1       6.753 -15.560 -33.204  1.00  0.00     0.005 A 
ATOM      9  C   UNL     1       8.840 -16.696 -33.633  1.00  0.00     0.052 A 
ATOM     10  O   UNL     1      10.332 -17.278 -31.856  1.00  0.00    -0.452 OA
ATOM     11  C   UNL     1       7.643 -16.149 -34.100  1.00  0.00     0.004 A 
ATOM     12  C   UNL     1      10.375 -18.198 -30.814  1.00  0.00     0.143 A 
ATOM     13  C   UNL     1      11.031 -19.414 -31.043  1.00  0.00     0.049 A 
ATOM     14  C   UNL     1      11.051 -20.406 -30.062  1.00  0.00     0.024 A 
ATOM     15  C   UNL     1      10.423 -20.185 -28.837  1.00  0.00     0.042 A 
ATOM     16  C   UNL     1       9.795 -18.962 -28.586  1.00  0.00     0.041 A 
ATOM     17  Cl  UNL     1      10.445 -21.429 -27.601  1.00  0.00    -0.084 Cl
ATOM     18  C   UNL     1      10.855 -16.015 -27.312  1.00  0.00     0.298 C 
ATOM     19  C   UNL     1       8.387 -15.633 -27.019  1.00  0.00     0.298 C 
ATOM     20  C   UNL     1      10.930 -16.462 -25.846  1.00  0.00     0.308 C 
ATOM     21  C   UNL     1       8.522 -16.091 -25.560  1.00  0.00     0.308 C 
ATOM     22  N   UNL     1       9.875 -15.850 -25.007  1.00  0.00    -0.331 N 
ATOM     23  C   UNL     1      10.125 -14.419 -24.750  1.00  0.00     0.332 C 
ATOM     24  H   UNL     1       8.267 -14.907 -29.596  1.00  0.00     0.312 HD
ATOM     25  H   UNL     1       9.912 -16.328 -24.074  1.00  0.00     0.348 HD
ENDROOT
TORSDOF 0
ENDMDL
MODEL 5
REMARK VINA RESULT:    -6.426      3.941      5.875
REMARK INTER + INTRA:          -6.426
REMARK INTER:                  -6.426
REMARK INTRA:                   0.000
REMARK UNBOUND:                 0.000
REMARK SMILES C[NH+]1CCN(C2=[NH+]c3ccccc3Oc3ccc(Cl)cc32)CC1
REMARK SMILES IDX 7 1 6 2 21 3 5 4 8 5 9 6 13 7 10 8 12 9 14 10 11 11 15 12
REMARK SMILES IDX 16 13 17 14 18 15 20 16 19 17 4 18 22 19 3 20 23 21 2 22
REMARK SMILES IDX 1 23
REMARK H PARENT 7 24 2 25
REMARK Flexibility Score: inf
ROOT
ATOM      1  N   UNL     1       6.630 -16.305 -26.643  1.00  0.00    -0.237 N 
ATOM      2  C   UNL     1       7.867 -16.202 -26.233  1.00  0.00     0.286 C 
ATOM      3  C   UNL     1       8.437 -14.965 -25.636  1.00  0.00     0.108 A 
ATOM      4  N   UNL     1       8.751 -17.328 -26.407  1.00  0.00    -0.250 N 
ATOM      5  C   UNL     1       5.605 -15.296 -26.601  1.00  0.00     0.168 A 
ATOM      6  C   UNL     1       4.630 -15.299 -27.615  1.00  0.00     0.056 A 
ATOM      7  C   UNL     1       5.435 -14.441 -25.494  1.00  0.00     0.173 A 
ATOM      8  C   UNL     1       3.514 -14.463 -27.535  1.00  0.00     0.005 A 
ATOM      9  C   UNL     1       4.293 -13.632 -25.406  1.00  0.00     0.052 A 
ATOM     10  O   UNL     1       6.369 -14.360 -24.466  1.00  0.00    -0.452 OA
ATOM     11  C   UNL     1       3.342 -13.636 -26.428  1.00  0.00     0.004 A 
ATOM     12  C   UNL     1       7.726 -14.176 -24.712  1.00  0.00     0.143 A 
ATOM     13  C   UNL     1       8.383 -13.155 -24.012  1.00  0.00     0.049 A 
ATOM     14  C   UNL     1       9.727 -12.875 -24.262  1.00  0.00     0.024 A 
ATOM     15  C   UNL     1      10.429 -13.621 -25.208  1.00  0.00     0.042 A 
ATOM     16  C   UNL     1       9.791 -14.663 -25.886  1.00  0.00     0.041 A 
ATOM     17  Cl  UNL     1      12.118 -13.272 -25.526  1.00  0.00    -0.084 Cl
ATOM     18  C   UNL     1       9.370 -17.954 -25.237  1.00  0.00     0.298 C 
ATOM     19  C   UNL     1       8.824 -18.029 -27.690  1.00  0.00     0.298 C 
ATOM     20  C   UNL     1      10.801 -18.396 -25.572  1.00  0.00     0.308 C 
ATOM     21  C   UNL     1      10.269 -18.468 -27.965  1.00  0.00     0.308 C 
ATOM     22  N   UNL     1      10.878 -19.185 -26.821  1.00  0.00    -0.331 N 
ATOM     23  C   UNL     1      10.327 -20.544 -26.659  1.00  0.00     0.332 C 
ATOM     24  H   UNL     1       6.345 -17.207 -27.090  1.00  0.00     0.312 HD
ATOM     25  H   UNL     1      11.896 -19.304 -27.044  1.00  0.00     0.348 HD
ENDROOT
TORSDOF 0
ENDMDL
MODEL 6
REMARK VINA RESULT:    -6.379      5.869      8.722
REMARK INTER + INTRA:          -6.379
REMARK INTER:                  -6.379
REMARK INTRA:                   0.000
REMARK UNBOUND:                 0.000
REMARK SMILES C[NH+]1CCN(C2=[NH+]c3ccccc3Oc3ccc(Cl)cc32)CC1
REMARK SMILES IDX 7 1 6 2 21 3 5 4 8 5 9 6 13 7 10 8 12 9 14 10 11 11 15 12
REMARK SMILES IDX 16 13 17 14 18 15 20 16 19 17 4 18 22 19 3 20 23 21 2 22
REMARK SMILES IDX 1 23
REMARK H PARENT 7 24 2 25
REMARK Flexibility Score: inf
ROOT
ATOM      1  N   UNL     1       5.426 -16.705 -32.024  1.00  0.00    -0.237 N 
ATOM      2  C   UNL     1       6.677 -16.476 -32.327  1.00  0.00     0.286 C 
ATOM      3  C   UNL     1       7.135 -15.282 -33.085  1.00  0.00     0.108 A 
ATOM      4  N   UNL     1       7.671 -17.452 -31.953  1.00  0.00    -0.250 N 
ATOM      5  C   UNL     1       4.283 -15.889 -32.337  1.00  0.00     0.168 A 
ATOM      6  C   UNL     1       3.050 -16.529 -32.556  1.00  0.00     0.056 A 
ATOM      7  C   UNL     1       4.314 -14.483 -32.242  1.00  0.00     0.173 A 
ATOM      8  C   UNL     1       1.874 -15.789 -32.688  1.00  0.00     0.005 A 
ATOM      9  C   UNL     1       3.122 -13.752 -32.341  1.00  0.00     0.052 A 
ATOM     10  O   UNL     1       5.497 -13.776 -32.056  1.00  0.00    -0.452 OA
ATOM     11  C   UNL     1       1.908 -14.401 -32.573  1.00  0.00     0.004 A 
ATOM     12  C   UNL     1       6.622 -13.992 -32.845  1.00  0.00     0.143 A 
ATOM     13  C   UNL     1       7.241 -12.875 -33.420  1.00  0.00     0.049 A 
ATOM     14  C   UNL     1       8.332 -13.030 -34.276  1.00  0.00     0.024 A 
ATOM     15  C   UNL     1       8.820 -14.306 -34.556  1.00  0.00     0.042 A 
ATOM     16  C   UNL     1       8.231 -15.424 -33.960  1.00  0.00     0.041 A 
ATOM     17  Cl  UNL     1      10.191 -14.506 -35.632  1.00  0.00    -0.084 Cl
ATOM     18  C   UNL     1       8.763 -17.070 -31.056  1.00  0.00     0.298 C 
ATOM     19  C   UNL     1       7.459 -18.875 -32.224  1.00  0.00     0.298 C 
ATOM     20  C   UNL     1      10.059 -17.776 -31.475  1.00  0.00     0.308 C 
ATOM     21  C   UNL     1       8.788 -19.536 -32.617  1.00  0.00     0.308 C 
ATOM     22  N   UNL     1       9.882 -19.233 -31.665  1.00  0.00    -0.331 N 
ATOM     23  C   UNL     1       9.720 -19.948 -30.384  1.00  0.00     0.332 C 
ATOM     24  H   UNL     1       5.208 -17.600 -31.528  1.00  0.00     0.312 HD
ATOM     25  H   UNL     1      10.768 -19.594 -32.094  1.00  0.00     0.348 HD
ENDROOT
TORSDOF 0
ENDMDL
MODEL 7
REMARK VINA RESULT:    -6.325      3.485      6.051
REMARK INTER + INTRA:          -6.325
REMARK INTER:                  -6.325
REMARK INTRA:                   0.000
REMARK UNBOUND:                 0.000
REMARK SMILES C[NH+]1CCN(C2=[NH+]c3ccccc3Oc3ccc(Cl)cc32)CC1
REMARK SMILES IDX 7 1 6 2 21 3 5 4 8 5 9 6 13 7 10 8 12 9 14 10 11 11 15 12
REMARK SMILES IDX 16 13 17 14 18 15 20 16 19 17 4 18 22 19 3 20 23 21 2 22
REMARK SMILES IDX 1 23
REMARK H PARENT 7 24 2 25
REMARK Flexibility Score: inf
ROOT
ATOM      1  N   UNL     1       8.430 -17.365 -28.405  1.00  0.00    -0.237 N 
ATOM      2  C   UNL     1       8.441 -16.460 -27.461  1.00  0.00     0.286 C 
ATOM      3  C   UNL     1       9.685 -15.859 -26.911  1.00  0.00     0.108 A 
ATOM      4  N   UNL     1       7.187 -16.049 -26.879  1.00  0.00    -0.250 N 
ATOM      5  C   UNL     1       9.561 -17.939 -29.083  1.00  0.00     0.168 A 
ATOM      6  C   UNL     1       9.464 -19.271 -29.524  1.00  0.00     0.056 A 
ATOM      7  C   UNL     1      10.669 -17.167 -29.486  1.00  0.00     0.173 A 
ATOM      8  C   UNL     1      10.451 -19.827 -30.339  1.00  0.00     0.005 A 
ATOM      9  C   UNL     1      11.637 -17.724 -30.333  1.00  0.00     0.052 A 
ATOM     10  O   UNL     1      10.851 -15.852 -29.067  1.00  0.00    -0.452 OA
ATOM     11  C   UNL     1      11.534 -19.052 -30.751  1.00  0.00     0.004 A 
ATOM     12  C   UNL     1      10.768 -15.483 -27.730  1.00  0.00     0.143 A 
ATOM     13  C   UNL     1      11.815 -14.719 -27.196  1.00  0.00     0.049 A 
ATOM     14  C   UNL     1      11.825 -14.374 -25.845  1.00  0.00     0.024 A 
ATOM     15  C   UNL     1      10.780 -14.780 -25.016  1.00  0.00     0.042 A 
ATOM     16  C   UNL     1       9.714 -15.512 -25.545  1.00  0.00     0.041 A 
ATOM     17  Cl  UNL     1      10.789 -14.348 -23.315  1.00  0.00    -0.084 Cl
ATOM     18  C   UNL     1       6.771 -14.648 -26.966  1.00  0.00     0.298 C 
ATOM     19  C   UNL     1       6.200 -17.042 -26.454  1.00  0.00     0.298 C 
ATOM     20  C   UNL     1       6.054 -14.232 -25.674  1.00  0.00     0.308 C 
ATOM     21  C   UNL     1       5.499 -16.567 -25.173  1.00  0.00     0.308 C 
ATOM     22  N   UNL     1       4.989 -15.181 -25.279  1.00  0.00    -0.331 N 
ATOM     23  C   UNL     1       3.805 -15.088 -26.154  1.00  0.00     0.332 C 
ATOM     24  H   UNL     1       7.500 -17.755 -28.685  1.00  0.00     0.312 HD
ATOM     25  H   UNL     1       4.671 -14.899 -24.321  1.00  0.00     0.348 HD
ENDROOT
TORSDOF 0
ENDMDL
MODEL 8
REMARK VINA RESULT:    -6.265      4.452      7.049
REMARK INTER + INTRA:          -6.265
REMARK INTER:                  -6.265
REMARK INTRA:                   0.000
REMARK UNBOUND:                 0.000
REMARK SMILES C[NH+]1CCN(C2=[NH+]c3ccccc3Oc3ccc(Cl)cc32)CC1
REMARK SMILES IDX 7 1 6 2 21 3 5 4 8 5 9 6 13 7 10 8 12 9 14 10 11 11 15 12
REMARK SMILES IDX 16 13 17 14 18 15 20 16 19 17 4 18 22 19 3 20 23 21 2 22
REMARK SMILES IDX 1 23
REMARK H PARENT 7 24 2 25
REMARK Flexibility Score: inf
ROOT
ATOM      1  N   UNL     1       6.044 -13.628 -25.736  1.00  0.00    -0.237 N 
ATOM      2  C   UNL     1       7.191 -13.898 -26.303  1.00  0.00     0.286 C 
ATOM      3  C   UNL     1       7.327 -14.335 -27.717  1.00  0.00     0.108 A 
ATOM      4  N   UNL     1       8.392 -13.818 -25.510  1.00  0.00    -0.250 N 
ATOM      5  C   UNL     1       4.735 -13.685 -26.332  1.00  0.00     0.168 A 
ATOM      6  C   UNL     1       3.647 -14.027 -25.509  1.00  0.00     0.056 A 
ATOM      7  C   UNL     1       4.484 -13.232 -27.642  1.00  0.00     0.173 A 
ATOM      8  C   UNL     1       2.337 -13.929 -25.981  1.00  0.00     0.005 A 
ATOM      9  C   UNL     1       3.163 -13.104 -28.094  1.00  0.00     0.052 A 
ATOM     10  O   UNL     1       5.508 -12.905 -28.525  1.00  0.00    -0.452 OA
ATOM     11  C   UNL     1       2.094 -13.460 -27.271  1.00  0.00     0.004 A 
ATOM     12  C   UNL     1       6.582 -13.756 -28.763  1.00  0.00     0.143 A 
ATOM     13  C   UNL     1       6.907 -14.041 -30.095  1.00  0.00     0.049 A 
ATOM     14  C   UNL     1       7.930 -14.940 -30.399  1.00  0.00     0.024 A 
ATOM     15  C   UNL     1       8.645 -15.554 -29.371  1.00  0.00     0.042 A 
ATOM     16  C   UNL     1       8.351 -15.250 -28.040  1.00  0.00     0.041 A 
ATOM     17  Cl  UNL     1       9.931 -16.685 -29.750  1.00  0.00    -0.084 Cl
ATOM     18  C   UNL     1       9.454 -12.885 -25.890  1.00  0.00     0.298 C 
ATOM     19  C   UNL     1       8.456 -14.441 -24.186  1.00  0.00     0.298 C 
ATOM     20  C   UNL     1      10.828 -13.510 -25.613  1.00  0.00     0.308 C 
ATOM     21  C   UNL     1       9.854 -15.029 -23.952  1.00  0.00     0.308 C 
ATOM     22  N   UNL     1      10.939 -14.064 -24.245  1.00  0.00    -0.331 N 
ATOM     23  C   UNL     1      11.036 -13.007 -23.220  1.00  0.00     0.332 C 
ATOM     24  H   UNL     1       6.057 -13.373 -24.721  1.00  0.00     0.312 HD
ATOM     25  H   UNL     1      11.841 -14.598 -24.205  1.00  0.00     0.348 HD
ENDROOT
TORSDOF 0
ENDMDL
MODEL 9
REMARK VINA RESULT:    -6.013      3.132      4.048
REMARK INTER + INTRA:          -6.013
REMARK INTER:                  -6.013
REMARK INTRA:                   0.000
REMARK UNBOUND:                 0.000
REMARK SMILES C[NH+]1CCN(C2=[NH+]c3ccccc3Oc3ccc(Cl)cc32)CC1
REMARK SMILES IDX 7 1 6 2 21 3 5 4 8 5 9 6 13 7 10 8 12 9 14 10 11 11 15 12
REMARK SMILES IDX 16 13 17 14 18 15 20 16 19 17 4 18 22 19 3 20 23 21 2 22
REMARK SMILES IDX 1 23
REMARK H PARENT 7 24 2 25
REMARK Flexibility Score: inf
ROOT
ATOM      1  N   UNL     1       7.600 -14.911 -28.004  1.00  0.00    -0.237 N 
ATOM      2  C   UNL     1       8.649 -15.689 -28.064  1.00  0.00     0.286 C 
ATOM      3  C   UNL     1       8.912 -16.792 -27.102  1.00  0.00     0.108 A 
ATOM      4  N   UNL     1       9.637 -15.444 -29.086  1.00  0.00    -0.250 N 
ATOM      5  C   UNL     1       6.527 -14.957 -27.048  1.00  0.00     0.168 A 
ATOM      6  C   UNL     1       5.896 -13.749 -26.699  1.00  0.00     0.056 A 
ATOM      7  C   UNL     1       5.967 -16.171 -26.602  1.00  0.00     0.173 A 
ATOM      8  C   UNL     1       4.740 -13.746 -25.917  1.00  0.00     0.005 A 
ATOM      9  C   UNL     1       4.786 -16.159 -25.846  1.00  0.00     0.052 A 
ATOM     10  O   UNL     1       6.549 -17.405 -26.879  1.00  0.00    -0.452 OA
ATOM     11  C   UNL     1       4.180 -14.951 -25.497  1.00  0.00     0.004 A 
ATOM     12  C   UNL     1       7.897 -17.657 -26.648  1.00  0.00     0.143 A 
ATOM     13  C   UNL     1       8.232 -18.810 -25.926  1.00  0.00     0.049 A 
ATOM     14  C   UNL     1       9.560 -19.084 -25.603  1.00  0.00     0.024 A 
ATOM     15  C   UNL     1      10.569 -18.211 -26.009  1.00  0.00     0.042 A 
ATOM     16  C   UNL     1      10.249 -17.077 -26.759  1.00  0.00     0.041 A 
ATOM     17  Cl  UNL     1      12.242 -18.552 -25.604  1.00  0.00    -0.084 Cl
ATOM     18  C   UNL     1       9.935 -16.484 -30.072  1.00  0.00     0.298 C 
ATOM     19  C   UNL     1      10.142 -14.092 -29.327  1.00  0.00     0.298 C 
ATOM     20  C   UNL     1      11.434 -16.479 -30.404  1.00  0.00     0.308 C 
ATOM     21  C   UNL     1      11.636 -14.146 -29.676  1.00  0.00     0.308 C 
ATOM     22  N   UNL     1      11.941 -15.130 -30.740  1.00  0.00    -0.331 N 
ATOM     23  C   UNL     1      11.483 -14.675 -32.067  1.00  0.00     0.332 C 
ATOM     24  H   UNL     1       7.536 -14.136 -28.704  1.00  0.00     0.312 HD
ATOM     25  H   UNL     1      12.986 -15.203 -30.798  1.00  0.00     0.348 HD
ENDROOT
TORSDOF 0
ENDMDL
