MODEL 1
REMARK VINA RESULT:    -4.586      0.000      0.000
REMARK INTER + INTRA:          -5.602
REMARK INTER:                  -5.525
REMARK INTRA:                  -0.078
REMARK UNBOUND:                -0.078
REMARK SMILES OCCc1ccc(O)c(O)c1
REMARK SMILES IDX 3 1 4 2 5 3 6 4 7 5 11 6 9 7 8 8 10 10 2 12 1 13
REMARK H PARENT 8 9 10 11 1 14
REMARK Flexibility Score: inf
ROOT
ATOM      1  C   UNL     1     -60.262  26.548 -13.659  1.00  0.00     0.064 C 
ENDROOT
BRANCH   1   2
ATOM      2  C   UNL     1     -59.170  26.630 -14.693  1.00  0.00    -0.042 A 
ATOM      3  C   UNL     1     -57.975  25.916 -14.517  1.00  0.00     0.008 A 
ATOM      4  C   UNL     1     -56.950  26.013 -15.462  1.00  0.00     0.050 A 
ATOM      5  C   UNL     1     -57.101  26.830 -16.587  1.00  0.00     0.157 A 
ATOM      6  C   UNL     1     -59.317  27.459 -15.817  1.00  0.00     0.054 A 
ATOM      7  C   UNL     1     -58.288  27.559 -16.766  1.00  0.00     0.157 A 
BRANCH   5   8
ATOM      8  O   UNL     1     -56.061  26.907 -17.513  1.00  0.00    -0.504 OA
ATOM      9  H   UNL     1     -55.610  26.080 -17.885  1.00  0.00     0.293 HD
ENDBRANCH   5   8
BRANCH   7  10
ATOM     10  O   UNL     1     -58.444  28.380 -17.882  1.00  0.00    -0.504 OA
ATOM     11  H   UNL     1     -58.515  27.996 -18.818  1.00  0.00     0.293 HD
ENDBRANCH   7  10
ENDBRANCH   1   2
BRANCH   1  12
ATOM     12  C   UNL     1     -61.025  27.873 -13.550  1.00  0.00     0.161 C 
BRANCH  12  13
ATOM     13  O   UNL     1     -62.324  27.746 -14.063  1.00  0.00    -0.396 OA
ATOM     14  H   UNL     1     -62.701  28.664 -14.112  1.00  0.00     0.210 HD
ENDBRANCH  12  13
ENDBRANCH   1  12
TORSDOF 5
ENDMDL
MODEL 2
REMARK VINA RESULT:    -4.365      9.282      9.849
REMARK INTER + INTRA:          -5.336
REMARK INTER:                  -5.354
REMARK INTRA:                   0.018
REMARK UNBOUND:                -0.078
REMARK SMILES OCCc1ccc(O)c(O)c1
REMARK SMILES IDX 3 1 4 2 5 3 6 4 7 5 11 6 9 7 8 8 10 10 2 12 1 13
REMARK H PARENT 8 9 10 11 1 14
REMARK Flexibility Score: inf
ROOT
ATOM      1  C   UNL     1     -60.562  15.665 -17.913  1.00  0.00     0.064 C 
ENDROOT
BRANCH   1   2
ATOM      2  C   UNL     1     -59.730  16.853 -17.508  1.00  0.00    -0.042 A 
ATOM      3  C   UNL     1     -58.340  16.842 -17.703  1.00  0.00     0.008 A 
ATOM      4  C   UNL     1     -57.564  17.932 -17.302  1.00  0.00     0.050 A 
ATOM      5  C   UNL     1     -58.162  19.041 -16.694  1.00  0.00     0.157 A 
ATOM      6  C   UNL     1     -60.330  17.961 -16.888  1.00  0.00     0.054 A 
ATOM      7  C   UNL     1     -59.551  19.056 -16.484  1.00  0.00     0.157 A 
BRANCH   5   8
ATOM      8  O   UNL     1     -57.361  20.115 -16.305  1.00  0.00    -0.504 OA
ATOM      9  H   UNL     1     -57.592  21.072 -16.543  1.00  0.00     0.293 HD
ENDBRANCH   5   8
BRANCH   7  10
ATOM     10  O   UNL     1     -60.153  20.156 -15.874  1.00  0.00    -0.504 OA
ATOM     11  H   UNL     1     -60.403  20.985 -16.401  1.00  0.00     0.293 HD
ENDBRANCH   7  10
ENDBRANCH   1   2
BRANCH   1  12
ATOM     12  C   UNL     1     -61.897  16.104 -18.524  1.00  0.00     0.161 C 
BRANCH  12  13
ATOM     13  O   UNL     1     -62.919  16.080 -17.563  1.00  0.00    -0.396 OA
ATOM     14  H   UNL     1     -62.735  15.302 -16.972  1.00  0.00     0.210 HD
ENDBRANCH  12  13
ENDBRANCH   1  12
TORSDOF 5
ENDMDL
MODEL 3
REMARK VINA RESULT:    -4.260      2.176      4.124
REMARK INTER + INTRA:          -5.209
REMARK INTER:                  -5.112
REMARK INTRA:                  -0.098
REMARK UNBOUND:                -0.078
REMARK SMILES OCCc1ccc(O)c(O)c1
REMARK SMILES IDX 3 1 4 2 5 3 6 4 7 5 11 6 9 7 8 8 10 10 2 12 1 13
REMARK H PARENT 8 9 10 11 1 14
REMARK Flexibility Score: inf
ROOT
ATOM      1  C   UNL     1     -56.446  24.122 -13.830  1.00  0.00     0.064 C 
ENDROOT
BRANCH   1   2
ATOM      2  C   UNL     1     -56.937  25.167 -14.797  1.00  0.00    -0.042 A 
ATOM      3  C   UNL     1     -58.217  25.723 -14.649  1.00  0.00     0.008 A 
ATOM      4  C   UNL     1     -58.683  26.672 -15.562  1.00  0.00     0.050 A 
ATOM      5  C   UNL     1     -57.884  27.070 -16.638  1.00  0.00     0.157 A 
ATOM      6  C   UNL     1     -56.138  25.559 -15.884  1.00  0.00     0.054 A 
ATOM      7  C   UNL     1     -56.605  26.511 -16.803  1.00  0.00     0.157 A 
BRANCH   5   8
ATOM      8  O   UNL     1     -58.376  28.020 -17.533  1.00  0.00    -0.504 OA
ATOM      9  H   UNL     1     -58.969  27.767 -18.314  1.00  0.00     0.293 HD
ENDBRANCH   5   8
BRANCH   7  10
ATOM     10  O   UNL     1     -55.805  26.899 -17.876  1.00  0.00    -0.504 OA
ATOM     11  H   UNL     1     -55.134  26.266 -18.295  1.00  0.00     0.293 HD
ENDBRANCH   7  10
ENDBRANCH   1   2
BRANCH   1  12
ATOM     12  C   UNL     1     -55.614  23.051 -14.543  1.00  0.00     0.161 C 
BRANCH  12  13
ATOM     13  O   UNL     1     -56.434  22.026 -15.037  1.00  0.00    -0.396 OA
ATOM     14  H   UNL     1     -56.430  21.305 -14.353  1.00  0.00     0.210 HD
ENDBRANCH  12  13
ENDBRANCH   1  12
TORSDOF 5
ENDMDL
MODEL 4
REMARK VINA RESULT:    -4.186      9.312     10.068
REMARK INTER + INTRA:          -5.121
REMARK INTER:                  -5.097
REMARK INTRA:                  -0.023
REMARK UNBOUND:                -0.078
REMARK SMILES OCCc1ccc(O)c(O)c1
REMARK SMILES IDX 3 1 4 2 5 3 6 4 7 5 11 6 9 7 8 8 10 10 2 12 1 13
REMARK H PARENT 8 9 10 11 1 14
REMARK Flexibility Score: inf
ROOT
ATOM      1  C   UNL     1     -60.485  15.733 -17.826  1.00  0.00     0.064 C 
ENDROOT
BRANCH   1   2
ATOM      2  C   UNL     1     -59.603  16.875 -17.395  1.00  0.00    -0.042 A 
ATOM      3  C   UNL     1     -60.169  18.095 -16.996  1.00  0.00     0.008 A 
ATOM      4  C   UNL     1     -59.350  19.164 -16.622  1.00  0.00     0.050 A 
ATOM      5  C   UNL     1     -57.958  19.032 -16.652  1.00  0.00     0.157 A 
ATOM      6  C   UNL     1     -58.204  16.745 -17.436  1.00  0.00     0.054 A 
ATOM      7  C   UNL     1     -57.381  17.818 -17.063  1.00  0.00     0.157 A 
BRANCH   5   8
ATOM      8  O   UNL     1     -57.165  20.115 -16.274  1.00  0.00    -0.504 OA
ATOM      9  H   UNL     1     -56.174  20.019 -16.091  1.00  0.00     0.293 HD
ENDBRANCH   5   8
BRANCH   7  10
ATOM     10  O   UNL     1     -55.993  17.681 -17.100  1.00  0.00    -0.504 OA
ATOM     11  H   UNL     1     -55.553  16.782 -17.256  1.00  0.00     0.293 HD
ENDBRANCH   7  10
ENDBRANCH   1   2
BRANCH   1  12
ATOM     12  C   UNL     1     -61.802  16.242 -18.421  1.00  0.00     0.161 C 
BRANCH  12  13
ATOM     13  O   UNL     1     -62.840  16.160 -17.482  1.00  0.00    -0.396 OA
ATOM     14  H   UNL     1     -63.549  15.596 -17.890  1.00  0.00     0.210 HD
ENDBRANCH  12  13
ENDBRANCH   1  12
TORSDOF 5
ENDMDL
MODEL 5
REMARK VINA RESULT:    -4.143      1.458      1.572
REMARK INTER + INTRA:          -5.068
REMARK INTER:                  -4.977
REMARK INTRA:                  -0.091
REMARK UNBOUND:                -0.078
REMARK SMILES OCCc1ccc(O)c(O)c1
REMARK SMILES IDX 3 1 4 2 5 3 6 4 7 5 11 6 9 7 8 8 10 10 2 12 1 13
REMARK H PARENT 8 9 10 11 1 14
REMARK Flexibility Score: inf
ROOT
ATOM      1  C   UNL     1     -60.084  26.477 -13.492  1.00  0.00     0.064 C 
ENDROOT
BRANCH   1   2
ATOM      2  C   UNL     1     -59.046  26.591 -14.577  1.00  0.00    -0.042 A 
ATOM      3  C   UNL     1     -57.825  25.909 -14.462  1.00  0.00     0.008 A 
ATOM      4  C   UNL     1     -56.851  26.037 -15.456  1.00  0.00     0.050 A 
ATOM      5  C   UNL     1     -57.078  26.851 -16.569  1.00  0.00     0.157 A 
ATOM      6  C   UNL     1     -59.271  27.418 -15.690  1.00  0.00     0.054 A 
ATOM      7  C   UNL     1     -58.293  27.547 -16.688  1.00  0.00     0.157 A 
BRANCH   5   8
ATOM      8  O   UNL     1     -56.087  26.959 -17.545  1.00  0.00    -0.504 OA
ATOM      9  H   UNL     1     -55.825  26.177 -18.134  1.00  0.00     0.293 HD
ENDBRANCH   5   8
BRANCH   7  10
ATOM     10  O   UNL     1     -58.525  28.366 -17.793  1.00  0.00    -0.504 OA
ATOM     11  H   UNL     1     -57.819  28.508 -18.506  1.00  0.00     0.293 HD
ENDBRANCH   7  10
ENDBRANCH   1   2
BRANCH   1  12
ATOM     12  C   UNL     1     -59.433  26.347 -12.111  1.00  0.00     0.161 C 
BRANCH  12  13
ATOM     13  O   UNL     1     -59.737  25.108 -11.529  1.00  0.00    -0.396 OA
ATOM     14  H   UNL     1     -60.634  24.847 -11.868  1.00  0.00     0.210 HD
ENDBRANCH  12  13
ENDBRANCH   1  12
TORSDOF 5
ENDMDL
MODEL 6
REMARK VINA RESULT:    -4.096      9.535     10.126
REMARK INTER + INTRA:          -5.011
REMARK INTER:                  -4.933
REMARK INTRA:                  -0.078
REMARK UNBOUND:                -0.078
REMARK SMILES OCCc1ccc(O)c(O)c1
REMARK SMILES IDX 3 1 4 2 5 3 6 4 7 5 11 6 9 7 8 8 10 10 2 12 1 13
REMARK H PARENT 8 9 10 11 1 14
REMARK Flexibility Score: inf
ROOT
ATOM      1  C   UNL     1     -60.351  15.599 -17.503  1.00  0.00     0.064 C 
ENDROOT
BRANCH   1   2
ATOM      2  C   UNL     1     -59.196  16.557 -17.630  1.00  0.00    -0.042 A 
ATOM      3  C   UNL     1     -58.161  16.546 -16.682  1.00  0.00     0.008 A 
ATOM      4  C   UNL     1     -57.103  17.453 -16.784  1.00  0.00     0.050 A 
ATOM      5  C   UNL     1     -57.069  18.386 -17.825  1.00  0.00     0.157 A 
ATOM      6  C   UNL     1     -59.168  17.501 -18.670  1.00  0.00     0.054 A 
ATOM      7  C   UNL     1     -58.106  18.413 -18.773  1.00  0.00     0.157 A 
BRANCH   5   8
ATOM      8  O   UNL     1     -56.000  19.279 -17.902  1.00  0.00    -0.504 OA
ATOM      9  H   UNL     1     -56.059  20.146 -18.422  1.00  0.00     0.293 HD
ENDBRANCH   5   8
BRANCH   7  10
ATOM     10  O   UNL     1     -58.082  19.343 -19.811  1.00  0.00    -0.504 OA
ATOM     11  H   UNL     1     -57.647  19.134 -20.702  1.00  0.00     0.293 HD
ENDBRANCH   7  10
ENDBRANCH   1   2
BRANCH   1  12
ATOM     12  C   UNL     1     -61.593  16.127 -18.228  1.00  0.00     0.161 C 
BRANCH  12  13
ATOM     13  O   UNL     1     -62.683  16.223 -17.350  1.00  0.00    -0.396 OA
ATOM     14  H   UNL     1     -63.150  15.347 -17.380  1.00  0.00     0.210 HD
ENDBRANCH  12  13
ENDBRANCH   1  12
TORSDOF 5
ENDMDL
MODEL 7
REMARK VINA RESULT:    -3.903      8.791      9.469
REMARK INTER + INTRA:          -4.779
REMARK INTER:                  -4.712
REMARK INTRA:                  -0.068
REMARK UNBOUND:                -0.078
REMARK SMILES OCCc1ccc(O)c(O)c1
REMARK SMILES IDX 3 1 4 2 5 3 6 4 7 5 11 6 9 7 8 8 10 10 2 12 1 13
REMARK H PARENT 8 9 10 11 1 14
REMARK Flexibility Score: inf
ROOT
ATOM      1  C   UNL     1     -60.658  17.815 -17.136  1.00  0.00     0.064 C 
ENDROOT
BRANCH   1   2
ATOM      2  C   UNL     1     -59.269  18.145 -17.616  1.00  0.00    -0.042 A 
ATOM      3  C   UNL     1     -58.812  17.656 -18.849  1.00  0.00     0.008 A 
ATOM      4  C   UNL     1     -57.513  17.939 -19.282  1.00  0.00     0.050 A 
ATOM      5  C   UNL     1     -56.654  18.704 -18.487  1.00  0.00     0.157 A 
ATOM      6  C   UNL     1     -58.403  18.905 -16.813  1.00  0.00     0.054 A 
ATOM      7  C   UNL     1     -57.099  19.189 -17.246  1.00  0.00     0.157 A 
BRANCH   5   8
ATOM      8  O   UNL     1     -55.364  18.971 -18.945  1.00  0.00    -0.504 OA
ATOM      9  H   UNL     1     -54.577  19.059 -18.314  1.00  0.00     0.293 HD
ENDBRANCH   5   8
BRANCH   7  10
ATOM     10  O   UNL     1     -56.246  19.949 -16.445  1.00  0.00    -0.504 OA
ATOM     11  H   UNL     1     -55.669  20.686 -16.835  1.00  0.00     0.293 HD
ENDBRANCH   7  10
ENDBRANCH   1   2
BRANCH   1  12
ATOM     12  C   UNL     1     -61.179  16.528 -17.784  1.00  0.00     0.161 C 
BRANCH  12  13
ATOM     13  O   UNL     1     -62.503  16.274 -17.398  1.00  0.00    -0.396 OA
ATOM     14  H   UNL     1     -62.990  17.136 -17.468  1.00  0.00     0.210 HD
ENDBRANCH  12  13
ENDBRANCH   1  12
TORSDOF 5
ENDMDL
MODEL 8
REMARK VINA RESULT:    -3.852      1.887      4.497
REMARK INTER + INTRA:          -4.718
REMARK INTER:                  -4.625
REMARK INTRA:                  -0.093
REMARK UNBOUND:                -0.078
REMARK SMILES OCCc1ccc(O)c(O)c1
REMARK SMILES IDX 3 1 4 2 5 3 6 4 7 5 11 6 9 7 8 8 10 10 2 12 1 13
REMARK H PARENT 8 9 10 11 1 14
REMARK Flexibility Score: inf
ROOT
ATOM      1  C   UNL     1     -55.041  25.071 -16.143  1.00  0.00     0.064 C 
ENDROOT
BRANCH   1   2
ATOM      2  C   UNL     1     -56.359  25.766 -15.921  1.00  0.00    -0.042 A 
ATOM      3  C   UNL     1     -57.158  25.430 -14.818  1.00  0.00     0.008 A 
ATOM      4  C   UNL     1     -58.393  26.055 -14.626  1.00  0.00     0.050 A 
ATOM      5  C   UNL     1     -58.850  27.013 -15.536  1.00  0.00     0.157 A 
ATOM      6  C   UNL     1     -56.821  26.721 -16.841  1.00  0.00     0.054 A 
ATOM      7  C   UNL     1     -58.062  27.349 -16.650  1.00  0.00     0.157 A 
BRANCH   5   8
ATOM      8  O   UNL     1     -60.086  27.621 -15.318  1.00  0.00    -0.504 OA
ATOM      9  H   UNL     1     -60.683  27.363 -14.541  1.00  0.00     0.293 HD
ENDBRANCH   5   8
BRANCH   7  10
ATOM     10  O   UNL     1     -58.513  28.300 -17.565  1.00  0.00    -0.504 OA
ATOM     11  H   UNL     1     -59.501  28.476 -17.704  1.00  0.00     0.293 HD
ENDBRANCH   7  10
ENDBRANCH   1   2
BRANCH   1  12
ATOM     12  C   UNL     1     -54.270  24.907 -14.830  1.00  0.00     0.161 C 
BRANCH  12  13
ATOM     13  O   UNL     1     -53.398  25.986 -14.623  1.00  0.00    -0.396 OA
ATOM     14  H   UNL     1     -53.350  26.129 -13.641  1.00  0.00     0.210 HD
ENDBRANCH  12  13
ENDBRANCH   1  12
TORSDOF 5
ENDMDL
MODEL 9
REMARK VINA RESULT:    -3.811      0.932      2.094
REMARK INTER + INTRA:          -4.668
REMARK INTER:                  -4.593
REMARK INTRA:                  -0.075
REMARK UNBOUND:                -0.078
REMARK SMILES OCCc1ccc(O)c(O)c1
REMARK SMILES IDX 3 1 4 2 5 3 6 4 7 5 11 6 9 7 8 8 10 10 2 12 1 13
REMARK H PARENT 8 9 10 11 1 14
REMARK Flexibility Score: inf
ROOT
ATOM      1  C   UNL     1     -60.088  26.492 -13.678  1.00  0.00     0.064 C 
ENDROOT
BRANCH   1   2
ATOM      2  C   UNL     1     -58.989  26.613 -14.700  1.00  0.00    -0.042 A 
ATOM      3  C   UNL     1     -59.063  27.590 -15.705  1.00  0.00     0.008 A 
ATOM      4  C   UNL     1     -58.057  27.685 -16.671  1.00  0.00     0.050 A 
ATOM      5  C   UNL     1     -56.972  26.802 -16.651  1.00  0.00     0.157 A 
ATOM      6  C   UNL     1     -57.905  25.720 -14.687  1.00  0.00     0.054 A 
ATOM      7  C   UNL     1     -56.895  25.813 -15.656  1.00  0.00     0.157 A 
BRANCH   5   8
ATOM      8  O   UNL     1     -55.983  26.921 -17.628  1.00  0.00    -0.504 OA
ATOM      9  H   UNL     1     -55.389  27.739 -17.694  1.00  0.00     0.293 HD
ENDBRANCH   5   8
BRANCH   7  10
ATOM     10  O   UNL     1     -55.819  24.926 -15.634  1.00  0.00    -0.504 OA
ATOM     11  H   UNL     1     -55.931  23.964 -15.337  1.00  0.00     0.293 HD
ENDBRANCH   7  10
ENDBRANCH   1   2
BRANCH   1  12
ATOM     12  C   UNL     1     -61.006  27.718 -13.700  1.00  0.00     0.161 C 
BRANCH  12  13
ATOM     13  O   UNL     1     -62.287  27.393 -13.230  1.00  0.00    -0.396 OA
ATOM     14  H   UNL     1     -62.866  28.178 -13.417  1.00  0.00     0.210 HD
ENDBRANCH  12  13
ENDBRANCH   1  12
TORSDOF 5
ENDMDL
