MODEL 1
REMARK VINA RESULT:    -4.868      0.000      0.000
REMARK INTER + INTRA:          -4.868
REMARK INTER:                  -4.868
REMARK INTRA:                   0.000
REMARK UNBOUND:                 0.000
REMARK SMILES CC1=CC[C@]2(C)CCCC(C)(C)[C@@]23C[C@@H]13
REMARK SMILES IDX 1 1 2 2 3 3 4 4 5 5 7 6 8 7 9 8 10 9 13 10 15 11 14 12 11 13
REMARK SMILES IDX 12 14 6 15
REMARK H PARENT
REMARK Flexibility Score: inf
ROOT
ATOM      1  C   UNL     1     140.525 136.454 135.128  1.00  0.00     0.039 C 
ATOM      2  C   UNL     1     139.234 137.067 135.591  1.00  0.00    -0.074 C 
ATOM      3  C   UNL     1     138.479 136.431 136.503  1.00  0.00    -0.027 C 
ATOM      4  C   UNL     1     137.233 137.070 137.057  1.00  0.00     0.034 C 
ATOM      5  C   UNL     1     137.440 138.595 137.272  1.00  0.00    -0.022 C 
ATOM      6  C   UNL     1     136.145 139.212 137.883  1.00  0.00     0.008 C 
ATOM      7  C   UNL     1     135.066 139.546 136.870  1.00  0.00     0.001 C 
ATOM      8  C   UNL     1     135.610 140.559 135.870  1.00  0.00     0.007 C 
ATOM      9  C   UNL     1     136.718 139.958 134.974  1.00  0.00    -0.029 C 
ATOM     10  C   UNL     1     137.842 139.261 135.872  1.00  0.00    -0.012 C 
ATOM     11  C   UNL     1     138.786 138.384 135.001  1.00  0.00     0.022 C 
ATOM     12  C   UNL     1     139.340 139.627 135.667  1.00  0.00     0.017 C 
ATOM     13  C   UNL     1     136.058 138.947 133.990  1.00  0.00     0.012 C 
ATOM     14  C   UNL     1     137.272 141.128 134.123  1.00  0.00     0.012 C 
ATOM     15  C   UNL     1     138.526 138.789 138.373  1.00  0.00     0.012 C 
ENDROOT
TORSDOF 0
ENDMDL
MODEL 2
REMARK VINA RESULT:    -4.853      3.230      4.888
REMARK INTER + INTRA:          -4.853
REMARK INTER:                  -4.853
REMARK INTRA:                   0.000
REMARK UNBOUND:                 0.000
REMARK SMILES CC1=CC[C@]2(C)CCCC(C)(C)[C@@]23C[C@@H]13
REMARK SMILES IDX 1 1 2 2 3 3 4 4 5 5 7 6 8 7 9 8 10 9 13 10 15 11 14 12 11 13
REMARK SMILES IDX 12 14 6 15
REMARK H PARENT
REMARK Flexibility Score: inf
ROOT
ATOM      1  C   UNL     1     136.113 140.519 135.151  1.00  0.00     0.039 C 
ATOM      2  C   UNL     1     135.506 139.213 135.577  1.00  0.00    -0.074 C 
ATOM      3  C   UNL     1     136.137 138.442 136.478  1.00  0.00    -0.027 C 
ATOM      4  C   UNL     1     135.502 137.180 136.996  1.00  0.00     0.034 C 
ATOM      5  C   UNL     1     133.974 137.370 137.199  1.00  0.00    -0.022 C 
ATOM      6  C   UNL     1     133.360 136.057 137.774  1.00  0.00     0.008 C 
ATOM      7  C   UNL     1     133.045 134.999 136.732  1.00  0.00     0.001 C 
ATOM      8  C   UNL     1     132.038 135.558 135.735  1.00  0.00     0.007 C 
ATOM      9  C   UNL     1     132.640 136.692 134.871  1.00  0.00    -0.029 C 
ATOM     10  C   UNL     1     133.319 137.799 135.802  1.00  0.00    -0.012 C 
ATOM     11  C   UNL     1     134.198 138.770 134.963  1.00  0.00     0.022 C 
ATOM     12  C   UNL     1     132.944 139.299 135.628  1.00  0.00     0.017 C 
ATOM     13  C   UNL     1     133.667 136.062 133.883  1.00  0.00     0.012 C 
ATOM     14  C   UNL     1     131.475 137.257 134.021  1.00  0.00     0.012 C 
ATOM     15  C   UNL     1     133.760 138.429 138.323  1.00  0.00     0.012 C 
ENDROOT
TORSDOF 0
ENDMDL
MODEL 3
REMARK VINA RESULT:    -4.843      1.500      3.484
REMARK INTER + INTRA:          -4.843
REMARK INTER:                  -4.843
REMARK INTRA:                   0.000
REMARK UNBOUND:                 0.000
REMARK SMILES CC1=CC[C@]2(C)CCCC(C)(C)[C@@]23C[C@@H]13
REMARK SMILES IDX 1 1 2 2 3 3 4 4 5 5 7 6 8 7 9 8 10 9 13 10 15 11 14 12 11 13
REMARK SMILES IDX 12 14 6 15
REMARK H PARENT
REMARK Flexibility Score: inf
ROOT
ATOM      1  C   UNL     1     139.002 138.471 138.396  1.00  0.00     0.039 C 
ATOM      2  C   UNL     1     138.317 138.977 137.159  1.00  0.00    -0.074 C 
ATOM      3  C   UNL     1     139.027 139.611 136.210  1.00  0.00    -0.027 C 
ATOM      4  C   UNL     1     138.384 140.038 134.918  1.00  0.00     0.034 C 
ATOM      5  C   UNL     1     137.369 138.971 134.424  1.00  0.00    -0.022 C 
ATOM      6  C   UNL     1     136.755 139.430 133.066  1.00  0.00     0.008 C 
ATOM      7  C   UNL     1     135.600 140.406 133.192  1.00  0.00     0.001 C 
ATOM      8  C   UNL     1     134.476 139.755 133.989  1.00  0.00     0.007 C 
ATOM      9  C   UNL     1     134.866 139.524 135.468  1.00  0.00    -0.029 C 
ATOM     10  C   UNL     1     136.262 138.750 135.560  1.00  0.00    -0.012 C 
ATOM     11  C   UNL     1     136.825 138.789 137.009  1.00  0.00     0.022 C 
ATOM     12  C   UNL     1     136.383 137.463 136.425  1.00  0.00     0.017 C 
ATOM     13  C   UNL     1     134.926 140.907 136.181  1.00  0.00     0.012 C 
ATOM     14  C   UNL     1     133.699 138.730 136.106  1.00  0.00     0.012 C 
ATOM     15  C   UNL     1     138.157 137.671 134.080  1.00  0.00     0.012 C 
ENDROOT
TORSDOF 0
ENDMDL
MODEL 4
REMARK VINA RESULT:    -4.842      2.347      4.718
REMARK INTER + INTRA:          -4.842
REMARK INTER:                  -4.842
REMARK INTRA:                   0.000
REMARK UNBOUND:                 0.000
REMARK SMILES CC1=CC[C@]2(C)CCCC(C)(C)[C@@]23C[C@@H]13
REMARK SMILES IDX 1 1 2 2 3 3 4 4 5 5 7 6 8 7 9 8 10 9 13 10 15 11 14 12 11 13
REMARK SMILES IDX 12 14 6 15
REMARK H PARENT
REMARK Flexibility Score: inf
ROOT
ATOM      1  C   UNL     1     138.487 133.640 138.378  1.00  0.00     0.039 C 
ATOM      2  C   UNL     1     138.999 134.317 137.139  1.00  0.00    -0.074 C 
ATOM      3  C   UNL     1     139.645 133.603 136.202  1.00  0.00    -0.027 C 
ATOM      4  C   UNL     1     140.079 134.237 134.907  1.00  0.00     0.034 C 
ATOM      5  C   UNL     1     139.009 135.241 134.396  1.00  0.00    -0.022 C 
ATOM      6  C   UNL     1     139.475 135.846 133.036  1.00  0.00     0.008 C 
ATOM      7  C   UNL     1     140.443 137.008 133.160  1.00  0.00     0.001 C 
ATOM      8  C   UNL     1     139.779 138.135 133.941  1.00  0.00     0.007 C 
ATOM      9  C   UNL     1     139.539 137.757 135.422  1.00  0.00    -0.029 C 
ATOM     10  C   UNL     1     138.773 136.357 135.520  1.00  0.00    -0.012 C 
ATOM     11  C   UNL     1     138.803 135.807 136.974  1.00  0.00     0.022 C 
ATOM     12  C   UNL     1     137.480 136.236 136.376  1.00  0.00     0.017 C 
ATOM     13  C   UNL     1     140.916 137.712 136.147  1.00  0.00     0.012 C 
ATOM     14  C   UNL     1     138.733 138.925 136.044  1.00  0.00     0.012 C 
ATOM     15  C   UNL     1     137.717 134.442 134.049  1.00  0.00     0.012 C 
ENDROOT
TORSDOF 0
ENDMDL
MODEL 5
REMARK VINA RESULT:    -4.839      4.466      6.822
REMARK INTER + INTRA:          -4.839
REMARK INTER:                  -4.839
REMARK INTRA:                   0.000
REMARK UNBOUND:                 0.000
REMARK SMILES CC1=CC[C@]2(C)CCCC(C)(C)[C@@]23C[C@@H]13
REMARK SMILES IDX 1 1 2 2 3 3 4 4 5 5 7 6 8 7 9 8 10 9 13 10 15 11 14 12 11 13
REMARK SMILES IDX 12 14 6 15
REMARK H PARENT
REMARK Flexibility Score: inf
ROOT
ATOM      1  C   UNL     1     132.205 136.168 135.130  1.00  0.00     0.039 C 
ATOM      2  C   UNL     1     133.504 135.542 135.550  1.00  0.00    -0.074 C 
ATOM      3  C   UNL     1     134.282 136.155 136.458  1.00  0.00    -0.027 C 
ATOM      4  C   UNL     1     135.538 135.501 136.969  1.00  0.00     0.034 C 
ATOM      5  C   UNL     1     135.330 133.973 137.156  1.00  0.00    -0.022 C 
ATOM      6  C   UNL     1     136.637 133.339 137.724  1.00  0.00     0.008 C 
ATOM      7  C   UNL     1     137.692 133.023 136.679  1.00  0.00     0.001 C 
ATOM      8  C   UNL     1     137.121 132.033 135.671  1.00  0.00     0.007 C 
ATOM      9  C   UNL     1     135.995 132.657 134.813  1.00  0.00    -0.029 C 
ATOM     10  C   UNL     1     134.894 133.338 135.752  1.00  0.00    -0.012 C 
ATOM     11  C   UNL     1     133.934 134.236 134.922  1.00  0.00     0.022 C 
ATOM     12  C   UNL     1     133.391 132.981 135.573  1.00  0.00     0.017 C 
ATOM     13  C   UNL     1     136.635 133.687 133.836  1.00  0.00     0.012 C 
ATOM     14  C   UNL     1     135.417 131.507 133.951  1.00  0.00     0.012 C 
ATOM     15  C   UNL     1     134.270 133.759 138.277  1.00  0.00     0.012 C 
ENDROOT
TORSDOF 0
ENDMDL
MODEL 6
REMARK VINA RESULT:    -4.826      4.096      6.490
REMARK INTER + INTRA:          -4.826
REMARK INTER:                  -4.826
REMARK INTRA:                   0.000
REMARK UNBOUND:                 0.000
REMARK SMILES CC1=CC[C@]2(C)CCCC(C)(C)[C@@]23C[C@@H]13
REMARK SMILES IDX 1 1 2 2 3 3 4 4 5 5 7 6 8 7 9 8 10 9 13 10 15 11 14 12 11 13
REMARK SMILES IDX 12 14 6 15
REMARK H PARENT
REMARK Flexibility Score: inf
ROOT
ATOM      1  C   UNL     1     133.437 139.790 135.781  1.00  0.00     0.039 C 
ATOM      2  C   UNL     1     133.158 138.321 135.637  1.00  0.00    -0.074 C 
ATOM      3  C   UNL     1     132.239 137.896 134.753  1.00  0.00    -0.027 C 
ATOM      4  C   UNL     1     132.014 136.426 134.519  1.00  0.00     0.034 C 
ATOM      5  C   UNL     1     133.357 135.647 134.547  1.00  0.00    -0.022 C 
ATOM      6  C   UNL     1     133.087 134.139 134.260  1.00  0.00     0.008 C 
ATOM      7  C   UNL     1     132.646 133.334 135.470  1.00  0.00     0.001 C 
ATOM      8  C   UNL     1     133.732 133.395 136.537  1.00  0.00     0.007 C 
ATOM      9  C   UNL     1     133.888 134.814 137.133  1.00  0.00    -0.029 C 
ATOM     10  C   UNL     1     134.063 135.891 135.964  1.00  0.00    -0.012 C 
ATOM     11  C   UNL     1     133.901 137.337 136.511  1.00  0.00     0.022 C 
ATOM     12  C   UNL     1     135.254 136.890 135.998  1.00  0.00     0.017 C 
ATOM     13  C   UNL     1     132.639 135.117 138.012  1.00  0.00     0.012 C 
ATOM     14  C   UNL     1     135.111 134.756 138.081  1.00  0.00     0.012 C 
ATOM     15  C   UNL     1     134.224 136.127 133.344  1.00  0.00     0.012 C 
ENDROOT
TORSDOF 0
ENDMDL
MODEL 7
REMARK VINA RESULT:    -4.814      3.715      6.104
REMARK INTER + INTRA:          -4.814
REMARK INTER:                  -4.814
REMARK INTRA:                   0.000
REMARK UNBOUND:                 0.000
REMARK SMILES CC1=CC[C@]2(C)CCCC(C)(C)[C@@]23C[C@@H]13
REMARK SMILES IDX 1 1 2 2 3 3 4 4 5 5 7 6 8 7 9 8 10 9 13 10 15 11 14 12 11 13
REMARK SMILES IDX 12 14 6 15
REMARK H PARENT
REMARK Flexibility Score: inf
ROOT
ATOM      1  C   UNL     1     134.285 138.984 138.437  1.00  0.00     0.039 C 
ATOM      2  C   UNL     1     133.734 138.342 137.195  1.00  0.00    -0.074 C 
ATOM      3  C   UNL     1     133.076 139.086 136.291  1.00  0.00    -0.027 C 
ATOM      4  C   UNL     1     132.603 138.487 134.993  1.00  0.00     0.034 C 
ATOM      5  C   UNL     1     133.647 137.483 134.433  1.00  0.00    -0.022 C 
ATOM      6  C   UNL     1     133.142 136.916 133.071  1.00  0.00     0.008 C 
ATOM      7  C   UNL     1     132.162 135.762 133.192  1.00  0.00     0.001 C 
ATOM      8  C   UNL     1     132.830 134.609 133.930  1.00  0.00     0.007 C 
ATOM      9  C   UNL     1     133.111 134.950 135.413  1.00  0.00    -0.029 C 
ATOM     10  C   UNL     1     133.897 136.338 135.525  1.00  0.00    -0.012 C 
ATOM     11  C   UNL     1     133.908 136.855 136.992  1.00  0.00     0.022 C 
ATOM     12  C   UNL     1     135.211 136.424 136.352  1.00  0.00     0.017 C 
ATOM     13  C   UNL     1     131.752 134.995 136.172  1.00  0.00     0.012 C 
ATOM     14  C   UNL     1     133.917 133.759 135.988  1.00  0.00     0.012 C 
ATOM     15  C   UNL     1     134.941 138.274 134.073  1.00  0.00     0.012 C 
ENDROOT
TORSDOF 0
ENDMDL
MODEL 8
REMARK VINA RESULT:    -4.801      1.448      4.351
REMARK INTER + INTRA:          -4.801
REMARK INTER:                  -4.801
REMARK INTRA:                   0.000
REMARK UNBOUND:                 0.000
REMARK SMILES CC1=CC[C@]2(C)CCCC(C)(C)[C@@]23C[C@@H]13
REMARK SMILES IDX 1 1 2 2 3 3 4 4 5 5 7 6 8 7 9 8 10 9 13 10 15 11 14 12 11 13
REMARK SMILES IDX 12 14 6 15
REMARK H PARENT
REMARK Flexibility Score: inf
ROOT
ATOM      1  C   UNL     1     135.467 139.975 133.210  1.00  0.00     0.039 C 
ATOM      2  C   UNL     1     136.745 139.603 133.906  1.00  0.00    -0.074 C 
ATOM      3  C   UNL     1     137.386 140.511 134.661  1.00  0.00    -0.027 C 
ATOM      4  C   UNL     1     138.612 140.134 135.448  1.00  0.00     0.034 C 
ATOM      5  C   UNL     1     138.468 138.711 136.053  1.00  0.00    -0.022 C 
ATOM      6  C   UNL     1     139.738 138.374 136.893  1.00  0.00     0.008 C 
ATOM      7  C   UNL     1     140.915 137.862 136.082  1.00  0.00     0.001 C 
ATOM      8  C   UNL     1     140.510 136.583 135.360  1.00  0.00     0.007 C 
ATOM      9  C   UNL     1     139.451 136.843 134.262  1.00  0.00    -0.029 C 
ATOM     10  C   UNL     1     138.221 137.669 134.862  1.00  0.00    -0.012 C 
ATOM     11  C   UNL     1     137.308 138.213 133.726  1.00  0.00     0.022 C 
ATOM     12  C   UNL     1     136.766 137.154 134.664  1.00  0.00     0.017 C 
ATOM     13  C   UNL     1     140.137 137.602 133.088  1.00  0.00     0.012 C 
ATOM     14  C   UNL     1     139.032 135.452 133.725  1.00  0.00     0.012 C 
ATOM     15  C   UNL     1     137.306 138.737 137.091  1.00  0.00     0.012 C 
ENDROOT
TORSDOF 0
ENDMDL
MODEL 9
REMARK VINA RESULT:    -4.769      4.161      6.830
REMARK INTER + INTRA:          -4.769
REMARK INTER:                  -4.769
REMARK INTRA:                   0.000
REMARK UNBOUND:                 0.000
REMARK SMILES CC1=CC[C@]2(C)CCCC(C)(C)[C@@]23C[C@@H]13
REMARK SMILES IDX 1 1 2 2 3 3 4 4 5 5 7 6 8 7 9 8 10 9 13 10 15 11 14 12 11 13
REMARK SMILES IDX 12 14 6 15
REMARK H PARENT
REMARK Flexibility Score: inf
ROOT
ATOM      1  C   UNL     1     132.701 134.154 136.464  1.00  0.00     0.039 C 
ATOM      2  C   UNL     1     134.054 133.613 136.101  1.00  0.00    -0.074 C 
ATOM      3  C   UNL     1     134.156 132.575 135.254  1.00  0.00    -0.027 C 
ATOM      4  C   UNL     1     135.502 132.079 134.796  1.00  0.00     0.034 C 
ATOM      5  C   UNL     1     136.477 133.264 134.557  1.00  0.00    -0.022 C 
ATOM      6  C   UNL     1     137.844 132.715 134.045  1.00  0.00     0.008 C 
ATOM      7  C   UNL     1     138.777 132.226 135.138  1.00  0.00     0.001 C 
ATOM      8  C   UNL     1     139.089 133.377 136.086  1.00  0.00     0.007 C 
ATOM      9  C   UNL     1     137.848 133.820 136.896  1.00  0.00    -0.029 C 
ATOM     10  C   UNL     1     136.616 134.099 135.917  1.00  0.00    -0.012 C 
ATOM     11  C   UNL     1     135.288 134.231 136.716  1.00  0.00     0.022 C 
ATOM     12  C   UNL     1     135.843 135.446 136.002  1.00  0.00     0.017 C 
ATOM     13  C   UNL     1     137.518 132.708 137.935  1.00  0.00     0.012 C 
ATOM     14  C   UNL     1     138.275 135.078 137.693  1.00  0.00     0.012 C 
ATOM     15  C   UNL     1     135.928 134.116 133.372  1.00  0.00     0.012 C 
ENDROOT
TORSDOF 0
ENDMDL
