MODEL 1
REMARK VINA RESULT:    -4.677      0.000      0.000
REMARK INTER + INTRA:          -7.194
REMARK INTER:                  -6.590
REMARK INTRA:                  -0.604
REMARK UNBOUND:                -0.604
REMARK SMILES C=CCCCCCCC(=O)[O-]
REMARK SMILES IDX 6 1 7 2 8 3 9 4 10 5 11 6 5 7 4 8 3 9 2 10 1 11
REMARK H PARENT
REMARK Flexibility Score: inf
ROOT
ATOM      1  C   UNL     1      42.528  40.633  14.981  1.00  0.00     0.000 C 
ENDROOT
BRANCH   1   2
ATOM      2  C   UNL     1      41.051  40.968  15.223  1.00  0.00     0.006 C 
BRANCH   2   3
ATOM      3  C   UNL     1      40.676  40.767  16.695  1.00  0.00     0.053 C 
BRANCH   3   4
ATOM      4  C   UNL     1      40.773  42.061  17.441  1.00  0.00     0.041 C 
ATOM      5  O   UNL     1      40.978  42.062  18.683  1.00  0.00    -0.550 OA
ATOM      6  O   UNL     1      40.588  43.263  16.772  1.00  0.00    -0.550 OA
ENDBRANCH   3   4
ENDBRANCH   2   3
ENDBRANCH   1   2
BRANCH   1   7
ATOM      7  C   UNL     1      42.767  39.120  15.043  1.00  0.00     0.000 C 
BRANCH   7   8
ATOM      8  C   UNL     1      42.810  38.511  13.633  1.00  0.00     0.004 C 
BRANCH   8   9
ATOM      9  C   UNL     1      41.995  37.212  13.539  1.00  0.00     0.027 C 
BRANCH   9  10
ATOM     10  C   UNL     1      40.511  37.465  13.530  1.00  0.00    -0.035 C 
ATOM     11  C   UNL     1      39.964  38.422  12.775  1.00  0.00     0.004 C 
ENDBRANCH   9  10
ENDBRANCH   8   9
ENDBRANCH   7   8
ENDBRANCH   1   7
TORSDOF 7
ENDMDL
MODEL 2
REMARK VINA RESULT:    -4.643      1.716      2.507
REMARK INTER + INTRA:          -7.147
REMARK INTER:                  -6.739
REMARK INTRA:                  -0.407
REMARK UNBOUND:                -0.604
REMARK SMILES C=CCCCCCCC(=O)[O-]
REMARK SMILES IDX 6 1 7 2 8 3 9 4 10 5 11 6 5 7 4 8 3 9 2 10 1 11
REMARK H PARENT
REMARK Flexibility Score: inf
ROOT
ATOM      1  C   UNL     1      40.562  40.672  16.762  1.00  0.00     0.000 C 
ENDROOT
BRANCH   1   2
ATOM      2  C   UNL     1      41.808  40.607  17.654  1.00  0.00     0.006 C 
BRANCH   2   3
ATOM      3  C   UNL     1      41.912  41.850  18.543  1.00  0.00     0.053 C 
BRANCH   3   4
ATOM      4  C   UNL     1      41.805  41.472  19.987  1.00  0.00     0.041 C 
ATOM      5  O   UNL     1      42.034  40.289  20.350  1.00  0.00    -0.550 OA
ATOM      6  O   UNL     1      41.406  42.415  20.924  1.00  0.00    -0.550 OA
ENDBRANCH   3   4
ENDBRANCH   2   3
ENDBRANCH   1   2
BRANCH   1   7
ATOM      7  C   UNL     1      40.932  40.497  15.285  1.00  0.00     0.000 C 
BRANCH   7   8
ATOM      8  C   UNL     1      42.319  39.854  15.138  1.00  0.00     0.004 C 
BRANCH   8   9
ATOM      9  C   UNL     1      42.334  38.747  14.073  1.00  0.00     0.027 C 
BRANCH   9  10
ATOM     10  C   UNL     1      40.954  38.420  13.566  1.00  0.00    -0.035 C 
ATOM     11  C   UNL     1      40.550  37.159  13.386  1.00  0.00     0.004 C 
ENDBRANCH   9  10
ENDBRANCH   8   9
ENDBRANCH   7   8
ENDBRANCH   1   7
TORSDOF 7
ENDMDL
MODEL 3
REMARK VINA RESULT:    -4.612      1.286      1.615
REMARK INTER + INTRA:          -7.103
REMARK INTER:                  -6.598
REMARK INTRA:                  -0.506
REMARK UNBOUND:                -0.604
REMARK SMILES C=CCCCCCCC(=O)[O-]
REMARK SMILES IDX 6 1 7 2 8 3 9 4 10 5 11 6 5 7 4 8 3 9 2 10 1 11
REMARK H PARENT
REMARK Flexibility Score: inf
ROOT
ATOM      1  C   UNL     1      41.856  40.754  15.325  1.00  0.00     0.000 C 
ENDROOT
BRANCH   1   2
ATOM      2  C   UNL     1      40.709  40.642  16.337  1.00  0.00     0.006 C 
BRANCH   2   3
ATOM      3  C   UNL     1      40.872  41.662  17.469  1.00  0.00     0.053 C 
BRANCH   3   4
ATOM      4  C   UNL     1      41.744  41.108  18.551  1.00  0.00     0.041 C 
ATOM      5  O   UNL     1      42.871  41.619  18.780  1.00  0.00    -0.550 OA
ATOM      6  O   UNL     1      41.331  39.997  19.274  1.00  0.00    -0.550 OA
ENDBRANCH   3   4
ENDBRANCH   2   3
ENDBRANCH   1   2
BRANCH   1   7
ATOM      7  C   UNL     1      42.698  39.474  15.303  1.00  0.00     0.000 C 
BRANCH   7   8
ATOM      8  C   UNL     1      42.758  38.880  13.888  1.00  0.00     0.004 C 
BRANCH   8   9
ATOM      9  C   UNL     1      42.272  37.423  13.851  1.00  0.00     0.027 C 
BRANCH   9  10
ATOM     10  C   UNL     1      40.830  37.309  13.434  1.00  0.00    -0.035 C 
ATOM     11  C   UNL     1      40.132  38.369  13.016  1.00  0.00     0.004 C 
ENDBRANCH   9  10
ENDBRANCH   8   9
ENDBRANCH   7   8
ENDBRANCH   1   7
TORSDOF 7
ENDMDL
MODEL 4
REMARK VINA RESULT:    -4.594      3.297      5.575
REMARK INTER + INTRA:          -7.078
REMARK INTER:                  -6.712
REMARK INTRA:                  -0.367
REMARK UNBOUND:                -0.604
REMARK SMILES C=CCCCCCCC(=O)[O-]
REMARK SMILES IDX 6 1 7 2 8 3 9 4 10 5 11 6 5 7 4 8 3 9 2 10 1 11
REMARK H PARENT
REMARK Flexibility Score: inf
ROOT
ATOM      1  C   UNL     1      42.388  40.399  15.675  1.00  0.00     0.000 C 
ENDROOT
BRANCH   1   2
ATOM      2  C   UNL     1      42.049  39.314  14.645  1.00  0.00     0.006 C 
BRANCH   2   3
ATOM      3  C   UNL     1      40.605  39.456  14.153  1.00  0.00     0.053 C 
BRANCH   3   4
ATOM      4  C   UNL     1      40.263  38.350  13.207  1.00  0.00     0.041 C 
ATOM      5  O   UNL     1      39.409  38.532  12.300  1.00  0.00    -0.550 OA
ATOM      6  O   UNL     1      40.851  37.101  13.356  1.00  0.00    -0.550 OA
ENDBRANCH   3   4
ENDBRANCH   2   3
ENDBRANCH   1   2
BRANCH   1   7
ATOM      7  C   UNL     1      41.149  41.226  16.034  1.00  0.00     0.000 C 
BRANCH   7   8
ATOM      8  C   UNL     1      40.734  40.990  17.494  1.00  0.00     0.004 C 
BRANCH   8   9
ATOM      9  C   UNL     1      41.392  41.995  18.451  1.00  0.00     0.027 C 
BRANCH   9  10
ATOM     10  C   UNL     1      42.148  41.318  19.564  1.00  0.00    -0.035 C 
ATOM     11  C   UNL     1      41.936  40.038  19.882  1.00  0.00     0.004 C 
ENDBRANCH   9  10
ENDBRANCH   8   9
ENDBRANCH   7   8
ENDBRANCH   1   7
TORSDOF 7
ENDMDL
MODEL 5
REMARK VINA RESULT:    -4.505      3.198      5.245
REMARK INTER + INTRA:          -6.953
REMARK INTER:                  -6.434
REMARK INTRA:                  -0.518
REMARK UNBOUND:                -0.604
REMARK SMILES C=CCCCCCCC(=O)[O-]
REMARK SMILES IDX 6 1 7 2 8 3 9 4 10 5 11 6 5 7 4 8 3 9 2 10 1 11
REMARK H PARENT
REMARK Flexibility Score: inf
ROOT
ATOM      1  C   UNL     1      43.134  40.784  15.047  1.00  0.00     0.000 C 
ENDROOT
BRANCH   1   2
ATOM      2  C   UNL     1      42.957  39.266  15.177  1.00  0.00     0.006 C 
BRANCH   2   3
ATOM      3  C   UNL     1      43.104  38.576  13.817  1.00  0.00     0.053 C 
BRANCH   3   4
ATOM      4  C   UNL     1      41.917  37.710  13.539  1.00  0.00     0.041 C 
ATOM      5  O   UNL     1      42.072  36.489  13.275  1.00  0.00    -0.550 OA
ATOM      6  O   UNL     1      40.642  38.261  13.523  1.00  0.00    -0.550 OA
ENDBRANCH   3   4
ENDBRANCH   2   3
ENDBRANCH   1   2
BRANCH   1   7
ATOM      7  C   UNL     1      41.813  41.517  15.304  1.00  0.00     0.000 C 
BRANCH   7   8
ATOM      8  C   UNL     1      40.853  40.648  16.130  1.00  0.00     0.004 C 
BRANCH   8   9
ATOM      9  C   UNL     1      40.734  41.138  17.582  1.00  0.00     0.027 C 
BRANCH   9  10
ATOM     10  C   UNL     1      41.866  40.651  18.447  1.00  0.00    -0.035 C 
ATOM     11  C   UNL     1      41.654  40.143  19.665  1.00  0.00     0.004 C 
ENDBRANCH   9  10
ENDBRANCH   8   9
ENDBRANCH   7   8
ENDBRANCH   1   7
TORSDOF 7
ENDMDL
MODEL 6
REMARK VINA RESULT:    -4.308     10.146     10.936
REMARK INTER + INTRA:          -6.674
REMARK INTER:                  -6.411
REMARK INTRA:                  -0.263
REMARK UNBOUND:                -0.604
REMARK SMILES C=CCCCCCCC(=O)[O-]
REMARK SMILES IDX 6 1 7 2 8 3 9 4 10 5 11 6 5 7 4 8 3 9 2 10 1 11
REMARK H PARENT
REMARK Flexibility Score: inf
ROOT
ATOM      1  C   UNL     1      38.337  30.492  14.530  1.00  0.00     0.000 C 
ENDROOT
BRANCH   1   2
ATOM      2  C   UNL     1      37.444  31.245  13.536  1.00  0.00     0.006 C 
BRANCH   2   3
ATOM      3  C   UNL     1      36.225  31.850  14.240  1.00  0.00     0.053 C 
BRANCH   3   4
ATOM      4  C   UNL     1      34.966  31.459  13.534  1.00  0.00     0.041 C 
ATOM      5  O   UNL     1      34.218  32.341  13.037  1.00  0.00    -0.550 OA
ATOM      6  O   UNL     1      34.592  30.123  13.468  1.00  0.00    -0.550 OA
ENDBRANCH   3   4
ENDBRANCH   2   3
ENDBRANCH   1   2
BRANCH   1   7
ATOM      7  C   UNL     1      39.116  29.371  13.831  1.00  0.00     0.000 C 
BRANCH   7   8
ATOM      8  C   UNL     1      40.591  29.379  14.257  1.00  0.00     0.004 C 
BRANCH   8   9
ATOM      9  C   UNL     1      40.808  30.135  15.577  1.00  0.00     0.027 C 
BRANCH   9  10
ATOM     10  C   UNL     1      41.867  29.497  16.436  1.00  0.00    -0.035 C 
ATOM     11  C   UNL     1      42.282  30.059  17.576  1.00  0.00     0.004 C 
ENDBRANCH   9  10
ENDBRANCH   8   9
ENDBRANCH   7   8
ENDBRANCH   1   7
TORSDOF 7
ENDMDL
MODEL 7
REMARK VINA RESULT:    -4.244      9.877     11.062
REMARK INTER + INTRA:          -6.585
REMARK INTER:                  -6.306
REMARK INTRA:                  -0.279
REMARK UNBOUND:                -0.604
REMARK SMILES C=CCCCCCCC(=O)[O-]
REMARK SMILES IDX 6 1 7 2 8 3 9 4 10 5 11 6 5 7 4 8 3 9 2 10 1 11
REMARK H PARENT
REMARK Flexibility Score: inf
ROOT
ATOM      1  C   UNL     1      37.378  31.199  13.953  1.00  0.00     0.000 C 
ENDROOT
BRANCH   1   2
ATOM      2  C   UNL     1      35.961  31.107  14.531  1.00  0.00     0.006 C 
BRANCH   2   3
ATOM      3  C   UNL     1      35.047  30.282  13.618  1.00  0.00     0.053 C 
BRANCH   3   4
ATOM      4  C   UNL     1      34.106  31.176  12.875  1.00  0.00     0.041 C 
ATOM      5  O   UNL     1      33.224  30.683  12.123  1.00  0.00    -0.550 OA
ATOM      6  O   UNL     1      34.232  32.555  12.975  1.00  0.00    -0.550 OA
ENDBRANCH   3   4
ENDBRANCH   2   3
ENDBRANCH   1   2
BRANCH   1   7
ATOM      7  C   UNL     1      38.419  30.708  14.966  1.00  0.00     0.000 C 
BRANCH   7   8
ATOM      8  C   UNL     1      39.477  29.827  14.285  1.00  0.00     0.004 C 
BRANCH   8   9
ATOM      9  C   UNL     1      40.789  29.777  15.083  1.00  0.00     0.027 C 
BRANCH   9  10
ATOM     10  C   UNL     1      40.737  30.625  16.326  1.00  0.00    -0.035 C 
ATOM     11  C   UNL     1      41.832  30.891  17.044  1.00  0.00     0.004 C 
ENDBRANCH   9  10
ENDBRANCH   8   9
ENDBRANCH   7   8
ENDBRANCH   1   7
TORSDOF 7
ENDMDL
MODEL 8
REMARK VINA RESULT:    -4.175      3.343      5.503
REMARK INTER + INTRA:          -6.487
REMARK INTER:                  -6.027
REMARK INTRA:                  -0.461
REMARK UNBOUND:                -0.604
REMARK SMILES C=CCCCCCCC(=O)[O-]
REMARK SMILES IDX 6 1 7 2 8 3 9 4 10 5 11 6 5 7 4 8 3 9 2 10 1 11
REMARK H PARENT
REMARK Flexibility Score: inf
ROOT
ATOM      1  C   UNL     1      42.475  41.618  15.646  1.00  0.00     0.000 C 
ENDROOT
BRANCH   1   2
ATOM      2  C   UNL     1      43.181  40.411  15.017  1.00  0.00     0.006 C 
BRANCH   2   3
ATOM      3  C   UNL     1      42.170  39.332  14.613  1.00  0.00     0.053 C 
BRANCH   3   4
ATOM      4  C   UNL     1      42.847  38.244  13.842  1.00  0.00     0.041 C 
ATOM      5  O   UNL     1      44.035  38.387  13.452  1.00  0.00    -0.550 OA
ATOM      6  O   UNL     1      42.149  37.090  13.511  1.00  0.00    -0.550 OA
ENDBRANCH   3   4
ENDBRANCH   2   3
ENDBRANCH   1   2
BRANCH   1   7
ATOM      7  C   UNL     1      41.002  41.307  15.933  1.00  0.00     0.000 C 
BRANCH   7   8
ATOM      8  C   UNL     1      40.624  41.705  17.368  1.00  0.00     0.004 C 
BRANCH   8   9
ATOM      9  C   UNL     1      41.835  41.675  18.314  1.00  0.00     0.027 C 
BRANCH   9  10
ATOM     10  C   UNL     1      41.978  40.353  19.020  1.00  0.00    -0.035 C 
ATOM     11  C   UNL     1      41.804  40.237  20.340  1.00  0.00     0.004 C 
ENDBRANCH   9  10
ENDBRANCH   8   9
ENDBRANCH   7   8
ENDBRANCH   1   7
TORSDOF 7
ENDMDL
MODEL 9
REMARK VINA RESULT:    -4.089      9.904     10.681
REMARK INTER + INTRA:          -6.367
REMARK INTER:                  -6.053
REMARK INTRA:                  -0.313
REMARK UNBOUND:                -0.604
REMARK SMILES C=CCCCCCCC(=O)[O-]
REMARK SMILES IDX 6 1 7 2 8 3 9 4 10 5 11 6 5 7 4 8 3 9 2 10 1 11
REMARK H PARENT
REMARK Flexibility Score: inf
ROOT
ATOM      1  C   UNL     1      39.796  29.409  13.541  1.00  0.00     0.000 C 
ENDROOT
BRANCH   1   2
ATOM      2  C   UNL     1      40.897  29.268  14.600  1.00  0.00     0.006 C 
BRANCH   2   3
ATOM      3  C   UNL     1      40.679  30.252  15.754  1.00  0.00     0.053 C 
BRANCH   3   4
ATOM      4  C   UNL     1      41.897  30.323  16.619  1.00  0.00     0.041 C 
ATOM      5  O   UNL     1      41.901  29.779  17.754  1.00  0.00    -0.550 OA
ATOM      6  O   UNL     1      43.012  31.031  16.191  1.00  0.00    -0.550 OA
ENDBRANCH   3   4
ENDBRANCH   2   3
ENDBRANCH   1   2
BRANCH   1   7
ATOM      7  C   UNL     1      38.450  29.754  14.188  1.00  0.00     0.000 C 
BRANCH   7   8
ATOM      8  C   UNL     1      37.798  30.958  13.492  1.00  0.00     0.004 C 
BRANCH   8   9
ATOM      9  C   UNL     1      36.587  31.492  14.273  1.00  0.00     0.027 C 
BRANCH   9  10
ATOM     10  C   UNL     1      35.486  30.472  14.391  1.00  0.00    -0.035 C 
ATOM     11  C   UNL     1      34.635  30.235  13.388  1.00  0.00     0.004 C 
ENDBRANCH   9  10
ENDBRANCH   8   9
ENDBRANCH   7   8
ENDBRANCH   1   7
TORSDOF 7
ENDMDL
