MODEL 1
REMARK VINA RESULT:    -7.365      0.000      0.000
REMARK INTER + INTRA:         -10.241
REMARK INTER:                  -9.733
REMARK INTRA:                  -0.508
REMARK UNBOUND:                -0.508
REMARK SMILES CC[C@@H](C=C[C@H](C)[C@H]1CC[C@@H]2[C@@H]3CC=C4C[C@H](O)CC[C@@]4(C)[C@@H]3CC[C@@]21C)C(C)C
REMARK SMILES IDX 6 1 7 2 5 3 4 4 3 5 2 6 1 7 28 8 29 9 30 10 8 11 9 12 26 13
REMARK SMILES IDX 10 14 11 15 25 16 27 17 12 18 24 19 23 20 13 21 21 22 14 23
REMARK SMILES IDX 15 24 20 25 22 26 16 27 19 28 17 29 18 30
REMARK H PARENT 18 31
REMARK Flexibility Score: inf
ROOT
ATOM      1  C   UNL     1      12.244  12.260  30.796  1.00  0.00     0.012 C 
ATOM      2  C   UNL     1      11.876  10.877  30.234  1.00  0.00     0.012 C 
ENDROOT
BRANCH   1   3
ATOM      3  C   UNL     1      13.512  12.173  31.631  1.00  0.00    -0.028 C 
ATOM      4  C   UNL     1      13.617  12.418  32.954  1.00  0.00    -0.027 C 
BRANCH   4   5
ATOM      5  C   UNL     1      12.477  12.778  33.896  1.00  0.00     0.014 C 
BRANCH   5   6
ATOM      6  C   UNL     1      12.161  14.298  33.830  1.00  0.00     0.004 C 
ATOM      7  C   UNL     1      13.362  15.243  33.910  1.00  0.00     0.004 C 
ENDBRANCH   5   6
BRANCH   5   8
ATOM      8  C   UNL     1      12.670  12.170  35.325  1.00  0.00    -0.011 C 
ATOM      9  C   UNL     1      11.882  10.875  35.595  1.00  0.00     0.008 C 
ATOM     10  C   UNL     1      14.149  11.993  35.694  1.00  0.00     0.008 C 
ENDBRANCH   5   8
ENDBRANCH   4   5
ENDBRANCH   1   3
BRANCH   1  11
ATOM     11  C   UNL     1      12.245  13.411  29.721  1.00  0.00     0.002 C 
ATOM     12  C   UNL     1      12.884  14.677  30.312  1.00  0.00     0.005 C 
ATOM     13  C   UNL     1      12.981  13.235  28.341  1.00  0.00    -0.026 C 
ATOM     14  C   UNL     1      14.316  14.739  29.787  1.00  0.00     0.005 C 
ATOM     15  C   UNL     1      14.428  13.721  28.636  1.00  0.00    -0.001 C 
ATOM     16  C   UNL     1      12.277  14.128  27.242  1.00  0.00     0.007 C 
ATOM     17  C   UNL     1      12.991  11.784  27.805  1.00  0.00     0.012 C 
ATOM     18  C   UNL     1      15.209  14.215  27.379  1.00  0.00     0.000 C 
ATOM     19  C   UNL     1      12.981  15.458  26.943  1.00  0.00     0.005 C 
ATOM     20  C   UNL     1      14.424  15.214  26.453  1.00  0.00     0.003 C 
ATOM     21  C   UNL     1      16.638  14.667  27.733  1.00  0.00     0.031 C 
ATOM     22  C   UNL     1      15.202  16.530  26.033  1.00  0.00    -0.008 C 
ATOM     23  C   UNL     1      17.318  15.309  26.563  1.00  0.00    -0.027 C 
ATOM     24  C   UNL     1      16.676  16.187  25.767  1.00  0.00    -0.065 C 
ATOM     25  C   UNL     1      14.536  17.104  24.735  1.00  0.00     0.014 C 
ATOM     26  C   UNL     1      15.151  17.623  27.131  1.00  0.00     0.016 C 
ATOM     27  C   UNL     1      17.511  17.013  24.807  1.00  0.00     0.063 C 
ATOM     28  C   UNL     1      15.411  18.105  23.977  1.00  0.00     0.033 C 
ATOM     29  C   UNL     1      16.726  17.447  23.567  1.00  0.00     0.118 C 
BRANCH  29  30
ATOM     30  O   UNL     1      17.483  18.364  22.822  1.00  0.00    -0.393 OA
ATOM     31  H   UNL     1      17.332  19.259  23.228  1.00  0.00     0.210 HD
ENDBRANCH  29  30
ENDBRANCH   1  11
TORSDOF 6
ENDMDL
