MODEL 1
REMARK VINA RESULT:    -3.966      0.000      0.000
REMARK INTER + INTRA:          -7.964
REMARK INTER:                  -6.980
REMARK INTRA:                  -0.984
REMARK UNBOUND:                -0.984
REMARK SMILES CCCCCCCCCCCCCCC(=O)[O-]
REMARK SMILES IDX 9 1 10 2 11 3 12 4 13 5 14 6 15 7 16 8 17 9 8 10 7 11 6 12
REMARK SMILES IDX 5 13 4 14 3 15 2 16 1 17
REMARK H PARENT
REMARK Flexibility Score: inf
ROOT
ATOM      1  C   UNL     1     -24.207 -14.372   2.937  1.00  0.00     0.000 C 
ENDROOT
BRANCH   1   2
ATOM      2  C   UNL     1     -24.687 -15.818   3.119  1.00  0.00     0.000 C 
BRANCH   2   3
ATOM      3  C   UNL     1     -25.840 -15.891   4.132  1.00  0.00     0.000 C 
BRANCH   3   4
ATOM      4  C   UNL     1     -27.222 -15.808   3.465  1.00  0.00     0.000 C 
BRANCH   4   5
ATOM      5  C   UNL     1     -27.680 -17.157   2.882  1.00  0.00     0.006 C 
BRANCH   5   6
ATOM      6  C   UNL     1     -29.203 -17.336   2.964  1.00  0.00     0.053 C 
BRANCH   6   7
ATOM      7  C   UNL     1     -29.931 -16.254   2.227  1.00  0.00     0.041 C 
ATOM      8  O   UNL     1     -29.838 -16.167   0.974  1.00  0.00    -0.550 OA
ATOM      9  O   UNL     1     -30.737 -15.360   2.920  1.00  0.00    -0.550 OA
ENDBRANCH   6   7
ENDBRANCH   5   6
ENDBRANCH   4   5
ENDBRANCH   3   4
ENDBRANCH   2   3
ENDBRANCH   1   2
BRANCH   1  10
ATOM     10  C   UNL     1     -23.941 -13.706   4.294  1.00  0.00     0.000 C 
BRANCH  10  11
ATOM     11  C   UNL     1     -24.797 -12.447   4.520  1.00  0.00    -0.000 C 
BRANCH  11  12
ATOM     12  C   UNL     1     -24.110 -11.330   5.333  1.00  0.00    -0.000 C 
BRANCH  12  13
ATOM     13  C   UNL     1     -23.614 -10.129   4.502  1.00  0.00    -0.000 C 
BRANCH  13  14
ATOM     14  C   UNL     1     -22.082  -9.991   4.406  1.00  0.00    -0.000 C 
BRANCH  14  15
ATOM     15  C   UNL     1     -21.287 -11.205   4.920  1.00  0.00    -0.000 C 
BRANCH  15  16
ATOM     16  C   UNL     1     -20.550 -11.952   3.798  1.00  0.00    -0.003 C 
ATOM     17  C   UNL     1     -19.196 -11.310   3.508  1.00  0.00     0.004 C 
ENDBRANCH  15  16
ENDBRANCH  14  15
ENDBRANCH  13  14
ENDBRANCH  12  13
ENDBRANCH  11  12
ENDBRANCH  10  11
ENDBRANCH   1  10
TORSDOF 13
ENDMDL
MODEL 2
REMARK VINA RESULT:    -3.914      4.083      7.755
REMARK INTER + INTRA:          -7.873
REMARK INTER:                  -6.478
REMARK INTRA:                  -1.395
REMARK UNBOUND:                -0.984
REMARK SMILES CCCCCCCCCCCCCCC(=O)[O-]
REMARK SMILES IDX 9 1 10 2 11 3 12 4 13 5 14 6 15 7 16 8 17 9 8 10 7 11 6 12
REMARK SMILES IDX 5 13 4 14 3 15 2 16 1 17
REMARK H PARENT
REMARK Flexibility Score: inf
ROOT
ATOM      1  C   UNL     1     -24.509 -13.412   3.735  1.00  0.00     0.000 C 
ENDROOT
BRANCH   1   2
ATOM      2  C   UNL     1     -23.971 -12.742   5.006  1.00  0.00     0.000 C 
BRANCH   2   3
ATOM      3  C   UNL     1     -24.492 -11.303   5.132  1.00  0.00     0.000 C 
BRANCH   3   4
ATOM      4  C   UNL     1     -23.509 -10.264   4.571  1.00  0.00     0.000 C 
BRANCH   4   5
ATOM      5  C   UNL     1     -22.094 -10.411   5.159  1.00  0.00     0.006 C 
BRANCH   5   6
ATOM      6  C   UNL     1     -21.002 -10.135   4.115  1.00  0.00     0.053 C 
BRANCH   6   7
ATOM      7  C   UNL     1     -20.214 -11.368   3.795  1.00  0.00     0.041 C 
ATOM      8  O   UNL     1     -18.961 -11.305   3.671  1.00  0.00    -0.550 OA
ATOM      9  O   UNL     1     -20.857 -12.591   3.661  1.00  0.00    -0.550 OA
ENDBRANCH   6   7
ENDBRANCH   5   6
ENDBRANCH   4   5
ENDBRANCH   3   4
ENDBRANCH   2   3
ENDBRANCH   1   2
BRANCH   1  10
ATOM     10  C   UNL     1     -23.857 -14.785   3.518  1.00  0.00     0.000 C 
BRANCH  10  11
ATOM     11  C   UNL     1     -24.859 -15.856   3.052  1.00  0.00    -0.000 C 
BRANCH  11  12
ATOM     12  C   UNL     1     -26.079 -16.053   3.976  1.00  0.00    -0.000 C 
BRANCH  12  13
ATOM     13  C   UNL     1     -27.397 -16.396   3.252  1.00  0.00    -0.000 C 
BRANCH  13  14
ATOM     14  C   UNL     1     -28.498 -15.322   3.357  1.00  0.00    -0.000 C 
BRANCH  14  15
ATOM     15  C   UNL     1     -28.070 -14.020   4.058  1.00  0.00    -0.000 C 
BRANCH  15  16
ATOM     16  C   UNL     1     -27.968 -12.830   3.092  1.00  0.00    -0.003 C 
ATOM     17  C   UNL     1     -28.084 -11.504   3.840  1.00  0.00     0.004 C 
ENDBRANCH  15  16
ENDBRANCH  14  15
ENDBRANCH  13  14
ENDBRANCH  12  13
ENDBRANCH  11  12
ENDBRANCH  10  11
ENDBRANCH   1  10
TORSDOF 13
ENDMDL
MODEL 3
REMARK VINA RESULT:    -3.860      4.155      7.355
REMARK INTER + INTRA:          -7.778
REMARK INTER:                  -6.248
REMARK INTRA:                  -1.531
REMARK UNBOUND:                -0.984
REMARK SMILES CCCCCCCCCCCCCCC(=O)[O-]
REMARK SMILES IDX 9 1 10 2 11 3 12 4 13 5 14 6 15 7 16 8 17 9 8 10 7 11 6 12
REMARK SMILES IDX 5 13 4 14 3 15 2 16 1 17
REMARK H PARENT
REMARK Flexibility Score: inf
ROOT
ATOM      1  C   UNL     1     -26.645 -10.498   4.732  1.00  0.00     0.000 C 
ENDROOT
BRANCH   1   2
ATOM      2  C   UNL     1     -25.120 -10.415   4.589  1.00  0.00     0.000 C 
BRANCH   2   3
ATOM      3  C   UNL     1     -24.420 -10.875   5.877  1.00  0.00     0.000 C 
BRANCH   3   4
ATOM      4  C   UNL     1     -22.897 -10.682   5.825  1.00  0.00     0.000 C 
BRANCH   4   5
ATOM      5  C   UNL     1     -22.381 -10.420   4.399  1.00  0.00     0.006 C 
BRANCH   5   6
ATOM      6  C   UNL     1     -20.865 -10.182   4.366  1.00  0.00     0.053 C 
BRANCH   6   7
ATOM      7  C   UNL     1     -20.117 -11.405   3.933  1.00  0.00     0.041 C 
ATOM      8  O   UNL     1     -20.619 -12.548   4.103  1.00  0.00    -0.550 OA
ATOM      9  O   UNL     1     -18.880 -11.283   3.315  1.00  0.00    -0.550 OA
ENDBRANCH   6   7
ENDBRANCH   5   6
ENDBRANCH   4   5
ENDBRANCH   3   4
ENDBRANCH   2   3
ENDBRANCH   1   2
BRANCH   1  10
ATOM     10  C   UNL     1     -27.111 -11.958   4.825  1.00  0.00     0.000 C 
BRANCH  10  11
ATOM     11  C   UNL     1     -27.216 -12.641   3.450  1.00  0.00    -0.000 C 
BRANCH  11  12
ATOM     12  C   UNL     1     -27.919 -14.014   3.456  1.00  0.00    -0.000 C 
BRANCH  12  13
ATOM     13  C   UNL     1     -27.264 -15.078   4.360  1.00  0.00    -0.000 C 
BRANCH  13  14
ATOM     14  C   UNL     1     -25.859 -15.532   3.920  1.00  0.00    -0.000 C 
BRANCH  14  15
ATOM     15  C   UNL     1     -24.700 -14.965   4.760  1.00  0.00    -0.000 C 
BRANCH  15  16
ATOM     16  C   UNL     1     -23.851 -13.942   3.991  1.00  0.00    -0.003 C 
ATOM     17  C   UNL     1     -23.207 -14.577   2.762  1.00  0.00     0.004 C 
ENDBRANCH  15  16
ENDBRANCH  14  15
ENDBRANCH  13  14
ENDBRANCH  12  13
ENDBRANCH  11  12
ENDBRANCH  10  11
ENDBRANCH   1  10
TORSDOF 13
ENDMDL
MODEL 4
REMARK VINA RESULT:    -3.814      3.718      7.841
REMARK INTER + INTRA:          -7.696
REMARK INTER:                  -6.418
REMARK INTRA:                  -1.278
REMARK UNBOUND:                -0.984
REMARK SMILES CCCCCCCCCCCCCCC(=O)[O-]
REMARK SMILES IDX 9 1 10 2 11 3 12 4 13 5 14 6 15 7 16 8 17 9 8 10 7 11 6 12
REMARK SMILES IDX 5 13 4 14 3 15 2 16 1 17
REMARK H PARENT
REMARK Flexibility Score: inf
ROOT
ATOM      1  C   UNL     1     -26.414 -12.013   4.176  1.00  0.00     0.000 C 
ENDROOT
BRANCH   1   2
ATOM      2  C   UNL     1     -25.775 -10.654   4.487  1.00  0.00     0.000 C 
BRANCH   2   3
ATOM      3  C   UNL     1     -24.346 -10.827   5.025  1.00  0.00     0.000 C 
BRANCH   3   4
ATOM      4  C   UNL     1     -23.342  -9.875   4.358  1.00  0.00     0.000 C 
BRANCH   4   5
ATOM      5  C   UNL     1     -21.923 -10.011   4.938  1.00  0.00     0.006 C 
BRANCH   5   6
ATOM      6  C   UNL     1     -21.558 -11.471   5.241  1.00  0.00     0.053 C 
BRANCH   6   7
ATOM      7  C   UNL     1     -20.959 -12.155   4.051  1.00  0.00     0.041 C 
ATOM      8  O   UNL     1     -21.535 -13.150   3.535  1.00  0.00    -0.550 OA
ATOM      9  O   UNL     1     -19.781 -11.677   3.492  1.00  0.00    -0.550 OA
ENDBRANCH   6   7
ENDBRANCH   5   6
ENDBRANCH   4   5
ENDBRANCH   3   4
ENDBRANCH   2   3
ENDBRANCH   1   2
BRANCH   1  10
ATOM     10  C   UNL     1     -25.519 -13.164   4.658  1.00  0.00     0.000 C 
BRANCH  10  11
ATOM     11  C   UNL     1     -24.929 -13.988   3.499  1.00  0.00    -0.000 C 
BRANCH  11  12
ATOM     12  C   UNL     1     -25.136 -15.512   3.612  1.00  0.00    -0.000 C 
BRANCH  12  13
ATOM     13  C   UNL     1     -26.451 -15.943   4.292  1.00  0.00    -0.000 C 
BRANCH  13  14
ATOM     14  C   UNL     1     -27.362 -16.846   3.437  1.00  0.00    -0.000 C 
BRANCH  14  15
ATOM     15  C   UNL     1     -28.516 -16.118   2.725  1.00  0.00    -0.000 C 
BRANCH  15  16
ATOM     16  C   UNL     1     -28.722 -14.685   3.238  1.00  0.00    -0.003 C 
ATOM     17  C   UNL     1     -29.627 -13.890   2.300  1.00  0.00     0.004 C 
ENDBRANCH  15  16
ENDBRANCH  14  15
ENDBRANCH  13  14
ENDBRANCH  12  13
ENDBRANCH  11  12
ENDBRANCH  10  11
ENDBRANCH   1  10
TORSDOF 13
ENDMDL
MODEL 5
REMARK VINA RESULT:    -3.797      1.711      2.171
REMARK INTER + INTRA:          -7.667
REMARK INTER:                  -6.247
REMARK INTRA:                  -1.420
REMARK UNBOUND:                -0.984
REMARK SMILES CCCCCCCCCCCCCCC(=O)[O-]
REMARK SMILES IDX 9 1 10 2 11 3 12 4 13 5 14 6 15 7 16 8 17 9 8 10 7 11 6 12
REMARK SMILES IDX 5 13 4 14 3 15 2 16 1 17
REMARK H PARENT
REMARK Flexibility Score: inf
ROOT
ATOM      1  C   UNL     1     -24.078 -13.795   3.791  1.00  0.00     0.000 C 
ENDROOT
BRANCH   1   2
ATOM      2  C   UNL     1     -24.474 -15.223   3.395  1.00  0.00     0.000 C 
BRANCH   2   3
ATOM      3  C   UNL     1     -25.649 -15.725   4.248  1.00  0.00     0.000 C 
BRANCH   3   4
ATOM      4  C   UNL     1     -27.000 -15.611   3.524  1.00  0.00     0.000 C 
BRANCH   4   5
ATOM      5  C   UNL     1     -27.960 -14.626   4.214  1.00  0.00     0.006 C 
BRANCH   5   6
ATOM      6  C   UNL     1     -27.838 -13.205   3.648  1.00  0.00     0.053 C 
BRANCH   6   7
ATOM      7  C   UNL     1     -29.047 -12.815   2.853  1.00  0.00     0.041 C 
ATOM      8  O   UNL     1     -30.201 -13.048   3.300  1.00  0.00    -0.550 OA
ATOM      9  O   UNL     1     -28.900 -12.169   1.633  1.00  0.00    -0.550 OA
ENDBRANCH   6   7
ENDBRANCH   5   6
ENDBRANCH   4   5
ENDBRANCH   3   4
ENDBRANCH   2   3
ENDBRANCH   1   2
BRANCH   1  10
ATOM     10  C   UNL     1     -24.242 -13.578   5.302  1.00  0.00     0.000 C 
BRANCH  10  11
ATOM     11  C   UNL     1     -24.137 -12.097   5.708  1.00  0.00    -0.000 C 
BRANCH  11  12
ATOM     12  C   UNL     1     -24.695 -11.097   4.674  1.00  0.00    -0.000 C 
BRANCH  12  13
ATOM     13  C   UNL     1     -23.778  -9.897   4.365  1.00  0.00    -0.000 C 
BRANCH  13  14
ATOM     14  C   UNL     1     -22.448  -9.875   5.144  1.00  0.00    -0.000 C 
BRANCH  14  15
ATOM     15  C   UNL     1     -21.183  -9.956   4.271  1.00  0.00    -0.000 C 
BRANCH  15  16
ATOM     16  C   UNL     1     -20.565 -11.361   4.246  1.00  0.00    -0.003 C 
ATOM     17  C   UNL     1     -19.246 -11.368   3.478  1.00  0.00     0.004 C 
ENDBRANCH  15  16
ENDBRANCH  14  15
ENDBRANCH  13  14
ENDBRANCH  12  13
ENDBRANCH  11  12
ENDBRANCH  10  11
ENDBRANCH   1  10
TORSDOF 13
ENDMDL
MODEL 6
REMARK VINA RESULT:    -3.775     11.017     12.086
REMARK INTER + INTRA:          -7.628
REMARK INTER:                  -6.850
REMARK INTRA:                  -0.779
REMARK UNBOUND:                -0.984
REMARK SMILES CCCCCCCCCCCCCCC(=O)[O-]
REMARK SMILES IDX 9 1 10 2 11 3 12 4 13 5 14 6 15 7 16 8 17 9 8 10 7 11 6 12
REMARK SMILES IDX 5 13 4 14 3 15 2 16 1 17
REMARK H PARENT
REMARK Flexibility Score: inf
ROOT
ATOM      1  C   UNL     1     -19.015 -19.037  -3.833  1.00  0.00     0.000 C 
ENDROOT
BRANCH   1   2
ATOM      2  C   UNL     1     -18.973 -20.257  -4.761  1.00  0.00     0.000 C 
BRANCH   2   3
ATOM      3  C   UNL     1     -20.388 -20.664  -5.200  1.00  0.00     0.000 C 
BRANCH   3   4
ATOM      4  C   UNL     1     -21.432 -19.571  -4.923  1.00  0.00     0.000 C 
BRANCH   4   5
ATOM      5  C   UNL     1     -22.313 -19.270  -6.147  1.00  0.00     0.006 C 
BRANCH   5   6
ATOM      6  C   UNL     1     -22.605 -20.530  -6.975  1.00  0.00     0.053 C 
BRANCH   6   7
ATOM      7  C   UNL     1     -22.697 -20.227  -8.439  1.00  0.00     0.041 C 
ATOM      8  O   UNL     1     -23.407 -19.268  -8.844  1.00  0.00    -0.550 OA
ATOM      9  O   UNL     1     -21.978 -20.984  -9.354  1.00  0.00    -0.550 OA
ENDBRANCH   6   7
ENDBRANCH   5   6
ENDBRANCH   4   5
ENDBRANCH   3   4
ENDBRANCH   2   3
ENDBRANCH   1   2
BRANCH   1  10
ATOM     10  C   UNL     1     -17.890 -18.049  -4.173  1.00  0.00     0.000 C 
BRANCH  10  11
ATOM     11  C   UNL     1     -17.480 -17.174  -2.974  1.00  0.00    -0.000 C 
BRANCH  11  12
ATOM     12  C   UNL     1     -16.186 -16.358  -3.176  1.00  0.00    -0.000 C 
BRANCH  12  13
ATOM     13  C   UNL     1     -15.406 -16.680  -4.466  1.00  0.00    -0.000 C 
BRANCH  13  14
ATOM     14  C   UNL     1     -15.432 -15.572  -5.538  1.00  0.00    -0.000 C 
BRANCH  14  15
ATOM     15  C   UNL     1     -16.289 -14.344  -5.182  1.00  0.00    -0.000 C 
BRANCH  15  16
ATOM     16  C   UNL     1     -16.213 -13.237  -6.243  1.00  0.00    -0.003 C 
ATOM     17  C   UNL     1     -17.494 -13.180  -7.071  1.00  0.00     0.004 C 
ENDBRANCH  15  16
ENDBRANCH  14  15
ENDBRANCH  13  14
ENDBRANCH  12  13
ENDBRANCH  11  12
ENDBRANCH  10  11
ENDBRANCH   1  10
TORSDOF 13
ENDMDL
MODEL 7
REMARK VINA RESULT:    -3.755      1.505      1.676
REMARK INTER + INTRA:          -7.593
REMARK INTER:                  -6.700
REMARK INTRA:                  -0.894
REMARK UNBOUND:                -0.984
REMARK SMILES CCCCCCCCCCCCCCC(=O)[O-]
REMARK SMILES IDX 9 1 10 2 11 3 12 4 13 5 14 6 15 7 16 8 17 9 8 10 7 11 6 12
REMARK SMILES IDX 5 13 4 14 3 15 2 16 1 17
REMARK H PARENT
REMARK Flexibility Score: inf
ROOT
ATOM      1  C   UNL     1     -23.971 -14.952   3.223  1.00  0.00     0.000 C 
ENDROOT
BRANCH   1   2
ATOM      2  C   UNL     1     -25.021 -15.499   4.198  1.00  0.00     0.000 C 
BRANCH   2   3
ATOM      3  C   UNL     1     -26.112 -16.281   3.451  1.00  0.00     0.000 C 
BRANCH   3   4
ATOM      4  C   UNL     1     -27.520 -15.717   3.696  1.00  0.00     0.000 C 
BRANCH   4   5
ATOM      5  C   UNL     1     -28.572 -16.318   2.748  1.00  0.00     0.006 C 
BRANCH   5   6
ATOM      6  C   UNL     1     -28.185 -17.726   2.271  1.00  0.00     0.053 C 
BRANCH   6   7
ATOM      7  C   UNL     1     -29.262 -18.727   2.557  1.00  0.00     0.041 C 
ATOM      8  O   UNL     1     -30.327 -18.721   1.885  1.00  0.00    -0.550 OA
ATOM      9  O   UNL     1     -29.078 -19.685   3.546  1.00  0.00    -0.550 OA
ENDBRANCH   6   7
ENDBRANCH   5   6
ENDBRANCH   4   5
ENDBRANCH   3   4
ENDBRANCH   2   3
ENDBRANCH   1   2
BRANCH   1  10
ATOM     10  C   UNL     1     -23.366 -13.641   3.745  1.00  0.00     0.000 C 
BRANCH  10  11
ATOM     11  C   UNL     1     -23.911 -13.239   5.128  1.00  0.00    -0.000 C 
BRANCH  11  12
ATOM     12  C   UNL     1     -24.429 -11.790   5.228  1.00  0.00    -0.000 C 
BRANCH  12  13
ATOM     13  C   UNL     1     -23.565 -10.737   4.504  1.00  0.00    -0.000 C 
BRANCH  13  14
ATOM     14  C   UNL     1     -22.354 -10.223   5.306  1.00  0.00    -0.000 C 
BRANCH  14  15
ATOM     15  C   UNL     1     -21.040 -10.129   4.509  1.00  0.00    -0.000 C 
BRANCH  15  16
ATOM     16  C   UNL     1     -20.460 -11.505   4.151  1.00  0.00    -0.003 C 
ATOM     17  C   UNL     1     -19.109 -11.368   3.456  1.00  0.00     0.004 C 
ENDBRANCH  15  16
ENDBRANCH  14  15
ENDBRANCH  13  14
ENDBRANCH  12  13
ENDBRANCH  11  12
ENDBRANCH  10  11
ENDBRANCH   1  10
TORSDOF 13
ENDMDL
MODEL 8
REMARK VINA RESULT:    -3.697      2.890      3.448
REMARK INTER + INTRA:          -7.491
REMARK INTER:                  -6.694
REMARK INTRA:                  -0.797
REMARK UNBOUND:                -0.984
REMARK SMILES CCCCCCCCCCCCCCC(=O)[O-]
REMARK SMILES IDX 9 1 10 2 11 3 12 4 13 5 14 6 15 7 16 8 17 9 8 10 7 11 6 12
REMARK SMILES IDX 5 13 4 14 3 15 2 16 1 17
REMARK H PARENT
REMARK Flexibility Score: inf
ROOT
ATOM      1  C   UNL     1     -26.006 -14.828   3.721  1.00  0.00     0.000 C 
ENDROOT
BRANCH   1   2
ATOM      2  C   UNL     1     -26.319 -13.327   3.663  1.00  0.00     0.000 C 
BRANCH   2   3
ATOM      3  C   UNL     1     -27.768 -13.050   4.092  1.00  0.00     0.000 C 
BRANCH   3   4
ATOM      4  C   UNL     1     -28.522 -12.158   3.094  1.00  0.00     0.000 C 
BRANCH   4   5
ATOM      5  C   UNL     1     -29.316 -12.971   2.057  1.00  0.00     0.006 C 
BRANCH   5   6
ATOM      6  C   UNL     1     -30.653 -12.306   1.700  1.00  0.00     0.053 C 
BRANCH   6   7
ATOM      7  C   UNL     1     -30.645 -11.749   0.309  1.00  0.00     0.041 C 
ATOM      8  O   UNL     1     -31.730 -11.483  -0.273  1.00  0.00    -0.550 OA
ATOM      9  O   UNL     1     -29.440 -11.494  -0.332  1.00  0.00    -0.550 OA
ENDBRANCH   6   7
ENDBRANCH   5   6
ENDBRANCH   4   5
ENDBRANCH   3   4
ENDBRANCH   2   3
ENDBRANCH   1   2
BRANCH   1  10
ATOM     10  C   UNL     1     -24.557 -15.071   4.167  1.00  0.00     0.000 C 
BRANCH  10  11
ATOM     11  C   UNL     1     -23.527 -14.681   3.092  1.00  0.00    -0.000 C 
BRANCH  11  12
ATOM     12  C   UNL     1     -22.575 -13.533   3.488  1.00  0.00    -0.000 C 
BRANCH  12  13
ATOM     13  C   UNL     1     -23.038 -12.688   4.691  1.00  0.00    -0.000 C 
BRANCH  13  14
ATOM     14  C   UNL     1     -22.710 -11.185   4.598  1.00  0.00    -0.000 C 
BRANCH  14  15
ATOM     15  C   UNL     1     -21.312 -10.793   5.110  1.00  0.00    -0.000 C 
BRANCH  15  16
ATOM     16  C   UNL     1     -20.373 -10.333   3.985  1.00  0.00    -0.003 C 
ATOM     17  C   UNL     1     -19.359 -11.419   3.637  1.00  0.00     0.004 C 
ENDBRANCH  15  16
ENDBRANCH  14  15
ENDBRANCH  13  14
ENDBRANCH  12  13
ENDBRANCH  11  12
ENDBRANCH  10  11
ENDBRANCH   1  10
TORSDOF 13
ENDMDL
MODEL 9
REMARK VINA RESULT:    -3.671      4.421      7.978
REMARK INTER + INTRA:          -7.445
REMARK INTER:                  -6.114
REMARK INTRA:                  -1.331
REMARK UNBOUND:                -0.984
REMARK SMILES CCCCCCCCCCCCCCC(=O)[O-]
REMARK SMILES IDX 9 1 10 2 11 3 12 4 13 5 14 6 15 7 16 8 17 9 8 10 7 11 6 12
REMARK SMILES IDX 5 13 4 14 3 15 2 16 1 17
REMARK H PARENT
REMARK Flexibility Score: inf
ROOT
ATOM      1  C   UNL     1     -28.567 -13.011   2.921  1.00  0.00     0.000 C 
ENDROOT
BRANCH   1   2
ATOM      2  C   UNL     1     -29.076 -14.457   2.873  1.00  0.00     0.000 C 
BRANCH   2   3
ATOM      3  C   UNL     1     -28.369 -15.325   3.925  1.00  0.00     0.000 C 
BRANCH   3   4
ATOM      4  C   UNL     1     -27.175 -16.101   3.348  1.00  0.00     0.000 C 
BRANCH   4   5
ATOM      5  C   UNL     1     -25.862 -15.809   4.095  1.00  0.00     0.006 C 
BRANCH   5   6
ATOM      6  C   UNL     1     -25.063 -14.674   3.440  1.00  0.00     0.053 C 
BRANCH   6   7
ATOM      7  C   UNL     1     -23.852 -15.186   2.722  1.00  0.00     0.041 C 
ATOM      8  O   UNL     1     -22.758 -14.568   2.805  1.00  0.00    -0.550 OA
ATOM      9  O   UNL     1     -23.924 -16.361   1.986  1.00  0.00    -0.550 OA
ENDBRANCH   6   7
ENDBRANCH   5   6
ENDBRANCH   4   5
ENDBRANCH   3   4
ENDBRANCH   2   3
ENDBRANCH   1   2
BRANCH   1  10
ATOM     10  C   UNL     1     -29.129 -12.190   1.752  1.00  0.00     0.000 C 
BRANCH  10  11
ATOM     11  C   UNL     1     -29.830 -13.060   0.693  1.00  0.00    -0.000 C 
BRANCH  11  12
ATOM     12  C   UNL     1     -30.516 -12.276  -0.444  1.00  0.00    -0.000 C 
BRANCH  12  13
ATOM     13  C   UNL     1     -30.947 -10.841  -0.080  1.00  0.00    -0.000 C 
BRANCH  13  14
ATOM     14  C   UNL     1     -32.453 -10.661   0.194  1.00  0.00    -0.000 C 
BRANCH  14  15
ATOM     15  C   UNL     1     -32.851 -10.690   1.681  1.00  0.00    -0.000 C 
BRANCH  15  16
ATOM     16  C   UNL     1     -33.659 -11.940   2.058  1.00  0.00    -0.003 C 
ATOM     17  C   UNL     1     -32.777 -12.979   2.744  1.00  0.00     0.004 C 
ENDBRANCH  15  16
ENDBRANCH  14  15
ENDBRANCH  13  14
ENDBRANCH  12  13
ENDBRANCH  11  12
ENDBRANCH  10  11
ENDBRANCH   1  10
TORSDOF 13
ENDMDL
