MODEL 1
REMARK VINA RESULT:    -2.744      0.000      0.000
REMARK INTER + INTRA:          -4.363
REMARK INTER:                  -3.867
REMARK INTRA:                  -0.496
REMARK UNBOUND:                -0.496
REMARK SMILES C=CCCCCCCC(=O)[O-]
REMARK SMILES IDX 6 1 7 2 8 3 9 4 10 5 11 6 5 7 4 8 3 9 2 10 1 11
REMARK H PARENT
REMARK Flexibility Score: inf
ROOT
ATOM      1  C   UNL     1     121.086 124.262 122.378  1.00  0.00     0.000 C 
ENDROOT
BRANCH   1   2
ATOM      2  C   UNL     1     120.877 125.728 122.781  1.00  0.00     0.006 C 
BRANCH   2   3
ATOM      3  C   UNL     1     122.080 126.256 123.569  1.00  0.00     0.053 C 
BRANCH   3   4
ATOM      4  C   UNL     1     121.641 126.810 124.888  1.00  0.00     0.041 C 
ATOM      5  O   UNL     1     121.439 126.038 125.863  1.00  0.00    -0.550 OA
ATOM      6  O   UNL     1     121.504 128.181 125.056  1.00  0.00    -0.550 OA
ENDBRANCH   3   4
ENDBRANCH   2   3
ENDBRANCH   1   2
BRANCH   1   7
ATOM      7  C   UNL     1     120.953 123.296 123.565  1.00  0.00     0.000 C 
BRANCH   7   8
ATOM      8  C   UNL     1     121.795 122.020 123.388  1.00  0.00     0.004 C 
BRANCH   8   9
ATOM      9  C   UNL     1     121.721 121.474 121.956  1.00  0.00     0.027 C 
BRANCH   9  10
ATOM     10  C   UNL     1     123.093 121.245 121.380  1.00  0.00    -0.035 C 
ATOM     11  C   UNL     1     124.031 122.195 121.392  1.00  0.00     0.004 C 
ENDBRANCH   9  10
ENDBRANCH   8   9
ENDBRANCH   7   8
ENDBRANCH   1   7
TORSDOF 7
ENDMDL
MODEL 2
REMARK VINA RESULT:    -2.732      1.487      1.863
REMARK INTER + INTRA:          -4.346
REMARK INTER:                  -3.635
REMARK INTRA:                  -0.711
REMARK UNBOUND:                -0.496
REMARK SMILES C=CCCCCCCC(=O)[O-]
REMARK SMILES IDX 6 1 7 2 8 3 9 4 10 5 11 6 5 7 4 8 3 9 2 10 1 11
REMARK H PARENT
REMARK Flexibility Score: inf
ROOT
ATOM      1  C   UNL     1     121.577 125.245 122.346  1.00  0.00     0.000 C 
ENDROOT
BRANCH   1   2
ATOM      2  C   UNL     1     121.918 126.152 123.537  1.00  0.00     0.006 C 
BRANCH   2   3
ATOM      3  C   UNL     1     121.251 125.645 124.819  1.00  0.00     0.053 C 
BRANCH   3   4
ATOM      4  C   UNL     1     121.868 126.290 126.021  1.00  0.00     0.041 C 
ATOM      5  O   UNL     1     121.329 126.165 127.152  1.00  0.00    -0.550 OA
ATOM      6  O   UNL     1     123.064 126.986 125.901  1.00  0.00    -0.550 OA
ENDBRANCH   3   4
ENDBRANCH   2   3
ENDBRANCH   1   2
BRANCH   1   7
ATOM      7  C   UNL     1     120.875 123.946 122.772  1.00  0.00     0.000 C 
BRANCH   7   8
ATOM      8  C   UNL     1     121.642 122.687 122.332  1.00  0.00     0.004 C 
BRANCH   8   9
ATOM      9  C   UNL     1     122.328 121.988 123.512  1.00  0.00     0.027 C 
BRANCH   9  10
ATOM     10  C   UNL     1     123.766 122.412 123.646  1.00  0.00    -0.035 C 
ATOM     11  C   UNL     1     124.232 122.987 124.758  1.00  0.00     0.004 C 
ENDBRANCH   9  10
ENDBRANCH   8   9
ENDBRANCH   7   8
ENDBRANCH   1   7
TORSDOF 7
ENDMDL
MODEL 3
REMARK VINA RESULT:    -2.666      1.154      1.400
REMARK INTER + INTRA:          -4.253
REMARK INTER:                  -3.777
REMARK INTRA:                  -0.476
REMARK UNBOUND:                -0.496
REMARK SMILES C=CCCCCCCC(=O)[O-]
REMARK SMILES IDX 6 1 7 2 8 3 9 4 10 5 11 6 5 7 4 8 3 9 2 10 1 11
REMARK H PARENT
REMARK Flexibility Score: inf
ROOT
ATOM      1  C   UNL     1     121.262 124.033 122.427  1.00  0.00     0.000 C 
ENDROOT
BRANCH   1   2
ATOM      2  C   UNL     1     120.977 125.444 122.961  1.00  0.00     0.006 C 
BRANCH   2   3
ATOM      3  C   UNL     1     121.288 125.536 124.457  1.00  0.00     0.053 C 
BRANCH   3   4
ATOM      4  C   UNL     1     122.600 126.222 124.679  1.00  0.00     0.041 C 
ATOM      5  O   UNL     1     122.630 127.412 125.092  1.00  0.00    -0.550 OA
ATOM      6  O   UNL     1     123.789 125.533 124.479  1.00  0.00    -0.550 OA
ENDBRANCH   3   4
ENDBRANCH   2   3
ENDBRANCH   1   2
BRANCH   1   7
ATOM      7  C   UNL     1     121.187 122.959 123.522  1.00  0.00     0.000 C 
BRANCH   7   8
ATOM      8  C   UNL     1     121.958 121.680 123.152  1.00  0.00     0.004 C 
BRANCH   8   9
ATOM      9  C   UNL     1     121.604 121.180 121.746  1.00  0.00     0.027 C 
BRANCH   9  10
ATOM     10  C   UNL     1     122.839 120.924 120.923  1.00  0.00    -0.035 C 
ATOM     11  C   UNL     1     124.049 121.323 121.323  1.00  0.00     0.004 C 
ENDBRANCH   9  10
ENDBRANCH   8   9
ENDBRANCH   7   8
ENDBRANCH   1   7
TORSDOF 7
ENDMDL
MODEL 4
REMARK VINA RESULT:    -2.642      3.187      5.169
REMARK INTER + INTRA:          -4.219
REMARK INTER:                  -3.587
REMARK INTRA:                  -0.631
REMARK UNBOUND:                -0.496
REMARK SMILES C=CCCCCCCC(=O)[O-]
REMARK SMILES IDX 6 1 7 2 8 3 9 4 10 5 11 6 5 7 4 8 3 9 2 10 1 11
REMARK H PARENT
REMARK Flexibility Score: inf
ROOT
ATOM      1  C   UNL     1     121.580 124.569 122.542  1.00  0.00     0.000 C 
ENDROOT
BRANCH   1   2
ATOM      2  C   UNL     1     120.876 123.321 123.095  1.00  0.00     0.006 C 
BRANCH   2   3
ATOM      3  C   UNL     1     121.886 122.210 123.395  1.00  0.00     0.053 C 
BRANCH   3   4
ATOM      4  C   UNL     1     122.264 121.491 122.139  1.00  0.00     0.041 C 
ATOM      5  O   UNL     1     121.372 120.987 121.406  1.00  0.00    -0.550 OA
ATOM      6  O   UNL     1     123.595 121.420 121.750  1.00  0.00    -0.550 OA
ENDBRANCH   3   4
ENDBRANCH   2   3
ENDBRANCH   1   2
BRANCH   1   7
ATOM      7  C   UNL     1     120.875 125.874 122.945  1.00  0.00     0.000 C 
BRANCH   7   8
ATOM      8  C   UNL     1     121.671 126.678 123.988  1.00  0.00     0.004 C 
BRANCH   8   9
ATOM      9  C   UNL     1     121.572 126.064 125.390  1.00  0.00     0.027 C 
BRANCH   9  10
ATOM     10  C   UNL     1     122.934 125.799 125.975  1.00  0.00    -0.035 C 
ATOM     11  C   UNL     1     123.946 125.347 125.230  1.00  0.00     0.004 C 
ENDBRANCH   9  10
ENDBRANCH   8   9
ENDBRANCH   7   8
ENDBRANCH   1   7
TORSDOF 7
ENDMDL
MODEL 5
REMARK VINA RESULT:    -2.612      3.149      5.647
REMARK INTER + INTRA:          -4.176
REMARK INTER:                  -3.778
REMARK INTRA:                  -0.398
REMARK UNBOUND:                -0.496
REMARK SMILES C=CCCCCCCC(=O)[O-]
REMARK SMILES IDX 6 1 7 2 8 3 9 4 10 5 11 6 5 7 4 8 3 9 2 10 1 11
REMARK H PARENT
REMARK Flexibility Score: inf
ROOT
ATOM      1  C   UNL     1     121.253 124.215 122.419  1.00  0.00     0.000 C 
ENDROOT
BRANCH   1   2
ATOM      2  C   UNL     1     121.084 123.060 123.416  1.00  0.00     0.006 C 
BRANCH   2   3
ATOM      3  C   UNL     1     122.267 122.091 123.337  1.00  0.00     0.053 C 
BRANCH   3   4
ATOM      4  C   UNL     1     122.444 121.593 121.937  1.00  0.00     0.041 C 
ATOM      5  O   UNL     1     123.532 121.782 121.331  1.00  0.00    -0.550 OA
ATOM      6  O   UNL     1     121.428 120.876 121.319  1.00  0.00    -0.550 OA
ENDBRANCH   3   4
ENDBRANCH   2   3
ENDBRANCH   1   2
BRANCH   1   7
ATOM      7  C   UNL     1     120.884 125.579 123.022  1.00  0.00     0.000 C 
BRANCH   7   8
ATOM      8  C   UNL     1     121.240 125.681 124.515  1.00  0.00     0.004 C 
BRANCH   8   9
ATOM      9  C   UNL     1     121.953 126.998 124.848  1.00  0.00     0.027 C 
BRANCH   9  10
ATOM     10  C   UNL     1     121.680 128.053 123.809  1.00  0.00    -0.035 C 
ATOM     11  C   UNL     1     121.000 129.167 124.096  1.00  0.00     0.004 C 
ENDBRANCH   9  10
ENDBRANCH   8   9
ENDBRANCH   7   8
ENDBRANCH   1   7
TORSDOF 7
ENDMDL
MODEL 6
REMARK VINA RESULT:    -2.611      1.940      3.098
REMARK INTER + INTRA:          -4.175
REMARK INTER:                  -3.349
REMARK INTRA:                  -0.826
REMARK UNBOUND:                -0.496
REMARK SMILES C=CCCCCCCC(=O)[O-]
REMARK SMILES IDX 6 1 7 2 8 3 9 4 10 5 11 6 5 7 4 8 3 9 2 10 1 11
REMARK H PARENT
REMARK Flexibility Score: inf
ROOT
ATOM      1  C   UNL     1     121.646 121.603 122.490  1.00  0.00     0.000 C 
ENDROOT
BRANCH   1   2
ATOM      2  C   UNL     1     121.249 122.707 123.479  1.00  0.00     0.006 C 
BRANCH   2   3
ATOM      3  C   UNL     1     120.955 124.019 122.746  1.00  0.00     0.053 C 
BRANCH   3   4
ATOM      4  C   UNL     1     121.700 125.152 123.380  1.00  0.00     0.041 C 
ATOM      5  O   UNL     1     122.676 125.680 122.785  1.00  0.00    -0.550 OA
ATOM      6  O   UNL     1     121.284 125.660 124.605  1.00  0.00    -0.550 OA
ENDBRANCH   3   4
ENDBRANCH   2   3
ENDBRANCH   1   2
BRANCH   1   7
ATOM      7  C   UNL     1     122.805 122.019 121.571  1.00  0.00     0.000 C 
BRANCH   7   8
ATOM      8  C   UNL     1     124.178 121.586 122.116  1.00  0.00     0.004 C 
BRANCH   8   9
ATOM      9  C   UNL     1     124.891 122.726 122.855  1.00  0.00     0.027 C 
BRANCH   9  10
ATOM     10  C   UNL     1     124.961 122.466 124.336  1.00  0.00    -0.035 C 
ATOM     11  C   UNL     1     124.405 123.293 125.225  1.00  0.00     0.004 C 
ENDBRANCH   9  10
ENDBRANCH   8   9
ENDBRANCH   7   8
ENDBRANCH   1   7
TORSDOF 7
ENDMDL
MODEL 7
REMARK VINA RESULT:    -2.600      2.878      4.796
REMARK INTER + INTRA:          -4.160
REMARK INTER:                  -3.522
REMARK INTRA:                  -0.638
REMARK UNBOUND:                -0.496
REMARK SMILES C=CCCCCCCC(=O)[O-]
REMARK SMILES IDX 6 1 7 2 8 3 9 4 10 5 11 6 5 7 4 8 3 9 2 10 1 11
REMARK H PARENT
REMARK Flexibility Score: inf
ROOT
ATOM      1  C   UNL     1     121.659 121.601 121.983  1.00  0.00     0.000 C 
ENDROOT
BRANCH   1   2
ATOM      2  C   UNL     1     123.084 121.381 121.455  1.00  0.00     0.006 C 
BRANCH   2   3
ATOM      3  C   UNL     1     124.124 121.880 122.462  1.00  0.00     0.053 C 
BRANCH   3   4
ATOM      4  C   UNL     1     125.037 122.878 121.822  1.00  0.00     0.041 C 
ATOM      5  O   UNL     1     126.282 122.797 121.991  1.00  0.00    -0.550 OA
ATOM      6  O   UNL     1     124.517 123.868 120.998  1.00  0.00    -0.550 OA
ENDBRANCH   3   4
ENDBRANCH   2   3
ENDBRANCH   1   2
BRANCH   1   7
ATOM      7  C   UNL     1     121.637 122.166 123.412  1.00  0.00     0.000 C 
BRANCH   7   8
ATOM      8  C   UNL     1     120.877 123.500 123.509  1.00  0.00     0.004 C 
BRANCH   8   9
ATOM      9  C   UNL     1     121.253 124.463 122.375  1.00  0.00     0.027 C 
BRANCH   9  10
ATOM     10  C   UNL     1     122.089 125.610 122.879  1.00  0.00    -0.035 C 
ATOM     11  C   UNL     1     121.672 126.405 123.869  1.00  0.00     0.004 C 
ENDBRANCH   9  10
ENDBRANCH   8   9
ENDBRANCH   7   8
ENDBRANCH   1   7
TORSDOF 7
ENDMDL
MODEL 8
REMARK VINA RESULT:    -2.570      3.158      4.736
REMARK INTER + INTRA:          -4.118
REMARK INTER:                  -3.317
REMARK INTRA:                  -0.801
REMARK UNBOUND:                -0.496
REMARK SMILES C=CCCCCCCC(=O)[O-]
REMARK SMILES IDX 6 1 7 2 8 3 9 4 10 5 11 6 5 7 4 8 3 9 2 10 1 11
REMARK H PARENT
REMARK Flexibility Score: inf
ROOT
ATOM      1  C   UNL     1     120.875 123.997 122.876  1.00  0.00     0.000 C 
ENDROOT
BRANCH   1   2
ATOM      2  C   UNL     1     121.547 122.707 123.367  1.00  0.00     0.006 C 
BRANCH   2   3
ATOM      3  C   UNL     1     121.957 121.821 122.188  1.00  0.00     0.053 C 
BRANCH   3   4
ATOM      4  C   UNL     1     123.443 121.646 122.155  1.00  0.00     0.041 C 
ATOM      5  O   UNL     1     124.148 122.040 123.121  1.00  0.00    -0.550 OA
ATOM      6  O   UNL     1     124.045 121.001 121.082  1.00  0.00    -0.550 OA
ENDBRANCH   3   4
ENDBRANCH   2   3
ENDBRANCH   1   2
BRANCH   1   7
ATOM      7  C   UNL     1     121.310 125.234 123.678  1.00  0.00     0.000 C 
BRANCH   7   8
ATOM      8  C   UNL     1     122.797 125.192 124.071  1.00  0.00     0.004 C 
BRANCH   8   9
ATOM      9  C   UNL     1     123.629 126.217 123.290  1.00  0.00     0.027 C 
BRANCH   9  10
ATOM     10  C   UNL     1     124.487 125.552 122.246  1.00  0.00    -0.035 C 
ATOM     11  C   UNL     1     123.968 125.045 121.125  1.00  0.00     0.004 C 
ENDBRANCH   9  10
ENDBRANCH   8   9
ENDBRANCH   7   8
ENDBRANCH   1   7
TORSDOF 7
ENDMDL
MODEL 9
REMARK VINA RESULT:    -2.558      1.145      1.414
REMARK INTER + INTRA:          -4.100
REMARK INTER:                  -3.567
REMARK INTRA:                  -0.533
REMARK UNBOUND:                -0.496
REMARK SMILES C=CCCCCCCC(=O)[O-]
REMARK SMILES IDX 6 1 7 2 8 3 9 4 10 5 11 6 5 7 4 8 3 9 2 10 1 11
REMARK H PARENT
REMARK Flexibility Score: inf
ROOT
ATOM      1  C   UNL     1     122.184 124.692 122.615  1.00  0.00     0.000 C 
ENDROOT
BRANCH   1   2
ATOM      2  C   UNL     1     121.306 125.732 123.325  1.00  0.00     0.006 C 
BRANCH   2   3
ATOM      3  C   UNL     1     121.234 125.453 124.829  1.00  0.00     0.053 C 
BRANCH   3   4
ATOM      4  C   UNL     1     121.592 126.679 125.608  1.00  0.00     0.041 C 
ATOM      5  O   UNL     1     121.636 126.639 126.866  1.00  0.00    -0.550 OA
ATOM      6  O   UNL     1     121.928 127.852 124.945  1.00  0.00    -0.550 OA
ENDBRANCH   3   4
ENDBRANCH   2   3
ENDBRANCH   1   2
BRANCH   1   7
ATOM      7  C   UNL     1     123.223 124.056 123.551  1.00  0.00     0.000 C 
BRANCH   7   8
ATOM      8  C   UNL     1     123.168 122.518 123.539  1.00  0.00     0.004 C 
BRANCH   8   9
ATOM      9  C   UNL     1     121.755 121.994 123.250  1.00  0.00     0.027 C 
BRANCH   9  10
ATOM     10  C   UNL     1     121.713 121.191 121.977  1.00  0.00    -0.035 C 
ATOM     11  C   UNL     1     122.692 121.254 121.070  1.00  0.00     0.004 C 
ENDBRANCH   9  10
ENDBRANCH   8   9
ENDBRANCH   7   8
ENDBRANCH   1   7
TORSDOF 7
ENDMDL
