MODEL 1
REMARK VINA RESULT:    -6.464      0.000      0.000
REMARK INTER + INTRA:         -11.430
REMARK INTER:                  -9.866
REMARK INTRA:                  -1.565
REMARK UNBOUND:                -1.565
REMARK SMILES OC[C@@H]1O[C@](CO)(O[C@@H]2O[C@H](CO)[C@@H](O)[C@H](O)[C@H]2O)[C@@H](O)[C@@H]1O
REMARK SMILES IDX 8 1 9 2 11 3 14 4 10 5 16 6 18 7 12 8 13 9 15 11 17 13 19 15
REMARK SMILES IDX 5 17 20 18 4 19 22 20 3 21 6 22 7 23 21 25 23 27 2 29 1 30
REMARK H PARENT 13 10 15 12 17 14 19 16 7 24 21 26 23 28 1 31
REMARK Flexibility Score: inf
ROOT
ATOM      1  O   UNL     1     -36.990  -4.978 -15.034  1.00  0.00    -0.313 OA
ENDROOT
BRANCH   1   2
ATOM      2  C   UNL     1     -36.102  -5.209 -16.117  1.00  0.00     0.285 C 
ATOM      3  C   UNL     1     -33.922  -4.813 -16.856  1.00  0.00     0.178 C 
ATOM      4  C   UNL     1     -34.379  -4.213 -18.208  1.00  0.00     0.177 C 
ATOM      5  O   UNL     1     -34.881  -4.539 -15.848  1.00  0.00    -0.341 OA
ATOM      6  C   UNL     1     -35.765  -4.779 -18.574  1.00  0.00     0.179 C 
ATOM      7  C   UNL     1     -36.742  -4.631 -17.390  1.00  0.00     0.202 C 
BRANCH   3   8
ATOM      8  C   UNL     1     -32.567  -4.250 -16.404  1.00  0.00     0.191 C 
BRANCH   8   9
ATOM      9  O   UNL     1     -32.230  -3.099 -17.134  1.00  0.00    -0.394 OA
ATOM     10  H   UNL     1     -31.366  -2.770 -16.773  1.00  0.00     0.210 HD
ENDBRANCH   8   9
ENDBRANCH   3   8
BRANCH   4  11
ATOM     11  O   UNL     1     -33.468  -4.546 -19.224  1.00  0.00    -0.387 OA
ATOM     12  H   UNL     1     -33.586  -5.513 -19.418  1.00  0.00     0.211 HD
ENDBRANCH   4  11
BRANCH   6  13
ATOM     13  O   UNL     1     -36.270  -4.154 -19.729  1.00  0.00    -0.387 OA
ATOM     14  H   UNL     1     -37.257  -4.097 -19.634  1.00  0.00     0.211 HD
ENDBRANCH   6  13
BRANCH   7  15
ATOM     15  O   UNL     1     -37.936  -5.318 -17.664  1.00  0.00    -0.385 OA
ATOM     16  H   UNL     1     -38.400  -5.443 -16.795  1.00  0.00     0.211 HD
ENDBRANCH   7  15
ENDBRANCH   1   2
BRANCH   1  17
ATOM     17  C   UNL     1     -37.037  -6.012 -14.050  1.00  0.00     0.224 C 
ATOM     18  C   UNL     1     -37.035  -7.419 -14.726  1.00  0.00     0.208 C 
ATOM     19  O   UNL     1     -38.284  -5.854 -13.392  1.00  0.00    -0.337 OA
ATOM     20  C   UNL     1     -38.494  -7.804 -14.727  1.00  0.00     0.180 C 
ATOM     21  C   UNL     1     -39.017  -7.049 -13.515  1.00  0.00     0.179 C 
BRANCH  17  22
ATOM     22  C   UNL     1     -35.955  -5.825 -12.945  1.00  0.00     0.225 C 
BRANCH  22  23
ATOM     23  O   UNL     1     -35.567  -4.486 -12.799  1.00  0.00    -0.391 OA
ATOM     24  H   UNL     1     -36.404  -3.966 -12.683  1.00  0.00     0.210 HD
ENDBRANCH  22  23
ENDBRANCH  17  22
BRANCH  18  25
ATOM     25  O   UNL     1     -36.319  -8.364 -13.965  1.00  0.00    -0.385 OA
ATOM     26  H   UNL     1     -36.334  -8.052 -13.023  1.00  0.00     0.211 HD
ENDBRANCH  18  25
BRANCH  20  27
ATOM     27  O   UNL     1     -39.127  -7.418 -15.927  1.00  0.00    -0.387 OA
ATOM     28  H   UNL     1     -38.583  -6.706 -16.356  1.00  0.00     0.211 HD
ENDBRANCH  20  27
BRANCH  21  29
ATOM     29  C   UNL     1     -40.520  -6.751 -13.576  1.00  0.00     0.191 C 
BRANCH  29  30
ATOM     30  O   UNL     1     -41.226  -7.942 -13.787  1.00  0.00    -0.394 OA
ATOM     31  H   UNL     1     -41.586  -8.209 -12.901  1.00  0.00     0.210 HD
ENDBRANCH  29  30
ENDBRANCH  21  29
ENDBRANCH   1  17
TORSDOF 13
ENDMDL
MODEL 2
REMARK VINA RESULT:    -6.443      2.134      3.780
REMARK INTER + INTRA:         -11.397
REMARK INTER:                  -9.892
REMARK INTRA:                  -1.505
REMARK UNBOUND:                -1.565
REMARK SMILES OC[C@@H]1O[C@](CO)(O[C@@H]2O[C@H](CO)[C@@H](O)[C@H](O)[C@H]2O)[C@@H](O)[C@@H]1O
REMARK SMILES IDX 8 1 9 2 11 3 14 4 10 5 16 6 18 7 12 8 13 9 15 11 17 13 19 15
REMARK SMILES IDX 5 17 20 18 4 19 22 20 3 21 6 22 7 23 21 25 23 27 2 29 1 30
REMARK H PARENT 13 10 15 12 17 14 19 16 7 24 21 26 23 28 1 31
REMARK Flexibility Score: inf
ROOT
ATOM      1  O   UNL     1     -35.890  -3.475 -16.773  1.00  0.00    -0.313 OA
ENDROOT
BRANCH   1   2
ATOM      2  C   UNL     1     -34.798  -3.742 -17.640  1.00  0.00     0.285 C 
ATOM      3  C   UNL     1     -32.494  -4.123 -17.673  1.00  0.00     0.178 C 
ATOM      4  C   UNL     1     -32.222  -3.022 -18.727  1.00  0.00     0.177 C 
ATOM      5  O   UNL     1     -33.608  -3.769 -16.869  1.00  0.00    -0.341 OA
ATOM      6  C   UNL     1     -33.488  -2.806 -19.576  1.00  0.00     0.179 C 
ATOM      7  C   UNL     1     -34.721  -2.603 -18.672  1.00  0.00     0.202 C 
BRANCH   3   8
ATOM      8  C   UNL     1     -31.285  -4.353 -16.754  1.00  0.00     0.191 C 
BRANCH   8   9
ATOM      9  O   UNL     1     -30.300  -5.117 -17.398  1.00  0.00    -0.394 OA
ATOM     10  H   UNL     1     -30.631  -5.304 -18.315  1.00  0.00     0.210 HD
ENDBRANCH   8   9
ENDBRANCH   3   8
BRANCH   4  11
ATOM     11  O   UNL     1     -31.166  -3.405 -19.572  1.00  0.00    -0.387 OA
ATOM     12  H   UNL     1     -31.572  -3.769 -20.401  1.00  0.00     0.211 HD
ENDBRANCH   4  11
BRANCH   6  13
ATOM     13  O   UNL     1     -33.321  -1.721 -20.456  1.00  0.00    -0.387 OA
ATOM     14  H   UNL     1     -33.090  -2.089 -21.348  1.00  0.00     0.211 HD
ENDBRANCH   6  13
BRANCH   7  15
ATOM     15  O   UNL     1     -35.891  -2.600 -19.448  1.00  0.00    -0.385 OA
ATOM     16  H   UNL     1     -35.606  -2.597 -20.399  1.00  0.00     0.211 HD
ENDBRANCH   7  15
ENDBRANCH   1   2
BRANCH   1  17
ATOM     17  C   UNL     1     -36.770  -4.577 -16.543  1.00  0.00     0.224 C 
ATOM     18  C   UNL     1     -38.120  -4.087 -15.932  1.00  0.00     0.208 C 
ATOM     19  O   UNL     1     -36.124  -5.381 -15.568  1.00  0.00    -0.337 OA
ATOM     20  C   UNL     1     -37.944  -4.342 -14.455  1.00  0.00     0.180 C 
ATOM     21  C   UNL     1     -36.973  -5.513 -14.454  1.00  0.00     0.179 C 
BRANCH  17  22
ATOM     22  C   UNL     1     -36.922  -5.484 -17.800  1.00  0.00     0.225 C 
BRANCH  22  23
ATOM     23  O   UNL     1     -37.730  -4.899 -18.785  1.00  0.00    -0.391 OA
ATOM     24  H   UNL     1     -38.643  -4.848 -18.400  1.00  0.00     0.210 HD
ENDBRANCH  22  23
ENDBRANCH  17  22
BRANCH  18  25
ATOM     25  O   UNL     1     -39.211  -4.849 -16.395  1.00  0.00    -0.385 OA
ATOM     26  H   UNL     1     -39.701  -5.173 -15.596  1.00  0.00     0.211 HD
ENDBRANCH  18  25
BRANCH  20  27
ATOM     27  O   UNL     1     -37.431  -3.205 -13.795  1.00  0.00    -0.387 OA
ATOM     28  H   UNL     1     -38.137  -2.838 -13.202  1.00  0.00     0.211 HD
ENDBRANCH  20  27
BRANCH  21  29
ATOM     29  C   UNL     1     -36.151  -5.630 -13.165  1.00  0.00     0.191 C 
BRANCH  29  30
ATOM     30  O   UNL     1     -35.206  -4.598 -13.117  1.00  0.00    -0.394 OA
ATOM     31  H   UNL     1     -35.691  -3.795 -12.791  1.00  0.00     0.210 HD
ENDBRANCH  29  30
ENDBRANCH  21  29
ENDBRANCH   1  17
TORSDOF 13
ENDMDL
MODEL 3
REMARK VINA RESULT:    -6.303      2.432      5.032
REMARK INTER + INTRA:         -11.184
REMARK INTER:                 -10.017
REMARK INTRA:                  -1.167
REMARK UNBOUND:                -1.565
REMARK SMILES OC[C@@H]1O[C@](CO)(O[C@@H]2O[C@H](CO)[C@@H](O)[C@H](O)[C@H]2O)[C@@H](O)[C@@H]1O
REMARK SMILES IDX 8 1 9 2 11 3 14 4 10 5 16 6 18 7 12 8 13 9 15 11 17 13 19 15
REMARK SMILES IDX 5 17 20 18 4 19 22 20 3 21 6 22 7 23 21 25 23 27 2 29 1 30
REMARK H PARENT 13 10 15 12 17 14 19 16 7 24 21 26 23 28 1 31
REMARK Flexibility Score: inf
ROOT
ATOM      1  O   UNL     1     -35.467  -4.581 -18.418  1.00  0.00    -0.313 OA
ENDROOT
BRANCH   1   2
ATOM      2  C   UNL     1     -34.288  -3.841 -18.137  1.00  0.00     0.285 C 
ATOM      3  C   UNL     1     -32.506  -2.721 -19.150  1.00  0.00     0.178 C 
ATOM      4  C   UNL     1     -31.430  -3.497 -18.352  1.00  0.00     0.177 C 
ATOM      5  O   UNL     1     -33.644  -3.540 -19.365  1.00  0.00    -0.341 OA
ATOM      6  C   UNL     1     -32.035  -3.987 -17.023  1.00  0.00     0.179 C 
ATOM      7  C   UNL     1     -33.370  -4.720 -17.271  1.00  0.00     0.202 C 
BRANCH   3   8
ATOM      8  C   UNL     1     -31.983  -2.248 -20.514  1.00  0.00     0.191 C 
BRANCH   8   9
ATOM      9  O   UNL     1     -32.995  -1.613 -21.250  1.00  0.00    -0.394 OA
ATOM     10  H   UNL     1     -33.749  -1.450 -20.625  1.00  0.00     0.210 HD
ENDBRANCH   8   9
ENDBRANCH   3   8
BRANCH   4  11
ATOM     11  O   UNL     1     -30.333  -2.665 -18.073  1.00  0.00    -0.387 OA
ATOM     12  H   UNL     1     -29.715  -2.726 -18.848  1.00  0.00     0.211 HD
ENDBRANCH   4  11
BRANCH   6  13
ATOM     13  O   UNL     1     -31.127  -4.809 -16.333  1.00  0.00    -0.387 OA
ATOM     14  H   UNL     1     -31.126  -4.526 -15.381  1.00  0.00     0.211 HD
ENDBRANCH   6  13
BRANCH   7  15
ATOM     15  O   UNL     1     -34.004  -4.991 -16.048  1.00  0.00    -0.385 OA
ATOM     16  H   UNL     1     -33.414  -4.635 -15.333  1.00  0.00     0.211 HD
ENDBRANCH   7  15
ENDBRANCH   1   2
BRANCH   1  17
ATOM     17  C   UNL     1     -36.688  -3.847 -18.314  1.00  0.00     0.224 C 
ATOM     18  C   UNL     1     -36.431  -2.428 -17.717  1.00  0.00     0.208 C 
ATOM     19  O   UNL     1     -37.485  -4.565 -17.385  1.00  0.00    -0.337 OA
ATOM     20  C   UNL     1     -36.789  -2.595 -16.260  1.00  0.00     0.180 C 
ATOM     21  C   UNL     1     -37.822  -3.710 -16.319  1.00  0.00     0.179 C 
BRANCH  17  22
ATOM     22  C   UNL     1     -37.494  -3.850 -19.646  1.00  0.00     0.225 C 
BRANCH  22  23
ATOM     23  O   UNL     1     -36.906  -4.665 -20.624  1.00  0.00    -0.391 OA
ATOM     24  H   UNL     1     -37.267  -5.577 -20.478  1.00  0.00     0.210 HD
ENDBRANCH  22  23
ENDBRANCH  17  22
BRANCH  18  25
ATOM     25  O   UNL     1     -37.284  -1.460 -18.284  1.00  0.00    -0.385 OA
ATOM     26  H   UNL     1     -37.545  -0.838 -17.556  1.00  0.00     0.211 HD
ENDBRANCH  18  25
BRANCH  20  27
ATOM     27  O   UNL     1     -35.658  -2.936 -15.489  1.00  0.00    -0.387 OA
ATOM     28  H   UNL     1     -34.911  -3.156 -16.105  1.00  0.00     0.211 HD
ENDBRANCH  20  27
BRANCH  21  29
ATOM     29  C   UNL     1     -37.944  -4.505 -15.014  1.00  0.00     0.191 C 
BRANCH  29  30
ATOM     30  O   UNL     1     -36.852  -5.372 -14.889  1.00  0.00    -0.394 OA
ATOM     31  H   UNL     1     -36.060  -4.867 -15.212  1.00  0.00     0.210 HD
ENDBRANCH  29  30
ENDBRANCH  21  29
ENDBRANCH   1  17
TORSDOF 13
ENDMDL
MODEL 4
REMARK VINA RESULT:    -6.277      2.592      3.383
REMARK INTER + INTRA:         -11.145
REMARK INTER:                  -9.524
REMARK INTRA:                  -1.621
REMARK UNBOUND:                -1.565
REMARK SMILES OC[C@@H]1O[C@](CO)(O[C@@H]2O[C@H](CO)[C@@H](O)[C@H](O)[C@H]2O)[C@@H](O)[C@@H]1O
REMARK SMILES IDX 8 1 9 2 11 3 14 4 10 5 16 6 18 7 12 8 13 9 15 11 17 13 19 15
REMARK SMILES IDX 5 17 20 18 4 19 22 20 3 21 6 22 7 23 21 25 23 27 2 29 1 30
REMARK H PARENT 13 10 15 12 17 14 19 16 7 24 21 26 23 28 1 31
REMARK Flexibility Score: inf
ROOT
ATOM      1  O   UNL     1     -35.363  -3.331 -16.665  1.00  0.00    -0.313 OA
ENDROOT
BRANCH   1   2
ATOM      2  C   UNL     1     -34.358  -3.619 -17.625  1.00  0.00     0.285 C 
ATOM      3  C   UNL     1     -32.058  -3.939 -17.878  1.00  0.00     0.178 C 
ATOM      4  C   UNL     1     -31.934  -2.896 -19.016  1.00  0.00     0.177 C 
ATOM      5  O   UNL     1     -33.094  -3.567 -16.983  1.00  0.00    -0.341 OA
ATOM      6  C   UNL     1     -33.288  -2.767 -19.739  1.00  0.00     0.179 C 
ATOM      7  C   UNL     1     -34.427  -2.544 -18.723  1.00  0.00     0.202 C 
BRANCH   3   8
ATOM      8  C   UNL     1     -30.754  -4.079 -17.080  1.00  0.00     0.191 C 
BRANCH   8   9
ATOM      9  O   UNL     1     -30.019  -5.197 -17.506  1.00  0.00    -0.394 OA
ATOM     10  H   UNL     1     -30.581  -5.676 -18.170  1.00  0.00     0.210 HD
ENDBRANCH   8   9
ENDBRANCH   3   8
BRANCH   4  11
ATOM     11  O   UNL     1     -30.959  -3.300 -19.944  1.00  0.00    -0.387 OA
ATOM     12  H   UNL     1     -30.343  -2.532 -20.073  1.00  0.00     0.211 HD
ENDBRANCH   4  11
BRANCH   6  13
ATOM     13  O   UNL     1     -33.249  -1.733 -20.691  1.00  0.00    -0.387 OA
ATOM     14  H   UNL     1     -33.664  -2.076 -21.526  1.00  0.00     0.211 HD
ENDBRANCH   6  13
BRANCH   7  15
ATOM     15  O   UNL     1     -35.671  -2.619 -19.370  1.00  0.00    -0.385 OA
ATOM     16  H   UNL     1     -35.630  -1.998 -20.144  1.00  0.00     0.211 HD
ENDBRANCH   7  15
ENDBRANCH   1   2
BRANCH   1  17
ATOM     17  C   UNL     1     -35.997  -4.471 -16.083  1.00  0.00     0.224 C 
ATOM     18  C   UNL     1     -36.057  -5.651 -17.103  1.00  0.00     0.208 C 
ATOM     19  O   UNL     1     -37.331  -4.068 -15.815  1.00  0.00    -0.337 OA
ATOM     20  C   UNL     1     -37.459  -5.561 -17.654  1.00  0.00     0.180 C 
ATOM     21  C   UNL     1     -38.211  -4.932 -16.492  1.00  0.00     0.179 C 
BRANCH  17  22
ATOM     22  C   UNL     1     -35.387  -4.845 -14.700  1.00  0.00     0.225 C 
BRANCH  22  23
ATOM     23  O   UNL     1     -34.408  -3.932 -14.284  1.00  0.00    -0.391 OA
ATOM     24  H   UNL     1     -33.843  -4.412 -13.625  1.00  0.00     0.210 HD
ENDBRANCH  22  23
ENDBRANCH  17  22
BRANCH  18  25
ATOM     25  O   UNL     1     -35.900  -6.899 -16.469  1.00  0.00    -0.385 OA
ATOM     26  H   UNL     1     -35.412  -7.488 -17.100  1.00  0.00     0.211 HD
ENDBRANCH  18  25
BRANCH  20  27
ATOM     27  O   UNL     1     -37.501  -4.773 -18.824  1.00  0.00    -0.387 OA
ATOM     28  H   UNL     1     -37.955  -5.293 -19.538  1.00  0.00     0.211 HD
ENDBRANCH  20  27
BRANCH  21  29
ATOM     29  C   UNL     1     -39.479  -4.180 -16.913  1.00  0.00     0.191 C 
BRANCH  29  30
ATOM     30  O   UNL     1     -39.130  -2.926 -17.431  1.00  0.00    -0.394 OA
ATOM     31  H   UNL     1     -38.143  -2.935 -17.532  1.00  0.00     0.210 HD
ENDBRANCH  29  30
ENDBRANCH  21  29
ENDBRANCH   1  17
TORSDOF 13
ENDMDL
MODEL 5
REMARK VINA RESULT:    -6.165      1.511      3.152
REMARK INTER + INTRA:         -10.973
REMARK INTER:                  -9.387
REMARK INTRA:                  -1.586
REMARK UNBOUND:                -1.565
REMARK SMILES OC[C@@H]1O[C@](CO)(O[C@@H]2O[C@H](CO)[C@@H](O)[C@H](O)[C@H]2O)[C@@H](O)[C@@H]1O
REMARK SMILES IDX 8 1 9 2 11 3 14 4 10 5 16 6 18 7 12 8 13 9 15 11 17 13 19 15
REMARK SMILES IDX 5 17 20 18 4 19 22 20 3 21 6 22 7 23 21 25 23 27 2 29 1 30
REMARK H PARENT 13 10 15 12 17 14 19 16 7 24 21 26 23 28 1 31
REMARK Flexibility Score: inf
ROOT
ATOM      1  O   UNL     1     -35.579  -5.939 -15.467  1.00  0.00    -0.313 OA
ENDROOT
BRANCH   1   2
ATOM      2  C   UNL     1     -35.512  -4.848 -16.371  1.00  0.00     0.285 C 
ATOM      3  C   UNL     1     -35.991  -4.215 -18.568  1.00  0.00     0.178 C 
ATOM      4  C   UNL     1     -34.561  -3.686 -18.837  1.00  0.00     0.177 C 
ATOM      5  O   UNL     1     -35.950  -5.291 -17.646  1.00  0.00    -0.341 OA
ATOM      6  C   UNL     1     -33.914  -3.266 -17.504  1.00  0.00     0.179 C 
ATOM      7  C   UNL     1     -34.045  -4.392 -16.458  1.00  0.00     0.202 C 
BRANCH   3   8
ATOM      8  C   UNL     1     -36.676  -4.701 -19.853  1.00  0.00     0.191 C 
BRANCH   8   9
ATOM      9  O   UNL     1     -37.505  -3.704 -20.392  1.00  0.00    -0.394 OA
ATOM     10  H   UNL     1     -37.252  -3.602 -21.346  1.00  0.00     0.210 HD
ENDBRANCH   8   9
ENDBRANCH   3   8
BRANCH   4  11
ATOM     11  O   UNL     1     -34.604  -2.572 -19.693  1.00  0.00    -0.387 OA
ATOM     12  H   UNL     1     -35.445  -2.638 -20.216  1.00  0.00     0.211 HD
ENDBRANCH   4  11
BRANCH   6  13
ATOM     13  O   UNL     1     -32.567  -2.905 -17.693  1.00  0.00    -0.387 OA
ATOM     14  H   UNL     1     -32.077  -3.716 -17.993  1.00  0.00     0.211 HD
ENDBRANCH   6  13
BRANCH   7  15
ATOM     15  O   UNL     1     -33.627  -3.930 -15.199  1.00  0.00    -0.385 OA
ATOM     16  H   UNL     1     -32.696  -4.248 -15.071  1.00  0.00     0.211 HD
ENDBRANCH   7  15
ENDBRANCH   1   2
BRANCH   1  17
ATOM     17  C   UNL     1     -36.605  -5.850 -14.477  1.00  0.00     0.224 C 
ATOM     18  C   UNL     1     -37.651  -6.994 -14.660  1.00  0.00     0.208 C 
ATOM     19  O   UNL     1     -37.266  -4.620 -14.725  1.00  0.00    -0.337 OA
ATOM     20  C   UNL     1     -38.773  -6.320 -15.412  1.00  0.00     0.180 C 
ATOM     21  C   UNL     1     -38.631  -4.876 -14.954  1.00  0.00     0.179 C 
BRANCH  17  22
ATOM     22  C   UNL     1     -36.026  -5.730 -13.036  1.00  0.00     0.225 C 
BRANCH  22  23
ATOM     23  O   UNL     1     -35.393  -4.499 -12.816  1.00  0.00    -0.391 OA
ATOM     24  H   UNL     1     -35.595  -3.938 -13.608  1.00  0.00     0.210 HD
ENDBRANCH  22  23
ENDBRANCH  17  22
BRANCH  18  25
ATOM     25  O   UNL     1     -38.147  -7.452 -13.423  1.00  0.00    -0.385 OA
ATOM     26  H   UNL     1     -39.073  -7.771 -13.580  1.00  0.00     0.211 HD
ENDBRANCH  18  25
BRANCH  20  27
ATOM     27  O   UNL     1     -38.620  -6.470 -16.806  1.00  0.00    -0.387 OA
ATOM     28  H   UNL     1     -39.423  -6.096 -17.254  1.00  0.00     0.211 HD
ENDBRANCH  20  27
BRANCH  21  29
ATOM     29  C   UNL     1     -39.208  -3.857 -15.944  1.00  0.00     0.191 C 
BRANCH  29  30
ATOM     30  O   UNL     1     -38.316  -2.786 -16.087  1.00  0.00    -0.394 OA
ATOM     31  H   UNL     1     -38.858  -2.018 -16.407  1.00  0.00     0.210 HD
ENDBRANCH  29  30
ENDBRANCH  21  29
ENDBRANCH   1  17
TORSDOF 13
ENDMDL
MODEL 6
REMARK VINA RESULT:    -6.096      1.614      3.095
REMARK INTER + INTRA:         -10.868
REMARK INTER:                  -9.500
REMARK INTRA:                  -1.368
REMARK UNBOUND:                -1.565
REMARK SMILES OC[C@@H]1O[C@](CO)(O[C@@H]2O[C@H](CO)[C@@H](O)[C@H](O)[C@H]2O)[C@@H](O)[C@@H]1O
REMARK SMILES IDX 8 1 9 2 11 3 14 4 10 5 16 6 18 7 12 8 13 9 15 11 17 13 19 15
REMARK SMILES IDX 5 17 20 18 4 19 22 20 3 21 6 22 7 23 21 25 23 27 2 29 1 30
REMARK H PARENT 13 10 15 12 17 14 19 16 7 24 21 26 23 28 1 31
REMARK Flexibility Score: inf
ROOT
ATOM      1  O   UNL     1     -36.872  -6.703 -16.065  1.00  0.00    -0.313 OA
ENDROOT
BRANCH   1   2
ATOM      2  C   UNL     1     -36.867  -5.424 -16.679  1.00  0.00     0.285 C 
ATOM      3  C   UNL     1     -38.221  -3.896 -17.814  1.00  0.00     0.178 C 
ATOM      4  C   UNL     1     -37.241  -3.754 -19.004  1.00  0.00     0.177 C 
ATOM      5  O   UNL     1     -38.140  -5.201 -17.265  1.00  0.00    -0.341 OA
ATOM      6  C   UNL     1     -35.812  -4.081 -18.529  1.00  0.00     0.179 C 
ATOM      7  C   UNL     1     -35.786  -5.425 -17.773  1.00  0.00     0.202 C 
BRANCH   3   8
ATOM      8  C   UNL     1     -39.676  -3.634 -18.232  1.00  0.00     0.191 C 
BRANCH   8   9
ATOM      9  O   UNL     1     -39.872  -3.930 -19.590  1.00  0.00    -0.394 OA
ATOM     10  H   UNL     1     -39.115  -4.506 -19.873  1.00  0.00     0.210 HD
ENDBRANCH   8   9
ENDBRANCH   3   8
BRANCH   4  11
ATOM     11  O   UNL     1     -37.265  -2.440 -19.503  1.00  0.00    -0.387 OA
ATOM     12  H   UNL     1     -37.546  -2.493 -20.453  1.00  0.00     0.211 HD
ENDBRANCH   4  11
BRANCH   6  13
ATOM     13  O   UNL     1     -34.915  -4.091 -19.612  1.00  0.00    -0.387 OA
ATOM     14  H   UNL     1     -35.418  -3.813 -20.422  1.00  0.00     0.211 HD
ENDBRANCH   6  13
BRANCH   7  15
ATOM     15  O   UNL     1     -34.527  -5.619 -17.182  1.00  0.00    -0.385 OA
ATOM     16  H   UNL     1     -34.464  -4.981 -16.423  1.00  0.00     0.211 HD
ENDBRANCH   7  15
ENDBRANCH   1   2
BRANCH   1  17
ATOM     17  C   UNL     1     -36.887  -6.696 -14.637  1.00  0.00     0.224 C 
ATOM     18  C   UNL     1     -37.171  -8.126 -14.079  1.00  0.00     0.208 C 
ATOM     19  O   UNL     1     -37.981  -5.869 -14.273  1.00  0.00    -0.337 OA
ATOM     20  C   UNL     1     -38.648  -8.090 -13.769  1.00  0.00     0.180 C 
ATOM     21  C   UNL     1     -38.868  -6.614 -13.474  1.00  0.00     0.179 C 
BRANCH  17  22
ATOM     22  C   UNL     1     -35.625  -6.008 -14.036  1.00  0.00     0.225 C 
BRANCH  22  23
ATOM     23  O   UNL     1     -35.776  -5.711 -12.674  1.00  0.00    -0.391 OA
ATOM     24  H   UNL     1     -35.117  -6.276 -12.193  1.00  0.00     0.210 HD
ENDBRANCH  22  23
ENDBRANCH  17  22
BRANCH  18  25
ATOM     25  O   UNL     1     -36.464  -8.372 -12.885  1.00  0.00    -0.385 OA
ATOM     26  H   UNL     1     -36.411  -9.356 -12.775  1.00  0.00     0.211 HD
ENDBRANCH  18  25
BRANCH  20  27
ATOM     27  O   UNL     1     -39.413  -8.550 -14.861  1.00  0.00    -0.387 OA
ATOM     28  H   UNL     1     -40.255  -8.024 -14.900  1.00  0.00     0.211 HD
ENDBRANCH  20  27
BRANCH  21  29
ATOM     29  C   UNL     1     -40.311  -6.149 -13.700  1.00  0.00     0.191 C 
BRANCH  29  30
ATOM     30  O   UNL     1     -40.415  -5.534 -14.954  1.00  0.00    -0.394 OA
ATOM     31  H   UNL     1     -41.278  -5.044 -14.950  1.00  0.00     0.210 HD
ENDBRANCH  29  30
ENDBRANCH  21  29
ENDBRANCH   1  17
TORSDOF 13
ENDMDL
MODEL 7
REMARK VINA RESULT:    -5.972      1.872      6.445
REMARK INTER + INTRA:         -10.679
REMARK INTER:                  -9.002
REMARK INTRA:                  -1.678
REMARK UNBOUND:                -1.565
REMARK SMILES OC[C@@H]1O[C@](CO)(O[C@@H]2O[C@H](CO)[C@@H](O)[C@H](O)[C@H]2O)[C@@H](O)[C@@H]1O
REMARK SMILES IDX 8 1 9 2 11 3 14 4 10 5 16 6 18 7 12 8 13 9 15 11 17 13 19 15
REMARK SMILES IDX 5 17 20 18 4 19 22 20 3 21 6 22 7 23 21 25 23 27 2 29 1 30
REMARK H PARENT 13 10 15 12 17 14 19 16 7 24 21 26 23 28 1 31
REMARK Flexibility Score: inf
ROOT
ATOM      1  O   UNL     1     -37.691  -4.239 -15.139  1.00  0.00    -0.313 OA
ENDROOT
BRANCH   1   2
ATOM      2  C   UNL     1     -38.173  -5.561 -14.959  1.00  0.00     0.285 C 
ATOM      3  C   UNL     1     -39.934  -6.794 -14.045  1.00  0.00     0.178 C 
ATOM      4  C   UNL     1     -38.999  -7.718 -13.227  1.00  0.00     0.177 C 
ATOM      5  O   UNL     1     -39.357  -5.506 -14.179  1.00  0.00    -0.341 OA
ATOM      6  C   UNL     1     -37.620  -7.782 -13.911  1.00  0.00     0.179 C 
ATOM      7  C   UNL     1     -37.096  -6.363 -14.210  1.00  0.00     0.202 C 
BRANCH   3   8
ATOM      8  C   UNL     1     -41.314  -6.643 -13.388  1.00  0.00     0.191 C 
BRANCH   8   9
ATOM      9  O   UNL     1     -42.181  -7.670 -13.794  1.00  0.00    -0.394 OA
ATOM     10  H   UNL     1     -42.831  -7.808 -13.057  1.00  0.00     0.210 HD
ENDBRANCH   8   9
ENDBRANCH   3   8
BRANCH   4  11
ATOM     11  O   UNL     1     -39.534  -9.016 -13.156  1.00  0.00    -0.387 OA
ATOM     12  H   UNL     1     -40.521  -8.923 -13.106  1.00  0.00     0.211 HD
ENDBRANCH   4  11
BRANCH   6  13
ATOM     13  O   UNL     1     -36.705  -8.505 -13.124  1.00  0.00    -0.387 OA
ATOM     14  H   UNL     1     -36.275  -9.183 -13.708  1.00  0.00     0.211 HD
ENDBRANCH   6  13
BRANCH   7  15
ATOM     15  O   UNL     1     -35.937  -6.436 -15.000  1.00  0.00    -0.385 OA
ATOM     16  H   UNL     1     -35.234  -5.919 -14.527  1.00  0.00     0.211 HD
ENDBRANCH   7  15
ENDBRANCH   1   2
BRANCH   1  17
ATOM     17  C   UNL     1     -38.089  -3.603 -16.354  1.00  0.00     0.224 C 
ATOM     18  C   UNL     1     -38.282  -4.655 -17.491  1.00  0.00     0.208 C 
ATOM     19  O   UNL     1     -37.001  -2.769 -16.721  1.00  0.00    -0.337 OA
ATOM     20  C   UNL     1     -36.984  -4.576 -18.259  1.00  0.00     0.180 C 
ATOM     21  C   UNL     1     -36.558  -3.138 -18.005  1.00  0.00     0.179 C 
BRANCH  17  22
ATOM     22  C   UNL     1     -39.300  -2.645 -16.150  1.00  0.00     0.225 C 
BRANCH  22  23
ATOM     23  O   UNL     1     -39.658  -2.517 -14.801  1.00  0.00    -0.391 OA
ATOM     24  H   UNL     1     -39.102  -3.170 -14.304  1.00  0.00     0.210 HD
ENDBRANCH  22  23
ENDBRANCH  17  22
BRANCH  18  25
ATOM     25  O   UNL     1     -39.339  -4.305 -18.354  1.00  0.00    -0.385 OA
ATOM     26  H   UNL     1     -40.056  -3.911 -17.793  1.00  0.00     0.211 HD
ENDBRANCH  18  25
BRANCH  20  27
ATOM     27  O   UNL     1     -36.047  -5.517 -17.782  1.00  0.00    -0.387 OA
ATOM     28  H   UNL     1     -36.397  -6.429 -17.959  1.00  0.00     0.211 HD
ENDBRANCH  20  27
BRANCH  21  29
ATOM     29  C   UNL     1     -35.048  -2.911 -18.136  1.00  0.00     0.191 C 
BRANCH  29  30
ATOM     30  O   UNL     1     -34.426  -3.173 -16.908  1.00  0.00    -0.394 OA
ATOM     31  H   UNL     1     -34.527  -4.148 -16.751  1.00  0.00     0.210 HD
ENDBRANCH  29  30
ENDBRANCH  21  29
ENDBRANCH   1  17
TORSDOF 13
ENDMDL
MODEL 8
REMARK VINA RESULT:    -5.914      2.086      5.973
REMARK INTER + INTRA:         -10.590
REMARK INTER:                  -9.054
REMARK INTRA:                  -1.536
REMARK UNBOUND:                -1.565
REMARK SMILES OC[C@@H]1O[C@](CO)(O[C@@H]2O[C@H](CO)[C@@H](O)[C@H](O)[C@H]2O)[C@@H](O)[C@@H]1O
REMARK SMILES IDX 8 1 9 2 11 3 14 4 10 5 16 6 18 7 12 8 13 9 15 11 17 13 19 15
REMARK SMILES IDX 5 17 20 18 4 19 22 20 3 21 6 22 7 23 21 25 23 27 2 29 1 30
REMARK H PARENT 13 10 15 12 17 14 19 16 7 24 21 26 23 28 1 31
REMARK Flexibility Score: inf
ROOT
ATOM      1  O   UNL     1     -37.533  -4.178 -14.763  1.00  0.00    -0.313 OA
ENDROOT
BRANCH   1   2
ATOM      2  C   UNL     1     -38.115  -4.644 -13.556  1.00  0.00     0.285 C 
ATOM      3  C   UNL     1     -39.881  -5.917 -12.708  1.00  0.00     0.178 C 
ATOM      4  C   UNL     1     -40.362  -4.800 -11.749  1.00  0.00     0.177 C 
ATOM      5  O   UNL     1     -39.305  -5.349 -13.873  1.00  0.00    -0.341 OA
ATOM      6  C   UNL     1     -39.177  -3.879 -11.404  1.00  0.00     0.179 C 
ATOM      7  C   UNL     1     -38.454  -3.420 -12.688  1.00  0.00     0.202 C 
BRANCH   3   8
ATOM      8  C   UNL     1     -41.028  -6.844 -13.135  1.00  0.00     0.191 C 
BRANCH   8   9
ATOM      9  O   UNL     1     -40.593  -7.781 -14.085  1.00  0.00    -0.394 OA
ATOM     10  H   UNL     1     -40.337  -8.601 -13.587  1.00  0.00     0.210 HD
ENDBRANCH   8   9
ENDBRANCH   3   8
BRANCH   4  11
ATOM     11  O   UNL     1     -40.865  -5.359 -10.562  1.00  0.00    -0.387 OA
ATOM     12  H   UNL     1     -41.778  -5.694 -10.760  1.00  0.00     0.211 HD
ENDBRANCH   4  11
BRANCH   6  13
ATOM     13  O   UNL     1     -39.606  -2.777 -10.643  1.00  0.00    -0.387 OA
ATOM     14  H   UNL     1     -38.915  -2.067 -10.723  1.00  0.00     0.211 HD
ENDBRANCH   6  13
BRANCH   7  15
ATOM     15  O   UNL     1     -37.270  -2.743 -12.356  1.00  0.00    -0.385 OA
ATOM     16  H   UNL     1     -36.658  -3.414 -11.954  1.00  0.00     0.211 HD
ENDBRANCH   7  15
ENDBRANCH   1   2
BRANCH   1  17
ATOM     17  C   UNL     1     -36.447  -4.962 -15.260  1.00  0.00     0.224 C 
ATOM     18  C   UNL     1     -36.808  -5.593 -16.642  1.00  0.00     0.208 C 
ATOM     19  O   UNL     1     -36.289  -6.024 -14.332  1.00  0.00    -0.337 OA
ATOM     20  C   UNL     1     -37.228  -6.997 -16.281  1.00  0.00     0.180 C 
ATOM     21  C   UNL     1     -36.426  -7.247 -15.013  1.00  0.00     0.179 C 
BRANCH  17  22
ATOM     22  C   UNL     1     -35.098  -4.184 -15.239  1.00  0.00     0.225 C 
BRANCH  22  23
ATOM     23  O   UNL     1     -35.078  -3.126 -16.159  1.00  0.00    -0.391 OA
ATOM     24  H   UNL     1     -34.169  -3.121 -16.555  1.00  0.00     0.210 HD
ENDBRANCH  22  23
ENDBRANCH  17  22
BRANCH  18  25
ATOM     25  O   UNL     1     -35.688  -5.661 -17.494  1.00  0.00    -0.385 OA
ATOM     26  H   UNL     1     -34.887  -5.762 -16.917  1.00  0.00     0.211 HD
ENDBRANCH  18  25
BRANCH  20  27
ATOM     27  O   UNL     1     -38.621  -7.079 -16.073  1.00  0.00    -0.387 OA
ATOM     28  H   UNL     1     -39.063  -6.371 -16.611  1.00  0.00     0.211 HD
ENDBRANCH  20  27
BRANCH  21  29
ATOM     29  C   UNL     1     -37.044  -8.306 -14.093  1.00  0.00     0.191 C 
BRANCH  29  30
ATOM     30  O   UNL     1     -36.319  -8.368 -12.896  1.00  0.00    -0.394 OA
ATOM     31  H   UNL     1     -35.986  -9.300 -12.823  1.00  0.00     0.210 HD
ENDBRANCH  29  30
ENDBRANCH  21  29
ENDBRANCH   1  17
TORSDOF 13
ENDMDL
MODEL 9
REMARK VINA RESULT:    -5.828      2.903      4.810
REMARK INTER + INTRA:         -10.459
REMARK INTER:                  -8.536
REMARK INTRA:                  -1.924
REMARK UNBOUND:                -1.565
REMARK SMILES OC[C@@H]1O[C@](CO)(O[C@@H]2O[C@H](CO)[C@@H](O)[C@H](O)[C@H]2O)[C@@H](O)[C@@H]1O
REMARK SMILES IDX 8 1 9 2 11 3 14 4 10 5 16 6 18 7 12 8 13 9 15 11 17 13 19 15
REMARK SMILES IDX 5 17 20 18 4 19 22 20 3 21 6 22 7 23 21 25 23 27 2 29 1 30
REMARK H PARENT 13 10 15 12 17 14 19 16 7 24 21 26 23 28 1 31
REMARK Flexibility Score: inf
ROOT
ATOM      1  O   UNL     1     -36.200  -4.740 -14.782  1.00  0.00    -0.313 OA
ENDROOT
BRANCH   1   2
ATOM      2  C   UNL     1     -36.937  -3.570 -14.461  1.00  0.00     0.285 C 
ATOM      3  C   UNL     1     -37.287  -1.352 -15.106  1.00  0.00     0.178 C 
ATOM      4  C   UNL     1     -37.022  -0.790 -13.688  1.00  0.00     0.177 C 
ATOM      5  O   UNL     1     -36.517  -2.523 -15.321  1.00  0.00    -0.341 OA
ATOM      6  C   UNL     1     -37.336  -1.876 -12.642  1.00  0.00     0.179 C 
ATOM      7  C   UNL     1     -36.627  -3.197 -13.001  1.00  0.00     0.202 C 
BRANCH   3   8
ATOM      8  C   UNL     1     -36.943  -0.335 -16.203  1.00  0.00     0.191 C 
BRANCH   8   9
ATOM      9  O   UNL     1     -36.019   0.615 -15.740  1.00  0.00    -0.394 OA
ATOM     10  H   UNL     1     -36.402   1.011 -14.914  1.00  0.00     0.210 HD
ENDBRANCH   8   9
ENDBRANCH   3   8
BRANCH   4  11
ATOM     11  O   UNL     1     -37.839   0.327 -13.445  1.00  0.00    -0.387 OA
ATOM     12  H   UNL     1     -37.586   0.687 -12.555  1.00  0.00     0.211 HD
ENDBRANCH   4  11
BRANCH   6  13
ATOM     13  O   UNL     1     -36.980  -1.444 -11.351  1.00  0.00    -0.387 OA
ATOM     14  H   UNL     1     -37.456  -0.590 -11.177  1.00  0.00     0.211 HD
ENDBRANCH   6  13
BRANCH   7  15
ATOM     15  O   UNL     1     -37.070  -4.226 -12.155  1.00  0.00    -0.385 OA
ATOM     16  H   UNL     1     -37.245  -3.814 -11.269  1.00  0.00     0.211 HD
ENDBRANCH   7  15
ENDBRANCH   1   2
BRANCH   1  17
ATOM     17  C   UNL     1     -36.853  -5.649 -15.669  1.00  0.00     0.224 C 
ATOM     18  C   UNL     1     -38.404  -5.542 -15.528  1.00  0.00     0.208 C 
ATOM     19  O   UNL     1     -36.472  -6.944 -15.233  1.00  0.00    -0.337 OA
ATOM     20  C   UNL     1     -38.749  -6.695 -14.617  1.00  0.00     0.180 C 
ATOM     21  C   UNL     1     -37.631  -7.679 -14.923  1.00  0.00     0.179 C 
BRANCH  17  22
ATOM     22  C   UNL     1     -36.329  -5.528 -17.130  1.00  0.00     0.225 C 
BRANCH  22  23
ATOM     23  O   UNL     1     -36.740  -4.338 -17.748  1.00  0.00    -0.391 OA
ATOM     24  H   UNL     1     -36.186  -4.245 -18.566  1.00  0.00     0.210 HD
ENDBRANCH  22  23
ENDBRANCH  17  22
BRANCH  18  25
ATOM     25  O   UNL     1     -39.056  -5.730 -16.763  1.00  0.00    -0.385 OA
ATOM     26  H   UNL     1     -39.959  -5.328 -16.681  1.00  0.00     0.211 HD
ENDBRANCH  18  25
BRANCH  20  27
ATOM     27  O   UNL     1     -38.771  -6.293 -13.265  1.00  0.00    -0.387 OA
ATOM     28  H   UNL     1     -38.948  -7.091 -12.701  1.00  0.00     0.211 HD
ENDBRANCH  20  27
BRANCH  21  29
ATOM     29  C   UNL     1     -37.350  -8.665 -13.783  1.00  0.00     0.191 C 
BRANCH  29  30
ATOM     30  O   UNL     1     -36.436  -8.097 -12.887  1.00  0.00    -0.394 OA
ATOM     31  H   UNL     1     -36.644  -8.486 -11.997  1.00  0.00     0.210 HD
ENDBRANCH  29  30
ENDBRANCH  21  29
ENDBRANCH   1  17
TORSDOF 13
ENDMDL
