MODEL 1
REMARK VINA RESULT:    -5.658      0.000      0.000
REMARK INTER + INTRA:         -10.562
REMARK INTER:                  -9.959
REMARK INTRA:                  -0.603
REMARK UNBOUND:                -0.603
REMARK SMILES CCCCCCC=CCCCCCCCC(=O)[O-]
REMARK SMILES IDX 10 1 11 2 12 3 13 4 14 5 15 6 16 7 17 8 18 9 9 10 8 11 7 12
REMARK SMILES IDX 6 13 5 14 4 15 3 16 2 17 1 18
REMARK H PARENT
REMARK Flexibility Score: inf
ROOT
ATOM      1  C   UNL     1      21.361 -13.736  20.080  1.00  0.00     0.004 C 
ENDROOT
BRANCH   1   2
ATOM      2  C   UNL     1      22.593 -14.574  20.464  1.00  0.00     0.000 C 
BRANCH   2   3
ATOM      3  C   UNL     1      23.000 -15.560  19.360  1.00  0.00     0.000 C 
BRANCH   3   4
ATOM      4  C   UNL     1      23.254 -16.978  19.897  1.00  0.00     0.000 C 
BRANCH   4   5
ATOM      5  C   UNL     1      23.500 -18.007  18.779  1.00  0.00     0.006 C 
BRANCH   5   6
ATOM      6  C   UNL     1      23.031 -17.540  17.389  1.00  0.00     0.053 C 
BRANCH   6   7
ATOM      7  C   UNL     1      23.045 -18.642  16.373  1.00  0.00     0.041 C 
ATOM      8  O   UNL     1      24.111 -18.933  15.769  1.00  0.00    -0.550 OA
ATOM      9  O   UNL     1      21.889 -19.368  16.114  1.00  0.00    -0.550 OA
ENDBRANCH   6   7
ENDBRANCH   5   6
ENDBRANCH   4   5
ENDBRANCH   3   4
ENDBRANCH   2   3
ENDBRANCH   1   2
BRANCH   1  10
ATOM     10  C   UNL     1      20.902 -12.854  21.248  1.00  0.00     0.027 C 
BRANCH  10  11
ATOM     11  C   UNL     1      22.029 -11.967  21.720  1.00  0.00    -0.031 C 
ATOM     12  C   UNL     1      21.942 -11.063  22.716  1.00  0.00    -0.031 C 
BRANCH  12  13
ATOM     13  C   UNL     1      20.707 -10.799  23.543  1.00  0.00     0.027 C 
BRANCH  13  14
ATOM     14  C   UNL     1      20.941  -9.662  24.547  1.00  0.00     0.004 C 
BRANCH  14  15
ATOM     15  C   UNL     1      21.100  -8.311  23.837  1.00  0.00     0.000 C 
BRANCH  15  16
ATOM     16  C   UNL     1      21.363  -7.150  24.814  1.00  0.00    -0.000 C 
BRANCH  16  17
ATOM     17  C   UNL     1      20.749  -7.323  26.217  1.00  0.00    -0.003 C 
ATOM     18  C   UNL     1      21.689  -6.895  27.344  1.00  0.00     0.004 C 
ENDBRANCH  16  17
ENDBRANCH  15  16
ENDBRANCH  14  15
ENDBRANCH  13  14
ENDBRANCH  12  13
ENDBRANCH  10  11
ENDBRANCH   1  10
TORSDOF 13
ENDMDL
MODEL 2
REMARK VINA RESULT:    -5.579      1.412      2.530
REMARK INTER + INTRA:         -10.422
REMARK INTER:                  -9.748
REMARK INTRA:                  -0.673
REMARK UNBOUND:                -0.603
REMARK SMILES CCCCCCC=CCCCCCCCC(=O)[O-]
REMARK SMILES IDX 10 1 11 2 12 3 13 4 14 5 15 6 16 7 17 8 18 9 9 10 8 11 7 12
REMARK SMILES IDX 6 13 5 14 4 15 3 16 2 17 1 18
REMARK H PARENT
REMARK Flexibility Score: inf
ROOT
ATOM      1  C   UNL     1      22.815 -15.790  19.676  1.00  0.00     0.004 C 
ENDROOT
BRANCH   1   2
ATOM      2  C   UNL     1      22.708 -15.455  18.179  1.00  0.00     0.000 C 
BRANCH   2   3
ATOM      3  C   UNL     1      23.000 -16.668  17.283  1.00  0.00     0.000 C 
BRANCH   3   4
ATOM      4  C   UNL     1      23.592 -17.852  18.064  1.00  0.00     0.000 C 
BRANCH   4   5
ATOM      5  C   UNL     1      23.434 -19.194  17.327  1.00  0.00     0.006 C 
BRANCH   5   6
ATOM      6  C   UNL     1      22.131 -19.310  16.516  1.00  0.00     0.053 C 
BRANCH   6   7
ATOM      7  C   UNL     1      21.188 -20.329  17.079  1.00  0.00     0.041 C 
ATOM      8  O   UNL     1      20.521 -20.071  18.116  1.00  0.00    -0.550 OA
ATOM      9  O   UNL     1      21.023 -21.555  16.445  1.00  0.00    -0.550 OA
ENDBRANCH   6   7
ENDBRANCH   5   6
ENDBRANCH   4   5
ENDBRANCH   3   4
ENDBRANCH   2   3
ENDBRANCH   1   2
BRANCH   1  10
ATOM     10  C   UNL     1      22.917 -14.516  20.525  1.00  0.00     0.027 C 
BRANCH  10  11
ATOM     11  C   UNL     1      21.615 -13.753  20.497  1.00  0.00    -0.031 C 
ATOM     12  C   UNL     1      21.359 -12.625  21.189  1.00  0.00    -0.031 C 
BRANCH  12  13
ATOM     13  C   UNL     1      22.341 -11.922  22.095  1.00  0.00     0.027 C 
BRANCH  13  14
ATOM     14  C   UNL     1      21.745 -10.629  22.666  1.00  0.00     0.004 C 
BRANCH  14  15
ATOM     15  C   UNL     1      20.632 -10.924  23.680  1.00  0.00     0.000 C 
BRANCH  15  16
ATOM     16  C   UNL     1      20.669  -9.984  24.900  1.00  0.00    -0.000 C 
BRANCH  16  17
ATOM     17  C   UNL     1      20.668  -8.479  24.568  1.00  0.00    -0.003 C 
ATOM     18  C   UNL     1      20.449  -7.591  25.792  1.00  0.00     0.004 C 
ENDBRANCH  16  17
ENDBRANCH  15  16
ENDBRANCH  14  15
ENDBRANCH  13  14
ENDBRANCH  12  13
ENDBRANCH  10  11
ENDBRANCH   1  10
TORSDOF 13
ENDMDL
MODEL 3
REMARK VINA RESULT:    -5.574      5.554     10.988
REMARK INTER + INTRA:         -10.413
REMARK INTER:                  -9.842
REMARK INTRA:                  -0.571
REMARK UNBOUND:                -0.603
REMARK SMILES CCCCCCC=CCCCCCCCC(=O)[O-]
REMARK SMILES IDX 10 1 11 2 12 3 13 4 14 5 15 6 16 7 17 8 18 9 9 10 8 11 7 12
REMARK SMILES IDX 6 13 5 14 4 15 3 16 2 17 1 18
REMARK H PARENT
REMARK Flexibility Score: inf
ROOT
ATOM      1  C   UNL     1      21.732 -10.820  22.453  1.00  0.00     0.004 C 
ENDROOT
BRANCH   1   2
ATOM      2  C   UNL     1      20.628 -11.285  23.418  1.00  0.00     0.000 C 
BRANCH   2   3
ATOM      3  C   UNL     1      20.489 -10.365  24.640  1.00  0.00     0.000 C 
BRANCH   3   4
ATOM      4  C   UNL     1      20.875  -8.909  24.332  1.00  0.00     0.000 C 
BRANCH   4   5
ATOM      5  C   UNL     1      20.935  -8.026  25.591  1.00  0.00     0.006 C 
BRANCH   5   6
ATOM      6  C   UNL     1      19.900  -6.886  25.602  1.00  0.00     0.053 C 
BRANCH   6   7
ATOM      7  C   UNL     1      20.306  -5.729  24.741  1.00  0.00     0.041 C 
ATOM      8  O   UNL     1      20.026  -5.724  23.513  1.00  0.00    -0.550 OA
ATOM      9  O   UNL     1      20.967  -4.641  25.298  1.00  0.00    -0.550 OA
ENDBRANCH   6   7
ENDBRANCH   5   6
ENDBRANCH   4   5
ENDBRANCH   3   4
ENDBRANCH   2   3
ENDBRANCH   1   2
BRANCH   1  10
ATOM     10  C   UNL     1      22.375 -12.009  21.729  1.00  0.00     0.027 C 
BRANCH  10  11
ATOM     11  C   UNL     1      21.336 -12.785  20.955  1.00  0.00    -0.031 C 
ATOM     12  C   UNL     1      21.554 -13.949  20.311  1.00  0.00    -0.031 C 
BRANCH  12  13
ATOM     13  C   UNL     1      22.872 -14.685  20.273  1.00  0.00     0.027 C 
BRANCH  13  14
ATOM     14  C   UNL     1      22.890 -15.736  19.155  1.00  0.00     0.004 C 
BRANCH  14  15
ATOM     15  C   UNL     1      23.223 -17.131  19.702  1.00  0.00     0.000 C 
BRANCH  15  16
ATOM     16  C   UNL     1      23.191 -18.222  18.615  1.00  0.00    -0.000 C 
BRANCH  16  17
ATOM     17  C   UNL     1      22.776 -17.738  17.213  1.00  0.00    -0.003 C 
ATOM     18  C   UNL     1      22.368 -18.877  16.278  1.00  0.00     0.004 C 
ENDBRANCH  16  17
ENDBRANCH  15  16
ENDBRANCH  14  15
ENDBRANCH  13  14
ENDBRANCH  12  13
ENDBRANCH  10  11
ENDBRANCH   1  10
TORSDOF 13
ENDMDL
MODEL 4
REMARK VINA RESULT:    -5.555      4.875     10.822
REMARK INTER + INTRA:         -10.379
REMARK INTER:                  -9.765
REMARK INTRA:                  -0.614
REMARK UNBOUND:                -0.603
REMARK SMILES CCCCCCC=CCCCCCCCC(=O)[O-]
REMARK SMILES IDX 10 1 11 2 12 3 13 4 14 5 15 6 16 7 17 8 18 9 9 10 8 11 7 12
REMARK SMILES IDX 6 13 5 14 4 15 3 16 2 17 1 18
REMARK H PARENT
REMARK Flexibility Score: inf
ROOT
ATOM      1  C   UNL     1      22.974 -16.792  20.080  1.00  0.00     0.004 C 
ENDROOT
BRANCH   1   2
ATOM      2  C   UNL     1      22.876 -15.321  19.644  1.00  0.00     0.000 C 
BRANCH   2   3
ATOM      3  C   UNL     1      22.861 -14.353  20.835  1.00  0.00     0.000 C 
BRANCH   3   4
ATOM      4  C   UNL     1      21.637 -13.422  20.828  1.00  0.00     0.000 C 
BRANCH   4   5
ATOM      5  C   UNL     1      21.848 -12.149  21.667  1.00  0.00     0.006 C 
BRANCH   5   6
ATOM      6  C   UNL     1      20.632 -11.764  22.529  1.00  0.00     0.053 C 
BRANCH   6   7
ATOM      7  C   UNL     1      20.967 -10.749  23.580  1.00  0.00     0.041 C 
ATOM      8  O   UNL     1      20.549 -10.897  24.760  1.00  0.00    -0.550 OA
ATOM      9  O   UNL     1      21.763  -9.654  23.266  1.00  0.00    -0.550 OA
ENDBRANCH   6   7
ENDBRANCH   5   6
ENDBRANCH   4   5
ENDBRANCH   3   4
ENDBRANCH   2   3
ENDBRANCH   1   2
BRANCH   1  10
ATOM     10  C   UNL     1      23.605 -17.658  18.983  1.00  0.00     0.027 C 
BRANCH  10  11
ATOM     11  C   UNL     1      23.024 -17.312  17.633  1.00  0.00    -0.031 C 
ATOM     12  C   UNL     1      22.610 -18.205  16.712  1.00  0.00    -0.031 C 
BRANCH  12  13
ATOM     13  C   UNL     1      22.638 -19.705  16.884  1.00  0.00     0.027 C 
BRANCH  13  14
ATOM     14  C   UNL     1      21.246 -20.316  16.680  1.00  0.00     0.004 C 
BRANCH  14  15
ATOM     15  C   UNL     1      20.482 -20.428  18.005  1.00  0.00     0.000 C 
BRANCH  15  16
ATOM     16  C   UNL     1      18.996 -20.783  17.812  1.00  0.00    -0.000 C 
BRANCH  16  17
ATOM     17  C   UNL     1      18.689 -22.290  17.722  1.00  0.00    -0.003 C 
ATOM     18  C   UNL     1      17.380 -22.681  18.407  1.00  0.00     0.004 C 
ENDBRANCH  16  17
ENDBRANCH  15  16
ENDBRANCH  14  15
ENDBRANCH  13  14
ENDBRANCH  12  13
ENDBRANCH  10  11
ENDBRANCH   1  10
TORSDOF 13
ENDMDL
MODEL 5
REMARK VINA RESULT:    -5.448      5.410     10.863
REMARK INTER + INTRA:         -10.192
REMARK INTER:                  -9.457
REMARK INTRA:                  -0.735
REMARK UNBOUND:                -0.603
REMARK SMILES CCCCCCC=CCCCCCCCC(=O)[O-]
REMARK SMILES IDX 10 1 11 2 12 3 13 4 14 5 15 6 16 7 17 8 18 9 9 10 8 11 7 12
REMARK SMILES IDX 6 13 5 14 4 15 3 16 2 17 1 18
REMARK H PARENT
REMARK Flexibility Score: inf
ROOT
ATOM      1  C   UNL     1      21.677 -12.249  21.790  1.00  0.00     0.004 C 
ENDROOT
BRANCH   1   2
ATOM      2  C   UNL     1      23.020 -11.508  21.674  1.00  0.00     0.000 C 
BRANCH   2   3
ATOM      3  C   UNL     1      22.923 -10.041  22.117  1.00  0.00     0.000 C 
BRANCH   3   4
ATOM      4  C   UNL     1      21.533  -9.679  22.666  1.00  0.00     0.000 C 
BRANCH   4   5
ATOM      5  C   UNL     1      21.581  -8.573  23.735  1.00  0.00     0.006 C 
BRANCH   5   6
ATOM      6  C   UNL     1      20.819  -8.922  25.027  1.00  0.00     0.053 C 
BRANCH   6   7
ATOM      7  C   UNL     1      20.409  -7.707  25.802  1.00  0.00     0.041 C 
ATOM      8  O   UNL     1      19.437  -7.006  25.414  1.00  0.00    -0.550 OA
ATOM      9  O   UNL     1      21.080  -7.363  26.970  1.00  0.00    -0.550 OA
ENDBRANCH   6   7
ENDBRANCH   5   6
ENDBRANCH   4   5
ENDBRANCH   3   4
ENDBRANCH   2   3
ENDBRANCH   1   2
BRANCH   1  10
ATOM     10  C   UNL     1      21.537 -13.320  20.701  1.00  0.00     0.027 C 
BRANCH  10  11
ATOM     11  C   UNL     1      22.620 -14.362  20.837  1.00  0.00    -0.031 C 
ATOM     12  C   UNL     1      22.989 -15.231  19.875  1.00  0.00    -0.031 C 
BRANCH  12  13
ATOM     13  C   UNL     1      22.393 -15.295  18.489  1.00  0.00     0.027 C 
BRANCH  13  14
ATOM     14  C   UNL     1      23.006 -16.440  17.672  1.00  0.00     0.004 C 
BRANCH  14  15
ATOM     15  C   UNL     1      23.333 -17.649  18.557  1.00  0.00     0.000 C 
BRANCH  15  16
ATOM     16  C   UNL     1      23.057 -18.994  17.858  1.00  0.00    -0.000 C 
BRANCH  16  17
ATOM     17  C   UNL     1      22.282 -18.895  16.530  1.00  0.00    -0.003 C 
ATOM     18  C   UNL     1      21.278 -20.029  16.332  1.00  0.00     0.004 C 
ENDBRANCH  16  17
ENDBRANCH  15  16
ENDBRANCH  14  15
ENDBRANCH  13  14
ENDBRANCH  12  13
ENDBRANCH  10  11
ENDBRANCH   1  10
TORSDOF 13
ENDMDL
MODEL 6
REMARK VINA RESULT:    -5.427      1.303      2.523
REMARK INTER + INTRA:         -10.154
REMARK INTER:                  -9.587
REMARK INTRA:                  -0.568
REMARK UNBOUND:                -0.603
REMARK SMILES CCCCCCC=CCCCCCCCC(=O)[O-]
REMARK SMILES IDX 10 1 11 2 12 3 13 4 14 5 15 6 16 7 17 8 18 9 9 10 8 11 7 12
REMARK SMILES IDX 6 13 5 14 4 15 3 16 2 17 1 18
REMARK H PARENT
REMARK Flexibility Score: inf
ROOT
ATOM      1  C   UNL     1      20.377 -12.342  22.051  1.00  0.00     0.004 C 
ENDROOT
BRANCH   1   2
ATOM      2  C   UNL     1      21.139 -13.055  20.921  1.00  0.00     0.000 C 
BRANCH   2   3
ATOM      3  C   UNL     1      22.622 -13.271  21.256  1.00  0.00     0.000 C 
BRANCH   3   4
ATOM      4  C   UNL     1      23.111 -14.683  20.894  1.00  0.00     0.000 C 
BRANCH   4   5
ATOM      5  C   UNL     1      22.467 -15.228  19.606  1.00  0.00     0.006 C 
BRANCH   5   6
ATOM      6  C   UNL     1      23.171 -16.473  19.036  1.00  0.00     0.053 C 
BRANCH   6   7
ATOM      7  C   UNL     1      22.911 -16.665  17.573  1.00  0.00     0.041 C 
ATOM      8  O   UNL     1      22.853 -15.670  16.804  1.00  0.00    -0.550 OA
ATOM      9  O   UNL     1      22.759 -17.945  17.053  1.00  0.00    -0.550 OA
ENDBRANCH   6   7
ENDBRANCH   5   6
ENDBRANCH   4   5
ENDBRANCH   3   4
ENDBRANCH   2   3
ENDBRANCH   1   2
BRANCH   1  10
ATOM     10  C   UNL     1      21.238 -11.251  22.700  1.00  0.00     0.027 C 
BRANCH  10  11
ATOM     11  C   UNL     1      20.641 -10.816  24.017  1.00  0.00    -0.031 C 
ATOM     12  C   UNL     1      20.760  -9.586  24.557  1.00  0.00    -0.031 C 
BRANCH  12  13
ATOM     13  C   UNL     1      21.494  -8.429  23.924  1.00  0.00     0.027 C 
BRANCH  13  14
ATOM     14  C   UNL     1      20.964  -7.085  24.440  1.00  0.00     0.004 C 
BRANCH  14  15
ATOM     15  C   UNL     1      20.255  -7.243  25.791  1.00  0.00     0.000 C 
BRANCH  15  16
ATOM     16  C   UNL     1      21.237  -7.352  26.973  1.00  0.00    -0.000 C 
BRANCH  16  17
ATOM     17  C   UNL     1      22.057  -6.080  27.263  1.00  0.00    -0.003 C 
ATOM     18  C   UNL     1      23.492  -6.155  26.742  1.00  0.00     0.004 C 
ENDBRANCH  16  17
ENDBRANCH  15  16
ENDBRANCH  14  15
ENDBRANCH  13  14
ENDBRANCH  12  13
ENDBRANCH  10  11
ENDBRANCH   1  10
TORSDOF 13
ENDMDL
MODEL 7
REMARK VINA RESULT:    -5.352      5.810     11.115
REMARK INTER + INTRA:         -10.023
REMARK INTER:                  -9.461
REMARK INTRA:                  -0.562
REMARK UNBOUND:                -0.603
REMARK SMILES CCCCCCC=CCCCCCCCC(=O)[O-]
REMARK SMILES IDX 10 1 11 2 12 3 13 4 14 5 15 6 16 7 17 8 18 9 9 10 8 11 7 12
REMARK SMILES IDX 6 13 5 14 4 15 3 16 2 17 1 18
REMARK H PARENT
REMARK Flexibility Score: inf
ROOT
ATOM      1  C   UNL     1      20.431 -11.495  23.069  1.00  0.00     0.004 C 
ENDROOT
BRANCH   1   2
ATOM      2  C   UNL     1      20.960 -10.425  24.039  1.00  0.00     0.000 C 
BRANCH   2   3
ATOM      3  C   UNL     1      21.689  -9.284  23.316  1.00  0.00     0.000 C 
BRANCH   3   4
ATOM      4  C   UNL     1      21.741  -7.992  24.149  1.00  0.00     0.000 C 
BRANCH   4   5
ATOM      5  C   UNL     1      21.171  -8.172  25.568  1.00  0.00     0.006 C 
BRANCH   5   6
ATOM      6  C   UNL     1      20.995  -6.852  26.340  1.00  0.00     0.053 C 
BRANCH   6   7
ATOM      7  C   UNL     1      22.090  -6.614  27.336  1.00  0.00     0.041 C 
ATOM      8  O   UNL     1      21.813  -6.227  28.502  1.00  0.00    -0.550 OA
ATOM      9  O   UNL     1      23.415  -6.846  26.986  1.00  0.00    -0.550 OA
ENDBRANCH   6   7
ENDBRANCH   5   6
ENDBRANCH   4   5
ENDBRANCH   3   4
ENDBRANCH   2   3
ENDBRANCH   1   2
BRANCH   1  10
ATOM     10  C   UNL     1      21.496 -11.886  22.037  1.00  0.00     0.027 C 
BRANCH  10  11
ATOM     11  C   UNL     1      20.901 -12.768  20.967  1.00  0.00    -0.031 C 
ATOM     12  C   UNL     1      21.524 -13.812  20.383  1.00  0.00    -0.031 C 
BRANCH  12  13
ATOM     13  C   UNL     1      22.918 -14.287  20.717  1.00  0.00     0.027 C 
BRANCH  13  14
ATOM     14  C   UNL     1      23.067 -15.793  20.468  1.00  0.00     0.004 C 
BRANCH  14  15
ATOM     15  C   UNL     1      22.990 -16.125  18.973  1.00  0.00     0.000 C 
BRANCH  15  16
ATOM     16  C   UNL     1      23.251 -17.614  18.676  1.00  0.00    -0.000 C 
BRANCH  16  17
ATOM     17  C   UNL     1      23.548 -17.945  17.200  1.00  0.00    -0.003 C 
ATOM     18  C   UNL     1      22.420 -18.717  16.517  1.00  0.00     0.004 C 
ENDBRANCH  16  17
ENDBRANCH  15  16
ENDBRANCH  14  15
ENDBRANCH  13  14
ENDBRANCH  12  13
ENDBRANCH  10  11
ENDBRANCH   1  10
TORSDOF 13
ENDMDL
MODEL 8
REMARK VINA RESULT:    -5.253      1.962      3.080
REMARK INTER + INTRA:          -9.848
REMARK INTER:                  -9.369
REMARK INTRA:                  -0.479
REMARK UNBOUND:                -0.603
REMARK SMILES CCCCCCC=CCCCCCCCC(=O)[O-]
REMARK SMILES IDX 10 1 11 2 12 3 13 4 14 5 15 6 16 7 17 8 18 9 9 10 8 11 7 12
REMARK SMILES IDX 6 13 5 14 4 15 3 16 2 17 1 18
REMARK H PARENT
REMARK Flexibility Score: inf
ROOT
ATOM      1  C   UNL     1      21.702 -11.870  21.988  1.00  0.00     0.004 C 
ENDROOT
BRANCH   1   2
ATOM      2  C   UNL     1      23.150 -12.201  21.591  1.00  0.00     0.000 C 
BRANCH   2   3
ATOM      3  C   UNL     1      23.386 -13.709  21.430  1.00  0.00     0.000 C 
BRANCH   3   4
ATOM      4  C   UNL     1      22.440 -14.350  20.402  1.00  0.00     0.000 C 
BRANCH   4   5
ATOM      5  C   UNL     1      22.935 -15.721  19.906  1.00  0.00     0.006 C 
BRANCH   5   6
ATOM      6  C   UNL     1      22.854 -15.897  18.378  1.00  0.00     0.053 C 
BRANCH   6   7
ATOM      7  C   UNL     1      23.139 -17.302  17.942  1.00  0.00     0.041 C 
ATOM      8  O   UNL     1      23.714 -18.104  18.725  1.00  0.00    -0.550 OA
ATOM      9  O   UNL     1      22.746 -17.736  16.682  1.00  0.00    -0.550 OA
ENDBRANCH   6   7
ENDBRANCH   5   6
ENDBRANCH   4   5
ENDBRANCH   3   4
ENDBRANCH   2   3
ENDBRANCH   1   2
BRANCH   1  10
ATOM     10  C   UNL     1      21.635 -10.597  22.841  1.00  0.00     0.027 C 
BRANCH  10  11
ATOM     11  C   UNL     1      20.678 -10.780  23.994  1.00  0.00    -0.031 C 
ATOM     12  C   UNL     1      20.473  -9.887  24.984  1.00  0.00    -0.031 C 
BRANCH  12  13
ATOM     13  C   UNL     1      21.152  -8.544  25.094  1.00  0.00     0.027 C 
BRANCH  13  14
ATOM     14  C   UNL     1      20.182  -7.469  25.603  1.00  0.00     0.004 C 
BRANCH  14  15
ATOM     15  C   UNL     1      20.441  -6.115  24.930  1.00  0.00     0.000 C 
BRANCH  15  16
ATOM     16  C   UNL     1      19.579  -5.898  23.671  1.00  0.00    -0.000 C 
BRANCH  16  17
ATOM     17  C   UNL     1      18.591  -4.719  23.751  1.00  0.00    -0.003 C 
ATOM     18  C   UNL     1      18.490  -3.927  22.447  1.00  0.00     0.004 C 
ENDBRANCH  16  17
ENDBRANCH  15  16
ENDBRANCH  14  15
ENDBRANCH  13  14
ENDBRANCH  12  13
ENDBRANCH  10  11
ENDBRANCH   1  10
TORSDOF 13
ENDMDL
MODEL 9
REMARK VINA RESULT:    -5.194      5.387     11.782
REMARK INTER + INTRA:          -9.745
REMARK INTER:                  -8.878
REMARK INTRA:                  -0.867
REMARK UNBOUND:                -0.603
REMARK SMILES CCCCCCC=CCCCCCCCC(=O)[O-]
REMARK SMILES IDX 10 1 11 2 12 3 13 4 14 5 15 6 16 7 17 8 18 9 9 10 8 11 7 12
REMARK SMILES IDX 6 13 5 14 4 15 3 16 2 17 1 18
REMARK H PARENT
REMARK Flexibility Score: inf
ROOT
ATOM      1  C   UNL     1      22.056 -19.856  17.232  1.00  0.00     0.004 C 
ENDROOT
BRANCH   1   2
ATOM      2  C   UNL     1      22.594 -18.604  16.518  1.00  0.00     0.000 C 
BRANCH   2   3
ATOM      3  C   UNL     1      22.996 -17.494  17.500  1.00  0.00     0.000 C 
BRANCH   3   4
ATOM      4  C   UNL     1      22.948 -17.955  18.966  1.00  0.00     0.000 C 
BRANCH   4   5
ATOM      5  C   UNL     1      23.200 -16.809  19.962  1.00  0.00     0.006 C 
BRANCH   5   6
ATOM      6  C   UNL     1      22.923 -15.409  19.384  1.00  0.00     0.053 C 
BRANCH   6   7
ATOM      7  C   UNL     1      22.521 -14.419  20.435  1.00  0.00     0.041 C 
ATOM      8  O   UNL     1      23.265 -14.215  21.431  1.00  0.00    -0.550 OA
ATOM      9  O   UNL     1      21.340 -13.699  20.302  1.00  0.00    -0.550 OA
ENDBRANCH   6   7
ENDBRANCH   5   6
ENDBRANCH   4   5
ENDBRANCH   3   4
ENDBRANCH   2   3
ENDBRANCH   1   2
BRANCH   1  10
ATOM     10  C   UNL     1      20.785 -20.381  16.552  1.00  0.00     0.027 C 
BRANCH  10  11
ATOM     11  C   UNL     1      19.707 -20.648  17.574  1.00  0.00    -0.031 C 
ATOM     12  C   UNL     1      18.730 -21.569  17.452  1.00  0.00    -0.031 C 
BRANCH  12  13
ATOM     13  C   UNL     1      18.563 -22.506  16.280  1.00  0.00     0.027 C 
BRANCH  13  14
ATOM     14  C   UNL     1      17.564 -21.946  15.259  1.00  0.00     0.004 C 
BRANCH  14  15
ATOM     15  C   UNL     1      18.169 -21.900  13.850  1.00  0.00     0.000 C 
BRANCH  15  16
ATOM     16  C   UNL     1      18.010 -20.525  13.174  1.00  0.00    -0.000 C 
BRANCH  16  17
ATOM     17  C   UNL     1      18.683 -20.392  11.794  1.00  0.00    -0.003 C 
ATOM     18  C   UNL     1      18.962 -21.738  11.127  1.00  0.00     0.004 C 
ENDBRANCH  16  17
ENDBRANCH  15  16
ENDBRANCH  14  15
ENDBRANCH  13  14
ENDBRANCH  12  13
ENDBRANCH  10  11
ENDBRANCH   1  10
TORSDOF 13
ENDMDL
