MODEL 1
REMARK VINA RESULT:    -3.179      0.000      0.000
REMARK INTER + INTRA:          -5.275
REMARK INTER:                  -4.666
REMARK INTRA:                  -0.608
REMARK UNBOUND:                -0.608
REMARK SMILES O=C([O-])CCCCCCCC(=O)[O-]
REMARK SMILES IDX 7 1 6 2 5 3 4 4 2 5 1 6 3 7 8 8 9 9 10 10 11 11 12 12 13 13
REMARK H PARENT
REMARK Flexibility Score: inf
ROOT
ATOM      1  C   UNL     1     -19.061  41.401  93.750  1.00  0.00     0.000 C 
ENDROOT
BRANCH   1   2
ATOM      2  C   UNL     1     -18.936  41.120  95.261  1.00  0.00     0.000 C 
BRANCH   2   3
ATOM      3  C   UNL     1     -17.500  41.148  95.814  1.00  0.00     0.006 C 
BRANCH   3   4
ATOM      4  C   UNL     1     -16.437  41.202  94.708  1.00  0.00     0.053 C 
BRANCH   4   5
ATOM      5  C   UNL     1     -15.248  40.378  95.087  1.00  0.00     0.041 C 
ATOM      6  O   UNL     1     -15.404  39.241  95.605  1.00  0.00    -0.550 OA
ATOM      7  O   UNL     1     -13.967  40.844  94.823  1.00  0.00    -0.550 OA
ENDBRANCH   4   5
ENDBRANCH   3   4
ENDBRANCH   2   3
ENDBRANCH   1   2
BRANCH   1   8
ATOM      8  C   UNL     1     -20.344  40.864  93.091  1.00  0.00     0.000 C 
BRANCH   8   9
ATOM      9  C   UNL     1     -20.210  39.407  92.623  1.00  0.00     0.006 C 
BRANCH   9  10
ATOM     10  C   UNL     1     -19.172  39.284  91.504  1.00  0.00     0.053 C 
BRANCH  10  11
ATOM     11  C   UNL     1     -18.120  38.288  91.872  1.00  0.00     0.041 C 
ATOM     12  O   UNL     1     -17.711  37.454  91.021  1.00  0.00    -0.550 OA
ATOM     13  O   UNL     1     -17.626  38.244  93.171  1.00  0.00    -0.550 OA
ENDBRANCH  10  11
ENDBRANCH   9  10
ENDBRANCH   8   9
ENDBRANCH   1   8
TORSDOF 8
ENDMDL
MODEL 2
REMARK VINA RESULT:    -3.159      1.753      2.546
REMARK INTER + INTRA:          -5.245
REMARK INTER:                  -4.506
REMARK INTRA:                  -0.740
REMARK UNBOUND:                -0.608
REMARK SMILES O=C([O-])CCCCCCCC(=O)[O-]
REMARK SMILES IDX 7 1 6 2 5 3 4 4 2 5 1 6 3 7 8 8 9 9 10 10 11 11 12 12 13 13
REMARK H PARENT
REMARK Flexibility Score: inf
ROOT
ATOM      1  C   UNL     1     -20.340  40.222  92.681  1.00  0.00     0.000 C 
ENDROOT
BRANCH   1   2
ATOM      2  C   UNL     1     -19.641  40.462  94.034  1.00  0.00     0.000 C 
BRANCH   2   3
ATOM      3  C   UNL     1     -18.536  41.533  94.018  1.00  0.00     0.006 C 
BRANCH   3   4
ATOM      4  C   UNL     1     -17.384  41.214  94.980  1.00  0.00     0.053 C 
BRANCH   4   5
ATOM      5  C   UNL     1     -17.906  40.990  96.363  1.00  0.00     0.041 C 
ATOM      6  O   UNL     1     -18.497  41.918  96.976  1.00  0.00    -0.550 OA
ATOM      7  O   UNL     1     -17.785  39.741  96.958  1.00  0.00    -0.550 OA
ENDBRANCH   4   5
ENDBRANCH   3   4
ENDBRANCH   2   3
ENDBRANCH   1   2
BRANCH   1   8
ATOM      8  C   UNL     1     -19.974  38.900  91.983  1.00  0.00     0.000 C 
BRANCH   8   9
ATOM      9  C   UNL     1     -18.805  39.048  90.999  1.00  0.00     0.006 C 
BRANCH   9  10
ATOM     10  C   UNL     1     -17.714  38.011  91.285  1.00  0.00     0.053 C 
BRANCH  10  11
ATOM     11  C   UNL     1     -16.927  38.398  92.497  1.00  0.00     0.041 C 
ATOM     12  O   UNL     1     -15.964  39.203  92.398  1.00  0.00    -0.550 OA
ATOM     13  O   UNL     1     -17.224  37.828  93.730  1.00  0.00    -0.550 OA
ENDBRANCH  10  11
ENDBRANCH   9  10
ENDBRANCH   8   9
ENDBRANCH   1   8
TORSDOF 8
ENDMDL
MODEL 3
REMARK VINA RESULT:    -3.159      1.995      2.707
REMARK INTER + INTRA:          -5.244
REMARK INTER:                  -4.840
REMARK INTRA:                  -0.404
REMARK UNBOUND:                -0.608
REMARK SMILES O=C([O-])CCCCCCCC(=O)[O-]
REMARK SMILES IDX 7 1 6 2 5 3 4 4 2 5 1 6 3 7 8 8 9 9 10 10 11 11 12 12 13 13
REMARK H PARENT
REMARK Flexibility Score: inf
ROOT
ATOM      1  C   UNL     1     -20.784  39.909  93.043  1.00  0.00     0.000 C 
ENDROOT
BRANCH   1   2
ATOM      2  C   UNL     1     -19.291  40.276  92.927  1.00  0.00     0.000 C 
BRANCH   2   3
ATOM      3  C   UNL     1     -18.854  41.503  93.746  1.00  0.00     0.006 C 
BRANCH   3   4
ATOM      4  C   UNL     1     -17.526  41.285  94.483  1.00  0.00     0.053 C 
BRANCH   4   5
ATOM      5  C   UNL     1     -17.775  40.955  95.920  1.00  0.00     0.041 C 
ATOM      6  O   UNL     1     -17.370  39.863  96.399  1.00  0.00    -0.550 OA
ATOM      7  O   UNL     1     -18.412  41.873  96.744  1.00  0.00    -0.550 OA
ENDBRANCH   4   5
ENDBRANCH   3   4
ENDBRANCH   2   3
ENDBRANCH   1   2
BRANCH   1   8
ATOM      8  C   UNL     1     -21.090  38.401  93.002  1.00  0.00     0.000 C 
BRANCH   8   9
ATOM      9  C   UNL     1     -19.853  37.548  92.686  1.00  0.00     0.006 C 
BRANCH   9  10
ATOM     10  C   UNL     1     -20.106  36.641  91.479  1.00  0.00     0.053 C 
BRANCH  10  11
ATOM     11  C   UNL     1     -19.292  37.090  90.306  1.00  0.00     0.041 C 
ATOM     12  O   UNL     1     -19.752  36.985  89.138  1.00  0.00    -0.550 OA
ATOM     13  O   UNL     1     -18.004  37.575  90.498  1.00  0.00    -0.550 OA
ENDBRANCH  10  11
ENDBRANCH   9  10
ENDBRANCH   8   9
ENDBRANCH   1   8
TORSDOF 8
ENDMDL
MODEL 4
REMARK VINA RESULT:    -3.155     17.618     19.508
REMARK INTER + INTRA:          -5.239
REMARK INTER:                  -4.298
REMARK INTRA:                  -0.941
REMARK UNBOUND:                -0.608
REMARK SMILES O=C([O-])CCCCCCCC(=O)[O-]
REMARK SMILES IDX 7 1 6 2 5 3 4 4 2 5 1 6 3 7 8 8 9 9 10 10 11 11 12 12 13 13
REMARK H PARENT
REMARK Flexibility Score: inf
ROOT
ATOM      1  C   UNL     1      -7.272  29.162 106.433  1.00  0.00     0.000 C 
ENDROOT
BRANCH   1   2
ATOM      2  C   UNL     1      -6.530  28.802 107.735  1.00  0.00     0.000 C 
BRANCH   2   3
ATOM      3  C   UNL     1      -5.563  29.880 108.256  1.00  0.00     0.006 C 
BRANCH   3   4
ATOM      4  C   UNL     1      -4.431  30.192 107.269  1.00  0.00     0.053 C 
BRANCH   4   5
ATOM      5  C   UNL     1      -4.271  31.670 107.108  1.00  0.00     0.041 C 
ATOM      6  O   UNL     1      -5.148  32.455 107.556  1.00  0.00    -0.550 OA
ATOM      7  O   UNL     1      -3.130  32.185 106.507  1.00  0.00    -0.550 OA
ENDBRANCH   4   5
ENDBRANCH   3   4
ENDBRANCH   2   3
ENDBRANCH   1   2
BRANCH   1   8
ATOM      8  C   UNL     1      -7.921  30.558 106.416  1.00  0.00     0.000 C 
BRANCH   8   9
ATOM      9  C   UNL     1      -7.622  31.340 105.129  1.00  0.00     0.006 C 
BRANCH   9  10
ATOM     10  C   UNL     1      -6.629  30.580 104.244  1.00  0.00     0.053 C 
BRANCH  10  11
ATOM     11  C   UNL     1      -5.520  31.483 103.805  1.00  0.00     0.041 C 
ATOM     12  O   UNL     1      -5.618  32.729 103.959  1.00  0.00    -0.550 OA
ATOM     13  O   UNL     1      -4.398  30.953 103.178  1.00  0.00    -0.550 OA
ENDBRANCH  10  11
ENDBRANCH   9  10
ENDBRANCH   8   9
ENDBRANCH   1   8
TORSDOF 8
ENDMDL
MODEL 5
REMARK VINA RESULT:    -3.124      2.719      5.281
REMARK INTER + INTRA:          -5.193
REMARK INTER:                  -4.356
REMARK INTRA:                  -0.837
REMARK UNBOUND:                -0.608
REMARK SMILES O=C([O-])CCCCCCCC(=O)[O-]
REMARK SMILES IDX 7 1 6 2 5 3 4 4 2 5 1 6 3 7 8 8 9 9 10 10 11 11 12 12 13 13
REMARK H PARENT
REMARK Flexibility Score: inf
ROOT
ATOM      1  C   UNL     1     -18.919  41.505  93.958  1.00  0.00     0.000 C 
ENDROOT
BRANCH   1   2
ATOM      2  C   UNL     1     -19.565  40.530  92.952  1.00  0.00     0.000 C 
BRANCH   2   3
ATOM      3  C   UNL     1     -20.962  40.018  93.345  1.00  0.00     0.006 C 
BRANCH   3   4
ATOM      4  C   UNL     1     -20.955  39.206  94.647  1.00  0.00     0.053 C 
BRANCH   4   5
ATOM      5  C   UNL     1     -20.171  37.945  94.470  1.00  0.00     0.041 C 
ATOM      6  O   UNL     1     -19.071  37.793  95.065  1.00  0.00    -0.550 OA
ATOM      7  O   UNL     1     -20.677  36.915  93.688  1.00  0.00    -0.550 OA
ENDBRANCH   4   5
ENDBRANCH   3   4
ENDBRANCH   2   3
ENDBRANCH   1   2
BRANCH   1   8
ATOM      8  C   UNL     1     -17.516  41.102  94.446  1.00  0.00     0.000 C 
BRANCH   8   9
ATOM      9  C   UNL     1     -17.437  40.944  95.971  1.00  0.00     0.006 C 
BRANCH   9  10
ATOM     10  C   UNL     1     -18.600  41.665  96.658  1.00  0.00     0.053 C 
BRANCH  10  11
ATOM     11  C   UNL     1     -19.155  40.829  97.767  1.00  0.00     0.041 C 
ATOM     12  O   UNL     1     -18.888  39.599  97.828  1.00  0.00    -0.550 OA
ATOM     13  O   UNL     1     -20.009  41.395  98.705  1.00  0.00    -0.550 OA
ENDBRANCH  10  11
ENDBRANCH   9  10
ENDBRANCH   8   9
ENDBRANCH   1   8
TORSDOF 8
ENDMDL
MODEL 6
REMARK VINA RESULT:    -3.109      0.637      4.357
REMARK INTER + INTRA:          -5.171
REMARK INTER:                  -4.485
REMARK INTRA:                  -0.686
REMARK UNBOUND:                -0.608
REMARK SMILES O=C([O-])CCCCCCCC(=O)[O-]
REMARK SMILES IDX 7 1 6 2 5 3 4 4 2 5 1 6 3 7 8 8 9 9 10 10 11 11 12 12 13 13
REMARK H PARENT
REMARK Flexibility Score: inf
ROOT
ATOM      1  C   UNL     1     -18.862  41.474  93.885  1.00  0.00     0.000 C 
ENDROOT
BRANCH   1   2
ATOM      2  C   UNL     1     -20.222  41.036  93.304  1.00  0.00     0.000 C 
BRANCH   2   3
ATOM      3  C   UNL     1     -20.188  39.746  92.466  1.00  0.00     0.006 C 
BRANCH   3   4
ATOM      4  C   UNL     1     -18.763  39.309  92.101  1.00  0.00     0.053 C 
BRANCH   4   5
ATOM      5  C   UNL     1     -18.448  37.987  92.724  1.00  0.00     0.041 C 
ATOM      6  O   UNL     1     -18.649  36.921  92.085  1.00  0.00    -0.550 OA
ATOM      7  O   UNL     1     -17.886  37.932  93.993  1.00  0.00    -0.550 OA
ENDBRANCH   4   5
ENDBRANCH   3   4
ENDBRANCH   2   3
ENDBRANCH   1   2
BRANCH   1   8
ATOM      8  C   UNL     1     -18.739  41.360  95.415  1.00  0.00     0.000 C 
BRANCH   8   9
ATOM      9  C   UNL     1     -17.350  40.890  95.870  1.00  0.00     0.006 C 
BRANCH   9  10
ATOM     10  C   UNL     1     -16.299  41.164  94.790  1.00  0.00     0.053 C 
BRANCH  10  11
ATOM     11  C   UNL     1     -15.053  40.381  95.060  1.00  0.00     0.041 C 
ATOM     12  O   UNL     1     -15.125  39.226  95.556  1.00  0.00    -0.550 OA
ATOM     13  O   UNL     1     -13.808  40.947  94.811  1.00  0.00    -0.550 OA
ENDBRANCH  10  11
ENDBRANCH   9  10
ENDBRANCH   8   9
ENDBRANCH   1   8
TORSDOF 8
ENDMDL
MODEL 7
REMARK VINA RESULT:    -3.108      1.395      5.132
REMARK INTER + INTRA:          -5.171
REMARK INTER:                  -4.802
REMARK INTRA:                  -0.369
REMARK UNBOUND:                -0.608
REMARK SMILES O=C([O-])CCCCCCCC(=O)[O-]
REMARK SMILES IDX 7 1 6 2 5 3 4 4 2 5 1 6 3 7 8 8 9 9 10 10 11 11 12 12 13 13
REMARK H PARENT
REMARK Flexibility Score: inf
ROOT
ATOM      1  C   UNL     1     -20.207  41.233  93.326  1.00  0.00     0.000 C 
ENDROOT
BRANCH   1   2
ATOM      2  C   UNL     1     -20.730  40.086  92.439  1.00  0.00     0.000 C 
BRANCH   2   3
ATOM      3  C   UNL     1     -19.726  38.947  92.185  1.00  0.00     0.006 C 
BRANCH   3   4
ATOM      4  C   UNL     1     -19.349  38.804  90.705  1.00  0.00     0.053 C 
BRANCH   4   5
ATOM      5  C   UNL     1     -19.387  37.367  90.294  1.00  0.00     0.041 C 
ATOM      6  O   UNL     1     -19.171  36.459  91.139  1.00  0.00    -0.550 OA
ATOM      7  O   UNL     1     -19.710  37.026  88.986  1.00  0.00    -0.550 OA
ENDBRANCH   4   5
ENDBRANCH   3   4
ENDBRANCH   2   3
ENDBRANCH   1   2
BRANCH   1   8
ATOM      8  C   UNL     1     -18.716  41.143  93.699  1.00  0.00     0.000 C 
BRANCH   8   9
ATOM      9  C   UNL     1     -18.471  41.248  95.211  1.00  0.00     0.006 C 
BRANCH   9  10
ATOM     10  C   UNL     1     -16.972  41.274  95.522  1.00  0.00     0.053 C 
BRANCH  10  11
ATOM     11  C   UNL     1     -16.426  39.883  95.594  1.00  0.00     0.041 C 
ATOM     12  O   UNL     1     -16.744  39.127  96.550  1.00  0.00    -0.550 OA
ATOM     13  O   UNL     1     -15.525  39.438  94.635  1.00  0.00    -0.550 OA
ENDBRANCH  10  11
ENDBRANCH   9  10
ENDBRANCH   8   9
ENDBRANCH   1   8
TORSDOF 8
ENDMDL
MODEL 8
REMARK VINA RESULT:    -3.080      2.072      4.838
REMARK INTER + INTRA:          -5.129
REMARK INTER:                  -4.424
REMARK INTRA:                  -0.705
REMARK UNBOUND:                -0.608
REMARK SMILES O=C([O-])CCCCCCCC(=O)[O-]
REMARK SMILES IDX 7 1 6 2 5 3 4 4 2 5 1 6 3 7 8 8 9 9 10 10 11 11 12 12 13 13
REMARK H PARENT
REMARK Flexibility Score: inf
ROOT
ATOM      1  C   UNL     1     -20.005  40.674  93.003  1.00  0.00     0.000 C 
ENDROOT
BRANCH   1   2
ATOM      2  C   UNL     1     -20.372  39.350  93.704  1.00  0.00     0.000 C 
BRANCH   2   3
ATOM      3  C   UNL     1     -20.132  38.080  92.870  1.00  0.00     0.006 C 
BRANCH   3   4
ATOM      4  C   UNL     1     -19.579  38.382  91.470  1.00  0.00     0.053 C 
BRANCH   4   5
ATOM      5  C   UNL     1     -18.186  37.857  91.335  1.00  0.00     0.041 C 
ATOM      6  O   UNL     1     -17.215  38.653  91.239  1.00  0.00    -0.550 OA
ATOM      7  O   UNL     1     -17.953  36.488  91.364  1.00  0.00    -0.550 OA
ENDBRANCH   4   5
ENDBRANCH   3   4
ENDBRANCH   2   3
ENDBRANCH   1   2
BRANCH   1   8
ATOM      8  C   UNL     1     -18.964  41.535  93.740  1.00  0.00     0.000 C 
BRANCH   8   9
ATOM      9  C   UNL     1     -17.701  40.750  94.122  1.00  0.00     0.006 C 
BRANCH   9  10
ATOM     10  C   UNL     1     -17.159  41.210  95.479  1.00  0.00     0.053 C 
BRANCH  10  11
ATOM     11  C   UNL     1     -18.191  41.027  96.545  1.00  0.00     0.041 C 
ATOM     12  O   UNL     1     -18.606  42.018  97.203  1.00  0.00    -0.550 OA
ATOM     13  O   UNL     1     -18.659  39.754  96.851  1.00  0.00    -0.550 OA
ENDBRANCH  10  11
ENDBRANCH   9  10
ENDBRANCH   8   9
ENDBRANCH   1   8
TORSDOF 8
ENDMDL
MODEL 9
REMARK VINA RESULT:    -3.053      1.730      4.105
REMARK INTER + INTRA:          -5.090
REMARK INTER:                  -4.346
REMARK INTRA:                  -0.744
REMARK UNBOUND:                -0.608
REMARK SMILES O=C([O-])CCCCCCCC(=O)[O-]
REMARK SMILES IDX 7 1 6 2 5 3 4 4 2 5 1 6 3 7 8 8 9 9 10 10 11 11 12 12 13 13
REMARK H PARENT
REMARK Flexibility Score: inf
ROOT
ATOM      1  C   UNL     1     -20.246  39.812  92.320  1.00  0.00     0.000 C 
ENDROOT
BRANCH   1   2
ATOM      2  C   UNL     1     -19.636  38.540  91.698  1.00  0.00     0.000 C 
BRANCH   2   3
ATOM      3  C   UNL     1     -18.307  38.751  90.951  1.00  0.00     0.006 C 
BRANCH   3   4
ATOM      4  C   UNL     1     -17.208  37.782  91.406  1.00  0.00     0.053 C 
BRANCH   4   5
ATOM      5  C   UNL     1     -16.547  38.290  92.648  1.00  0.00     0.041 C 
ATOM      6  O   UNL     1     -16.897  37.852  93.776  1.00  0.00    -0.550 OA
ATOM      7  O   UNL     1     -15.510  39.210  92.558  1.00  0.00    -0.550 OA
ENDBRANCH   4   5
ENDBRANCH   3   4
ENDBRANCH   2   3
ENDBRANCH   1   2
BRANCH   1   8
ATOM      8  C   UNL     1     -19.773  40.130  93.750  1.00  0.00     0.000 C 
BRANCH   8   9
ATOM      9  C   UNL     1     -19.052  41.482  93.854  1.00  0.00     0.006 C 
BRANCH   9  10
ATOM     10  C   UNL     1     -17.665  41.315  94.481  1.00  0.00     0.053 C 
BRANCH  10  11
ATOM     11  C   UNL     1     -17.782  41.017  95.942  1.00  0.00     0.041 C 
ATOM     12  O   UNL     1     -17.255  39.977  96.421  1.00  0.00    -0.550 OA
ATOM     13  O   UNL     1     -18.517  41.859  96.768  1.00  0.00    -0.550 OA
ENDBRANCH  10  11
ENDBRANCH   9  10
ENDBRANCH   8   9
ENDBRANCH   1   8
TORSDOF 8
ENDMDL
