MODEL 1
REMARK VINA RESULT:    -6.543      0.000      0.000
REMARK INTER + INTRA:          -8.211
REMARK INTER:                  -7.882
REMARK INTRA:                  -0.330
REMARK UNBOUND:                -0.330
REMARK SMILES O=c1c(O)c(-c2ccc(O)c(O)c2)oc2cc(O)cc(O)c12
REMARK SMILES IDX 5 1 3 2 2 3 1 4 22 5 20 6 19 7 17 8 16 9 15 10 14 11 6 12
REMARK SMILES IDX 7 13 8 14 9 15 13 16 11 17 10 18 12 20 4 22 21 24 18 26
REMARK H PARENT 10 19 12 21 4 23 21 25 18 27
REMARK Flexibility Score: inf
ROOT
ATOM      1  C   UNL     1     -29.830 -12.059 -35.891  1.00  0.00     0.180 A 
ATOM      2  C   UNL     1     -28.485 -12.005 -36.298  1.00  0.00     0.208 A 
ATOM      3  C   UNL     1     -28.157 -12.367 -37.614  1.00  0.00     0.238 A 
ATOM      4  O   UNL     1     -26.945 -12.370 -37.956  1.00  0.00    -0.285 OA
ATOM      5  C   UNL     1     -29.177 -12.763 -38.512  1.00  0.00     0.111 A 
ATOM      6  C   UNL     1     -28.964 -13.113 -39.879  1.00  0.00     0.134 A 
ATOM      7  C   UNL     1     -30.028 -13.615 -40.638  1.00  0.00     0.093 A 
ATOM      8  C   UNL     1     -31.311 -13.717 -40.100  1.00  0.00     0.123 A 
ATOM      9  C   UNL     1     -31.543 -13.323 -38.782  1.00  0.00     0.094 A 
ATOM     10  C   UNL     1     -30.494 -12.853 -37.989  1.00  0.00     0.146 A 
ATOM     11  O   UNL     1     -30.755 -12.496 -36.737  1.00  0.00    -0.452 OA
ENDROOT
BRANCH   1  12
ATOM     12  C   UNL     1     -30.257 -11.668 -34.529  1.00  0.00     0.025 A 
ATOM     13  C   UNL     1     -30.645 -10.350 -34.233  1.00  0.00     0.016 A 
ATOM     14  C   UNL     1     -31.067 -10.010 -32.945  1.00  0.00     0.051 A 
ATOM     15  C   UNL     1     -31.122 -10.983 -31.939  1.00  0.00     0.157 A 
ATOM     16  C   UNL     1     -30.334 -12.644 -33.522  1.00  0.00     0.062 A 
ATOM     17  C   UNL     1     -30.756 -12.308 -32.230  1.00  0.00     0.158 A 
BRANCH  15  18
ATOM     18  O   UNL     1     -31.542 -10.640 -30.654  1.00  0.00    -0.504 OA
ATOM     19  H   UNL     1     -32.424 -10.968 -30.279  1.00  0.00     0.293 HD
ENDBRANCH  15  18
BRANCH  17  20
ATOM     20  O   UNL     1     -30.806 -13.300 -31.253  1.00  0.00    -0.504 OA
ATOM     21  H   UNL     1     -31.665 -13.541 -30.774  1.00  0.00     0.293 HD
ENDBRANCH  17  20
ENDBRANCH   1  12
BRANCH   2  22
ATOM     22  O   UNL     1     -27.491 -11.632 -35.390  1.00  0.00    -0.502 OA
ATOM     23  H   UNL     1     -27.567 -11.812 -34.396  1.00  0.00     0.293 HD
ENDBRANCH   2  22
BRANCH   6  24
ATOM     24  O   UNL     1     -27.741 -12.961 -40.542  1.00  0.00    -0.507 OA
ATOM     25  H   UNL     1     -27.620 -12.484 -41.422  1.00  0.00     0.293 HD
ENDBRANCH   6  24
BRANCH   8  26
ATOM     26  O   UNL     1     -32.349 -14.206 -40.890  1.00  0.00    -0.508 OA
ATOM     27  H   UNL     1     -32.182 -14.561 -41.824  1.00  0.00     0.293 HD
ENDBRANCH   8  26
TORSDOF 6
ENDMDL
MODEL 2
REMARK VINA RESULT:    -5.899      9.886     13.949
REMARK INTER + INTRA:          -7.436
REMARK INTER:                  -7.110
REMARK INTRA:                  -0.326
REMARK UNBOUND:                -0.330
REMARK SMILES O=c1c(O)c(-c2ccc(O)c(O)c2)oc2cc(O)cc(O)c12
REMARK SMILES IDX 5 1 3 2 2 3 1 4 22 5 20 6 19 7 17 8 16 9 15 10 14 11 6 12
REMARK SMILES IDX 7 13 8 14 9 15 13 16 11 17 10 18 12 20 4 22 21 24 18 26
REMARK H PARENT 10 19 12 21 4 23 21 25 18 27
REMARK Flexibility Score: inf
ROOT
ATOM      1  C   UNL     1     -23.356  -9.211 -27.444  1.00  0.00     0.180 A 
ATOM      2  C   UNL     1     -24.640  -9.003 -26.913  1.00  0.00     0.208 A 
ATOM      3  C   UNL     1     -24.776  -8.747 -25.540  1.00  0.00     0.238 A 
ATOM      4  O   UNL     1     -25.934  -8.616 -25.060  1.00  0.00    -0.285 OA
ATOM      5  C   UNL     1     -23.626  -8.686 -24.716  1.00  0.00     0.111 A 
ATOM      6  C   UNL     1     -23.643  -8.395 -23.319  1.00  0.00     0.134 A 
ATOM      7  C   UNL     1     -22.458  -8.491 -22.579  1.00  0.00     0.093 A 
ATOM      8  C   UNL     1     -21.247  -8.802 -23.196  1.00  0.00     0.123 A 
ATOM      9  C   UNL     1     -21.209  -9.032 -24.572  1.00  0.00     0.094 A 
ATOM     10  C   UNL     1     -22.380  -8.980 -25.331  1.00  0.00     0.146 A 
ATOM     11  O   UNL     1     -22.303  -9.213 -26.636  1.00  0.00    -0.452 OA
ENDROOT
BRANCH   1  12
ATOM     12  C   UNL     1     -23.130  -9.461 -28.886  1.00  0.00     0.025 A 
ATOM     13  C   UNL     1     -23.034  -8.403 -29.806  1.00  0.00     0.016 A 
ATOM     14  C   UNL     1     -22.796  -8.662 -31.158  1.00  0.00     0.051 A 
ATOM     15  C   UNL     1     -22.638  -9.978 -31.609  1.00  0.00     0.157 A 
ATOM     16  C   UNL     1     -22.949 -10.777 -29.339  1.00  0.00     0.062 A 
ATOM     17  C   UNL     1     -22.712 -11.042 -30.694  1.00  0.00     0.158 A 
BRANCH  15  18
ATOM     18  O   UNL     1     -22.403 -10.233 -32.960  1.00  0.00    -0.504 OA
ATOM     19  H   UNL     1     -21.846  -9.607 -33.529  1.00  0.00     0.293 HD
ENDBRANCH  15  18
BRANCH  17  20
ATOM     20  O   UNL     1     -22.552 -12.362 -31.109  1.00  0.00    -0.504 OA
ATOM     21  H   UNL     1     -22.899 -12.692 -32.002  1.00  0.00     0.293 HD
ENDBRANCH  17  20
ENDBRANCH   1  12
BRANCH   2  22
ATOM     22  O   UNL     1     -25.764  -9.089 -27.739  1.00  0.00    -0.502 OA
ATOM     23  H   UNL     1     -26.460  -9.818 -27.637  1.00  0.00     0.293 HD
ENDBRANCH   2  22
BRANCH   6  24
ATOM     24  O   UNL     1     -24.783  -7.984 -22.622  1.00  0.00    -0.507 OA
ATOM     25  H   UNL     1     -25.093  -7.027 -22.540  1.00  0.00     0.293 HD
ENDBRANCH   6  24
BRANCH   8  26
ATOM     26  O   UNL     1     -20.085  -8.873 -22.431  1.00  0.00    -0.508 OA
ATOM     27  H   UNL     1     -19.995  -9.529 -21.663  1.00  0.00     0.293 HD
ENDBRANCH   8  26
TORSDOF 6
ENDMDL
MODEL 3
REMARK VINA RESULT:    -5.888      4.356     10.098
REMARK INTER + INTRA:          -7.423
REMARK INTER:                  -7.098
REMARK INTRA:                  -0.325
REMARK UNBOUND:                -0.330
REMARK SMILES O=c1c(O)c(-c2ccc(O)c(O)c2)oc2cc(O)cc(O)c12
REMARK SMILES IDX 5 1 3 2 2 3 1 4 22 5 20 6 19 7 17 8 16 9 15 10 14 11 6 12
REMARK SMILES IDX 7 13 8 14 9 15 13 16 11 17 10 18 12 20 4 22 21 24 18 26
REMARK H PARENT 10 19 12 21 4 23 21 25 18 27
REMARK Flexibility Score: inf
ROOT
ATOM      1  C   UNL     1     -31.901 -11.179 -29.451  1.00  0.00     0.180 A 
ATOM      2  C   UNL     1     -31.061 -11.088 -28.327  1.00  0.00     0.208 A 
ATOM      3  C   UNL     1     -31.620 -10.748 -27.085  1.00  0.00     0.238 A 
ATOM      4  O   UNL     1     -30.855 -10.615 -26.094  1.00  0.00    -0.285 OA
ATOM      5  C   UNL     1     -33.013 -10.519 -26.977  1.00  0.00     0.111 A 
ATOM      6  C   UNL     1     -33.692 -10.207 -25.762  1.00  0.00     0.134 A 
ATOM      7  C   UNL     1     -35.051  -9.872 -25.796  1.00  0.00     0.093 A 
ATOM      8  C   UNL     1     -35.770  -9.900 -26.990  1.00  0.00     0.123 A 
ATOM      9  C   UNL     1     -35.129 -10.261 -28.176  1.00  0.00     0.094 A 
ATOM     10  C   UNL     1     -33.766 -10.565 -28.180  1.00  0.00     0.146 A 
ATOM     11  O   UNL     1     -33.192 -10.894 -29.331  1.00  0.00    -0.452 OA
ENDROOT
BRANCH   1  12
ATOM     12  C   UNL     1     -31.390 -11.556 -30.788  1.00  0.00     0.025 A 
ATOM     13  C   UNL     1     -31.218 -12.903 -31.152  1.00  0.00     0.016 A 
ATOM     14  C   UNL     1     -30.757 -13.237 -32.428  1.00  0.00     0.051 A 
ATOM     15  C   UNL     1     -30.474 -12.233 -33.363  1.00  0.00     0.157 A 
ATOM     16  C   UNL     1     -31.125 -10.555 -31.735  1.00  0.00     0.062 A 
ATOM     17  C   UNL     1     -30.662 -10.884 -33.014  1.00  0.00     0.158 A 
BRANCH  15  18
ATOM     18  O   UNL     1     -30.012 -12.569 -34.634  1.00  0.00    -0.504 OA
ATOM     19  H   UNL     1     -29.214 -13.180 -34.765  1.00  0.00     0.293 HD
ENDBRANCH  15  18
BRANCH  17  20
ATOM     20  O   UNL     1     -30.396  -9.862 -33.924  1.00  0.00    -0.504 OA
ATOM     21  H   UNL     1     -30.975  -9.703 -34.739  1.00  0.00     0.293 HD
ENDBRANCH  17  20
ENDBRANCH   1  12
BRANCH   2  22
ATOM     22  O   UNL     1     -29.686 -11.297 -28.459  1.00  0.00    -0.502 OA
ATOM     23  H   UNL     1     -29.070 -10.613 -28.883  1.00  0.00     0.293 HD
ENDBRANCH   2  22
BRANCH   6  24
ATOM     24  O   UNL     1     -33.089 -10.240 -24.500  1.00  0.00    -0.507 OA
ATOM     25  H   UNL     1     -33.357  -9.659 -23.720  1.00  0.00     0.293 HD
ENDBRANCH   6  24
BRANCH   8  26
ATOM     26  O   UNL     1     -37.125  -9.576 -26.985  1.00  0.00    -0.508 OA
ATOM     27  H   UNL     1     -37.441  -8.624 -26.837  1.00  0.00     0.293 HD
ENDBRANCH   8  26
TORSDOF 6
ENDMDL
MODEL 4
REMARK VINA RESULT:    -5.871      7.699      9.418
REMARK INTER + INTRA:          -7.402
REMARK INTER:                  -7.102
REMARK INTRA:                  -0.301
REMARK UNBOUND:                -0.330
REMARK SMILES O=c1c(O)c(-c2ccc(O)c(O)c2)oc2cc(O)cc(O)c12
REMARK SMILES IDX 5 1 3 2 2 3 1 4 22 5 20 6 19 7 17 8 16 9 15 10 14 11 6 12
REMARK SMILES IDX 7 13 8 14 9 15 13 16 11 17 10 18 12 20 4 22 21 24 18 26
REMARK H PARENT 10 19 12 21 4 23 21 25 18 27
REMARK Flexibility Score: inf
ROOT
ATOM      1  C   UNL     1     -21.906 -11.040 -33.812  1.00  0.00     0.180 A 
ATOM      2  C   UNL     1     -22.843 -11.351 -34.812  1.00  0.00     0.208 A 
ATOM      3  C   UNL     1     -22.401 -11.508 -36.135  1.00  0.00     0.238 A 
ATOM      4  O   UNL     1     -23.253 -11.731 -37.035  1.00  0.00    -0.285 OA
ATOM      5  C   UNL     1     -21.026 -11.368 -36.440  1.00  0.00     0.111 A 
ATOM      6  C   UNL     1     -20.461 -11.544 -37.739  1.00  0.00     0.134 A 
ATOM      7  C   UNL     1     -19.108 -11.253 -37.949  1.00  0.00     0.093 A 
ATOM      8  C   UNL     1     -18.284 -10.856 -36.895  1.00  0.00     0.123 A 
ATOM      9  C   UNL     1     -18.813 -10.737 -35.610  1.00  0.00     0.094 A 
ATOM     10  C   UNL     1     -20.168 -10.985 -35.376  1.00  0.00     0.146 A 
ATOM     11  O   UNL     1     -20.634 -10.851 -34.140  1.00  0.00    -0.452 OA
ENDROOT
BRANCH   1  12
ATOM     12  C   UNL     1     -22.292 -10.885 -32.391  1.00  0.00     0.025 A 
ATOM     13  C   UNL     1     -22.089 -11.919 -31.460  1.00  0.00     0.016 A 
ATOM     14  C   UNL     1     -22.439 -11.740 -30.119  1.00  0.00     0.051 A 
ATOM     15  C   UNL     1     -22.983 -10.525 -29.685  1.00  0.00     0.157 A 
ATOM     16  C   UNL     1     -22.817  -9.661 -31.947  1.00  0.00     0.062 A 
ATOM     17  C   UNL     1     -23.170  -9.478 -30.605  1.00  0.00     0.158 A 
BRANCH  15  18
ATOM     18  O   UNL     1     -23.333 -10.351 -28.347  1.00  0.00    -0.504 OA
ATOM     19  H   UNL     1     -22.645 -10.103 -27.646  1.00  0.00     0.293 HD
ENDBRANCH  15  18
BRANCH  17  20
ATOM     20  O   UNL     1     -23.703  -8.254 -30.204  1.00  0.00    -0.504 OA
ATOM     21  H   UNL     1     -24.665  -7.998 -30.390  1.00  0.00     0.293 HD
ENDBRANCH  17  20
ENDBRANCH   1  12
BRANCH   2  22
ATOM     22  O   UNL     1     -24.200 -11.463 -34.493  1.00  0.00    -0.502 OA
ATOM     23  H   UNL     1     -24.930 -11.399 -35.193  1.00  0.00     0.293 HD
ENDBRANCH   2  22
BRANCH   6  24
ATOM     24  O   UNL     1     -21.174 -12.026 -38.841  1.00  0.00    -0.507 OA
ATOM     25  H   UNL     1     -21.762 -11.462 -39.437  1.00  0.00     0.293 HD
ENDBRANCH   6  24
BRANCH   8  26
ATOM     26  O   UNL     1     -16.939 -10.589 -37.138  1.00  0.00    -0.508 OA
ATOM     27  H   UNL     1     -16.302 -11.315 -37.446  1.00  0.00     0.293 HD
ENDBRANCH   8  26
TORSDOF 6
ENDMDL
MODEL 5
REMARK VINA RESULT:    -5.606      0.719      1.459
REMARK INTER + INTRA:          -7.083
REMARK INTER:                  -6.788
REMARK INTRA:                  -0.295
REMARK UNBOUND:                -0.330
REMARK SMILES O=c1c(O)c(-c2ccc(O)c(O)c2)oc2cc(O)cc(O)c12
REMARK SMILES IDX 5 1 3 2 2 3 1 4 22 5 20 6 19 7 17 8 16 9 15 10 14 11 6 12
REMARK SMILES IDX 7 13 8 14 9 15 13 16 11 17 10 18 12 20 4 22 21 24 18 26
REMARK H PARENT 10 19 12 21 4 23 21 25 18 27
REMARK Flexibility Score: inf
ROOT
ATOM      1  C   UNL     1     -29.725 -12.342 -35.669  1.00  0.00     0.180 A 
ATOM      2  C   UNL     1     -28.375 -12.108 -35.983  1.00  0.00     0.208 A 
ATOM      3  C   UNL     1     -27.942 -12.290 -37.306  1.00  0.00     0.238 A 
ATOM      4  O   UNL     1     -26.721 -12.133 -37.569  1.00  0.00    -0.285 OA
ATOM      5  C   UNL     1     -28.866 -12.687 -38.302  1.00  0.00     0.111 A 
ATOM      6  C   UNL     1     -28.546 -12.863 -39.682  1.00  0.00     0.134 A 
ATOM      7  C   UNL     1     -29.509 -13.385 -40.554  1.00  0.00     0.093 A 
ATOM      8  C   UNL     1     -30.799 -13.675 -40.111  1.00  0.00     0.123 A 
ATOM      9  C   UNL     1     -31.140 -13.451 -38.777  1.00  0.00     0.094 A 
ATOM     10  C   UNL     1     -30.191 -12.967 -37.875  1.00  0.00     0.146 A 
ATOM     11  O   UNL     1     -30.553 -12.776 -36.612  1.00  0.00    -0.452 OA
ENDROOT
BRANCH   1  12
ATOM     12  C   UNL     1     -30.262 -12.147 -34.304  1.00  0.00     0.025 A 
ATOM     13  C   UNL     1     -30.426 -13.228 -33.420  1.00  0.00     0.016 A 
ATOM     14  C   UNL     1     -30.912 -13.017 -32.127  1.00  0.00     0.051 A 
ATOM     15  C   UNL     1     -31.229 -11.724 -31.693  1.00  0.00     0.157 A 
ATOM     16  C   UNL     1     -30.561 -10.850 -33.857  1.00  0.00     0.062 A 
ATOM     17  C   UNL     1     -31.050 -10.634 -32.562  1.00  0.00     0.158 A 
BRANCH  15  18
ATOM     18  O   UNL     1     -31.716 -11.517 -30.403  1.00  0.00    -0.504 OA
ATOM     19  H   UNL     1     -31.186 -10.997 -29.713  1.00  0.00     0.293 HD
ENDBRANCH  15  18
BRANCH  17  20
ATOM     20  O   UNL     1     -31.348  -9.334 -32.158  1.00  0.00    -0.504 OA
ATOM     21  H   UNL     1     -31.881  -8.698 -32.740  1.00  0.00     0.293 HD
ENDBRANCH  17  20
ENDBRANCH   1  12
BRANCH   2  22
ATOM     22  O   UNL     1     -27.475 -11.738 -34.980  1.00  0.00    -0.502 OA
ATOM     23  H   UNL     1     -27.058 -12.411 -34.348  1.00  0.00     0.293 HD
ENDBRANCH   2  22
BRANCH   6  24
ATOM     24  O   UNL     1     -27.314 -12.518 -40.247  1.00  0.00    -0.507 OA
ATOM     25  H   UNL     1     -26.564 -12.057 -39.753  1.00  0.00     0.293 HD
ENDBRANCH   6  24
BRANCH   8  26
ATOM     26  O   UNL     1     -31.737 -14.178 -41.010  1.00  0.00    -0.508 OA
ATOM     27  H   UNL     1     -31.664 -14.002 -42.006  1.00  0.00     0.293 HD
ENDBRANCH   8  26
TORSDOF 6
ENDMDL
MODEL 6
REMARK VINA RESULT:    -4.838      1.310      2.040
REMARK INTER + INTRA:          -6.157
REMARK INTER:                  -5.907
REMARK INTRA:                  -0.250
REMARK UNBOUND:                -0.330
REMARK SMILES O=c1c(O)c(-c2ccc(O)c(O)c2)oc2cc(O)cc(O)c12
REMARK SMILES IDX 5 1 3 2 2 3 1 4 22 5 20 6 19 7 17 8 16 9 15 10 14 11 6 12
REMARK SMILES IDX 7 13 8 14 9 15 13 16 11 17 10 18 12 20 4 22 21 24 18 26
REMARK H PARENT 10 19 12 21 4 23 21 25 18 27
REMARK Flexibility Score: inf
ROOT
ATOM      1  C   UNL     1     -29.967 -12.597 -37.057  1.00  0.00     0.180 A 
ATOM      2  C   UNL     1     -28.806 -12.274 -37.780  1.00  0.00     0.208 A 
ATOM      3  C   UNL     1     -28.737 -12.610 -39.141  1.00  0.00     0.238 A 
ATOM      4  O   UNL     1     -27.673 -12.368 -39.771  1.00  0.00    -0.285 OA
ATOM      5  C   UNL     1     -29.834 -13.248 -39.768  1.00  0.00     0.111 A 
ATOM      6  C   UNL     1     -29.889 -13.597 -41.150  1.00  0.00     0.134 A 
ATOM      7  C   UNL     1     -30.972 -14.343 -41.632  1.00  0.00     0.093 A 
ATOM      8  C   UNL     1     -32.032 -14.695 -40.797  1.00  0.00     0.123 A 
ATOM      9  C   UNL     1     -32.017 -14.308 -39.457  1.00  0.00     0.094 A 
ATOM     10  C   UNL     1     -30.933 -13.596 -38.938  1.00  0.00     0.146 A 
ATOM     11  O   UNL     1     -30.953 -13.254 -37.655  1.00  0.00    -0.452 OA
ENDROOT
BRANCH   1  12
ATOM     12  C   UNL     1     -30.125 -12.254 -35.625  1.00  0.00     0.025 A 
ATOM     13  C   UNL     1     -30.013 -13.232 -34.621  1.00  0.00     0.016 A 
ATOM     14  C   UNL     1     -30.142 -12.880 -33.275  1.00  0.00     0.051 A 
ATOM     15  C   UNL     1     -30.370 -11.548 -32.911  1.00  0.00     0.157 A 
ATOM     16  C   UNL     1     -30.332 -10.916 -35.254  1.00  0.00     0.062 A 
ATOM     17  C   UNL     1     -30.463 -10.560 -33.906  1.00  0.00     0.158 A 
BRANCH  15  18
ATOM     18  O   UNL     1     -30.500 -11.200 -31.567  1.00  0.00    -0.504 OA
ATOM     19  H   UNL     1     -31.154 -10.488 -31.264  1.00  0.00     0.293 HD
ENDBRANCH  15  18
BRANCH  17  20
ATOM     20  O   UNL     1     -30.682  -9.224 -33.576  1.00  0.00    -0.504 OA
ATOM     21  H   UNL     1     -31.486  -8.709 -33.917  1.00  0.00     0.293 HD
ENDBRANCH  17  20
ENDBRANCH   1  12
BRANCH   2  22
ATOM     22  O   UNL     1     -27.725 -11.664 -37.138  1.00  0.00    -0.502 OA
ATOM     23  H   UNL     1     -26.763 -11.875 -37.374  1.00  0.00     0.293 HD
ENDBRANCH   2  22
BRANCH   6  24
ATOM     24  O   UNL     1     -28.926 -13.215 -42.090  1.00  0.00    -0.507 OA
ATOM     25  H   UNL     1     -27.960 -13.503 -42.072  1.00  0.00     0.293 HD
ENDBRANCH   6  24
BRANCH   8  26
ATOM     26  O   UNL     1     -33.100 -15.424 -41.315  1.00  0.00    -0.508 OA
ATOM     27  H   UNL     1     -32.956 -16.185 -41.969  1.00  0.00     0.293 HD
ENDBRANCH   8  26
TORSDOF 6
ENDMDL
MODEL 7
REMARK VINA RESULT:    -4.671      9.337     13.318
REMARK INTER + INTRA:          -5.957
REMARK INTER:                  -5.643
REMARK INTRA:                  -0.314
REMARK UNBOUND:                -0.330
REMARK SMILES O=c1c(O)c(-c2ccc(O)c(O)c2)oc2cc(O)cc(O)c12
REMARK SMILES IDX 5 1 3 2 2 3 1 4 22 5 20 6 19 7 17 8 16 9 15 10 14 11 6 12
REMARK SMILES IDX 7 13 8 14 9 15 13 16 11 17 10 18 12 20 4 22 21 24 18 26
REMARK H PARENT 10 19 12 21 4 23 21 25 18 27
REMARK Flexibility Score: inf
ROOT
ATOM      1  C   UNL     1     -23.624  -9.725 -28.111  1.00  0.00     0.180 A 
ATOM      2  C   UNL     1     -25.008  -9.630 -27.884  1.00  0.00     0.208 A 
ATOM      3  C   UNL     1     -25.465  -9.252 -26.611  1.00  0.00     0.238 A 
ATOM      4  O   UNL     1     -26.706  -9.223 -26.398  1.00  0.00    -0.285 OA
ATOM      5  C   UNL     1     -24.534  -8.958 -25.586  1.00  0.00     0.111 A 
ATOM      6  C   UNL     1     -24.884  -8.528 -24.271  1.00  0.00     0.134 A 
ATOM      7  C   UNL     1     -23.885  -8.393 -23.300  1.00  0.00     0.093 A 
ATOM      8  C   UNL     1     -22.543  -8.608 -23.612  1.00  0.00     0.123 A 
ATOM      9  C   UNL     1     -22.183  -8.972 -24.910  1.00  0.00     0.094 A 
ATOM     10  C   UNL     1     -23.161  -9.151 -25.891  1.00  0.00     0.146 A 
ATOM     11  O   UNL     1     -22.778  -9.507 -27.112  1.00  0.00    -0.452 OA
ENDROOT
BRANCH   1  12
ATOM     12  C   UNL     1     -23.066 -10.092 -29.432  1.00  0.00     0.025 A 
ATOM     13  C   UNL     1     -22.736 -11.423 -29.743  1.00  0.00     0.016 A 
ATOM     14  C   UNL     1     -22.232 -11.749 -31.005  1.00  0.00     0.051 A 
ATOM     15  C   UNL     1     -22.064 -10.756 -31.978  1.00  0.00     0.157 A 
ATOM     16  C   UNL     1     -22.915  -9.104 -30.418  1.00  0.00     0.062 A 
ATOM     17  C   UNL     1     -22.410  -9.426 -31.683  1.00  0.00     0.158 A 
BRANCH  15  18
ATOM     18  O   UNL     1     -21.559 -11.085 -33.235  1.00  0.00    -0.504 OA
ATOM     19  H   UNL     1     -21.703 -12.003 -33.642  1.00  0.00     0.293 HD
ENDBRANCH  15  18
BRANCH  17  20
ATOM     20  O   UNL     1     -22.261  -8.416 -32.632  1.00  0.00    -0.504 OA
ATOM     21  H   UNL     1     -22.922  -8.286 -33.388  1.00  0.00     0.293 HD
ENDBRANCH  17  20
ENDBRANCH   1  12
BRANCH   2  22
ATOM     22  O   UNL     1     -25.911  -9.946 -28.903  1.00  0.00    -0.502 OA
ATOM     23  H   UNL     1     -26.420  -9.237 -29.417  1.00  0.00     0.293 HD
ENDBRANCH   2  22
BRANCH   6  24
ATOM     24  O   UNL     1     -26.185  -8.197 -23.879  1.00  0.00    -0.507 OA
ATOM     25  H   UNL     1     -26.425  -7.733 -23.016  1.00  0.00     0.293 HD
ENDBRANCH   6  24
BRANCH   8  26
ATOM     26  O   UNL     1     -21.574  -8.448 -22.624  1.00  0.00    -0.508 OA
ATOM     27  H   UNL     1     -21.335  -9.202 -21.989  1.00  0.00     0.293 HD
ENDBRANCH   8  26
TORSDOF 6
ENDMDL
MODEL 8
REMARK VINA RESULT:    -4.431      3.879      9.628
REMARK INTER + INTRA:          -5.667
REMARK INTER:                  -5.353
REMARK INTRA:                  -0.314
REMARK UNBOUND:                -0.330
REMARK SMILES O=c1c(O)c(-c2ccc(O)c(O)c2)oc2cc(O)cc(O)c12
REMARK SMILES IDX 5 1 3 2 2 3 1 4 22 5 20 6 19 7 17 8 16 9 15 10 14 11 6 12
REMARK SMILES IDX 7 13 8 14 9 15 13 16 11 17 10 18 12 20 4 22 21 24 18 26
REMARK H PARENT 10 19 12 21 4 23 21 25 18 27
REMARK Flexibility Score: inf
ROOT
ATOM      1  C   UNL     1     -31.377 -10.820 -30.026  1.00  0.00     0.180 A 
ATOM      2  C   UNL     1     -30.317 -10.648 -29.119  1.00  0.00     0.208 A 
ATOM      3  C   UNL     1     -30.609 -10.440 -27.762  1.00  0.00     0.238 A 
ATOM      4  O   UNL     1     -29.657 -10.232 -26.964  1.00  0.00    -0.285 OA
ATOM      5  C   UNL     1     -31.955 -10.424 -27.324  1.00  0.00     0.111 A 
ATOM      6  C   UNL     1     -32.365 -10.261 -25.967  1.00  0.00     0.134 A 
ATOM      7  C   UNL     1     -33.726 -10.129 -25.667  1.00  0.00     0.093 A 
ATOM      8  C   UNL     1     -34.695 -10.219 -26.666  1.00  0.00     0.123 A 
ATOM      9  C   UNL     1     -34.309 -10.437 -27.989  1.00  0.00     0.094 A 
ATOM     10  C   UNL     1     -32.957 -10.536 -28.324  1.00  0.00     0.146 A 
ATOM     11  O   UNL     1     -32.630 -10.734 -29.595  1.00  0.00    -0.452 OA
ENDROOT
BRANCH   1  12
ATOM     12  C   UNL     1     -31.149 -11.068 -31.467  1.00  0.00     0.025 A 
ATOM     13  C   UNL     1     -31.137 -10.015 -32.398  1.00  0.00     0.016 A 
ATOM     14  C   UNL     1     -30.895 -10.271 -33.751  1.00  0.00     0.051 A 
ATOM     15  C   UNL     1     -30.650 -11.578 -34.191  1.00  0.00     0.157 A 
ATOM     16  C   UNL     1     -30.882 -12.373 -31.910  1.00  0.00     0.062 A 
ATOM     17  C   UNL     1     -30.641 -12.634 -33.264  1.00  0.00     0.158 A 
BRANCH  15  18
ATOM     18  O   UNL     1     -30.412 -11.830 -35.541  1.00  0.00    -0.504 OA
ATOM     19  H   UNL     1     -30.998 -12.462 -36.074  1.00  0.00     0.293 HD
ENDBRANCH  15  18
BRANCH  17  20
ATOM     20  O   UNL     1     -30.394 -13.945 -33.669  1.00  0.00    -0.504 OA
ATOM     21  H   UNL     1     -29.522 -14.417 -33.462  1.00  0.00     0.293 HD
ENDBRANCH  17  20
ENDBRANCH   1  12
BRANCH   2  22
ATOM     22  O   UNL     1     -28.996 -10.646 -29.575  1.00  0.00    -0.502 OA
ATOM     23  H   UNL     1     -28.571 -11.454 -30.014  1.00  0.00     0.293 HD
ENDBRANCH   2  22
BRANCH   6  24
ATOM     24  O   UNL     1     -31.483 -10.250 -24.881  1.00  0.00    -0.507 OA
ATOM     25  H   UNL     1     -30.697  -9.624 -24.785  1.00  0.00     0.293 HD
ENDBRANCH   6  24
BRANCH   8  26
ATOM     26  O   UNL     1     -36.042 -10.099 -26.329  1.00  0.00    -0.508 OA
ATOM     27  H   UNL     1     -36.551 -10.863 -25.899  1.00  0.00     0.293 HD
ENDBRANCH   8  26
TORSDOF 6
ENDMDL
