MODEL 1
REMARK VINA RESULT:    -5.385      0.000      0.000
REMARK INTER + INTRA:          -5.385
REMARK INTER:                  -5.385
REMARK INTRA:                   0.000
REMARK UNBOUND:                 0.000
REMARK SMILES CC1=CC[C@@H]2[C@H](C1)C2(C)C
REMARK SMILES IDX 1 1 2 2 3 3 4 4 5 5 6 6 7 7 8 8 9 9 10 10
REMARK H PARENT
REMARK Flexibility Score: inf
ROOT
ATOM      1  C   UNL     1       3.855   4.875  12.371  1.00  0.00     0.039 C 
ATOM      2  C   UNL     1       4.859   5.982  12.551  1.00  0.00    -0.077 C 
ATOM      3  C   UNL     1       4.623   7.184  11.999  1.00  0.00    -0.028 C 
ATOM      4  C   UNL     1       5.589   8.325  12.153  1.00  0.00     0.031 C 
ATOM      5  C   UNL     1       7.055   7.847  12.099  1.00  0.00     0.003 C 
ATOM      6  C   UNL     1       7.338   6.468  12.738  1.00  0.00     0.003 C 
ATOM      7  C   UNL     1       6.120   5.743  13.349  1.00  0.00     0.034 C 
ATOM      8  C   UNL     1       7.891   7.748  13.387  1.00  0.00    -0.029 C 
ATOM      9  C   UNL     1       7.319   8.250  14.726  1.00  0.00     0.012 C 
ATOM     10  C   UNL     1       9.395   7.964  13.189  1.00  0.00     0.012 C 
ENDROOT
TORSDOF 0
ENDMDL
MODEL 2
REMARK VINA RESULT:    -4.667      1.454      2.828
REMARK INTER + INTRA:          -4.667
REMARK INTER:                  -4.667
REMARK INTRA:                   0.000
REMARK UNBOUND:                 0.000
REMARK SMILES CC1=CC[C@@H]2[C@H](C1)C2(C)C
REMARK SMILES IDX 1 1 2 2 3 3 4 4 5 5 6 6 7 7 8 8 9 9 10 10
REMARK H PARENT
REMARK Flexibility Score: inf
ROOT
ATOM      1  C   UNL     1       3.561   9.735  11.098  1.00  0.00     0.039 C 
ATOM      2  C   UNL     1       4.664   8.855  11.620  1.00  0.00    -0.077 C 
ATOM      3  C   UNL     1       5.848   8.833  10.986  1.00  0.00    -0.028 C 
ATOM      4  C   UNL     1       6.984   7.976  11.468  1.00  0.00     0.031 C 
ATOM      5  C   UNL     1       6.492   6.614  12.000  1.00  0.00     0.003 C 
ATOM      6  C   UNL     1       5.134   6.630  12.738  1.00  0.00     0.003 C 
ATOM      7  C   UNL     1       4.441   8.006  12.851  1.00  0.00     0.034 C 
ATOM      8  C   UNL     1       6.430   6.343  13.513  1.00  0.00    -0.029 C 
ATOM      9  C   UNL     1       6.985   7.377  14.511  1.00  0.00     0.012 C 
ATOM     10  C   UNL     1       6.626   4.875  13.907  1.00  0.00     0.012 C 
ENDROOT
TORSDOF 0
ENDMDL
MODEL 3
REMARK VINA RESULT:    -4.501      1.279      2.519
REMARK INTER + INTRA:          -4.501
REMARK INTER:                  -4.501
REMARK INTRA:                   0.000
REMARK UNBOUND:                 0.000
REMARK SMILES CC1=CC[C@@H]2[C@H](C1)C2(C)C
REMARK SMILES IDX 1 1 2 2 3 3 4 4 5 5 6 6 7 7 8 8 9 9 10 10
REMARK H PARENT
REMARK Flexibility Score: inf
ROOT
ATOM      1  C   UNL     1       3.680   9.070  10.875  1.00  0.00     0.039 C 
ATOM      2  C   UNL     1       4.741   8.359  11.672  1.00  0.00    -0.077 C 
ATOM      3  C   UNL     1       4.376   7.488  12.627  1.00  0.00    -0.028 C 
ATOM      4  C   UNL     1       5.394   6.747  13.448  1.00  0.00     0.031 C 
ATOM      5  C   UNL     1       6.612   7.632  13.788  1.00  0.00     0.003 C 
ATOM      6  C   UNL     1       7.043   8.634  12.692  1.00  0.00     0.003 C 
ATOM      7  C   UNL     1       6.203   8.623  11.397  1.00  0.00     0.034 C 
ATOM      8  C   UNL     1       7.947   7.441  13.047  1.00  0.00    -0.029 C 
ATOM      9  C   UNL     1       8.125   6.278  12.053  1.00  0.00     0.012 C 
ATOM     10  C   UNL     1       9.189   7.804  13.868  1.00  0.00     0.012 C 
ENDROOT
TORSDOF 0
ENDMDL
MODEL 4
REMARK VINA RESULT:    -4.235      1.166      2.012
REMARK INTER + INTRA:          -4.235
REMARK INTER:                  -4.235
REMARK INTRA:                   0.000
REMARK UNBOUND:                 0.000
REMARK SMILES CC1=CC[C@@H]2[C@H](C1)C2(C)C
REMARK SMILES IDX 1 1 2 2 3 3 4 4 5 5 6 6 7 7 8 8 9 9 10 10
REMARK H PARENT
REMARK Flexibility Score: inf
ROOT
ATOM      1  C   UNL     1       3.480   4.877  12.639  1.00  0.00     0.039 C 
ATOM      2  C   UNL     1       4.825   5.548  12.724  1.00  0.00    -0.077 C 
ATOM      3  C   UNL     1       5.923   4.878  12.338  1.00  0.00    -0.028 C 
ATOM      4  C   UNL     1       7.289   5.502  12.397  1.00  0.00     0.031 C 
ATOM      5  C   UNL     1       7.460   6.392  13.646  1.00  0.00     0.003 C 
ATOM      6  C   UNL     1       6.203   7.173  14.094  1.00  0.00     0.003 C 
ATOM      7  C   UNL     1       4.936   6.966  13.236  1.00  0.00     0.034 C 
ATOM      8  C   UNL     1       7.417   7.925  13.524  1.00  0.00    -0.029 C 
ATOM      9  C   UNL     1       7.337   8.593  12.138  1.00  0.00     0.012 C 
ATOM     10  C   UNL     1       8.253   8.672  14.569  1.00  0.00     0.012 C 
ENDROOT
TORSDOF 0
ENDMDL
MODEL 5
REMARK VINA RESULT:    -3.869      0.762      4.028
REMARK INTER + INTRA:          -3.869
REMARK INTER:                  -3.869
REMARK INTRA:                   0.000
REMARK UNBOUND:                 0.000
REMARK SMILES CC1=CC[C@@H]2[C@H](C1)C2(C)C
REMARK SMILES IDX 1 1 2 2 3 3 4 4 5 5 6 6 7 7 8 8 9 9 10 10
REMARK H PARENT
REMARK Flexibility Score: inf
ROOT
ATOM      1  C   UNL     1       9.914   8.243  13.479  1.00  0.00     0.039 C 
ATOM      2  C   UNL     1       8.480   7.786  13.514  1.00  0.00    -0.077 C 
ATOM      3  C   UNL     1       7.746   8.000  14.618  1.00  0.00    -0.028 C 
ATOM      4  C   UNL     1       6.308   7.569  14.704  1.00  0.00     0.031 C 
ATOM      5  C   UNL     1       6.071   6.215  14.001  1.00  0.00     0.003 C 
ATOM      6  C   UNL     1       6.908   5.963  12.726  1.00  0.00     0.003 C 
ATOM      7  C   UNL     1       7.873   7.096  12.314  1.00  0.00     0.034 C 
ATOM      8  C   UNL     1       5.386   6.160  12.626  1.00  0.00    -0.029 C 
ATOM      9  C   UNL     1       4.807   7.439  11.992  1.00  0.00     0.012 C 
ATOM     10  C   UNL     1       4.593   4.875  12.360  1.00  0.00     0.012 C 
ENDROOT
TORSDOF 0
ENDMDL
MODEL 6
REMARK VINA RESULT:    -3.767      5.429      7.559
REMARK INTER + INTRA:          -3.767
REMARK INTER:                  -3.767
REMARK INTRA:                   0.000
REMARK UNBOUND:                 0.000
REMARK SMILES CC1=CC[C@@H]2[C@H](C1)C2(C)C
REMARK SMILES IDX 1 1 2 2 3 3 4 4 5 5 6 6 7 7 8 8 9 9 10 10
REMARK H PARENT
REMARK Flexibility Score: inf
ROOT
ATOM      1  C   UNL     1       4.008  16.151  11.879  1.00  0.00     0.039 C 
ATOM      2  C   UNL     1       3.689  14.693  12.073  1.00  0.00    -0.077 C 
ATOM      3  C   UNL     1       3.624  14.193  13.318  1.00  0.00    -0.028 C 
ATOM      4  C   UNL     1       3.303  12.746  13.570  1.00  0.00     0.031 C 
ATOM      5  C   UNL     1       3.951  11.822  12.516  1.00  0.00     0.003 C 
ATOM      6  C   UNL     1       4.025  12.388  11.079  1.00  0.00     0.003 C 
ATOM      7  C   UNL     1       3.441  13.803  10.878  1.00  0.00     0.034 C 
ATOM      8  C   UNL     1       3.100  11.200  11.396  1.00  0.00    -0.029 C 
ATOM      9  C   UNL     1       1.571  11.381  11.388  1.00  0.00     0.012 C 
ATOM     10  C   UNL     1       3.607   9.846  10.888  1.00  0.00     0.012 C 
ENDROOT
TORSDOF 0
ENDMDL
MODEL 7
REMARK VINA RESULT:    -3.591      1.353      3.990
REMARK INTER + INTRA:          -3.591
REMARK INTER:                  -3.591
REMARK INTRA:                   0.000
REMARK UNBOUND:                 0.000
REMARK SMILES CC1=CC[C@@H]2[C@H](C1)C2(C)C
REMARK SMILES IDX 1 1 2 2 3 3 4 4 5 5 6 6 7 7 8 8 9 9 10 10
REMARK H PARENT
REMARK Flexibility Score: inf
ROOT
ATOM      1  C   UNL     1       9.731   8.247  14.263  1.00  0.00     0.039 C 
ATOM      2  C   UNL     1       8.481   7.873  13.512  1.00  0.00    -0.077 C 
ATOM      3  C   UNL     1       8.465   6.750  12.775  1.00  0.00    -0.028 C 
ATOM      4  C   UNL     1       7.242   6.327  12.010  1.00  0.00     0.031 C 
ATOM      5  C   UNL     1       6.502   7.534  11.397  1.00  0.00     0.003 C 
ATOM      6  C   UNL     1       6.509   8.829  12.242  1.00  0.00     0.003 C 
ATOM      7  C   UNL     1       7.255   8.752  13.592  1.00  0.00     0.034 C 
ATOM      8  C   UNL     1       5.199   8.053  12.028  1.00  0.00    -0.029 C 
ATOM      9  C   UNL     1       4.545   7.294  13.199  1.00  0.00     0.012 C 
ATOM     10  C   UNL     1       4.226   8.705  11.039  1.00  0.00     0.012 C 
ENDROOT
TORSDOF 0
ENDMDL
MODEL 8
REMARK VINA RESULT:    -3.574      1.830      3.617
REMARK INTER + INTRA:          -3.574
REMARK INTER:                  -3.574
REMARK INTRA:                   0.000
REMARK UNBOUND:                 0.000
REMARK SMILES CC1=CC[C@@H]2[C@H](C1)C2(C)C
REMARK SMILES IDX 1 1 2 2 3 3 4 4 5 5 6 6 7 7 8 8 9 9 10 10
REMARK H PARENT
REMARK Flexibility Score: inf
ROOT
ATOM      1  C   UNL     1       3.882  10.638  10.875  1.00  0.00     0.039 C 
ATOM      2  C   UNL     1       4.081   9.390  11.691  1.00  0.00    -0.077 C 
ATOM      3  C   UNL     1       3.416   9.245  12.850  1.00  0.00    -0.028 C 
ATOM      4  C   UNL     1       3.573   8.016  13.701  1.00  0.00     0.031 C 
ATOM      5  C   UNL     1       5.028   7.501  13.702  1.00  0.00     0.003 C 
ATOM      6  C   UNL     1       5.799   7.657  12.372  1.00  0.00     0.003 C 
ATOM      7  C   UNL     1       5.018   8.307  11.209  1.00  0.00     0.034 C 
ATOM      8  C   UNL     1       5.416   6.258  12.883  1.00  0.00    -0.029 C 
ATOM      9  C   UNL     1       4.334   5.435  12.159  1.00  0.00     0.012 C 
ATOM     10  C   UNL     1       6.582   5.451  13.464  1.00  0.00     0.012 C 
ENDROOT
TORSDOF 0
ENDMDL
MODEL 9
REMARK VINA RESULT:    -3.538      4.905      6.514
REMARK INTER + INTRA:          -3.538
REMARK INTER:                  -3.538
REMARK INTRA:                   0.000
REMARK UNBOUND:                 0.000
REMARK SMILES CC1=CC[C@@H]2[C@H](C1)C2(C)C
REMARK SMILES IDX 1 1 2 2 3 3 4 4 5 5 6 6 7 7 8 8 9 9 10 10
REMARK H PARENT
REMARK Flexibility Score: inf
ROOT
ATOM      1  C   UNL     1       4.186   8.840  11.285  1.00  0.00     0.039 C 
ATOM      2  C   UNL     1       3.643  10.191  11.664  1.00  0.00    -0.077 C 
ATOM      3  C   UNL     1       2.496  10.270  12.360  1.00  0.00    -0.028 C 
ATOM      4  C   UNL     1       1.912  11.594  12.769  1.00  0.00     0.031 C 
ATOM      5  C   UNL     1       2.101  12.667  11.676  1.00  0.00     0.003 C 
ATOM      6  C   UNL     1       3.420  12.588  10.875  1.00  0.00     0.003 C 
ATOM      7  C   UNL     1       4.384  11.448  11.268  1.00  0.00     0.034 C 
ATOM      8  C   UNL     1       3.168  13.763  11.835  1.00  0.00    -0.029 C 
ATOM      9  C   UNL     1       3.971  13.883  13.144  1.00  0.00     0.012 C 
ATOM     10  C   UNL     1       2.829  15.089  11.145  1.00  0.00     0.012 C 
ENDROOT
TORSDOF 0
ENDMDL
