MODEL 1
REMARK VINA RESULT:    -3.267      0.000      0.000
REMARK INTER + INTRA:          -3.474
REMARK INTER:                  -3.458
REMARK INTRA:                  -0.016
REMARK UNBOUND:                -0.016
REMARK SMILES O=C([O-])c1cccnc1
REMARK SMILES IDX 4 1 5 2 9 3 6 4 8 5 7 6 2 7 1 8 3 9
REMARK H PARENT
REMARK Flexibility Score: inf
ROOT
ATOM      1  C   UNL     1       5.592  -1.553  -1.133  1.00  0.00     0.016 A 
ATOM      2  C   UNL     1       5.068  -1.591   0.169  1.00  0.00     0.013 A 
ATOM      3  C   UNL     1       5.885  -2.770  -1.772  1.00  0.00     0.120 A 
ATOM      4  C   UNL     1       4.849  -2.817   0.800  1.00  0.00     0.021 A 
ATOM      5  N   UNL     1       5.662  -3.951  -1.134  1.00  0.00    -0.264 NA
ATOM      6  C   UNL     1       5.155  -3.999   0.126  1.00  0.00     0.111 A 
ENDROOT
BRANCH   1   7
ATOM      7  C   UNL     1       5.830  -0.261  -1.813  1.00  0.00     0.073 C 
ATOM      8  O   UNL     1       5.028   0.158  -2.689  1.00  0.00    -0.545 OA
ATOM      9  O   UNL     1       6.944   0.508  -1.494  1.00  0.00    -0.545 OA
ENDBRANCH   1   7
TORSDOF 1
ENDMDL
MODEL 2
REMARK VINA RESULT:    -3.178     10.567     10.982
REMARK INTER + INTRA:          -3.380
REMARK INTER:                  -3.356
REMARK INTRA:                  -0.024
REMARK UNBOUND:                -0.016
REMARK SMILES O=C([O-])c1cccnc1
REMARK SMILES IDX 4 1 5 2 9 3 6 4 8 5 7 6 2 7 1 8 3 9
REMARK H PARENT
REMARK Flexibility Score: inf
ROOT
ATOM      1  C   UNL     1      -4.999  -1.253  -1.664  1.00  0.00     0.016 A 
ATOM      2  C   UNL     1      -4.146  -2.361  -1.786  1.00  0.00     0.013 A 
ATOM      3  C   UNL     1      -5.934  -1.013  -2.686  1.00  0.00     0.120 A 
ATOM      4  C   UNL     1      -4.234  -3.195  -2.902  1.00  0.00     0.021 A 
ATOM      5  N   UNL     1      -6.000  -1.841  -3.764  1.00  0.00    -0.264 NA
ATOM      6  C   UNL     1      -5.178  -2.916  -3.892  1.00  0.00     0.111 A 
ENDROOT
BRANCH   1   7
ATOM      7  C   UNL     1      -4.915  -0.362  -0.486  1.00  0.00     0.073 C 
ATOM      8  O   UNL     1      -4.240  -0.697   0.523  1.00  0.00    -0.545 OA
ATOM      9  O   UNL     1      -5.582   0.858  -0.478  1.00  0.00    -0.545 OA
ENDBRANCH   1   7
TORSDOF 1
ENDMDL
MODEL 3
REMARK VINA RESULT:    -3.163      3.652      4.308
REMARK INTER + INTRA:          -3.365
REMARK INTER:                  -3.343
REMARK INTRA:                  -0.021
REMARK UNBOUND:                -0.016
REMARK SMILES O=C([O-])c1cccnc1
REMARK SMILES IDX 4 1 5 2 9 3 6 4 8 5 7 6 2 7 1 8 3 9
REMARK H PARENT
REMARK Flexibility Score: inf
ROOT
ATOM      1  C   UNL     1       3.276  -4.202   0.799  1.00  0.00     0.016 A 
ATOM      2  C   UNL     1       2.953  -4.024   2.153  1.00  0.00     0.013 A 
ATOM      3  C   UNL     1       2.482  -5.070   0.030  1.00  0.00     0.120 A 
ATOM      4  C   UNL     1       1.867  -4.702   2.710  1.00  0.00     0.021 A 
ATOM      5  N   UNL     1       1.428  -5.718   0.596  1.00  0.00    -0.264 NA
ATOM      6  C   UNL     1       1.107  -5.554   1.907  1.00  0.00     0.111 A 
ENDROOT
BRANCH   1   7
ATOM      7  C   UNL     1       4.425  -3.489   0.197  1.00  0.00     0.073 C 
ATOM      8  O   UNL     1       5.079  -4.010  -0.744  1.00  0.00    -0.545 OA
ATOM      9  O   UNL     1       4.799  -2.235   0.667  1.00  0.00    -0.545 OA
ENDBRANCH   1   7
TORSDOF 1
ENDMDL
MODEL 4
REMARK VINA RESULT:    -3.065     10.195     10.610
REMARK INTER + INTRA:          -3.261
REMARK INTER:                  -3.241
REMARK INTRA:                  -0.020
REMARK UNBOUND:                -0.016
REMARK SMILES O=C([O-])c1cccnc1
REMARK SMILES IDX 4 1 5 2 9 3 6 4 8 5 7 6 2 7 1 8 3 9
REMARK H PARENT
REMARK Flexibility Score: inf
ROOT
ATOM      1  C   UNL     1      -4.758  -2.064  -1.107  1.00  0.00     0.016 A 
ATOM      2  C   UNL     1      -4.142  -2.550  -2.271  1.00  0.00     0.013 A 
ATOM      3  C   UNL     1      -5.588  -2.933  -0.378  1.00  0.00     0.120 A 
ATOM      4  C   UNL     1      -4.359  -3.867  -2.682  1.00  0.00     0.021 A 
ATOM      5  N   UNL     1      -5.783  -4.211  -0.799  1.00  0.00    -0.264 NA
ATOM      6  C   UNL     1      -5.192  -4.691  -1.925  1.00  0.00     0.111 A 
ENDROOT
BRANCH   1   7
ATOM      7  C   UNL     1      -4.535  -0.671  -0.661  1.00  0.00     0.073 C 
ATOM      8  O   UNL     1      -4.325  -0.413   0.553  1.00  0.00    -0.545 OA
ATOM      9  O   UNL     1      -4.557   0.373  -1.580  1.00  0.00    -0.545 OA
ENDBRANCH   1   7
TORSDOF 1
ENDMDL
MODEL 5
REMARK VINA RESULT:    -3.036      7.180      8.083
REMARK INTER + INTRA:          -3.230
REMARK INTER:                  -3.213
REMARK INTRA:                  -0.017
REMARK UNBOUND:                -0.016
REMARK SMILES O=C([O-])c1cccnc1
REMARK SMILES IDX 4 1 5 2 9 3 6 4 8 5 7 6 2 7 1 8 3 9
REMARK H PARENT
REMARK Flexibility Score: inf
ROOT
ATOM      1  C   UNL     1       5.108   4.208  -6.135  1.00  0.00     0.016 A 
ATOM      2  C   UNL     1       4.558   3.753  -4.926  1.00  0.00     0.013 A 
ATOM      3  C   UNL     1       6.475   4.533  -6.167  1.00  0.00     0.120 A 
ATOM      4  C   UNL     1       5.363   3.632  -3.792  1.00  0.00     0.021 A 
ATOM      5  N   UNL     1       7.237   4.406  -5.048  1.00  0.00    -0.264 NA
ATOM      6  C   UNL     1       6.715   3.967  -3.872  1.00  0.00     0.111 A 
ENDROOT
BRANCH   1   7
ATOM      7  C   UNL     1       4.266   4.341  -7.344  1.00  0.00     0.073 C 
ATOM      8  O   UNL     1       4.016   5.476  -7.829  1.00  0.00    -0.545 OA
ATOM      9  O   UNL     1       3.737   3.212  -7.960  1.00  0.00    -0.545 OA
ENDBRANCH   1   7
TORSDOF 1
ENDMDL
MODEL 6
REMARK VINA RESULT:    -2.992      3.104      3.971
REMARK INTER + INTRA:          -3.183
REMARK INTER:                  -3.166
REMARK INTRA:                  -0.018
REMARK UNBOUND:                -0.016
REMARK SMILES O=C([O-])c1cccnc1
REMARK SMILES IDX 4 1 5 2 9 3 6 4 8 5 7 6 2 7 1 8 3 9
REMARK H PARENT
REMARK Flexibility Score: inf
ROOT
ATOM      1  C   UNL     1       5.100  -2.804  -0.070  1.00  0.00     0.016 A 
ATOM      2  C   UNL     1       5.596  -3.391  -1.245  1.00  0.00     0.013 A 
ATOM      3  C   UNL     1       4.955  -1.406  -0.031  1.00  0.00     0.120 A 
ATOM      4  C   UNL     1       5.933  -2.592  -2.339  1.00  0.00     0.021 A 
ATOM      5  N   UNL     1       5.290  -0.651  -1.111  1.00  0.00    -0.264 NA
ATOM      6  C   UNL     1       5.772  -1.209  -2.253  1.00  0.00     0.111 A 
ENDROOT
BRANCH   1   7
ATOM      7  C   UNL     1       4.740  -3.639   1.097  1.00  0.00     0.073 C 
ATOM      8  O   UNL     1       3.558  -3.656   1.531  1.00  0.00    -0.545 OA
ATOM      9  O   UNL     1       5.703  -4.417   1.730  1.00  0.00    -0.545 OA
ENDBRANCH   1   7
TORSDOF 1
ENDMDL
MODEL 7
REMARK VINA RESULT:    -2.954      8.139      8.905
REMARK INTER + INTRA:          -3.143
REMARK INTER:                  -3.126
REMARK INTRA:                  -0.017
REMARK UNBOUND:                -0.016
REMARK SMILES O=C([O-])c1cccnc1
REMARK SMILES IDX 4 1 5 2 9 3 6 4 8 5 7 6 2 7 1 8 3 9
REMARK H PARENT
REMARK Flexibility Score: inf
ROOT
ATOM      1  C   UNL     1       4.537   4.481  -6.614  1.00  0.00     0.016 A 
ATOM      2  C   UNL     1       4.528   3.786  -5.395  1.00  0.00     0.013 A 
ATOM      3  C   UNL     1       4.559   5.886  -6.583  1.00  0.00     0.120 A 
ATOM      4  C   UNL     1       4.541   4.488  -4.188  1.00  0.00     0.021 A 
ATOM      5  N   UNL     1       4.571   6.546  -5.394  1.00  0.00    -0.264 NA
ATOM      6  C   UNL     1       4.562   5.883  -4.207  1.00  0.00     0.111 A 
ENDROOT
BRANCH   1   7
ATOM      7  C   UNL     1       4.524   3.749  -7.900  1.00  0.00     0.073 C 
ATOM      8  O   UNL     1       3.503   3.105  -8.260  1.00  0.00    -0.545 OA
ATOM      9  O   UNL     1       5.641   3.761  -8.728  1.00  0.00    -0.545 OA
ENDBRANCH   1   7
TORSDOF 1
ENDMDL
MODEL 8
REMARK VINA RESULT:    -2.921      9.445     10.447
REMARK INTER + INTRA:          -3.108
REMARK INTER:                  -3.088
REMARK INTRA:                  -0.020
REMARK UNBOUND:                -0.016
REMARK SMILES O=C([O-])c1cccnc1
REMARK SMILES IDX 4 1 5 2 9 3 6 4 8 5 7 6 2 7 1 8 3 9
REMARK H PARENT
REMARK Flexibility Score: inf
ROOT
ATOM      1  C   UNL     1       0.101   6.047   0.215  1.00  0.00     0.016 A 
ATOM      2  C   UNL     1       0.816   5.576  -0.898  1.00  0.00     0.013 A 
ATOM      3  C   UNL     1      -0.821   7.091   0.025  1.00  0.00     0.120 A 
ATOM      4  C   UNL     1       0.607   6.143  -2.156  1.00  0.00     0.021 A 
ATOM      5  N   UNL     1      -1.006   7.626  -1.212  1.00  0.00    -0.264 NA
ATOM      6  C   UNL     1      -0.319   7.178  -2.296  1.00  0.00     0.111 A 
ENDROOT
BRANCH   1   7
ATOM      7  C   UNL     1       0.314   5.454   1.554  1.00  0.00     0.073 C 
ATOM      8  O   UNL     1       1.475   5.170   1.950  1.00  0.00    -0.545 OA
ATOM      9  O   UNL     1      -0.767   5.203   2.392  1.00  0.00    -0.545 OA
ENDBRANCH   1   7
TORSDOF 1
ENDMDL
MODEL 9
REMARK VINA RESULT:    -2.918      2.777      3.864
REMARK INTER + INTRA:          -3.105
REMARK INTER:                  -3.089
REMARK INTRA:                  -0.016
REMARK UNBOUND:                -0.016
REMARK SMILES O=C([O-])c1cccnc1
REMARK SMILES IDX 4 1 5 2 9 3 6 4 8 5 7 6 2 7 1 8 3 9
REMARK H PARENT
REMARK Flexibility Score: inf
ROOT
ATOM      1  C   UNL     1       5.876  -1.566  -0.726  1.00  0.00     0.016 A 
ATOM      2  C   UNL     1       5.309  -0.811  -1.765  1.00  0.00     0.013 A 
ATOM      3  C   UNL     1       7.133  -1.182  -0.229  1.00  0.00     0.120 A 
ATOM      4  C   UNL     1       5.991   0.293  -2.282  1.00  0.00     0.021 A 
ATOM      5  N   UNL     1       7.776  -0.103  -0.749  1.00  0.00    -0.264 NA
ATOM      6  C   UNL     1       7.237   0.635  -1.755  1.00  0.00     0.111 A 
ENDROOT
BRANCH   1   7
ATOM      7  C   UNL     1       5.163  -2.738  -0.171  1.00  0.00     0.073 C 
ATOM      8  O   UNL     1       4.564  -2.658   0.934  1.00  0.00    -0.545 OA
ATOM      9  O   UNL     1       5.147  -3.945  -0.862  1.00  0.00    -0.545 OA
ENDBRANCH   1   7
TORSDOF 1
ENDMDL
