MODEL 1
REMARK VINA RESULT:    -3.489      0.000      0.000
REMARK INTER + INTRA:         -13.864
REMARK INTER:                  -8.791
REMARK INTRA:                  -5.073
REMARK UNBOUND:                -5.073
REMARK SMILES CCCCCCCCCCCCCCCCCCCCCCCCCCCC(=O)[O-]
REMARK SMILES IDX 15 1 16 2 17 3 18 4 19 5 20 6 21 7 22 8 23 9 24 10 25 11
REMARK SMILES IDX 26 12 27 13 28 14 29 15 30 16 14 17 13 18 12 19 11 20 10 21
REMARK SMILES IDX 9 22 8 23 7 24 6 25 5 26 4 27 3 28 2 29 1 30
REMARK H PARENT
REMARK Flexibility Score: inf
ROOT
ATOM      1  C   UNL     1      22.064   5.760  30.992  1.00  0.00     0.000 C 
ENDROOT
BRANCH   1   2
ATOM      2  C   UNL     1      20.878   4.878  31.407  1.00  0.00     0.000 C 
BRANCH   2   3
ATOM      3  C   UNL     1      20.599   4.925  32.920  1.00  0.00     0.000 C 
BRANCH   3   4
ATOM      4  C   UNL     1      20.921   3.624  33.686  1.00  0.00     0.000 C 
BRANCH   4   5
ATOM      5  C   UNL     1      22.397   3.188  33.649  1.00  0.00     0.000 C 
BRANCH   5   6
ATOM      6  C   UNL     1      22.609   1.874  32.877  1.00  0.00     0.000 C 
BRANCH   6   7
ATOM      7  C   UNL     1      23.347   2.077  31.540  1.00  0.00     0.000 C 
BRANCH   7   8
ATOM      8  C   UNL     1      22.462   1.992  30.284  1.00  0.00     0.000 C 
BRANCH   8   9
ATOM      9  C   UNL     1      23.271   2.028  28.975  1.00  0.00     0.000 C 
BRANCH   9  10
ATOM     10  C   UNL     1      24.656   2.670  29.164  1.00  0.00     0.000 C 
BRANCH  10  11
ATOM     11  C   UNL     1      24.950   3.742  28.101  1.00  0.00     0.000 C 
BRANCH  11  12
ATOM     12  C   UNL     1      23.675   4.381  27.522  1.00  0.00     0.006 C 
BRANCH  12  13
ATOM     13  C   UNL     1      23.602   5.908  27.707  1.00  0.00     0.053 C 
BRANCH  13  14
ATOM     14  C   UNL     1      23.647   6.650  26.405  1.00  0.00     0.041 C 
ATOM     15  O   UNL     1      23.997   6.058  25.349  1.00  0.00    -0.550 OA
ATOM     16  O   UNL     1      23.262   7.982  26.350  1.00  0.00    -0.550 OA
ENDBRANCH  13  14
ENDBRANCH  12  13
ENDBRANCH  11  12
ENDBRANCH  10  11
ENDBRANCH   9  10
ENDBRANCH   8   9
ENDBRANCH   7   8
ENDBRANCH   6   7
ENDBRANCH   5   6
ENDBRANCH   4   5
ENDBRANCH   3   4
ENDBRANCH   2   3
ENDBRANCH   1   2
BRANCH   1  17
ATOM     17  C   UNL     1      22.523   6.646  32.159  1.00  0.00     0.000 C 
BRANCH  17  18
ATOM     18  C   UNL     1      24.013   6.466  32.493  1.00  0.00     0.000 C 
BRANCH  18  19
ATOM     19  C   UNL     1      24.731   5.359  31.694  1.00  0.00     0.000 C 
BRANCH  19  20
ATOM     20  C   UNL     1      26.194   5.662  31.309  1.00  0.00     0.000 C 
BRANCH  20  21
ATOM     21  C   UNL     1      26.378   6.400  29.971  1.00  0.00     0.000 C 
BRANCH  21  22
ATOM     22  C   UNL     1      26.883   7.841  30.145  1.00  0.00    -0.000 C 
BRANCH  22  23
ATOM     23  C   UNL     1      26.069   8.807  29.272  1.00  0.00    -0.000 C 
BRANCH  23  24
ATOM     24  C   UNL     1      24.571   8.820  29.623  1.00  0.00    -0.000 C 
BRANCH  24  25
ATOM     25  C   UNL     1      24.150   9.889  30.654  1.00  0.00    -0.000 C 
BRANCH  25  26
ATOM     26  C   UNL     1      23.015  10.817  30.169  1.00  0.00    -0.000 C 
BRANCH  26  27
ATOM     27  C   UNL     1      23.557  12.083  29.481  1.00  0.00    -0.000 C 
BRANCH  27  28
ATOM     28  C   UNL     1      23.230  12.139  27.980  1.00  0.00    -0.000 C 
BRANCH  28  29
ATOM     29  C   UNL     1      22.117  11.170  27.539  1.00  0.00    -0.003 C 
ATOM     30  C   UNL     1      21.844  11.215  26.034  1.00  0.00     0.004 C 
ENDBRANCH  28  29
ENDBRANCH  27  28
ENDBRANCH  26  27
ENDBRANCH  25  26
ENDBRANCH  24  25
ENDBRANCH  23  24
ENDBRANCH  22  23
ENDBRANCH  21  22
ENDBRANCH  20  21
ENDBRANCH  19  20
ENDBRANCH  18  19
ENDBRANCH  17  18
ENDBRANCH   1  17
TORSDOF 26
ENDMDL
MODEL 2
REMARK VINA RESULT:    -3.429      2.319      4.682
REMARK INTER + INTRA:         -13.714
REMARK INTER:                  -8.348
REMARK INTRA:                  -5.366
REMARK UNBOUND:                -5.073
REMARK SMILES CCCCCCCCCCCCCCCCCCCCCCCCCCCC(=O)[O-]
REMARK SMILES IDX 15 1 16 2 17 3 18 4 19 5 20 6 21 7 22 8 23 9 24 10 25 11
REMARK SMILES IDX 26 12 27 13 28 14 29 15 30 16 14 17 13 18 12 19 11 20 10 21
REMARK SMILES IDX 9 22 8 23 7 24 6 25 5 26 4 27 3 28 2 29 1 30
REMARK H PARENT
REMARK Flexibility Score: inf
ROOT
ATOM      1  C   UNL     1      25.311   8.067  28.169  1.00  0.00     0.000 C 
ENDROOT
BRANCH   1   2
ATOM      2  C   UNL     1      23.815   8.033  27.826  1.00  0.00     0.000 C 
BRANCH   2   3
ATOM      3  C   UNL     1      23.521   7.306  26.502  1.00  0.00     0.000 C 
BRANCH   3   4
ATOM      4  C   UNL     1      23.651   5.769  26.557  1.00  0.00     0.000 C 
BRANCH   4   5
ATOM      5  C   UNL     1      23.270   5.124  27.901  1.00  0.00     0.000 C 
BRANCH   5   6
ATOM      6  C   UNL     1      24.097   3.864  28.211  1.00  0.00     0.000 C 
BRANCH   6   7
ATOM      7  C   UNL     1      25.470   4.185  28.832  1.00  0.00     0.000 C 
BRANCH   7   8
ATOM      8  C   UNL     1      25.490   4.268  30.369  1.00  0.00     0.000 C 
BRANCH   8   9
ATOM      9  C   UNL     1      25.286   2.902  31.047  1.00  0.00     0.000 C 
BRANCH   9  10
ATOM     10  C   UNL     1      25.125   3.026  32.572  1.00  0.00     0.000 C 
BRANCH  10  11
ATOM     11  C   UNL     1      24.281   4.249  32.970  1.00  0.00     0.000 C 
BRANCH  11  12
ATOM     12  C   UNL     1      22.767   3.991  32.879  1.00  0.00     0.006 C 
BRANCH  12  13
ATOM     13  C   UNL     1      22.043   4.881  31.853  1.00  0.00     0.053 C 
BRANCH  13  14
ATOM     14  C   UNL     1      21.091   4.108  30.989  1.00  0.00     0.041 C 
ATOM     15  O   UNL     1      21.475   3.065  30.396  1.00  0.00    -0.550 OA
ATOM     16  O   UNL     1      19.770   4.518  30.871  1.00  0.00    -0.550 OA
ENDBRANCH  13  14
ENDBRANCH  12  13
ENDBRANCH  11  12
ENDBRANCH  10  11
ENDBRANCH   9  10
ENDBRANCH   8   9
ENDBRANCH   7   8
ENDBRANCH   6   7
ENDBRANCH   5   6
ENDBRANCH   4   5
ENDBRANCH   3   4
ENDBRANCH   2   3
ENDBRANCH   1   2
BRANCH   1  17
ATOM     17  C   UNL     1      25.532   7.882  29.677  1.00  0.00     0.000 C 
BRANCH  17  18
ATOM     18  C   UNL     1      24.215   7.735  30.458  1.00  0.00     0.000 C 
BRANCH  18  19
ATOM     19  C   UNL     1      24.369   7.703  31.993  1.00  0.00     0.000 C 
BRANCH  19  20
ATOM     20  C   UNL     1      23.183   8.287  32.789  1.00  0.00     0.000 C 
BRANCH  20  21
ATOM     21  C   UNL     1      22.067   8.914  31.934  1.00  0.00     0.000 C 
BRANCH  21  22
ATOM     22  C   UNL     1      21.751  10.364  32.329  1.00  0.00    -0.000 C 
BRANCH  22  23
ATOM     23  C   UNL     1      22.896  10.958  33.162  1.00  0.00    -0.000 C 
BRANCH  23  24
ATOM     24  C   UNL     1      23.669  12.064  32.423  1.00  0.00    -0.000 C 
BRANCH  24  25
ATOM     25  C   UNL     1      24.982  11.609  31.752  1.00  0.00    -0.000 C 
BRANCH  25  26
ATOM     26  C   UNL     1      24.862  11.370  30.231  1.00  0.00    -0.000 C 
BRANCH  26  27
ATOM     27  C   UNL     1      23.611  12.042  29.638  1.00  0.00    -0.000 C 
BRANCH  27  28
ATOM     28  C   UNL     1      22.874  11.152  28.623  1.00  0.00    -0.000 C 
BRANCH  28  29
ATOM     29  C   UNL     1      22.473  11.874  27.323  1.00  0.00    -0.003 C 
ATOM     30  C   UNL     1      21.763  10.958  26.324  1.00  0.00     0.004 C 
ENDBRANCH  28  29
ENDBRANCH  27  28
ENDBRANCH  26  27
ENDBRANCH  25  26
ENDBRANCH  24  25
ENDBRANCH  23  24
ENDBRANCH  22  23
ENDBRANCH  21  22
ENDBRANCH  20  21
ENDBRANCH  19  20
ENDBRANCH  18  19
ENDBRANCH  17  18
ENDBRANCH   1  17
TORSDOF 26
ENDMDL
MODEL 3
REMARK VINA RESULT:    -3.375      1.249      2.090
REMARK INTER + INTRA:         -13.577
REMARK INTER:                  -8.236
REMARK INTRA:                  -5.340
REMARK UNBOUND:                -5.073
REMARK SMILES CCCCCCCCCCCCCCCCCCCCCCCCCCCC(=O)[O-]
REMARK SMILES IDX 15 1 16 2 17 3 18 4 19 5 20 6 21 7 22 8 23 9 24 10 25 11
REMARK SMILES IDX 26 12 27 13 28 14 29 15 30 16 14 17 13 18 12 19 11 20 10 21
REMARK SMILES IDX 9 22 8 23 7 24 6 25 5 26 4 27 3 28 2 29 1 30
REMARK H PARENT
REMARK Flexibility Score: inf
ROOT
ATOM      1  C   UNL     1      22.114   6.321  31.137  1.00  0.00     0.000 C 
ENDROOT
BRANCH   1   2
ATOM      2  C   UNL     1      21.184   5.102  31.191  1.00  0.00     0.000 C 
BRANCH   2   3
ATOM      3  C   UNL     1      20.307   5.075  32.455  1.00  0.00     0.000 C 
BRANCH   3   4
ATOM      4  C   UNL     1      20.608   3.923  33.437  1.00  0.00     0.000 C 
BRANCH   4   5
ATOM      5  C   UNL     1      22.085   3.499  33.520  1.00  0.00     0.000 C 
BRANCH   5   6
ATOM      6  C   UNL     1      22.293   2.007  33.205  1.00  0.00     0.000 C 
BRANCH   6   7
ATOM      7  C   UNL     1      23.044   1.773  31.881  1.00  0.00     0.000 C 
BRANCH   7   8
ATOM      8  C   UNL     1      24.495   2.283  31.851  1.00  0.00     0.000 C 
BRANCH   8   9
ATOM      9  C   UNL     1      24.702   3.451  30.870  1.00  0.00     0.000 C 
BRANCH   9  10
ATOM     10  C   UNL     1      24.613   3.001  29.402  1.00  0.00     0.000 C 
BRANCH  10  11
ATOM     11  C   UNL     1      23.423   3.645  28.668  1.00  0.00     0.000 C 
BRANCH  11  12
ATOM     12  C   UNL     1      23.857   4.609  27.550  1.00  0.00     0.006 C 
BRANCH  12  13
ATOM     13  C   UNL     1      22.964   5.857  27.421  1.00  0.00     0.053 C 
BRANCH  13  14
ATOM     14  C   UNL     1      23.379   6.749  26.289  1.00  0.00     0.041 C 
ATOM     15  O   UNL     1      23.181   7.992  26.355  1.00  0.00    -0.550 OA
ATOM     16  O   UNL     1      24.021   6.213  25.181  1.00  0.00    -0.550 OA
ENDBRANCH  13  14
ENDBRANCH  12  13
ENDBRANCH  11  12
ENDBRANCH  10  11
ENDBRANCH   9  10
ENDBRANCH   8   9
ENDBRANCH   7   8
ENDBRANCH   6   7
ENDBRANCH   5   6
ENDBRANCH   4   5
ENDBRANCH   3   4
ENDBRANCH   2   3
ENDBRANCH   1   2
BRANCH   1  17
ATOM     17  C   UNL     1      21.824   7.284  32.297  1.00  0.00     0.000 C 
BRANCH  17  18
ATOM     18  C   UNL     1      23.102   7.780  32.993  1.00  0.00     0.000 C 
BRANCH  18  19
ATOM     19  C   UNL     1      24.162   6.692  33.260  1.00  0.00     0.000 C 
BRANCH  19  20
ATOM     20  C   UNL     1      25.627   7.128  33.047  1.00  0.00     0.000 C 
BRANCH  20  21
ATOM     21  C   UNL     1      26.464   6.193  32.155  1.00  0.00     0.000 C 
BRANCH  21  22
ATOM     22  C   UNL     1      26.914   6.858  30.845  1.00  0.00    -0.000 C 
BRANCH  22  23
ATOM     23  C   UNL     1      25.777   6.838  29.812  1.00  0.00    -0.000 C 
BRANCH  23  24
ATOM     24  C   UNL     1      25.535   8.208  29.156  1.00  0.00    -0.000 C 
BRANCH  24  25
ATOM     25  C   UNL     1      24.736   9.212  30.014  1.00  0.00    -0.000 C 
BRANCH  25  26
ATOM     26  C   UNL     1      23.281   9.425  29.542  1.00  0.00    -0.000 C 
BRANCH  26  27
ATOM     27  C   UNL     1      22.862  10.904  29.610  1.00  0.00    -0.000 C 
BRANCH  27  28
ATOM     28  C   UNL     1      23.235  11.575  30.943  1.00  0.00    -0.000 C 
BRANCH  28  29
ATOM     29  C   UNL     1      22.027  12.071  31.760  1.00  0.00    -0.003 C 
ATOM     30  C   UNL     1      21.279  10.941  32.470  1.00  0.00     0.004 C 
ENDBRANCH  28  29
ENDBRANCH  27  28
ENDBRANCH  26  27
ENDBRANCH  25  26
ENDBRANCH  24  25
ENDBRANCH  23  24
ENDBRANCH  22  23
ENDBRANCH  21  22
ENDBRANCH  20  21
ENDBRANCH  19  20
ENDBRANCH  18  19
ENDBRANCH  17  18
ENDBRANCH   1  17
TORSDOF 26
ENDMDL
MODEL 4
REMARK VINA RESULT:    -3.363      2.016      5.862
REMARK INTER + INTRA:         -13.548
REMARK INTER:                  -8.354
REMARK INTRA:                  -5.194
REMARK UNBOUND:                -5.073
REMARK SMILES CCCCCCCCCCCCCCCCCCCCCCCCCCCC(=O)[O-]
REMARK SMILES IDX 15 1 16 2 17 3 18 4 19 5 20 6 21 7 22 8 23 9 24 10 25 11
REMARK SMILES IDX 26 12 27 13 28 14 29 15 30 16 14 17 13 18 12 19 11 20 10 21
REMARK SMILES IDX 9 22 8 23 7 24 6 25 5 26 4 27 3 28 2 29 1 30
REMARK H PARENT
REMARK Flexibility Score: inf
ROOT
ATOM      1  C   UNL     1      23.257   1.311  28.725  1.00  0.00     0.000 C 
ENDROOT
BRANCH   1   2
ATOM      2  C   UNL     1      24.525   1.996  28.194  1.00  0.00     0.000 C 
BRANCH   2   3
ATOM      3  C   UNL     1      25.794   1.579  28.959  1.00  0.00     0.000 C 
BRANCH   3   4
ATOM      4  C   UNL     1      26.458   2.700  29.785  1.00  0.00     0.000 C 
BRANCH   4   5
ATOM      5  C   UNL     1      26.551   4.068  29.085  1.00  0.00     0.000 C 
BRANCH   5   6
ATOM      6  C   UNL     1      26.892   5.211  30.056  1.00  0.00     0.000 C 
BRANCH   6   7
ATOM      7  C   UNL     1      26.346   4.975  31.476  1.00  0.00     0.000 C 
BRANCH   7   8
ATOM      8  C   UNL     1      25.826   6.232  32.196  1.00  0.00     0.000 C 
BRANCH   8   9
ATOM      9  C   UNL     1      26.087   7.527  31.406  1.00  0.00     0.000 C 
BRANCH   9  10
ATOM     10  C   UNL     1      24.899   8.501  31.474  1.00  0.00     0.000 C 
BRANCH  10  11
ATOM     11  C   UNL     1      24.653   9.212  30.132  1.00  0.00     0.000 C 
BRANCH  11  12
ATOM     12  C   UNL     1      23.275   9.890  30.053  1.00  0.00     0.006 C 
BRANCH  12  13
ATOM     13  C   UNL     1      23.032  10.664  28.744  1.00  0.00     0.053 C 
BRANCH  13  14
ATOM     14  C   UNL     1      23.523  12.079  28.811  1.00  0.00     0.041 C 
ATOM     15  O   UNL     1      23.277  12.882  27.871  1.00  0.00    -0.550 OA
ATOM     16  O   UNL     1      24.216  12.523  29.929  1.00  0.00    -0.550 OA
ENDBRANCH  13  14
ENDBRANCH  12  13
ENDBRANCH  11  12
ENDBRANCH  10  11
ENDBRANCH   9  10
ENDBRANCH   8   9
ENDBRANCH   7   8
ENDBRANCH   6   7
ENDBRANCH   5   6
ENDBRANCH   4   5
ENDBRANCH   3   4
ENDBRANCH   2   3
ENDBRANCH   1   2
BRANCH   1  17
ATOM     17  C   UNL     1      22.583   2.167  29.806  1.00  0.00     0.000 C 
BRANCH  17  18
ATOM     18  C   UNL     1      22.799   1.613  31.225  1.00  0.00     0.000 C 
BRANCH  18  19
ATOM     19  C   UNL     1      23.629   2.519  32.159  1.00  0.00     0.000 C 
BRANCH  19  20
ATOM     20  C   UNL     1      22.831   3.229  33.272  1.00  0.00     0.000 C 
BRANCH  20  21
ATOM     21  C   UNL     1      21.305   3.031  33.211  1.00  0.00     0.000 C 
BRANCH  21  22
ATOM     22  C   UNL     1      20.541   4.335  32.938  1.00  0.00    -0.000 C 
BRANCH  22  23
ATOM     23  C   UNL     1      20.244   4.483  31.438  1.00  0.00    -0.000 C 
BRANCH  23  24
ATOM     24  C   UNL     1      20.705   5.833  30.863  1.00  0.00    -0.000 C 
BRANCH  24  25
ATOM     25  C   UNL     1      22.227   6.081  30.914  1.00  0.00    -0.000 C 
BRANCH  25  26
ATOM     26  C   UNL     1      23.031   5.273  29.872  1.00  0.00    -0.000 C 
BRANCH  26  27
ATOM     27  C   UNL     1      23.537   6.158  28.719  1.00  0.00    -0.000 C 
BRANCH  27  28
ATOM     28  C   UNL     1      23.541   5.434  27.362  1.00  0.00    -0.000 C 
BRANCH  28  29
ATOM     29  C   UNL     1      23.356   6.365  26.149  1.00  0.00    -0.003 C 
ATOM     30  C   UNL     1      23.278   7.843  26.535  1.00  0.00     0.004 C 
ENDBRANCH  28  29
ENDBRANCH  27  28
ENDBRANCH  26  27
ENDBRANCH  25  26
ENDBRANCH  24  25
ENDBRANCH  23  24
ENDBRANCH  22  23
ENDBRANCH  21  22
ENDBRANCH  20  21
ENDBRANCH  19  20
ENDBRANCH  18  19
ENDBRANCH  17  18
ENDBRANCH   1  17
TORSDOF 26
ENDMDL
MODEL 5
REMARK VINA RESULT:    -3.352      2.722      5.545
REMARK INTER + INTRA:         -13.519
REMARK INTER:                  -7.565
REMARK INTRA:                  -5.954
REMARK UNBOUND:                -5.073
REMARK SMILES CCCCCCCCCCCCCCCCCCCCCCCCCCCC(=O)[O-]
REMARK SMILES IDX 15 1 16 2 17 3 18 4 19 5 20 6 21 7 22 8 23 9 24 10 25 11
REMARK SMILES IDX 26 12 27 13 28 14 29 15 30 16 14 17 13 18 12 19 11 20 10 21
REMARK SMILES IDX 9 22 8 23 7 24 6 25 5 26 4 27 3 28 2 29 1 30
REMARK H PARENT
REMARK Flexibility Score: inf
ROOT
ATOM      1  C   UNL     1      24.022   7.836  26.925  1.00  0.00     0.000 C 
ENDROOT
BRANCH   1   2
ATOM      2  C   UNL     1      23.542   6.460  26.441  1.00  0.00     0.000 C 
BRANCH   2   3
ATOM      3  C   UNL     1      23.173   5.516  27.599  1.00  0.00     0.000 C 
BRANCH   3   4
ATOM      4  C   UNL     1      24.119   4.312  27.790  1.00  0.00     0.000 C 
BRANCH   4   5
ATOM      5  C   UNL     1      23.549   3.153  28.627  1.00  0.00     0.000 C 
BRANCH   5   6
ATOM      6  C   UNL     1      24.026   1.775  28.137  1.00  0.00     0.000 C 
BRANCH   6   7
ATOM      7  C   UNL     1      25.279   1.856  27.244  1.00  0.00     0.000 C 
BRANCH   7   8
ATOM      8  C   UNL     1      26.607   1.521  27.947  1.00  0.00     0.000 C 
BRANCH   8   9
ATOM      9  C   UNL     1      27.360   2.771  28.436  1.00  0.00     0.000 C 
BRANCH   9  10
ATOM     10  C   UNL     1      27.629   2.736  29.950  1.00  0.00     0.000 C 
BRANCH  10  11
ATOM     11  C   UNL     1      26.833   1.624  30.656  1.00  0.00     0.000 C 
BRANCH  11  12
ATOM     12  C   UNL     1      25.690   2.166  31.532  1.00  0.00     0.006 C 
BRANCH  12  13
ATOM     13  C   UNL     1      24.531   1.172  31.731  1.00  0.00     0.053 C 
BRANCH  13  14
ATOM     14  C   UNL     1      23.260   1.845  32.154  1.00  0.00     0.041 C 
ATOM     15  O   UNL     1      22.183   1.612  31.543  1.00  0.00    -0.550 OA
ATOM     16  O   UNL     1      23.256   2.699  33.249  1.00  0.00    -0.550 OA
ENDBRANCH  13  14
ENDBRANCH  12  13
ENDBRANCH  11  12
ENDBRANCH  10  11
ENDBRANCH   9  10
ENDBRANCH   8   9
ENDBRANCH   7   8
ENDBRANCH   6   7
ENDBRANCH   5   6
ENDBRANCH   4   5
ENDBRANCH   3   4
ENDBRANCH   2   3
ENDBRANCH   1   2
BRANCH   1  17
ATOM     17  C   UNL     1      23.626   8.071  28.389  1.00  0.00     0.000 C 
BRANCH  17  18
ATOM     18  C   UNL     1      24.588   9.022  29.121  1.00  0.00     0.000 C 
BRANCH  18  19
ATOM     19  C   UNL     1      25.437   8.365  30.228  1.00  0.00     0.000 C 
BRANCH  19  20
ATOM     20  C   UNL     1      26.028   6.984  29.878  1.00  0.00     0.000 C 
BRANCH  20  21
ATOM     21  C   UNL     1      25.564   5.826  30.781  1.00  0.00     0.000 C 
BRANCH  21  22
ATOM     22  C   UNL     1      26.415   5.677  32.050  1.00  0.00    -0.000 C 
BRANCH  22  23
ATOM     23  C   UNL     1      25.521   5.423  33.273  1.00  0.00    -0.000 C 
BRANCH  23  24
ATOM     24  C   UNL     1      24.616   6.618  33.617  1.00  0.00    -0.000 C 
BRANCH  24  25
ATOM     25  C   UNL     1      23.101   6.331  33.558  1.00  0.00    -0.000 C 
BRANCH  25  26
ATOM     26  C   UNL     1      22.293   7.376  32.757  1.00  0.00    -0.000 C 
BRANCH  26  27
ATOM     27  C   UNL     1      21.963   6.885  31.336  1.00  0.00    -0.000 C 
BRANCH  27  28
ATOM     28  C   UNL     1      21.951   5.352  31.216  1.00  0.00    -0.000 C 
BRANCH  28  29
ATOM     29  C   UNL     1      20.543   4.739  31.097  1.00  0.00    -0.003 C 
ATOM     30  C   UNL     1      19.817   4.639  32.440  1.00  0.00     0.004 C 
ENDBRANCH  28  29
ENDBRANCH  27  28
ENDBRANCH  26  27
ENDBRANCH  25  26
ENDBRANCH  24  25
ENDBRANCH  23  24
ENDBRANCH  22  23
ENDBRANCH  21  22
ENDBRANCH  20  21
ENDBRANCH  19  20
ENDBRANCH  18  19
ENDBRANCH  17  18
ENDBRANCH   1  17
TORSDOF 26
ENDMDL
MODEL 6
REMARK VINA RESULT:    -3.333      2.390      4.786
REMARK INTER + INTRA:         -13.471
REMARK INTER:                  -8.646
REMARK INTRA:                  -4.825
REMARK UNBOUND:                -5.073
REMARK SMILES CCCCCCCCCCCCCCCCCCCCCCCCCCCC(=O)[O-]
REMARK SMILES IDX 15 1 16 2 17 3 18 4 19 5 20 6 21 7 22 8 23 9 24 10 25 11
REMARK SMILES IDX 26 12 27 13 28 14 29 15 30 16 14 17 13 18 12 19 11 20 10 21
REMARK SMILES IDX 9 22 8 23 7 24 6 25 5 26 4 27 3 28 2 29 1 30
REMARK H PARENT
REMARK Flexibility Score: inf
ROOT
ATOM      1  C   UNL     1      23.251   5.315  27.834  1.00  0.00     0.000 C 
ENDROOT
BRANCH   1   2
ATOM      2  C   UNL     1      24.005   4.015  27.518  1.00  0.00     0.000 C 
BRANCH   2   3
ATOM      3  C   UNL     1      23.827   2.942  28.607  1.00  0.00     0.000 C 
BRANCH   3   4
ATOM      4  C   UNL     1      25.106   2.158  28.969  1.00  0.00     0.000 C 
BRANCH   4   5
ATOM      5  C   UNL     1      26.417   2.747  28.416  1.00  0.00     0.000 C 
BRANCH   5   6
ATOM      6  C   UNL     1      27.252   3.456  29.497  1.00  0.00     0.000 C 
BRANCH   6   7
ATOM      7  C   UNL     1      26.782   4.897  29.768  1.00  0.00     0.000 C 
BRANCH   7   8
ATOM      8  C   UNL     1      26.442   5.210  31.236  1.00  0.00     0.000 C 
BRANCH   8   9
ATOM      9  C   UNL     1      25.131   4.553  31.702  1.00  0.00     0.000 C 
BRANCH   9  10
ATOM     10  C   UNL     1      24.593   5.181  32.999  1.00  0.00     0.000 C 
BRANCH  10  11
ATOM     11  C   UNL     1      23.084   4.941  33.179  1.00  0.00     0.000 C 
BRANCH  11  12
ATOM     12  C   UNL     1      22.418   4.337  31.930  1.00  0.00     0.006 C 
BRANCH  12  13
ATOM     13  C   UNL     1      21.348   5.244  31.293  1.00  0.00     0.053 C 
BRANCH  13  14
ATOM     14  C   UNL     1      19.952   4.808  31.623  1.00  0.00     0.041 C 
ATOM     15  O   UNL     1      19.565   4.767  32.822  1.00  0.00    -0.550 OA
ATOM     16  O   UNL     1      19.065   4.486  30.604  1.00  0.00    -0.550 OA
ENDBRANCH  13  14
ENDBRANCH  12  13
ENDBRANCH  11  12
ENDBRANCH  10  11
ENDBRANCH   9  10
ENDBRANCH   8   9
ENDBRANCH   7   8
ENDBRANCH   6   7
ENDBRANCH   5   6
ENDBRANCH   4   5
ENDBRANCH   3   4
ENDBRANCH   2   3
ENDBRANCH   1   2
BRANCH   1  17
ATOM     17  C   UNL     1      23.270   6.266  26.629  1.00  0.00     0.000 C 
BRANCH  17  18
ATOM     18  C   UNL     1      23.957   7.607  26.938  1.00  0.00     0.000 C 
BRANCH  18  19
ATOM     19  C   UNL     1      25.010   7.554  28.065  1.00  0.00     0.000 C 
BRANCH  19  20
ATOM     20  C   UNL     1      24.711   8.441  29.292  1.00  0.00     0.000 C 
BRANCH  20  21
ATOM     21  C   UNL     1      23.463   8.041  30.099  1.00  0.00     0.000 C 
BRANCH  21  22
ATOM     22  C   UNL     1      23.618   8.290  31.607  1.00  0.00    -0.000 C 
BRANCH  22  23
ATOM     23  C   UNL     1      22.282   8.736  32.220  1.00  0.00    -0.000 C 
BRANCH  23  24
ATOM     24  C   UNL     1      22.143  10.266  32.316  1.00  0.00    -0.000 C 
BRANCH  24  25
ATOM     25  C   UNL     1      23.470  11.050  32.232  1.00  0.00    -0.000 C 
BRANCH  25  26
ATOM     26  C   UNL     1      23.560  12.006  31.022  1.00  0.00    -0.000 C 
BRANCH  26  27
ATOM     27  C   UNL     1      22.586  11.610  29.898  1.00  0.00    -0.000 C 
BRANCH  27  28
ATOM     28  C   UNL     1      23.279  11.435  28.536  1.00  0.00    -0.000 C 
BRANCH  28  29
ATOM     29  C   UNL     1      22.495  12.027  27.349  1.00  0.00    -0.003 C 
ATOM     30  C   UNL     1      21.818  10.960  26.487  1.00  0.00     0.004 C 
ENDBRANCH  28  29
ENDBRANCH  27  28
ENDBRANCH  26  27
ENDBRANCH  25  26
ENDBRANCH  24  25
ENDBRANCH  23  24
ENDBRANCH  22  23
ENDBRANCH  21  22
ENDBRANCH  20  21
ENDBRANCH  19  20
ENDBRANCH  18  19
ENDBRANCH  17  18
ENDBRANCH   1  17
TORSDOF 26
ENDMDL
MODEL 7
REMARK VINA RESULT:    -3.329      2.290      6.980
REMARK INTER + INTRA:         -13.463
REMARK INTER:                  -8.585
REMARK INTRA:                  -4.878
REMARK UNBOUND:                -5.073
REMARK SMILES CCCCCCCCCCCCCCCCCCCCCCCCCCCC(=O)[O-]
REMARK SMILES IDX 15 1 16 2 17 3 18 4 19 5 20 6 21 7 22 8 23 9 24 10 25 11
REMARK SMILES IDX 26 12 27 13 28 14 29 15 30 16 14 17 13 18 12 19 11 20 10 21
REMARK SMILES IDX 9 22 8 23 7 24 6 25 5 26 4 27 3 28 2 29 1 30
REMARK H PARENT
REMARK Flexibility Score: inf
ROOT
ATOM      1  C   UNL     1      22.782   6.444  26.600  1.00  0.00     0.000 C 
ENDROOT
BRANCH   1   2
ATOM      2  C   UNL     1      23.583   7.751  26.679  1.00  0.00     0.000 C 
BRANCH   2   3
ATOM      3  C   UNL     1      24.955   7.571  27.352  1.00  0.00     0.000 C 
BRANCH   3   4
ATOM      4  C   UNL     1      25.079   8.188  28.762  1.00  0.00     0.000 C 
BRANCH   4   5
ATOM      5  C   UNL     1      24.726   7.245  29.926  1.00  0.00     0.000 C 
BRANCH   5   6
ATOM      6  C   UNL     1      23.255   7.364  30.362  1.00  0.00     0.000 C 
BRANCH   6   7
ATOM      7  C   UNL     1      23.098   7.765  31.840  1.00  0.00     0.000 C 
BRANCH   7   8
ATOM      8  C   UNL     1      21.746   8.404  32.206  1.00  0.00     0.000 C 
BRANCH   8   9
ATOM      9  C   UNL     1      21.895   9.777  32.885  1.00  0.00     0.000 C 
BRANCH   9  10
ATOM     10  C   UNL     1      22.961  10.652  32.205  1.00  0.00     0.000 C 
BRANCH  10  11
ATOM     11  C   UNL     1      22.374  11.507  31.069  1.00  0.00     0.000 C 
BRANCH  11  12
ATOM     12  C   UNL     1      22.819  11.039  29.672  1.00  0.00     0.006 C 
BRANCH  12  13
ATOM     13  C   UNL     1      24.123  11.695  29.181  1.00  0.00     0.053 C 
BRANCH  13  14
ATOM     14  C   UNL     1      23.885  12.998  28.478  1.00  0.00     0.041 C 
ATOM     15  O   UNL     1      22.986  13.091  27.600  1.00  0.00    -0.550 OA
ATOM     16  O   UNL     1      24.628  14.119  28.821  1.00  0.00    -0.550 OA
ENDBRANCH  13  14
ENDBRANCH  12  13
ENDBRANCH  11  12
ENDBRANCH  10  11
ENDBRANCH   9  10
ENDBRANCH   8   9
ENDBRANCH   7   8
ENDBRANCH   6   7
ENDBRANCH   5   6
ENDBRANCH   4   5
ENDBRANCH   3   4
ENDBRANCH   2   3
ENDBRANCH   1   2
BRANCH   1  17
ATOM     17  C   UNL     1      23.691   5.229  26.834  1.00  0.00     0.000 C 
BRANCH  17  18
ATOM     18  C   UNL     1      23.339   4.462  28.120  1.00  0.00     0.000 C 
BRANCH  18  19
ATOM     19  C   UNL     1      24.164   3.181  28.361  1.00  0.00     0.000 C 
BRANCH  19  20
ATOM     20  C   UNL     1      25.670   3.401  28.616  1.00  0.00     0.000 C 
BRANCH  20  21
ATOM     21  C   UNL     1      26.036   3.803  30.057  1.00  0.00     0.000 C 
BRANCH  21  22
ATOM     22  C   UNL     1      26.828   2.717  30.800  1.00  0.00    -0.000 C 
BRANCH  22  23
ATOM     23  C   UNL     1      25.993   2.130  31.948  1.00  0.00    -0.000 C 
BRANCH  23  24
ATOM     24  C   UNL     1      24.885   1.179  31.463  1.00  0.00    -0.000 C 
BRANCH  24  25
ATOM     25  C   UNL     1      23.444   1.657  31.742  1.00  0.00    -0.000 C 
BRANCH  25  26
ATOM     26  C   UNL     1      23.352   2.825  32.747  1.00  0.00    -0.000 C 
BRANCH  26  27
ATOM     27  C   UNL     1      22.752   4.090  32.110  1.00  0.00    -0.000 C 
BRANCH  27  28
ATOM     28  C   UNL     1      21.613   3.785  31.122  1.00  0.00    -0.000 C 
BRANCH  28  29
ATOM     29  C   UNL     1      20.399   4.724  31.249  1.00  0.00    -0.003 C 
ATOM     30  C   UNL     1      19.783   4.720  32.650  1.00  0.00     0.004 C 
ENDBRANCH  28  29
ENDBRANCH  27  28
ENDBRANCH  26  27
ENDBRANCH  25  26
ENDBRANCH  24  25
ENDBRANCH  23  24
ENDBRANCH  22  23
ENDBRANCH  21  22
ENDBRANCH  20  21
ENDBRANCH  19  20
ENDBRANCH  18  19
ENDBRANCH  17  18
ENDBRANCH   1  17
TORSDOF 26
ENDMDL
MODEL 8
REMARK VINA RESULT:    -3.259      2.429      7.088
REMARK INTER + INTRA:         -13.286
REMARK INTER:                  -7.775
REMARK INTRA:                  -5.510
REMARK UNBOUND:                -5.073
REMARK SMILES CCCCCCCCCCCCCCCCCCCCCCCCCCCC(=O)[O-]
REMARK SMILES IDX 15 1 16 2 17 3 18 4 19 5 20 6 21 7 22 8 23 9 24 10 25 11
REMARK SMILES IDX 26 12 27 13 28 14 29 15 30 16 14 17 13 18 12 19 11 20 10 21
REMARK SMILES IDX 9 22 8 23 7 24 6 25 5 26 4 27 3 28 2 29 1 30
REMARK H PARENT
REMARK Flexibility Score: inf
ROOT
ATOM      1  C   UNL     1      23.620   7.492  26.563  1.00  0.00     0.000 C 
ENDROOT
BRANCH   1   2
ATOM      2  C   UNL     1      24.755   7.595  27.592  1.00  0.00     0.000 C 
BRANCH   2   3
ATOM      3  C   UNL     1      24.355   8.395  28.844  1.00  0.00     0.000 C 
BRANCH   3   4
ATOM      4  C   UNL     1      23.259   9.458  28.620  1.00  0.00     0.000 C 
BRANCH   4   5
ATOM      5  C   UNL     1      23.395  10.732  29.474  1.00  0.00     0.000 C 
BRANCH   5   6
ATOM      6  C   UNL     1      24.740  10.810  30.216  1.00  0.00     0.000 C 
BRANCH   6   7
ATOM      7  C   UNL     1      24.576  11.008  31.735  1.00  0.00     0.000 C 
BRANCH   7   8
ATOM      8  C   UNL     1      23.276  10.439  32.333  1.00  0.00     0.000 C 
BRANCH   8   9
ATOM      9  C   UNL     1      23.473   9.067  33.002  1.00  0.00     0.000 C 
BRANCH   9  10
ATOM     10  C   UNL     1      22.190   8.220  32.983  1.00  0.00     0.000 C 
BRANCH  10  11
ATOM     11  C   UNL     1      21.732   7.890  31.552  1.00  0.00     0.000 C 
BRANCH  11  12
ATOM     12  C   UNL     1      22.146   6.480  31.097  1.00  0.00     0.006 C 
BRANCH  12  13
ATOM     13  C   UNL     1      21.891   5.385  32.149  1.00  0.00     0.053 C 
BRANCH  13  14
ATOM     14  C   UNL     1      20.465   4.919  32.163  1.00  0.00     0.041 C 
ATOM     15  O   UNL     1      19.844   4.808  33.253  1.00  0.00    -0.550 OA
ATOM     16  O   UNL     1      19.811   4.647  30.969  1.00  0.00    -0.550 OA
ENDBRANCH  13  14
ENDBRANCH  12  13
ENDBRANCH  11  12
ENDBRANCH  10  11
ENDBRANCH   9  10
ENDBRANCH   8   9
ENDBRANCH   7   8
ENDBRANCH   6   7
ENDBRANCH   5   6
ENDBRANCH   4   5
ENDBRANCH   3   4
ENDBRANCH   2   3
ENDBRANCH   1   2
BRANCH   1  17
ATOM     17  C   UNL     1      22.928   6.124  26.646  1.00  0.00     0.000 C 
BRANCH  17  18
ATOM     18  C   UNL     1      23.802   5.054  27.323  1.00  0.00     0.000 C 
BRANCH  18  19
ATOM     19  C   UNL     1      23.258   4.522  28.665  1.00  0.00     0.000 C 
BRANCH  19  20
ATOM     20  C   UNL     1      23.365   2.996  28.864  1.00  0.00     0.000 C 
BRANCH  20  21
ATOM     21  C   UNL     1      22.318   2.386  29.814  1.00  0.00     0.000 C 
BRANCH  21  22
ATOM     22  C   UNL     1      22.912   1.953  31.163  1.00  0.00    -0.000 C 
BRANCH  22  23
ATOM     23  C   UNL     1      24.429   1.743  31.042  1.00  0.00    -0.000 C 
BRANCH  23  24
ATOM     24  C   UNL     1      25.204   2.218  32.283  1.00  0.00    -0.000 C 
BRANCH  24  25
ATOM     25  C   UNL     1      26.066   3.480  32.074  1.00  0.00    -0.000 C 
BRANCH  25  26
ATOM     26  C   UNL     1      26.505   3.707  30.610  1.00  0.00    -0.000 C 
BRANCH  26  27
ATOM     27  C   UNL     1      26.464   5.195  30.218  1.00  0.00    -0.000 C 
BRANCH  27  28
ATOM     28  C   UNL     1      25.773   6.076  31.272  1.00  0.00    -0.000 C 
BRANCH  28  29
ATOM     29  C   UNL     1      26.533   7.373  31.608  1.00  0.00    -0.003 C 
ATOM     30  C   UNL     1      26.753   7.566  33.110  1.00  0.00     0.004 C 
ENDBRANCH  28  29
ENDBRANCH  27  28
ENDBRANCH  26  27
ENDBRANCH  25  26
ENDBRANCH  24  25
ENDBRANCH  23  24
ENDBRANCH  22  23
ENDBRANCH  21  22
ENDBRANCH  20  21
ENDBRANCH  19  20
ENDBRANCH  18  19
ENDBRANCH  17  18
ENDBRANCH   1  17
TORSDOF 26
ENDMDL
MODEL 9
REMARK VINA RESULT:    -3.248      2.037      5.965
REMARK INTER + INTRA:         -13.259
REMARK INTER:                  -7.333
REMARK INTRA:                  -5.927
REMARK UNBOUND:                -5.073
REMARK SMILES CCCCCCCCCCCCCCCCCCCCCCCCCCCC(=O)[O-]
REMARK SMILES IDX 15 1 16 2 17 3 18 4 19 5 20 6 21 7 22 8 23 9 24 10 25 11
REMARK SMILES IDX 26 12 27 13 28 14 29 15 30 16 14 17 13 18 12 19 11 20 10 21
REMARK SMILES IDX 9 22 8 23 7 24 6 25 5 26 4 27 3 28 2 29 1 30
REMARK H PARENT
REMARK Flexibility Score: inf
ROOT
ATOM      1  C   UNL     1      21.397   5.992  30.801  1.00  0.00     0.000 C 
ENDROOT
BRANCH   1   2
ATOM      2  C   UNL     1      22.479   7.038  31.104  1.00  0.00     0.000 C 
BRANCH   2   3
ATOM      3  C   UNL     1      22.912   7.040  32.580  1.00  0.00     0.000 C 
BRANCH   3   4
ATOM      4  C   UNL     1      24.312   6.450  32.853  1.00  0.00     0.000 C 
BRANCH   4   5
ATOM      5  C   UNL     1      25.092   6.002  31.604  1.00  0.00     0.000 C 
BRANCH   5   6
ATOM      6  C   UNL     1      26.532   6.543  31.577  1.00  0.00     0.000 C 
BRANCH   6   7
ATOM      7  C   UNL     1      26.922   7.141  30.212  1.00  0.00     0.000 C 
BRANCH   7   8
ATOM      8  C   UNL     1      25.810   7.931  29.501  1.00  0.00     0.000 C 
BRANCH   8   9
ATOM      9  C   UNL     1      25.824   9.431  29.843  1.00  0.00     0.000 C 
BRANCH   9  10
ATOM     10  C   UNL     1      24.875   9.774  31.004  1.00  0.00     0.000 C 
BRANCH  10  11
ATOM     11  C   UNL     1      23.585  10.457  30.517  1.00  0.00     0.000 C 
BRANCH  11  12
ATOM     12  C   UNL     1      23.351  10.293  29.005  1.00  0.00     0.006 C 
BRANCH  12  13
ATOM     13  C   UNL     1      23.041  11.613  28.275  1.00  0.00     0.053 C 
BRANCH  13  14
ATOM     14  C   UNL     1      23.950  12.731  28.692  1.00  0.00     0.041 C 
ATOM     15  O   UNL     1      23.486  13.734  29.297  1.00  0.00    -0.550 OA
ATOM     16  O   UNL     1      25.314  12.645  28.450  1.00  0.00    -0.550 OA
ENDBRANCH  13  14
ENDBRANCH  12  13
ENDBRANCH  11  12
ENDBRANCH  10  11
ENDBRANCH   9  10
ENDBRANCH   8   9
ENDBRANCH   7   8
ENDBRANCH   6   7
ENDBRANCH   5   6
ENDBRANCH   4   5
ENDBRANCH   3   4
ENDBRANCH   2   3
ENDBRANCH   1   2
BRANCH   1  17
ATOM     17  C   UNL     1      20.971   5.259  32.081  1.00  0.00     0.000 C 
BRANCH  17  18
ATOM     18  C   UNL     1      21.317   3.760  32.052  1.00  0.00     0.000 C 
BRANCH  18  19
ATOM     19  C   UNL     1      22.176   3.314  30.851  1.00  0.00     0.000 C 
BRANCH  19  20
ATOM     20  C   UNL     1      23.294   2.301  31.177  1.00  0.00     0.000 C 
BRANCH  20  21
ATOM     21  C   UNL     1      24.057   2.569  32.487  1.00  0.00     0.000 C 
BRANCH  21  22
ATOM     22  C   UNL     1      25.577   2.406  32.340  1.00  0.00    -0.000 C 
BRANCH  22  23
ATOM     23  C   UNL     1      25.945   2.069  30.887  1.00  0.00    -0.000 C 
BRANCH  23  24
ATOM     24  C   UNL     1      26.908   3.090  30.257  1.00  0.00    -0.000 C 
BRANCH  24  25
ATOM     25  C   UNL     1      26.460   3.658  28.894  1.00  0.00    -0.000 C 
BRANCH  25  26
ATOM     26  C   UNL     1      25.421   2.783  28.159  1.00  0.00    -0.000 C 
BRANCH  26  27
ATOM     27  C   UNL     1      24.180   3.590  27.738  1.00  0.00    -0.000 C 
BRANCH  27  28
ATOM     28  C   UNL     1      24.283   5.083  28.093  1.00  0.00    -0.000 C 
BRANCH  28  29
ATOM     29  C   UNL     1      23.176   5.957  27.476  1.00  0.00    -0.003 C 
ATOM     30  C   UNL     1      23.716   7.020  26.516  1.00  0.00     0.004 C 
ENDBRANCH  28  29
ENDBRANCH  27  28
ENDBRANCH  26  27
ENDBRANCH  25  26
ENDBRANCH  24  25
ENDBRANCH  23  24
ENDBRANCH  22  23
ENDBRANCH  21  22
ENDBRANCH  20  21
ENDBRANCH  19  20
ENDBRANCH  18  19
ENDBRANCH  17  18
ENDBRANCH   1  17
TORSDOF 26
ENDMDL
