MODEL 1
REMARK VINA RESULT:    -4.598      0.000      0.000
REMARK INTER + INTRA:          -6.105
REMARK INTER:                  -5.942
REMARK INTRA:                  -0.163
REMARK UNBOUND:                -0.163
REMARK SMILES CCCCCCC(=O)[O-]
REMARK SMILES IDX 5 1 6 2 7 3 8 4 9 5 4 6 3 7 2 8 1 9
REMARK H PARENT
REMARK Flexibility Score: inf
ROOT
ATOM      1  C   UNL     1      -1.872   1.502  -1.346  1.00  0.00     0.006 C 
ENDROOT
BRANCH   1   2
ATOM      2  C   UNL     1      -1.821   2.439  -0.130  1.00  0.00     0.053 C 
BRANCH   2   3
ATOM      3  C   UNL     1      -2.579   3.709  -0.370  1.00  0.00     0.041 C 
ATOM      4  O   UNL     1      -3.838   3.709  -0.351  1.00  0.00    -0.550 OA
ATOM      5  O   UNL     1      -1.895   4.885  -0.648  1.00  0.00    -0.550 OA
ENDBRANCH   2   3
ENDBRANCH   1   2
BRANCH   1   6
ATOM      6  C   UNL     1      -1.191   2.064  -2.611  1.00  0.00     0.000 C 
BRANCH   6   7
ATOM      7  C   UNL     1       0.190   2.710  -2.379  1.00  0.00    -0.000 C 
BRANCH   7   8
ATOM      8  C   UNL     1       0.737   3.517  -3.569  1.00  0.00    -0.003 C 
ATOM      9  C   UNL     1       1.087   2.641  -4.771  1.00  0.00     0.004 C 
ENDBRANCH   7   8
ENDBRANCH   6   7
ENDBRANCH   1   6
TORSDOF 5
ENDMDL
MODEL 2
REMARK VINA RESULT:    -4.578      2.033      4.126
REMARK INTER + INTRA:          -6.079
REMARK INTER:                  -5.820
REMARK INTRA:                  -0.259
REMARK UNBOUND:                -0.163
REMARK SMILES CCCCCCC(=O)[O-]
REMARK SMILES IDX 5 1 6 2 7 3 8 4 9 5 4 6 3 7 2 8 1 9
REMARK H PARENT
REMARK Flexibility Score: inf
ROOT
ATOM      1  C   UNL     1      -1.217   2.023  -2.674  1.00  0.00     0.006 C 
ENDROOT
BRANCH   1   2
ATOM      2  C   UNL     1       0.155   2.139  -3.358  1.00  0.00     0.053 C 
BRANCH   2   3
ATOM      3  C   UNL     1       0.729   3.516  -3.230  1.00  0.00     0.041 C 
ATOM      4  O   UNL     1       0.385   4.261  -2.275  1.00  0.00    -0.550 OA
ATOM      5  O   UNL     1       1.619   3.990  -4.186  1.00  0.00    -0.550 OA
ENDBRANCH   2   3
ENDBRANCH   1   2
BRANCH   1   6
ATOM      6  C   UNL     1      -1.202   1.236  -1.348  1.00  0.00     0.000 C 
BRANCH   6   7
ATOM      7  C   UNL     1      -1.670   2.027  -0.110  1.00  0.00    -0.000 C 
BRANCH   7   8
ATOM      8  C   UNL     1      -2.786   3.051  -0.378  1.00  0.00    -0.003 C 
ATOM      9  C   UNL     1      -2.313   4.497  -0.241  1.00  0.00     0.004 C 
ENDBRANCH   7   8
ENDBRANCH   6   7
ENDBRANCH   1   6
TORSDOF 5
ENDMDL
MODEL 3
REMARK VINA RESULT:    -4.499      2.514      4.167
REMARK INTER + INTRA:          -5.976
REMARK INTER:                  -5.644
REMARK INTRA:                  -0.332
REMARK UNBOUND:                -0.163
REMARK SMILES CCCCCCC(=O)[O-]
REMARK SMILES IDX 5 1 6 2 7 3 8 4 9 5 4 6 3 7 2 8 1 9
REMARK H PARENT
REMARK Flexibility Score: inf
ROOT
ATOM      1  C   UNL     1      -0.870   4.508  -1.746  1.00  0.00     0.006 C 
ENDROOT
BRANCH   1   2
ATOM      2  C   UNL     1       0.494   3.901  -2.111  1.00  0.00     0.053 C 
BRANCH   2   3
ATOM      3  C   UNL     1       0.420   3.072  -3.357  1.00  0.00     0.041 C 
ATOM      4  O   UNL     1      -0.692   2.659  -3.779  1.00  0.00    -0.550 OA
ATOM      5  O   UNL     1       1.584   2.729  -4.033  1.00  0.00    -0.550 OA
ENDBRANCH   2   3
ENDBRANCH   1   2
BRANCH   1   6
ATOM      6  C   UNL     1      -1.544   3.865  -0.516  1.00  0.00     0.000 C 
BRANCH   6   7
ATOM      7  C   UNL     1      -2.356   2.588  -0.808  1.00  0.00    -0.000 C 
BRANCH   7   8
ATOM      8  C   UNL     1      -1.562   1.275  -0.700  1.00  0.00    -0.003 C 
ATOM      9  C   UNL     1      -0.438   1.343   0.333  1.00  0.00     0.004 C 
ENDBRANCH   7   8
ENDBRANCH   6   7
ENDBRANCH   1   6
TORSDOF 5
ENDMDL
MODEL 4
REMARK VINA RESULT:    -4.295      2.337      2.679
REMARK INTER + INTRA:          -5.713
REMARK INTER:                  -5.451
REMARK INTRA:                  -0.262
REMARK UNBOUND:                -0.163
REMARK SMILES CCCCCCC(=O)[O-]
REMARK SMILES IDX 5 1 6 2 7 3 8 4 9 5 4 6 3 7 2 8 1 9
REMARK H PARENT
REMARK Flexibility Score: inf
ROOT
ATOM      1  C   UNL     1      -1.659   3.324  -1.400  1.00  0.00     0.006 C 
ENDROOT
BRANCH   1   2
ATOM      2  C   UNL     1      -1.441   2.777   0.020  1.00  0.00     0.053 C 
BRANCH   2   3
ATOM      3  C   UNL     1      -0.782   1.432   0.006  1.00  0.00     0.041 C 
ATOM      4  O   UNL     1       0.044   1.121   0.904  1.00  0.00    -0.550 OA
ATOM      5  O   UNL     1      -1.057   0.535  -1.018  1.00  0.00    -0.550 OA
ENDBRANCH   2   3
ENDBRANCH   1   2
BRANCH   1   6
ATOM      6  C   UNL     1      -0.675   4.439  -1.810  1.00  0.00     0.000 C 
BRANCH   6   7
ATOM      7  C   UNL     1       0.527   3.974  -2.655  1.00  0.00    -0.000 C 
BRANCH   7   8
ATOM      8  C   UNL     1       0.314   2.654  -3.416  1.00  0.00    -0.003 C 
ATOM      9  C   UNL     1       1.064   2.606  -4.746  1.00  0.00     0.004 C 
ENDBRANCH   7   8
ENDBRANCH   6   7
ENDBRANCH   1   6
TORSDOF 5
ENDMDL
MODEL 5
REMARK VINA RESULT:    -4.096     11.885     12.679
REMARK INTER + INTRA:          -5.455
REMARK INTER:                  -5.233
REMARK INTRA:                  -0.222
REMARK UNBOUND:                -0.163
REMARK SMILES CCCCCCC(=O)[O-]
REMARK SMILES IDX 5 1 6 2 7 3 8 4 9 5 4 6 3 7 2 8 1 9
REMARK H PARENT
REMARK Flexibility Score: inf
ROOT
ATOM      1  C   UNL     1      -0.577  -8.109  -0.775  1.00  0.00     0.006 C 
ENDROOT
BRANCH   1   2
ATOM      2  C   UNL     1      -1.422  -9.377  -0.579  1.00  0.00     0.053 C 
BRANCH   2   3
ATOM      3  C   UNL     1      -1.489  -9.788   0.860  1.00  0.00     0.041 C 
ATOM      4  O   UNL     1      -0.442 -10.124   1.473  1.00  0.00    -0.550 OA
ATOM      5  O   UNL     1      -2.713  -9.830   1.515  1.00  0.00    -0.550 OA
ENDBRANCH   2   3
ENDBRANCH   1   2
BRANCH   1   6
ATOM      6  C   UNL     1       0.770  -8.345  -1.488  1.00  0.00     0.000 C 
BRANCH   6   7
ATOM      7  C   UNL     1       1.044  -9.805  -1.903  1.00  0.00    -0.000 C 
BRANCH   7   8
ATOM      8  C   UNL     1       1.815  -9.970  -3.224  1.00  0.00    -0.003 C 
ATOM      9  C   UNL     1       3.100  -9.145  -3.270  1.00  0.00     0.004 C 
ENDBRANCH   7   8
ENDBRANCH   6   7
ENDBRANCH   1   6
TORSDOF 5
ENDMDL
MODEL 6
REMARK VINA RESULT:    -4.045     12.504     12.863
REMARK INTER + INTRA:          -5.389
REMARK INTER:                  -5.263
REMARK INTRA:                  -0.126
REMARK UNBOUND:                -0.163
REMARK SMILES CCCCCCC(=O)[O-]
REMARK SMILES IDX 5 1 6 2 7 3 8 4 9 5 4 6 3 7 2 8 1 9
REMARK H PARENT
REMARK Flexibility Score: inf
ROOT
ATOM      1  C   UNL     1       1.188  -8.987  -1.488  1.00  0.00     0.006 C 
ENDROOT
BRANCH   1   2
ATOM      2  C   UNL     1       1.092  -9.739  -0.152  1.00  0.00     0.053 C 
BRANCH   2   3
ATOM      3  C   UNL     1      -0.329  -9.951   0.270  1.00  0.00     0.041 C 
ATOM      4  O   UNL     1      -0.611 -10.125   1.485  1.00  0.00    -0.550 OA
ATOM      5  O   UNL     1      -1.339  -9.988  -0.683  1.00  0.00    -0.550 OA
ENDBRANCH   2   3
ENDBRANCH   1   2
BRANCH   1   6
ATOM      6  C   UNL     1       1.741  -9.830  -2.655  1.00  0.00     0.000 C 
BRANCH   6   7
ATOM      7  C   UNL     1       2.506  -9.036  -3.733  1.00  0.00    -0.000 C 
BRANCH   7   8
ATOM      8  C   UNL     1       4.032  -8.995  -3.548  1.00  0.00    -0.003 C 
ATOM      9  C   UNL     1       4.745  -8.223  -4.657  1.00  0.00     0.004 C 
ENDBRANCH   7   8
ENDBRANCH   6   7
ENDBRANCH   1   6
TORSDOF 5
ENDMDL
MODEL 7
REMARK VINA RESULT:    -3.899     12.595     13.567
REMARK INTER + INTRA:          -5.201
REMARK INTER:                  -5.092
REMARK INTRA:                  -0.109
REMARK UNBOUND:                -0.163
REMARK SMILES CCCCCCC(=O)[O-]
REMARK SMILES IDX 5 1 6 2 7 3 8 4 9 5 4 6 3 7 2 8 1 9
REMARK H PARENT
REMARK Flexibility Score: inf
ROOT
ATOM      1  C   UNL     1       2.352  -9.424  -4.115  1.00  0.00     0.006 C 
ENDROOT
BRANCH   1   2
ATOM      2  C   UNL     1       2.852  -8.211  -4.914  1.00  0.00     0.053 C 
BRANCH   2   3
ATOM      3  C   UNL     1       4.301  -8.337  -5.273  1.00  0.00     0.041 C 
ATOM      4  O   UNL     1       4.646  -8.969  -6.306  1.00  0.00    -0.550 OA
ATOM      5  O   UNL     1       5.272  -7.785  -4.448  1.00  0.00    -0.550 OA
ENDBRANCH   2   3
ENDBRANCH   1   2
BRANCH   1   6
ATOM      6  C   UNL     1       2.528  -9.296  -2.588  1.00  0.00     0.000 C 
BRANCH   6   7
ATOM      7  C   UNL     1       1.225  -9.070  -1.795  1.00  0.00    -0.000 C 
BRANCH   7   8
ATOM      8  C   UNL     1       1.383  -9.097  -0.265  1.00  0.00    -0.003 C 
ATOM      9  C   UNL     1       0.423 -10.073   0.414  1.00  0.00     0.004 C 
ENDBRANCH   7   8
ENDBRANCH   6   7
ENDBRANCH   1   6
TORSDOF 5
ENDMDL
MODEL 8
REMARK VINA RESULT:    -3.822     12.094     12.660
REMARK INTER + INTRA:          -5.101
REMARK INTER:                  -4.940
REMARK INTRA:                  -0.162
REMARK UNBOUND:                -0.163
REMARK SMILES CCCCCCC(=O)[O-]
REMARK SMILES IDX 5 1 6 2 7 3 8 4 9 5 4 6 3 7 2 8 1 9
REMARK H PARENT
REMARK Flexibility Score: inf
ROOT
ATOM      1  C   UNL     1       2.374  -9.103  -3.459  1.00  0.00     0.006 C 
ENDROOT
BRANCH   1   2
ATOM      2  C   UNL     1       1.886  -9.916  -2.250  1.00  0.00     0.053 C 
BRANCH   2   3
ATOM      3  C   UNL     1       0.920  -9.140  -1.407  1.00  0.00     0.041 C 
ATOM      4  O   UNL     1       0.281  -9.711  -0.486  1.00  0.00    -0.550 OA
ATOM      5  O   UNL     1       0.702  -7.792  -1.663  1.00  0.00    -0.550 OA
ENDBRANCH   2   3
ENDBRANCH   1   2
BRANCH   1   6
ATOM      6  C   UNL     1       3.908  -9.011  -3.587  1.00  0.00     0.000 C 
BRANCH   6   7
ATOM      7  C   UNL     1       4.418  -8.312  -4.863  1.00  0.00    -0.000 C 
BRANCH   7   8
ATOM      8  C   UNL     1       3.406  -8.252  -6.020  1.00  0.00    -0.003 C 
ATOM      9  C   UNL     1       3.965  -8.808  -7.328  1.00  0.00     0.004 C 
ENDBRANCH   7   8
ENDBRANCH   6   7
ENDBRANCH   1   6
TORSDOF 5
ENDMDL
MODEL 9
REMARK VINA RESULT:    -3.743     12.447     13.549
REMARK INTER + INTRA:          -4.999
REMARK INTER:                  -4.770
REMARK INTRA:                  -0.229
REMARK UNBOUND:                -0.163
REMARK SMILES CCCCCCC(=O)[O-]
REMARK SMILES IDX 5 1 6 2 7 3 8 4 9 5 4 6 3 7 2 8 1 9
REMARK H PARENT
REMARK Flexibility Score: inf
ROOT
ATOM      1  C   UNL     1       1.593 -10.032  -1.609  1.00  0.00     0.006 C 
ENDROOT
BRANCH   1   2
ATOM      2  C   UNL     1       1.766  -8.951  -2.688  1.00  0.00     0.053 C 
BRANCH   2   3
ATOM      3  C   UNL     1       2.863  -9.290  -3.649  1.00  0.00     0.041 C 
ATOM      4  O   UNL     1       4.057  -8.995  -3.378  1.00  0.00    -0.550 OA
ATOM      5  O   UNL     1       2.563  -9.902  -4.859  1.00  0.00    -0.550 OA
ENDBRANCH   2   3
ENDBRANCH   1   2
BRANCH   1   6
ATOM      6  C   UNL     1       1.148  -9.494  -0.234  1.00  0.00     0.000 C 
BRANCH   6   7
ATOM      7  C   UNL     1      -0.141 -10.125   0.330  1.00  0.00    -0.000 C 
BRANCH   7   8
ATOM      8  C   UNL     1      -1.409  -9.862  -0.500  1.00  0.00    -0.003 C 
ATOM      9  C   UNL     1      -1.870  -8.407  -0.437  1.00  0.00     0.004 C 
ENDBRANCH   7   8
ENDBRANCH   6   7
ENDBRANCH   1   6
TORSDOF 5
ENDMDL
