MODEL 1
REMARK VINA RESULT:    -3.004      0.000      0.000
REMARK INTER + INTRA:          -7.549
REMARK INTER:                  -5.462
REMARK INTRA:                  -2.086
REMARK UNBOUND:                -2.086
REMARK SMILES CCCCCCCCCCCCCCCC(=O)[O-]
REMARK SMILES IDX 9 1 10 2 11 3 12 4 13 5 14 6 15 7 16 8 17 9 18 10 8 11 7 12
REMARK SMILES IDX 6 13 5 14 4 15 3 16 2 17 1 18
REMARK H PARENT
REMARK Flexibility Score: inf
ROOT
ATOM      1  C   UNL     1    -115.118  33.893  -8.684  1.00  0.00     0.000 C 
ENDROOT
BRANCH   1   2
ATOM      2  C   UNL     1    -115.055  34.865  -7.497  1.00  0.00     0.000 C 
BRANCH   2   3
ATOM      3  C   UNL     1    -116.427  35.466  -7.150  1.00  0.00     0.000 C 
BRANCH   3   4
ATOM      4  C   UNL     1    -116.496  36.978  -7.427  1.00  0.00     0.000 C 
BRANCH   4   5
ATOM      5  C   UNL     1    -117.000  37.296  -8.843  1.00  0.00     0.000 C 
BRANCH   5   6
ATOM      6  C   UNL     1    -115.875  37.752  -9.783  1.00  0.00     0.006 C 
BRANCH   6   7
ATOM      7  C   UNL     1    -114.672  38.267  -8.986  1.00  0.00     0.053 C 
BRANCH   7   8
ATOM      8  C   UNL     1    -114.677  39.762  -8.935  1.00  0.00     0.041 C 
ATOM      9  O   UNL     1    -114.538  40.432  -9.992  1.00  0.00    -0.550 OA
ATOM     10  O   UNL     1    -114.784  40.416  -7.714  1.00  0.00    -0.550 OA
ENDBRANCH   7   8
ENDBRANCH   6   7
ENDBRANCH   5   6
ENDBRANCH   4   5
ENDBRANCH   3   4
ENDBRANCH   2   3
ENDBRANCH   1   2
BRANCH   1  11
ATOM     11  C   UNL     1    -116.571  33.609  -9.085  1.00  0.00     0.000 C 
BRANCH  11  12
ATOM     12  C   UNL     1    -116.757  33.737 -10.605  1.00  0.00    -0.000 C 
BRANCH  12  13
ATOM     13  C   UNL     1    -115.545  34.381 -11.298  1.00  0.00    -0.000 C 
BRANCH  13  14
ATOM     14  C   UNL     1    -115.270  33.785 -12.687  1.00  0.00    -0.000 C 
BRANCH  14  15
ATOM     15  C   UNL     1    -115.117  34.893 -13.739  1.00  0.00    -0.000 C 
BRANCH  15  16
ATOM     16  C   UNL     1    -115.221  36.302 -13.134  1.00  0.00    -0.000 C 
BRANCH  16  17
ATOM     17  C   UNL     1    -114.181  37.273 -13.715  1.00  0.00    -0.003 C 
ATOM     18  C   UNL     1    -114.260  38.635 -13.030  1.00  0.00     0.004 C 
ENDBRANCH  16  17
ENDBRANCH  15  16
ENDBRANCH  14  15
ENDBRANCH  13  14
ENDBRANCH  12  13
ENDBRANCH  11  12
ENDBRANCH   1  11
TORSDOF 14
ENDMDL
MODEL 2
REMARK VINA RESULT:    -2.968      1.362      2.746
REMARK INTER + INTRA:          -7.483
REMARK INTER:                  -5.662
REMARK INTRA:                  -1.821
REMARK UNBOUND:                -2.086
REMARK SMILES CCCCCCCCCCCCCCCC(=O)[O-]
REMARK SMILES IDX 9 1 10 2 11 3 12 4 13 5 14 6 15 7 16 8 17 9 18 10 8 11 7 12
REMARK SMILES IDX 6 13 5 14 4 15 3 16 2 17 1 18
REMARK H PARENT
REMARK Flexibility Score: inf
ROOT
ATOM      1  C   UNL     1    -115.176  33.841  -8.608  1.00  0.00     0.000 C 
ENDROOT
BRANCH   1   2
ATOM      2  C   UNL     1    -115.031  34.927  -7.531  1.00  0.00     0.000 C 
BRANCH   2   3
ATOM      3  C   UNL     1    -116.350  35.666  -7.256  1.00  0.00     0.000 C 
BRANCH   3   4
ATOM      4  C   UNL     1    -116.361  37.091  -7.838  1.00  0.00     0.000 C 
BRANCH   4   5
ATOM      5  C   UNL     1    -115.209  37.334  -8.826  1.00  0.00     0.000 C 
BRANCH   5   6
ATOM      6  C   UNL     1    -115.704  37.706 -10.231  1.00  0.00     0.006 C 
BRANCH   6   7
ATOM      7  C   UNL     1    -114.923  38.899 -10.788  1.00  0.00     0.053 C 
BRANCH   7   8
ATOM      8  C   UNL     1    -115.125  40.106  -9.927  1.00  0.00     0.041 C 
ATOM      9  O   UNL     1    -114.135  40.693  -9.416  1.00  0.00    -0.550 OA
ATOM     10  O   UNL     1    -116.410  40.554  -9.649  1.00  0.00    -0.550 OA
ENDBRANCH   7   8
ENDBRANCH   6   7
ENDBRANCH   5   6
ENDBRANCH   4   5
ENDBRANCH   3   4
ENDBRANCH   2   3
ENDBRANCH   1   2
BRANCH   1  11
ATOM     11  C   UNL     1    -116.636  33.699  -9.053  1.00  0.00     0.000 C 
BRANCH  11  12
ATOM     12  C   UNL     1    -116.787  34.010 -10.550  1.00  0.00    -0.000 C 
BRANCH  12  13
ATOM     13  C   UNL     1    -115.434  34.118 -11.273  1.00  0.00    -0.000 C 
BRANCH  13  14
ATOM     14  C   UNL     1    -115.551  34.781 -12.654  1.00  0.00    -0.000 C 
BRANCH  14  15
ATOM     15  C   UNL     1    -114.857  33.932 -13.729  1.00  0.00    -0.000 C 
BRANCH  15  16
ATOM     16  C   UNL     1    -114.803  32.441 -13.363  1.00  0.00    -0.000 C 
BRANCH  16  17
ATOM     17  C   UNL     1    -115.883  31.616 -14.081  1.00  0.00    -0.003 C 
ATOM     18  C   UNL     1    -116.682  30.776 -13.089  1.00  0.00     0.004 C 
ENDBRANCH  16  17
ENDBRANCH  15  16
ENDBRANCH  14  15
ENDBRANCH  13  14
ENDBRANCH  12  13
ENDBRANCH  11  12
ENDBRANCH   1  11
TORSDOF 14
ENDMDL
MODEL 3
REMARK VINA RESULT:    -2.955      3.253      5.919
REMARK INTER + INTRA:          -7.460
REMARK INTER:                  -5.480
REMARK INTRA:                  -1.980
REMARK UNBOUND:                -2.086
REMARK SMILES CCCCCCCCCCCCCCCC(=O)[O-]
REMARK SMILES IDX 9 1 10 2 11 3 12 4 13 5 14 6 15 7 16 8 17 9 18 10 8 11 7 12
REMARK SMILES IDX 6 13 5 14 4 15 3 16 2 17 1 18
REMARK H PARENT
REMARK Flexibility Score: inf
ROOT
ATOM      1  C   UNL     1    -116.721  33.825 -10.630  1.00  0.00     0.000 C 
ENDROOT
BRANCH   1   2
ATOM      2  C   UNL     1    -115.705  34.872 -11.113  1.00  0.00     0.000 C 
BRANCH   2   3
ATOM      3  C   UNL     1    -116.330  35.908 -12.061  1.00  0.00     0.000 C 
BRANCH   3   4
ATOM      4  C   UNL     1    -115.306  36.502 -13.044  1.00  0.00     0.000 C 
BRANCH   4   5
ATOM      5  C   UNL     1    -115.412  35.886 -14.449  1.00  0.00     0.000 C 
BRANCH   5   6
ATOM      6  C   UNL     1    -114.606  34.587 -14.586  1.00  0.00     0.006 C 
BRANCH   6   7
ATOM      7  C   UNL     1    -115.536  33.375 -14.695  1.00  0.00     0.053 C 
BRANCH   7   8
ATOM      8  C   UNL     1    -115.141  32.321 -13.709  1.00  0.00     0.041 C 
ATOM      9  O   UNL     1    -114.150  32.499 -12.954  1.00  0.00    -0.550 OA
ATOM     10  O   UNL     1    -115.838  31.120 -13.659  1.00  0.00    -0.550 OA
ENDBRANCH   7   8
ENDBRANCH   6   7
ENDBRANCH   5   6
ENDBRANCH   4   5
ENDBRANCH   3   4
ENDBRANCH   2   3
ENDBRANCH   1   2
BRANCH   1  11
ATOM     11  C   UNL     1    -116.533  33.526  -9.137  1.00  0.00     0.000 C 
BRANCH  11  12
ATOM     12  C   UNL     1    -115.101  33.855  -8.687  1.00  0.00    -0.000 C 
BRANCH  12  13
ATOM     13  C   UNL     1    -115.060  34.885  -7.546  1.00  0.00    -0.000 C 
BRANCH  13  14
ATOM     14  C   UNL     1    -116.452  35.426  -7.186  1.00  0.00    -0.000 C 
BRANCH  14  15
ATOM     15  C   UNL     1    -116.628  36.865  -7.695  1.00  0.00    -0.000 C 
BRANCH  15  16
ATOM     16  C   UNL     1    -115.376  37.398  -8.409  1.00  0.00    -0.000 C 
BRANCH  16  17
ATOM     17  C   UNL     1    -115.690  38.556  -9.369  1.00  0.00    -0.003 C 
ATOM     18  C   UNL     1    -114.494  38.866 -10.264  1.00  0.00     0.004 C 
ENDBRANCH  16  17
ENDBRANCH  15  16
ENDBRANCH  14  15
ENDBRANCH  13  14
ENDBRANCH  12  13
ENDBRANCH  11  12
ENDBRANCH   1  11
TORSDOF 14
ENDMDL
MODEL 4
REMARK VINA RESULT:    -2.947      2.165      4.875
REMARK INTER + INTRA:          -7.445
REMARK INTER:                  -5.649
REMARK INTRA:                  -1.796
REMARK UNBOUND:                -2.086
REMARK SMILES CCCCCCCCCCCCCCCC(=O)[O-]
REMARK SMILES IDX 9 1 10 2 11 3 12 4 13 5 14 6 15 7 16 8 17 9 18 10 8 11 7 12
REMARK SMILES IDX 6 13 5 14 4 15 3 16 2 17 1 18
REMARK H PARENT
REMARK Flexibility Score: inf
ROOT
ATOM      1  C   UNL     1    -115.590  34.357 -11.084  1.00  0.00     0.000 C 
ENDROOT
BRANCH   1   2
ATOM      2  C   UNL     1    -116.063  35.709 -11.640  1.00  0.00     0.000 C 
BRANCH   2   3
ATOM      3  C   UNL     1    -115.345  36.095 -12.943  1.00  0.00     0.000 C 
BRANCH   3   4
ATOM      4  C   UNL     1    -115.199  37.618 -13.107  1.00  0.00     0.000 C 
BRANCH   4   5
ATOM      5  C   UNL     1    -113.826  38.023 -13.668  1.00  0.00     0.000 C 
BRANCH   5   6
ATOM      6  C   UNL     1    -112.999  38.845 -12.669  1.00  0.00     0.006 C 
BRANCH   6   7
ATOM      7  C   UNL     1    -111.510  38.802 -13.026  1.00  0.00     0.053 C 
BRANCH   7   8
ATOM      8  C   UNL     1    -110.923  40.178 -12.992  1.00  0.00     0.041 C 
ATOM      9  O   UNL     1    -111.609  41.150 -12.581  1.00  0.00    -0.550 OA
ATOM     10  O   UNL     1    -109.633  40.395 -13.462  1.00  0.00    -0.550 OA
ENDBRANCH   7   8
ENDBRANCH   6   7
ENDBRANCH   5   6
ENDBRANCH   4   5
ENDBRANCH   3   4
ENDBRANCH   2   3
ENDBRANCH   1   2
BRANCH   1  11
ATOM     11  C   UNL     1    -116.232  34.069  -9.721  1.00  0.00     0.000 C 
BRANCH  11  12
ATOM     12  C   UNL     1    -115.159  33.866  -8.641  1.00  0.00    -0.000 C 
BRANCH  12  13
ATOM     13  C   UNL     1    -115.067  35.052  -7.666  1.00  0.00    -0.000 C 
BRANCH  13  14
ATOM     14  C   UNL     1    -116.399  35.803  -7.520  1.00  0.00    -0.000 C 
BRANCH  14  15
ATOM     15  C   UNL     1    -116.262  37.258  -7.995  1.00  0.00    -0.000 C 
BRANCH  15  16
ATOM     16  C   UNL     1    -114.906  37.538  -8.662  1.00  0.00    -0.000 C 
BRANCH  16  17
ATOM     17  C   UNL     1    -114.939  38.777  -9.571  1.00  0.00    -0.003 C 
ATOM     18  C   UNL     1    -116.372  39.139  -9.952  1.00  0.00     0.004 C 
ENDBRANCH  16  17
ENDBRANCH  15  16
ENDBRANCH  14  15
ENDBRANCH  13  14
ENDBRANCH  12  13
ENDBRANCH  11  12
ENDBRANCH   1  11
TORSDOF 14
ENDMDL
MODEL 5
REMARK VINA RESULT:    -2.942      2.167      4.233
REMARK INTER + INTRA:          -7.437
REMARK INTER:                  -5.350
REMARK INTRA:                  -2.087
REMARK UNBOUND:                -2.086
REMARK SMILES CCCCCCCCCCCCCCCC(=O)[O-]
REMARK SMILES IDX 9 1 10 2 11 3 12 4 13 5 14 6 15 7 16 8 17 9 18 10 8 11 7 12
REMARK SMILES IDX 6 13 5 14 4 15 3 16 2 17 1 18
REMARK H PARENT
REMARK Flexibility Score: inf
ROOT
ATOM      1  C   UNL     1    -115.764  36.908  -8.269  1.00  0.00     0.000 C 
ENDROOT
BRANCH   1   2
ATOM      2  C   UNL     1    -117.079  37.376  -8.910  1.00  0.00     0.000 C 
BRANCH   2   3
ATOM      3  C   UNL     1    -116.966  37.544 -10.434  1.00  0.00     0.000 C 
BRANCH   3   4
ATOM      4  C   UNL     1    -115.506  37.604 -10.915  1.00  0.00     0.000 C 
BRANCH   4   5
ATOM      5  C   UNL     1    -115.380  38.118 -12.358  1.00  0.00     0.000 C 
BRANCH   5   6
ATOM      6  C   UNL     1    -113.998  38.716 -12.654  1.00  0.00     0.006 C 
BRANCH   6   7
ATOM      7  C   UNL     1    -113.307  37.961 -13.792  1.00  0.00     0.053 C 
BRANCH   7   8
ATOM      8  C   UNL     1    -111.824  38.151 -13.725  1.00  0.00     0.041 C 
ATOM      9  O   UNL     1    -111.328  38.977 -12.915  1.00  0.00    -0.550 OA
ATOM     10  O   UNL     1    -110.993  37.453 -14.593  1.00  0.00    -0.550 OA
ENDBRANCH   7   8
ENDBRANCH   6   7
ENDBRANCH   5   6
ENDBRANCH   4   5
ENDBRANCH   3   4
ENDBRANCH   2   3
ENDBRANCH   1   2
BRANCH   1  11
ATOM     11  C   UNL     1    -115.996  35.691  -7.365  1.00  0.00     0.000 C 
BRANCH  11  12
ATOM     12  C   UNL     1    -114.898  34.637  -7.569  1.00  0.00    -0.000 C 
BRANCH  12  13
ATOM     13  C   UNL     1    -115.067  33.850  -8.880  1.00  0.00    -0.000 C 
BRANCH  13  14
ATOM     14  C   UNL     1    -116.532  33.491  -9.170  1.00  0.00    -0.000 C 
BRANCH  14  15
ATOM     15  C   UNL     1    -116.923  33.897 -10.598  1.00  0.00    -0.000 C 
BRANCH  15  16
ATOM     16  C   UNL     1    -115.711  34.008 -11.536  1.00  0.00    -0.000 C 
BRANCH  16  17
ATOM     17  C   UNL     1    -116.098  34.461 -12.952  1.00  0.00    -0.003 C 
ATOM     18  C   UNL     1    -114.862  34.615 -13.835  1.00  0.00     0.004 C 
ENDBRANCH  16  17
ENDBRANCH  15  16
ENDBRANCH  14  15
ENDBRANCH  13  14
ENDBRANCH  12  13
ENDBRANCH  11  12
ENDBRANCH   1  11
TORSDOF 14
ENDMDL
MODEL 6
REMARK VINA RESULT:    -2.938      3.025      4.773
REMARK INTER + INTRA:          -7.428
REMARK INTER:                  -5.629
REMARK INTRA:                  -1.800
REMARK UNBOUND:                -2.086
REMARK SMILES CCCCCCCCCCCCCCCC(=O)[O-]
REMARK SMILES IDX 9 1 10 2 11 3 12 4 13 5 14 6 15 7 16 8 17 9 18 10 8 11 7 12
REMARK SMILES IDX 6 13 5 14 4 15 3 16 2 17 1 18
REMARK H PARENT
REMARK Flexibility Score: inf
ROOT
ATOM      1  C   UNL     1    -116.351  35.311  -7.355  1.00  0.00     0.000 C 
ENDROOT
BRANCH   1   2
ATOM      2  C   UNL     1    -114.999  34.731  -7.795  1.00  0.00     0.000 C 
BRANCH   2   3
ATOM      3  C   UNL     1    -115.140  33.680  -8.908  1.00  0.00     0.000 C 
BRANCH   3   4
ATOM      4  C   UNL     1    -116.600  33.489  -9.357  1.00  0.00     0.000 C 
BRANCH   4   5
ATOM      5  C   UNL     1    -116.881  34.117 -10.732  1.00  0.00     0.000 C 
BRANCH   5   6
ATOM      6  C   UNL     1    -115.605  34.613 -11.427  1.00  0.00     0.006 C 
BRANCH   6   7
ATOM      7  C   UNL     1    -115.811  34.714 -12.941  1.00  0.00     0.053 C 
BRANCH   7   8
ATOM      8  C   UNL     1    -114.864  33.807 -13.661  1.00  0.00     0.041 C 
ATOM      9  O   UNL     1    -114.421  34.125 -14.796  1.00  0.00    -0.550 OA
ATOM     10  O   UNL     1    -114.509  32.586 -13.100  1.00  0.00    -0.550 OA
ENDBRANCH   7   8
ENDBRANCH   6   7
ENDBRANCH   5   6
ENDBRANCH   4   5
ENDBRANCH   3   4
ENDBRANCH   2   3
ENDBRANCH   1   2
BRANCH   1  11
ATOM     11  C   UNL     1    -116.539  36.735  -7.892  1.00  0.00     0.000 C 
BRANCH  11  12
ATOM     12  C   UNL     1    -115.254  37.243  -8.563  1.00  0.00    -0.000 C 
BRANCH  12  13
ATOM     13  C   UNL     1    -115.523  37.949  -9.903  1.00  0.00    -0.000 C 
BRANCH  13  14
ATOM     14  C   UNL     1    -114.631  39.181 -10.113  1.00  0.00    -0.000 C 
BRANCH  14  15
ATOM     15  C   UNL     1    -113.950  39.137 -11.489  1.00  0.00    -0.000 C 
BRANCH  15  16
ATOM     16  C   UNL     1    -114.684  38.224 -12.484  1.00  0.00    -0.000 C 
BRANCH  16  17
ATOM     17  C   UNL     1    -113.778  37.750 -13.631  1.00  0.00    -0.003 C 
ATOM     18  C   UNL     1    -112.392  38.382 -13.532  1.00  0.00     0.004 C 
ENDBRANCH  16  17
ENDBRANCH  15  16
ENDBRANCH  14  15
ENDBRANCH  13  14
ENDBRANCH  12  13
ENDBRANCH  11  12
ENDBRANCH   1  11
TORSDOF 14
ENDMDL
MODEL 7
REMARK VINA RESULT:    -2.933      1.615      2.898
REMARK INTER + INTRA:          -7.419
REMARK INTER:                  -5.545
REMARK INTRA:                  -1.875
REMARK UNBOUND:                -2.086
REMARK SMILES CCCCCCCCCCCCCCCC(=O)[O-]
REMARK SMILES IDX 9 1 10 2 11 3 12 4 13 5 14 6 15 7 16 8 17 9 18 10 8 11 7 12
REMARK SMILES IDX 6 13 5 14 4 15 3 16 2 17 1 18
REMARK H PARENT
REMARK Flexibility Score: inf
ROOT
ATOM      1  C   UNL     1    -114.960  34.789  -7.767  1.00  0.00     0.000 C 
ENDROOT
BRANCH   1   2
ATOM      2  C   UNL     1    -116.299  35.320  -7.234  1.00  0.00     0.000 C 
BRANCH   2   3
ATOM      3  C   UNL     1    -116.449  36.839  -7.420  1.00  0.00     0.000 C 
BRANCH   3   4
ATOM      4  C   UNL     1    -115.572  37.382  -8.562  1.00  0.00     0.000 C 
BRANCH   4   5
ATOM      5  C   UNL     1    -116.352  37.554  -9.876  1.00  0.00     0.000 C 
BRANCH   5   6
ATOM      6  C   UNL     1    -115.468  38.058 -11.025  1.00  0.00     0.006 C 
BRANCH   6   7
ATOM      7  C   UNL     1    -114.358  38.973 -10.500  1.00  0.00     0.053 C 
BRANCH   7   8
ATOM      8  C   UNL     1    -113.511  39.471 -11.629  1.00  0.00     0.041 C 
ATOM      9  O   UNL     1    -113.189  40.687 -11.691  1.00  0.00    -0.550 OA
ATOM     10  O   UNL     1    -113.119  38.602 -12.640  1.00  0.00    -0.550 OA
ENDBRANCH   7   8
ENDBRANCH   6   7
ENDBRANCH   5   6
ENDBRANCH   4   5
ENDBRANCH   3   4
ENDBRANCH   2   3
ENDBRANCH   1   2
BRANCH   1  11
ATOM     11  C   UNL     1    -115.181  33.662  -8.783  1.00  0.00     0.000 C 
BRANCH  11  12
ATOM     12  C   UNL     1    -116.634  33.652  -9.284  1.00  0.00    -0.000 C 
BRANCH  12  13
ATOM     13  C   UNL     1    -116.750  34.007 -10.775  1.00  0.00    -0.000 C 
BRANCH  13  14
ATOM     14  C   UNL     1    -115.384  34.245 -11.436  1.00  0.00    -0.000 C 
BRANCH  14  15
ATOM     15  C   UNL     1    -115.552  34.789 -12.862  1.00  0.00    -0.000 C 
BRANCH  15  16
ATOM     16  C   UNL     1    -114.978  33.843 -13.929  1.00  0.00    -0.000 C 
BRANCH  16  17
ATOM     17  C   UNL     1    -114.875  32.391 -13.437  1.00  0.00    -0.003 C 
ATOM     18  C   UNL     1    -116.092  31.578 -13.871  1.00  0.00     0.004 C 
ENDBRANCH  16  17
ENDBRANCH  15  16
ENDBRANCH  14  15
ENDBRANCH  13  14
ENDBRANCH  12  13
ENDBRANCH  11  12
ENDBRANCH   1  11
TORSDOF 14
ENDMDL
MODEL 8
REMARK VINA RESULT:    -2.918      3.827      5.749
REMARK INTER + INTRA:          -7.392
REMARK INTER:                  -5.082
REMARK INTRA:                  -2.311
REMARK UNBOUND:                -2.086
REMARK SMILES CCCCCCCCCCCCCCCC(=O)[O-]
REMARK SMILES IDX 9 1 10 2 11 3 12 4 13 5 14 6 15 7 16 8 17 9 18 10 8 11 7 12
REMARK SMILES IDX 6 13 5 14 4 15 3 16 2 17 1 18
REMARK H PARENT
REMARK Flexibility Score: inf
ROOT
ATOM      1  C   UNL     1    -115.095  34.975  -7.492  1.00  0.00     0.000 C 
ENDROOT
BRANCH   1   2
ATOM      2  C   UNL     1    -115.099  33.994  -8.673  1.00  0.00     0.000 C 
BRANCH   2   3
ATOM      3  C   UNL     1    -116.511  33.738  -9.225  1.00  0.00     0.000 C 
BRANCH   3   4
ATOM      4  C   UNL     1    -116.543  33.686 -10.762  1.00  0.00     0.000 C 
BRANCH   4   5
ATOM      5  C   UNL     1    -115.144  33.807 -11.387  1.00  0.00     0.000 C 
BRANCH   5   6
ATOM      6  C   UNL     1    -115.111  33.356 -12.854  1.00  0.00     0.006 C 
BRANCH   6   7
ATOM      7  C   UNL     1    -116.437  32.702 -13.255  1.00  0.00     0.053 C 
BRANCH   7   8
ATOM      8  C   UNL     1    -116.193  31.371 -13.894  1.00  0.00     0.041 C 
ATOM      9  O   UNL     1    -115.787  31.304 -15.083  1.00  0.00    -0.550 OA
ATOM     10  O   UNL     1    -116.463  30.203 -13.191  1.00  0.00    -0.550 OA
ENDBRANCH   7   8
ENDBRANCH   6   7
ENDBRANCH   5   6
ENDBRANCH   4   5
ENDBRANCH   3   4
ENDBRANCH   2   3
ENDBRANCH   1   2
BRANCH   1  11
ATOM     11  C   UNL     1    -116.524  35.380  -7.109  1.00  0.00     0.000 C 
BRANCH  11  12
ATOM     12  C   UNL     1    -116.687  36.908  -7.132  1.00  0.00    -0.000 C 
BRANCH  12  13
ATOM     13  C   UNL     1    -117.057  37.444  -8.525  1.00  0.00    -0.000 C 
BRANCH  13  14
ATOM     14  C   UNL     1    -115.861  38.072  -9.255  1.00  0.00    -0.000 C 
BRANCH  14  15
ATOM     15  C   UNL     1    -115.622  37.384 -10.607  1.00  0.00    -0.000 C 
BRANCH  15  16
ATOM     16  C   UNL     1    -116.878  37.364 -11.492  1.00  0.00    -0.000 C 
BRANCH  16  17
ATOM     17  C   UNL     1    -116.604  36.801 -12.896  1.00  0.00    -0.003 C 
ATOM     18  C   UNL     1    -115.165  37.076 -13.325  1.00  0.00     0.004 C 
ENDBRANCH  16  17
ENDBRANCH  15  16
ENDBRANCH  14  15
ENDBRANCH  13  14
ENDBRANCH  12  13
ENDBRANCH  11  12
ENDBRANCH   1  11
TORSDOF 14
ENDMDL
MODEL 9
REMARK VINA RESULT:    -2.913      0.713      1.411
REMARK INTER + INTRA:          -7.383
REMARK INTER:                  -5.334
REMARK INTRA:                  -2.049
REMARK UNBOUND:                -2.086
REMARK SMILES CCCCCCCCCCCCCCCC(=O)[O-]
REMARK SMILES IDX 9 1 10 2 11 3 12 4 13 5 14 6 15 7 16 8 17 9 18 10 8 11 7 12
REMARK SMILES IDX 6 13 5 14 4 15 3 16 2 17 1 18
REMARK H PARENT
REMARK Flexibility Score: inf
ROOT
ATOM      1  C   UNL     1    -115.000  34.875  -7.474  1.00  0.00     0.000 C 
ENDROOT
BRANCH   1   2
ATOM      2  C   UNL     1    -116.380  35.507  -7.236  1.00  0.00     0.000 C 
BRANCH   2   3
ATOM      3  C   UNL     1    -116.444  36.975  -7.689  1.00  0.00     0.000 C 
BRANCH   3   4
ATOM      4  C   UNL     1    -117.080  37.136  -9.081  1.00  0.00     0.000 C 
BRANCH   4   5
ATOM      5  C   UNL     1    -116.069  37.599 -10.142  1.00  0.00     0.000 C 
BRANCH   5   6
ATOM      6  C   UNL     1    -114.843  38.289  -9.527  1.00  0.00     0.006 C 
BRANCH   6   7
ATOM      7  C   UNL     1    -114.766  39.756  -9.963  1.00  0.00     0.053 C 
BRANCH   7   8
ATOM      8  C   UNL     1    -114.503  40.640  -8.785  1.00  0.00     0.041 C 
ATOM      9  O   UNL     1    -113.665  41.575  -8.868  1.00  0.00    -0.550 OA
ATOM     10  O   UNL     1    -115.148  40.399  -7.578  1.00  0.00    -0.550 OA
ENDBRANCH   7   8
ENDBRANCH   6   7
ENDBRANCH   5   6
ENDBRANCH   4   5
ENDBRANCH   3   4
ENDBRANCH   2   3
ENDBRANCH   1   2
BRANCH   1  11
ATOM     11  C   UNL     1    -115.042  33.891  -8.649  1.00  0.00     0.000 C 
BRANCH  11  12
ATOM     12  C   UNL     1    -116.491  33.601  -9.071  1.00  0.00    -0.000 C 
BRANCH  12  13
ATOM     13  C   UNL     1    -116.698  33.705 -10.592  1.00  0.00    -0.000 C 
BRANCH  13  14
ATOM     14  C   UNL     1    -115.409  34.074 -11.341  1.00  0.00    -0.000 C 
BRANCH  14  15
ATOM     15  C   UNL     1    -115.682  34.267 -12.840  1.00  0.00    -0.000 C 
BRANCH  15  16
ATOM     16  C   UNL     1    -115.840  35.746 -13.228  1.00  0.00    -0.000 C 
BRANCH  16  17
ATOM     17  C   UNL     1    -114.628  36.287 -14.001  1.00  0.00    -0.003 C 
ATOM     18  C   UNL     1    -114.169  37.627 -13.433  1.00  0.00     0.004 C 
ENDBRANCH  16  17
ENDBRANCH  15  16
ENDBRANCH  14  15
ENDBRANCH  13  14
ENDBRANCH  12  13
ENDBRANCH  11  12
ENDBRANCH   1  11
TORSDOF 14
ENDMDL
