MODEL 1
REMARK VINA RESULT:    -7.407      0.000      0.000
REMARK INTER + INTRA:          -9.518
REMARK INTER:                  -9.138
REMARK INTRA:                  -0.380
REMARK UNBOUND:                -0.380
REMARK SMILES Oc1cc(O)c2cc(O)c(-c3cc(O)c(O)c(O)c3)[o+]c2c1
REMARK SMILES IDX 10 1 20 2 21 3 22 4 2 5 3 6 4 7 6 8 7 9 8 10 11 11 12 12
REMARK SMILES IDX 13 13 19 14 15 15 17 16 14 17 16 19 18 21 9 23 1 25 5 27
REMARK H PARENT 14 18 16 20 18 22 9 24 1 26 5 28
REMARK Flexibility Score: inf
ROOT
ATOM      1  C   UNL     1      -6.655  -7.858  13.630  1.00  0.00     0.402 A 
ATOM      2  O   UNL     1      -7.141  -8.352  14.765  1.00  0.00    -0.202 OA
ATOM      3  C   UNL     1      -8.436  -8.366  15.061  1.00  0.00     0.368 A 
ATOM      4  C   UNL     1      -8.851  -8.905  16.281  1.00  0.00     0.162 A 
ATOM      5  C   UNL     1     -10.204  -8.930  16.620  1.00  0.00     0.128 A 
ATOM      6  C   UNL     1     -11.153  -8.411  15.731  1.00  0.00     0.093 A 
ATOM      7  C   UNL     1     -10.764  -7.864  14.502  1.00  0.00     0.136 A 
ATOM      8  C   UNL     1      -9.388  -7.840  14.154  1.00  0.00     0.125 A 
ATOM      9  C   UNL     1      -8.908  -7.325  12.939  1.00  0.00     0.078 A 
ATOM     10  C   UNL     1      -7.538  -7.340  12.664  1.00  0.00     0.223 A 
ENDROOT
BRANCH   1  11
ATOM     11  C   UNL     1      -5.190  -7.892  13.421  1.00  0.00     0.091 A 
ATOM     12  C   UNL     1      -4.410  -6.797  13.825  1.00  0.00     0.068 A 
ATOM     13  C   UNL     1      -3.024  -6.795  13.621  1.00  0.00     0.162 A 
ATOM     14  C   UNL     1      -4.567  -8.974  12.775  1.00  0.00     0.068 A 
ATOM     15  C   UNL     1      -2.406  -7.884  12.994  1.00  0.00     0.200 A 
ATOM     16  C   UNL     1      -3.181  -8.976  12.565  1.00  0.00     0.162 A 
BRANCH  13  17
ATOM     17  O   UNL     1      -2.253  -5.712  14.038  1.00  0.00    -0.504 OA
ATOM     18  H   UNL     1      -2.560  -5.098  14.783  1.00  0.00     0.293 HD
ENDBRANCH  13  17
BRANCH  15  19
ATOM     19  O   UNL     1      -1.025  -7.867  12.802  1.00  0.00    -0.502 OA
ATOM     20  H   UNL     1      -0.565  -7.149  12.254  1.00  0.00     0.293 HD
ENDBRANCH  15  19
BRANCH  16  21
ATOM     21  O   UNL     1      -2.572 -10.056  11.928  1.00  0.00    -0.504 OA
ATOM     22  H   UNL     1      -2.292 -10.009  10.955  1.00  0.00     0.293 HD
ENDBRANCH  16  21
ENDBRANCH   1  11
BRANCH  10  23
ATOM     23  O   UNL     1      -7.066  -6.874  11.437  1.00  0.00    -0.500 OA
ATOM     24  H   UNL     1      -7.579  -7.023  10.577  1.00  0.00     0.294 HD
ENDBRANCH  10  23
BRANCH   5  25
ATOM     25  O   UNL     1     -10.597  -9.473  17.840  1.00  0.00    -0.507 OA
ATOM     26  H   UNL     1     -11.417 -10.063  17.919  1.00  0.00     0.293 HD
ENDBRANCH   5  25
BRANCH   7  27
ATOM     27  O   UNL     1     -11.772  -7.363  13.673  1.00  0.00    -0.507 OA
ATOM     28  H   UNL     1     -12.735  -7.662  13.702  1.00  0.00     0.293 HD
ENDBRANCH   7  27
TORSDOF 7
ENDMDL
MODEL 2
REMARK VINA RESULT:    -7.346      0.171      1.796
REMARK INTER + INTRA:          -9.443
REMARK INTER:                  -9.067
REMARK INTRA:                  -0.376
REMARK UNBOUND:                -0.380
REMARK SMILES Oc1cc(O)c2cc(O)c(-c3cc(O)c(O)c(O)c3)[o+]c2c1
REMARK SMILES IDX 10 1 20 2 21 3 22 4 2 5 3 6 4 7 6 8 7 9 8 10 11 11 12 12
REMARK SMILES IDX 13 13 19 14 15 15 17 16 14 17 16 19 18 21 9 23 1 25 5 27
REMARK H PARENT 14 18 16 20 18 22 9 24 1 26 5 28
REMARK Flexibility Score: inf
ROOT
ATOM      1  C   UNL     1      -6.697  -7.790  13.708  1.00  0.00     0.402 A 
ATOM      2  O   UNL     1      -7.127  -8.266  14.873  1.00  0.00    -0.202 OA
ATOM      3  C   UNL     1      -8.411  -8.314  15.214  1.00  0.00     0.368 A 
ATOM      4  C   UNL     1      -8.765  -8.830  16.463  1.00  0.00     0.162 A 
ATOM      5  C   UNL     1     -10.104  -8.891  16.849  1.00  0.00     0.128 A 
ATOM      6  C   UNL     1     -11.100  -8.430  15.979  1.00  0.00     0.093 A 
ATOM      7  C   UNL     1     -10.771  -7.907  14.722  1.00  0.00     0.136 A 
ATOM      8  C   UNL     1      -9.410  -7.848  14.326  1.00  0.00     0.125 A 
ATOM      9  C   UNL     1      -8.989  -7.353  13.080  1.00  0.00     0.078 A 
ATOM     10  C   UNL     1      -7.629  -7.330  12.759  1.00  0.00     0.223 A 
ENDROOT
BRANCH   1  11
ATOM     11  C   UNL     1      -5.239  -7.780  13.450  1.00  0.00     0.091 A 
ATOM     12  C   UNL     1      -4.644  -8.880  12.814  1.00  0.00     0.068 A 
ATOM     13  C   UNL     1      -3.263  -8.905  12.576  1.00  0.00     0.162 A 
ATOM     14  C   UNL     1      -4.427  -6.716  13.880  1.00  0.00     0.068 A 
ATOM     15  C   UNL     1      -2.462  -7.833  12.988  1.00  0.00     0.200 A 
ATOM     16  C   UNL     1      -3.045  -6.736  13.646  1.00  0.00     0.162 A 
BRANCH  13  17
ATOM     17  O   UNL     1      -2.680  -9.993  11.930  1.00  0.00    -0.504 OA
ATOM     18  H   UNL     1      -3.235 -10.771  11.595  1.00  0.00     0.293 HD
ENDBRANCH  13  17
BRANCH  15  19
ATOM     19  O   UNL     1      -1.090  -7.873  12.740  1.00  0.00    -0.502 OA
ATOM     20  H   UNL     1      -0.663  -8.603  12.183  1.00  0.00     0.293 HD
ENDBRANCH  15  19
BRANCH  16  21
ATOM     21  O   UNL     1      -2.248  -5.674  14.070  1.00  0.00    -0.504 OA
ATOM     22  H   UNL     1      -2.634  -4.749  14.223  1.00  0.00     0.293 HD
ENDBRANCH  16  21
ENDBRANCH   1  11
BRANCH  10  23
ATOM     23  O   UNL     1      -7.215  -6.885  11.503  1.00  0.00    -0.500 OA
ATOM     24  H   UNL     1      -6.316  -7.145  11.116  1.00  0.00     0.294 HD
ENDBRANCH  10  23
BRANCH   5  25
ATOM     25  O   UNL     1     -10.436  -9.410  18.097  1.00  0.00    -0.507 OA
ATOM     26  H   UNL     1     -10.929  -8.856  18.788  1.00  0.00     0.293 HD
ENDBRANCH   5  25
BRANCH   7  27
ATOM     27  O   UNL     1     -11.823  -7.465  13.915  1.00  0.00    -0.507 OA
ATOM     28  H   UNL     1     -12.539  -6.819  14.213  1.00  0.00     0.293 HD
ENDBRANCH   7  27
TORSDOF 7
ENDMDL
MODEL 3
REMARK VINA RESULT:    -6.979      3.474      8.480
REMARK INTER + INTRA:          -8.990
REMARK INTER:                  -8.654
REMARK INTRA:                  -0.336
REMARK UNBOUND:                -0.380
REMARK SMILES Oc1cc(O)c2cc(O)c(-c3cc(O)c(O)c(O)c3)[o+]c2c1
REMARK SMILES IDX 10 1 20 2 21 3 22 4 2 5 3 6 4 7 6 8 7 9 8 10 11 11 12 12
REMARK SMILES IDX 13 13 19 14 15 15 17 16 14 17 16 19 18 21 9 23 1 25 5 27
REMARK H PARENT 14 18 16 20 18 22 9 24 1 26 5 28
REMARK Flexibility Score: inf
ROOT
ATOM      1  C   UNL     1      -1.553  -7.431  13.911  1.00  0.00     0.402 A 
ATOM      2  O   UNL     1      -1.197  -7.365  15.190  1.00  0.00    -0.202 OA
ATOM      3  C   UNL     1       0.067  -7.307  15.594  1.00  0.00     0.368 A 
ATOM      4  C   UNL     1       0.343  -7.243  16.963  1.00  0.00     0.162 A 
ATOM      5  C   UNL     1       1.661  -7.185  17.416  1.00  0.00     0.128 A 
ATOM      6  C   UNL     1       2.715  -7.193  16.495  1.00  0.00     0.093 A 
ATOM      7  C   UNL     1       2.466  -7.258  15.118  1.00  0.00     0.136 A 
ATOM      8  C   UNL     1       1.126  -7.313  14.654  1.00  0.00     0.125 A 
ATOM      9  C   UNL     1       0.782  -7.367  13.293  1.00  0.00     0.078 A 
ATOM     10  C   UNL     1      -0.562  -7.415  12.911  1.00  0.00     0.223 A 
ENDROOT
BRANCH   1  11
ATOM     11  C   UNL     1      -2.997  -7.500  13.588  1.00  0.00     0.091 A 
ATOM     12  C   UNL     1      -3.557  -8.724  13.191  1.00  0.00     0.068 A 
ATOM     13  C   UNL     1      -4.916  -8.813  12.861  1.00  0.00     0.162 A 
ATOM     14  C   UNL     1      -3.809  -6.353  13.614  1.00  0.00     0.068 A 
ATOM     15  C   UNL     1      -5.724  -7.670  12.909  1.00  0.00     0.200 A 
ATOM     16  C   UNL     1      -5.168  -6.434  13.282  1.00  0.00     0.162 A 
BRANCH  13  17
ATOM     17  O   UNL     1      -5.470 -10.034  12.483  1.00  0.00    -0.504 OA
ATOM     18  H   UNL     1      -6.472 -10.183  12.481  1.00  0.00     0.293 HD
ENDBRANCH  13  17
BRANCH  15  19
ATOM     19  O   UNL     1      -7.076  -7.777  12.579  1.00  0.00    -0.502 OA
ATOM     20  H   UNL     1      -7.515  -8.669  12.387  1.00  0.00     0.293 HD
ENDBRANCH  15  19
BRANCH  16  21
ATOM     21  O   UNL     1      -5.967  -5.293  13.317  1.00  0.00    -0.504 OA
ATOM     22  H   UNL     1      -6.696  -5.134  12.631  1.00  0.00     0.293 HD
ENDBRANCH  16  21
ENDBRANCH   1  11
BRANCH  10  23
ATOM     23  O   UNL     1      -0.906  -7.418  11.560  1.00  0.00    -0.500 OA
ATOM     24  H   UNL     1      -1.365  -8.210  11.129  1.00  0.00     0.294 HD
ENDBRANCH  10  23
BRANCH   5  25
ATOM     25  O   UNL     1       1.915  -7.119  18.784  1.00  0.00    -0.507 OA
ATOM     26  H   UNL     1       1.163  -7.049  19.459  1.00  0.00     0.293 HD
ENDBRANCH   5  25
BRANCH   7  27
ATOM     27  O   UNL     1       3.572  -7.265  14.264  1.00  0.00    -0.507 OA
ATOM     28  H   UNL     1       3.565  -7.632  13.323  1.00  0.00     0.293 HD
ENDBRANCH   7  27
TORSDOF 7
ENDMDL
MODEL 4
REMARK VINA RESULT:    -6.978      3.468      8.353
REMARK INTER + INTRA:          -8.989
REMARK INTER:                  -8.628
REMARK INTRA:                  -0.361
REMARK UNBOUND:                -0.380
REMARK SMILES Oc1cc(O)c2cc(O)c(-c3cc(O)c(O)c(O)c3)[o+]c2c1
REMARK SMILES IDX 10 1 20 2 21 3 22 4 2 5 3 6 4 7 6 8 7 9 8 10 11 11 12 12
REMARK SMILES IDX 13 13 19 14 15 15 17 16 14 17 16 19 18 21 9 23 1 25 5 27
REMARK H PARENT 14 18 16 20 18 22 9 24 1 26 5 28
REMARK Flexibility Score: inf
ROOT
ATOM      1  C   UNL     1      -1.476  -7.468  13.762  1.00  0.00     0.402 A 
ATOM      2  O   UNL     1      -1.113  -7.379  15.038  1.00  0.00    -0.202 OA
ATOM      3  C   UNL     1       0.154  -7.316  15.435  1.00  0.00     0.368 A 
ATOM      4  C   UNL     1       0.437  -7.227  16.800  1.00  0.00     0.162 A 
ATOM      5  C   UNL     1       1.757  -7.163  17.245  1.00  0.00     0.128 A 
ATOM      6  C   UNL     1       2.806  -7.189  16.319  1.00  0.00     0.093 A 
ATOM      7  C   UNL     1       2.549  -7.278  14.945  1.00  0.00     0.136 A 
ATOM      8  C   UNL     1       1.207  -7.340  14.489  1.00  0.00     0.125 A 
ATOM      9  C   UNL     1       0.856  -7.418  13.131  1.00  0.00     0.078 A 
ATOM     10  C   UNL     1      -0.490  -7.472  12.757  1.00  0.00     0.223 A 
ENDROOT
BRANCH   1  11
ATOM     11  C   UNL     1      -2.921  -7.541  13.448  1.00  0.00     0.091 A 
ATOM     12  C   UNL     1      -3.707  -6.382  13.537  1.00  0.00     0.068 A 
ATOM     13  C   UNL     1      -5.080  -6.428  13.264  1.00  0.00     0.162 A 
ATOM     14  C   UNL     1      -3.537  -8.761  13.116  1.00  0.00     0.068 A 
ATOM     15  C   UNL     1      -5.684  -7.642  12.915  1.00  0.00     0.200 A 
ATOM     16  C   UNL     1      -4.911  -8.814  12.845  1.00  0.00     0.162 A 
BRANCH  13  17
ATOM     17  O   UNL     1      -5.852  -5.271  13.340  1.00  0.00    -0.504 OA
ATOM     18  H   UNL     1      -5.609  -4.436  12.819  1.00  0.00     0.293 HD
ENDBRANCH  13  17
BRANCH  15  19
ATOM     19  O   UNL     1      -7.053  -7.670  12.644  1.00  0.00    -0.502 OA
ATOM     20  H   UNL     1      -7.549  -8.534  12.461  1.00  0.00     0.293 HD
ENDBRANCH  15  19
BRANCH  16  21
ATOM     21  O   UNL     1      -5.512 -10.027  12.511  1.00  0.00    -0.504 OA
ATOM     22  H   UNL     1      -5.527 -10.367  11.557  1.00  0.00     0.293 HD
ENDBRANCH  16  21
ENDBRANCH   1  11
BRANCH  10  23
ATOM     23  O   UNL     1      -0.840  -7.498  11.407  1.00  0.00    -0.500 OA
ATOM     24  H   UNL     1      -1.677  -7.042  11.066  1.00  0.00     0.294 HD
ENDBRANCH  10  23
BRANCH   5  25
ATOM     25  O   UNL     1       2.018  -7.073  18.610  1.00  0.00    -0.507 OA
ATOM     26  H   UNL     1       1.585  -7.704  19.275  1.00  0.00     0.293 HD
ENDBRANCH   5  25
BRANCH   7  27
ATOM     27  O   UNL     1       3.652  -7.302  14.085  1.00  0.00    -0.507 OA
ATOM     28  H   UNL     1       4.502  -6.778  14.233  1.00  0.00     0.293 HD
ENDBRANCH   7  27
TORSDOF 7
ENDMDL
MODEL 5
REMARK VINA RESULT:    -6.975      3.363      7.840
REMARK INTER + INTRA:          -8.985
REMARK INTER:                  -8.601
REMARK INTRA:                  -0.384
REMARK UNBOUND:                -0.380
REMARK SMILES Oc1cc(O)c2cc(O)c(-c3cc(O)c(O)c(O)c3)[o+]c2c1
REMARK SMILES IDX 10 1 20 2 21 3 22 4 2 5 3 6 4 7 6 8 7 9 8 10 11 11 12 12
REMARK SMILES IDX 13 13 19 14 15 15 17 16 14 17 16 19 18 21 9 23 1 25 5 27
REMARK H PARENT 14 18 16 20 18 22 9 24 1 26 5 28
REMARK Flexibility Score: inf
ROOT
ATOM      1  C   UNL     1      -2.890  -9.251  14.081  1.00  0.00     0.402 A 
ATOM      2  O   UNL     1      -2.000  -8.952  15.022  1.00  0.00    -0.202 OA
ATOM      3  C   UNL     1      -0.908  -8.230  14.792  1.00  0.00     0.368 A 
ATOM      4  C   UNL     1      -0.029  -7.970  15.847  1.00  0.00     0.162 A 
ATOM      5  C   UNL     1       1.127  -7.217  15.634  1.00  0.00     0.128 A 
ATOM      6  C   UNL     1       1.408  -6.720  14.357  1.00  0.00     0.093 A 
ATOM      7  C   UNL     1       0.544  -6.967  13.283  1.00  0.00     0.136 A 
ATOM      8  C   UNL     1      -0.634  -7.729  13.497  1.00  0.00     0.125 A 
ATOM      9  C   UNL     1      -1.563  -8.015  12.483  1.00  0.00     0.078 A 
ATOM     10  C   UNL     1      -2.704  -8.770  12.771  1.00  0.00     0.223 A 
ENDROOT
BRANCH   1  11
ATOM     11  C   UNL     1      -4.062 -10.072  14.460  1.00  0.00     0.091 A 
ATOM     12  C   UNL     1      -5.215  -9.443  14.953  1.00  0.00     0.068 A 
ATOM     13  C   UNL     1      -6.331 -10.198  15.338  1.00  0.00     0.162 A 
ATOM     14  C   UNL     1      -4.025 -11.476  14.390  1.00  0.00     0.068 A 
ATOM     15  C   UNL     1      -6.296 -11.595  15.247  1.00  0.00     0.200 A 
ATOM     16  C   UNL     1      -5.137 -12.237  14.776  1.00  0.00     0.162 A 
BRANCH  13  17
ATOM     17  O   UNL     1      -7.479  -9.567  15.812  1.00  0.00    -0.504 OA
ATOM     18  H   UNL     1      -7.936  -9.869  16.664  1.00  0.00     0.293 HD
ENDBRANCH  13  17
BRANCH  15  19
ATOM     19  O   UNL     1      -7.417 -12.331  15.632  1.00  0.00    -0.502 OA
ATOM     20  H   UNL     1      -7.770 -12.319  16.581  1.00  0.00     0.293 HD
ENDBRANCH  15  19
BRANCH  16  21
ATOM     21  O   UNL     1      -5.094 -13.628  14.698  1.00  0.00    -0.504 OA
ATOM     22  H   UNL     1      -4.880 -14.105  13.830  1.00  0.00     0.293 HD
ENDBRANCH  16  21
ENDBRANCH   1  11
BRANCH  10  23
ATOM     23  O   UNL     1      -3.652  -9.011  11.777  1.00  0.00    -0.500 OA
ATOM     24  H   UNL     1      -3.755  -8.397  10.978  1.00  0.00     0.294 HD
ENDBRANCH  10  23
BRANCH   5  25
ATOM     25  O   UNL     1       1.989  -6.968  16.699  1.00  0.00    -0.507 OA
ATOM     26  H   UNL     1       2.902  -6.553  16.555  1.00  0.00     0.293 HD
ENDBRANCH   5  25
BRANCH   7  27
ATOM     27  O   UNL     1       0.898  -6.439  12.038  1.00  0.00    -0.507 OA
ATOM     28  H   UNL     1       0.859  -5.458  11.802  1.00  0.00     0.293 HD
ENDBRANCH   7  27
TORSDOF 7
ENDMDL
MODEL 6
REMARK VINA RESULT:    -6.942      2.110      2.695
REMARK INTER + INTRA:          -8.945
REMARK INTER:                  -8.603
REMARK INTRA:                  -0.342
REMARK UNBOUND:                -0.380
REMARK SMILES Oc1cc(O)c2cc(O)c(-c3cc(O)c(O)c(O)c3)[o+]c2c1
REMARK SMILES IDX 10 1 20 2 21 3 22 4 2 5 3 6 4 7 6 8 7 9 8 10 11 11 12 12
REMARK SMILES IDX 13 13 19 14 15 15 17 16 14 17 16 19 18 21 9 23 1 25 5 27
REMARK H PARENT 14 18 16 20 18 22 9 24 1 26 5 28
REMARK Flexibility Score: inf
ROOT
ATOM      1  C   UNL     1      -4.457  -8.197  13.954  1.00  0.00     0.402 A 
ATOM      2  O   UNL     1      -4.694  -9.151  14.850  1.00  0.00    -0.202 OA
ATOM      3  C   UNL     1      -5.912  -9.602  15.132  1.00  0.00     0.368 A 
ATOM      4  C   UNL     1      -6.062 -10.606  16.092  1.00  0.00     0.162 A 
ATOM      5  C   UNL     1      -7.328 -11.096  16.411  1.00  0.00     0.128 A 
ATOM      6  C   UNL     1      -8.457 -10.578  15.766  1.00  0.00     0.093 A 
ATOM      7  C   UNL     1      -8.335  -9.571  14.800  1.00  0.00     0.136 A 
ATOM      8  C   UNL     1      -7.047  -9.073  14.472  1.00  0.00     0.125 A 
ATOM      9  C   UNL     1      -6.829  -8.074  13.508  1.00  0.00     0.078 A 
ATOM     10  C   UNL     1      -5.530  -7.636  13.235  1.00  0.00     0.223 A 
ENDROOT
BRANCH   1  11
ATOM     11  C   UNL     1      -3.056  -7.773  13.736  1.00  0.00     0.091 A 
ATOM     12  C   UNL     1      -2.463  -6.864  14.626  1.00  0.00     0.068 A 
ATOM     13  C   UNL     1      -1.144  -6.432  14.431  1.00  0.00     0.162 A 
ATOM     14  C   UNL     1      -2.321  -8.217  12.622  1.00  0.00     0.068 A 
ATOM     15  C   UNL     1      -0.411  -6.894  13.331  1.00  0.00     0.200 A 
ATOM     16  C   UNL     1      -1.003  -7.787  12.421  1.00  0.00     0.162 A 
BRANCH  13  17
ATOM     17  O   UNL     1      -0.556  -5.541  15.327  1.00  0.00    -0.504 OA
ATOM     18  H   UNL     1      -1.095  -5.085  16.053  1.00  0.00     0.293 HD
ENDBRANCH  13  17
BRANCH  15  19
ATOM     19  O   UNL     1       0.901  -6.455  13.154  1.00  0.00    -0.502 OA
ATOM     20  H   UNL     1       1.490  -6.802  12.406  1.00  0.00     0.293 HD
ENDBRANCH  15  19
BRANCH  16  21
ATOM     21  O   UNL     1      -0.281  -8.237  11.317  1.00  0.00    -0.504 OA
ATOM     22  H   UNL     1       0.412  -7.654  10.862  1.00  0.00     0.293 HD
ENDBRANCH  16  21
ENDBRANCH   1  11
BRANCH  10  23
ATOM     23  O   UNL     1      -5.308  -6.681  12.244  1.00  0.00    -0.500 OA
ATOM     24  H   UNL     1      -5.831  -5.815  12.212  1.00  0.00     0.294 HD
ENDBRANCH  10  23
BRANCH   5  25
ATOM     25  O   UNL     1      -7.455 -12.098  17.369  1.00  0.00    -0.507 OA
ATOM     26  H   UNL     1      -6.934 -12.965  17.302  1.00  0.00     0.293 HD
ENDBRANCH   5  25
BRANCH   7  27
ATOM     27  O   UNL     1      -9.511  -9.105  14.205  1.00  0.00    -0.507 OA
ATOM     28  H   UNL     1      -9.545  -8.588  13.338  1.00  0.00     0.293 HD
ENDBRANCH   7  27
TORSDOF 7
ENDMDL
MODEL 7
REMARK VINA RESULT:    -6.928     12.627     14.076
REMARK INTER + INTRA:          -8.928
REMARK INTER:                  -8.595
REMARK INTRA:                  -0.332
REMARK UNBOUND:                -0.380
REMARK SMILES Oc1cc(O)c2cc(O)c(-c3cc(O)c(O)c(O)c3)[o+]c2c1
REMARK SMILES IDX 10 1 20 2 21 3 22 4 2 5 3 6 4 7 6 8 7 9 8 10 11 11 12 12
REMARK SMILES IDX 13 13 19 14 15 15 17 16 14 17 16 19 18 21 9 23 1 25 5 27
REMARK H PARENT 14 18 16 20 18 22 9 24 1 26 5 28
REMARK Flexibility Score: inf
ROOT
ATOM      1  C   UNL     1      -1.065  -0.998   4.273  1.00  0.00     0.402 A 
ATOM      2  O   UNL     1      -1.728  -0.442   5.282  1.00  0.00    -0.202 OA
ATOM      3  C   UNL     1      -1.292   0.625   5.943  1.00  0.00     0.368 A 
ATOM      4  C   UNL     1      -2.059   1.138   6.993  1.00  0.00     0.162 A 
ATOM      5  C   UNL     1      -1.624   2.255   7.706  1.00  0.00     0.128 A 
ATOM      6  C   UNL     1      -0.410   2.866   7.370  1.00  0.00     0.093 A 
ATOM      7  C   UNL     1       0.378   2.371   6.323  1.00  0.00     0.136 A 
ATOM      8  C   UNL     1      -0.064   1.237   5.593  1.00  0.00     0.125 A 
ATOM      9  C   UNL     1       0.654   0.682   4.521  1.00  0.00     0.078 A 
ATOM     10  C   UNL     1       0.152  -0.435   3.846  1.00  0.00     0.223 A 
ENDROOT
BRANCH   1  11
ATOM     11  C   UNL     1      -1.652  -2.192   3.623  1.00  0.00     0.091 A 
ATOM     12  C   UNL     1      -1.107  -3.459   3.884  1.00  0.00     0.068 A 
ATOM     13  C   UNL     1      -1.631  -4.602   3.266  1.00  0.00     0.162 A 
ATOM     14  C   UNL     1      -2.709  -2.079   2.702  1.00  0.00     0.068 A 
ATOM     15  C   UNL     1      -2.697  -4.485   2.365  1.00  0.00     0.200 A 
ATOM     16  C   UNL     1      -3.236  -3.218   2.079  1.00  0.00     0.162 A 
BRANCH  13  17
ATOM     17  O   UNL     1      -1.096  -5.859   3.541  1.00  0.00    -0.504 OA
ATOM     18  H   UNL     1      -0.105  -5.988   3.709  1.00  0.00     0.293 HD
ENDBRANCH  13  17
BRANCH  15  19
ATOM     19  O   UNL     1      -3.208  -5.634   1.761  1.00  0.00    -0.502 OA
ATOM     20  H   UNL     1      -3.801  -6.287   2.259  1.00  0.00     0.293 HD
ENDBRANCH  15  19
BRANCH  16  21
ATOM     21  O   UNL     1      -4.287  -3.097   1.172  1.00  0.00    -0.504 OA
ATOM     22  H   UNL     1      -4.142  -2.739   0.235  1.00  0.00     0.293 HD
ENDBRANCH  16  21
ENDBRANCH   1  11
BRANCH  10  23
ATOM     23  O   UNL     1       0.839  -0.956   2.750  1.00  0.00    -0.500 OA
ATOM     24  H   UNL     1       1.842  -1.089   2.764  1.00  0.00     0.294 HD
ENDBRANCH  10  23
BRANCH   5  25
ATOM     25  O   UNL     1      -2.404   2.751   8.748  1.00  0.00    -0.507 OA
ATOM     26  H   UNL     1      -2.626   3.737   8.820  1.00  0.00     0.293 HD
ENDBRANCH   5  25
BRANCH   7  27
ATOM     27  O   UNL     1       1.578   3.036   6.052  1.00  0.00    -0.507 OA
ATOM     28  H   UNL     1       1.641   3.950   5.629  1.00  0.00     0.293 HD
ENDBRANCH   7  27
TORSDOF 7
ENDMDL
MODEL 8
REMARK VINA RESULT:    -6.870      4.713      9.443
REMARK INTER + INTRA:          -8.856
REMARK INTER:                  -8.535
REMARK INTRA:                  -0.321
REMARK UNBOUND:                -0.380
REMARK SMILES Oc1cc(O)c2cc(O)c(-c3cc(O)c(O)c(O)c3)[o+]c2c1
REMARK SMILES IDX 10 1 20 2 21 3 22 4 2 5 3 6 4 7 6 8 7 9 8 10 11 11 12 12
REMARK SMILES IDX 13 13 19 14 15 15 17 16 14 17 16 19 18 21 9 23 1 25 5 27
REMARK H PARENT 14 18 16 20 18 22 9 24 1 26 5 28
REMARK Flexibility Score: inf
ROOT
ATOM      1  C   UNL     1       0.106  -7.725  14.830  1.00  0.00     0.402 A 
ATOM      2  O   UNL     1       0.374  -8.487  15.886  1.00  0.00    -0.202 OA
ATOM      3  C   UNL     1       1.530  -8.449  16.540  1.00  0.00     0.368 A 
ATOM      4  C   UNL     1       1.719  -9.291  17.639  1.00  0.00     0.162 A 
ATOM      5  C   UNL     1       2.924  -9.275  18.342  1.00  0.00     0.128 A 
ATOM      6  C   UNL     1       3.950  -8.411  17.945  1.00  0.00     0.093 A 
ATOM      7  C   UNL     1       3.786  -7.557  16.847  1.00  0.00     0.136 A 
ATOM      8  C   UNL     1       2.561  -7.569  16.131  1.00  0.00     0.125 A 
ATOM      9  C   UNL     1       2.303  -6.739  15.028  1.00  0.00     0.078 A 
ATOM     10  C   UNL     1       1.069  -6.804  14.375  1.00  0.00     0.223 A 
ENDROOT
BRANCH   1  11
ATOM     11  C   UNL     1      -1.217  -7.867  14.180  1.00  0.00     0.091 A 
ATOM     12  C   UNL     1      -1.450  -8.950  13.319  1.00  0.00     0.068 A 
ATOM     13  C   UNL     1      -2.686  -9.097  12.676  1.00  0.00     0.162 A 
ATOM     14  C   UNL     1      -2.228  -6.907  14.362  1.00  0.00     0.068 A 
ATOM     15  C   UNL     1      -3.697  -8.149  12.877  1.00  0.00     0.200 A 
ATOM     16  C   UNL     1      -3.466  -7.047  13.720  1.00  0.00     0.162 A 
BRANCH  13  17
ATOM     17  O   UNL     1      -2.918 -10.183  11.834  1.00  0.00    -0.504 OA
ATOM     18  H   UNL     1      -2.273 -10.425  11.092  1.00  0.00     0.293 HD
ENDBRANCH  13  17
BRANCH  15  19
ATOM     19  O   UNL     1      -4.923  -8.312  12.231  1.00  0.00    -0.502 OA
ATOM     20  H   UNL     1      -5.572  -9.048  12.483  1.00  0.00     0.293 HD
ENDBRANCH  15  19
BRANCH  16  21
ATOM     21  O   UNL     1      -4.465  -6.094  13.910  1.00  0.00    -0.504 OA
ATOM     22  H   UNL     1      -4.976  -5.698  13.130  1.00  0.00     0.293 HD
ENDBRANCH  16  21
ENDBRANCH   1  11
BRANCH  10  23
ATOM     23  O   UNL     1       0.794  -5.945  13.311  1.00  0.00    -0.500 OA
ATOM     24  H   UNL     1       1.534  -5.524  12.762  1.00  0.00     0.294 HD
ENDBRANCH  10  23
BRANCH   5  25
ATOM     25  O   UNL     1       3.092 -10.122  19.435  1.00  0.00    -0.507 OA
ATOM     26  H   UNL     1       2.315 -10.373  20.036  1.00  0.00     0.293 HD
ENDBRANCH   5  25
BRANCH   7  27
ATOM     27  O   UNL     1       4.860  -6.726  16.512  1.00  0.00    -0.507 OA
ATOM     28  H   UNL     1       5.691  -6.615  17.074  1.00  0.00     0.293 HD
ENDBRANCH   7  27
TORSDOF 7
ENDMDL
MODEL 9
REMARK VINA RESULT:    -6.815      3.405      5.415
REMARK INTER + INTRA:          -8.788
REMARK INTER:                  -8.441
REMARK INTRA:                  -0.347
REMARK UNBOUND:                -0.380
REMARK SMILES Oc1cc(O)c2cc(O)c(-c3cc(O)c(O)c(O)c3)[o+]c2c1
REMARK SMILES IDX 10 1 20 2 21 3 22 4 2 5 3 6 4 7 6 8 7 9 8 10 11 11 12 12
REMARK SMILES IDX 13 13 19 14 15 15 17 16 14 17 16 19 18 21 9 23 1 25 5 27
REMARK H PARENT 14 18 16 20 18 22 9 24 1 26 5 28
REMARK Flexibility Score: inf
ROOT
ATOM      1  C   UNL     1      -2.074  -8.560  13.344  1.00  0.00     0.402 A 
ATOM      2  O   UNL     1      -2.252  -9.838  13.666  1.00  0.00    -0.202 OA
ATOM      3  C   UNL     1      -3.443 -10.367  13.926  1.00  0.00     0.368 A 
ATOM      4  C   UNL     1      -3.530 -11.721  14.259  1.00  0.00     0.162 A 
ATOM      5  C   UNL     1      -4.766 -12.303  14.540  1.00  0.00     0.128 A 
ATOM      6  C   UNL     1      -5.928 -11.524  14.489  1.00  0.00     0.093 A 
ATOM      7  C   UNL     1      -5.869 -10.165  14.159  1.00  0.00     0.136 A 
ATOM      8  C   UNL     1      -4.613  -9.571  13.870  1.00  0.00     0.125 A 
ATOM      9  C   UNL     1      -4.460  -8.220  13.517  1.00  0.00     0.078 A 
ATOM     10  C   UNL     1      -3.189  -7.707  13.241  1.00  0.00     0.223 A 
ENDROOT
BRANCH   1  11
ATOM     11  C   UNL     1      -0.695  -8.088  13.087  1.00  0.00     0.091 A 
ATOM     12  C   UNL     1      -0.046  -8.465  11.901  1.00  0.00     0.068 A 
ATOM     13  C   UNL     1       1.266  -8.048  11.642  1.00  0.00     0.162 A 
ATOM     14  C   UNL     1       0.003  -7.315  14.032  1.00  0.00     0.068 A 
ATOM     15  C   UNL     1       1.949  -7.261  12.578  1.00  0.00     0.200 A 
ATOM     16  C   UNL     1       1.317  -6.897  13.780  1.00  0.00     0.162 A 
BRANCH  13  17
ATOM     17  O   UNL     1       1.899  -8.412  10.455  1.00  0.00    -0.504 OA
ATOM     18  H   UNL     1       2.511  -7.772   9.963  1.00  0.00     0.293 HD
ENDBRANCH  13  17
BRANCH  15  19
ATOM     19  O   UNL     1       3.254  -6.853  12.303  1.00  0.00    -0.502 OA
ATOM     20  H   UNL     1       4.010  -7.514  12.171  1.00  0.00     0.293 HD
ENDBRANCH  15  19
BRANCH  16  21
ATOM     21  O   UNL     1       1.998  -6.127  14.720  1.00  0.00    -0.504 OA
ATOM     22  H   UNL     1       1.803  -6.203  15.712  1.00  0.00     0.293 HD
ENDBRANCH  16  21
ENDBRANCH   1  11
BRANCH  10  23
ATOM     23  O   UNL     1      -3.043  -6.379  12.843  1.00  0.00    -0.500 OA
ATOM     24  H   UNL     1      -2.147  -6.006  12.553  1.00  0.00     0.294 HD
ENDBRANCH  10  23
BRANCH   5  25
ATOM     25  O   UNL     1      -4.831 -13.655  14.867  1.00  0.00    -0.507 OA
ATOM     26  H   UNL     1      -5.342 -13.979  15.680  1.00  0.00     0.293 HD
ENDBRANCH   5  25
BRANCH   7  27
ATOM     27  O   UNL     1      -7.074  -9.456  14.134  1.00  0.00    -0.507 OA
ATOM     28  H   UNL     1      -7.829  -9.638  13.489  1.00  0.00     0.293 HD
ENDBRANCH   7  27
TORSDOF 7
ENDMDL
