MODEL 1
REMARK VINA RESULT:    -6.715      0.000      0.000
REMARK INTER + INTRA:         -10.455
REMARK INTER:                  -9.266
REMARK INTRA:                  -1.189
REMARK UNBOUND:                -1.189
REMARK SMILES O=C([O-])[C@H]1O[C@H](Oc2cc3oc(-c4ccccc4)cc(=O)c3c(O)c2O)[C@@H](O)[C@H](O)[C@H]1O
REMARK SMILES IDX 7 1 6 2 4 3 31 4 5 5 29 6 27 7 2 8 1 9 3 10 32 11 30 13
REMARK SMILES IDX 28 15 8 17 25 18 9 19 23 20 10 21 22 22 11 23 20 24 12 25
REMARK SMILES IDX 19 26 21 27 26 28 24 30 13 32 14 33 18 34 15 35 17 36 16 37
REMARK H PARENT 32 12 30 14 28 16 26 29 24 31
REMARK Flexibility Score: inf
ROOT
ATOM      1  O   UNL     1     -15.354  -1.203   5.122  1.00  0.00    -0.458 OA
ENDROOT
BRANCH   1   2
ATOM      2  C   UNL     1     -14.924  -2.458   5.662  1.00  0.00     0.339 C 
ATOM      3  C   UNL     1     -13.334  -2.806   3.967  1.00  0.00     0.199 C 
ATOM      4  C   UNL     1     -12.131  -2.667   4.929  1.00  0.00     0.180 C 
ATOM      5  O   UNL     1     -14.472  -3.334   4.637  1.00  0.00    -0.328 OA
ATOM      6  C   UNL     1     -12.514  -1.778   6.128  1.00  0.00     0.181 C 
ATOM      7  C   UNL     1     -13.846  -2.233   6.748  1.00  0.00     0.214 C 
BRANCH   3   8
ATOM      8  C   UNL     1     -12.978  -3.687   2.804  1.00  0.00     0.073 C 
ATOM      9  O   UNL     1     -11.777  -3.994   2.575  1.00  0.00    -0.547 OA
ATOM     10  O   UNL     1     -13.974  -4.125   1.939  1.00  0.00    -0.547 OA
ENDBRANCH   3   8
BRANCH   4  11
ATOM     11  O   UNL     1     -11.641  -3.913   5.373  1.00  0.00    -0.387 OA
ATOM     12  H   UNL     1     -11.419  -4.468   4.584  1.00  0.00     0.211 HD
ENDBRANCH   4  11
BRANCH   6  13
ATOM     13  O   UNL     1     -12.635  -0.440   5.715  1.00  0.00    -0.387 OA
ATOM     14  H   UNL     1     -13.599  -0.268   5.564  1.00  0.00     0.211 HD
ENDBRANCH   6  13
BRANCH   7  15
ATOM     15  O   UNL     1     -13.644  -3.416   7.478  1.00  0.00    -0.384 OA
ATOM     16  H   UNL     1     -14.451  -3.550   8.042  1.00  0.00     0.211 HD
ENDBRANCH   7  15
ENDBRANCH   1   2
BRANCH   1  17
ATOM     17  C   UNL     1     -16.451  -1.018   4.262  1.00  0.00     0.172 A 
ATOM     18  C   UNL     1     -16.357  -0.366   3.013  1.00  0.00     0.201 A 
ATOM     19  C   UNL     1     -17.680  -1.517   4.691  1.00  0.00     0.098 A 
ATOM     20  C   UNL     1     -17.521  -0.198   2.215  1.00  0.00     0.176 A 
ATOM     21  C   UNL     1     -18.836  -1.325   3.939  1.00  0.00     0.146 A 
ATOM     22  C   UNL     1     -18.772  -0.659   2.696  1.00  0.00     0.111 A 
ATOM     23  O   UNL     1     -19.995  -1.770   4.413  1.00  0.00    -0.456 OA
ATOM     24  C   UNL     1     -19.982  -0.490   1.987  1.00  0.00     0.197 A 
ATOM     25  C   UNL     1     -21.151  -1.628   3.771  1.00  0.00     0.138 A 
ATOM     26  C   UNL     1     -21.173  -0.975   2.529  1.00  0.00     0.100 A 
ATOM     27  O   UNL     1     -20.017   0.102   0.875  1.00  0.00    -0.289 OA
BRANCH  18  28
ATOM     28  O   UNL     1     -15.110   0.091   2.586  1.00  0.00    -0.502 OA
ATOM     29  H   UNL     1     -14.936   0.561   1.711  1.00  0.00     0.293 HD
ENDBRANCH  18  28
BRANCH  20  30
ATOM     30  O   UNL     1     -17.461   0.403   0.953  1.00  0.00    -0.504 OA
ATOM     31  H   UNL     1     -18.211   0.394   0.276  1.00  0.00     0.293 HD
ENDBRANCH  20  30
BRANCH  25  32
ATOM     32  C   UNL     1     -22.390  -2.146   4.406  1.00  0.00     0.017 A 
ATOM     33  C   UNL     1     -22.360  -3.209   5.332  1.00  0.00     0.012 A 
ATOM     34  C   UNL     1     -23.627  -1.551   4.098  1.00  0.00     0.012 A 
ATOM     35  C   UNL     1     -23.544  -3.674   5.912  1.00  0.00     0.001 A 
ATOM     36  C   UNL     1     -24.807  -2.020   4.682  1.00  0.00     0.001 A 
ATOM     37  C   UNL     1     -24.767  -3.083   5.586  1.00  0.00     0.000 A 
ENDBRANCH  25  32
ENDBRANCH   1  17
TORSDOF 9
ENDMDL
MODEL 2
REMARK VINA RESULT:    -5.188      3.239      6.249
REMARK INTER + INTRA:          -8.348
REMARK INTER:                  -7.778
REMARK INTRA:                  -0.570
REMARK UNBOUND:                -1.189
REMARK SMILES O=C([O-])[C@H]1O[C@H](Oc2cc3oc(-c4ccccc4)cc(=O)c3c(O)c2O)[C@@H](O)[C@H](O)[C@H]1O
REMARK SMILES IDX 7 1 6 2 4 3 31 4 5 5 29 6 27 7 2 8 1 9 3 10 32 11 30 13
REMARK SMILES IDX 28 15 8 17 25 18 9 19 23 20 10 21 22 22 11 23 20 24 12 25
REMARK SMILES IDX 19 26 21 27 26 28 24 30 13 32 14 33 18 34 15 35 17 36 16 37
REMARK H PARENT 32 12 30 14 28 16 26 29 24 31
REMARK Flexibility Score: inf
ROOT
ATOM      1  O   UNL     1     -20.671  -3.018   3.220  1.00  0.00    -0.458 OA
ENDROOT
BRANCH   1   2
ATOM      2  C   UNL     1     -19.810  -2.923   2.078  1.00  0.00     0.339 C 
ATOM      3  C   UNL     1     -18.506  -1.212   3.025  1.00  0.00     0.199 C 
ATOM      4  C   UNL     1     -17.246  -2.103   3.144  1.00  0.00     0.180 C 
ATOM      5  O   UNL     1     -19.309  -1.602   1.918  1.00  0.00    -0.328 OA
ATOM      6  C   UNL     1     -17.656  -3.583   3.267  1.00  0.00     0.181 C 
ATOM      7  C   UNL     1     -18.672  -3.966   2.177  1.00  0.00     0.214 C 
BRANCH   3   8
ATOM      8  C   UNL     1     -18.117   0.231   2.885  1.00  0.00     0.073 C 
ATOM      9  O   UNL     1     -17.136   0.698   3.524  1.00  0.00    -0.547 OA
ATOM     10  O   UNL     1     -18.877   1.077   2.084  1.00  0.00    -0.547 OA
ENDBRANCH   3   8
BRANCH   4  11
ATOM     11  O   UNL     1     -16.349  -1.924   2.071  1.00  0.00    -0.387 OA
ATOM     12  H   UNL     1     -16.837  -1.523   1.309  1.00  0.00     0.211 HD
ENDBRANCH   4  11
BRANCH   6  13
ATOM     13  O   UNL     1     -18.227  -3.820   4.529  1.00  0.00    -0.387 OA
ATOM     14  H   UNL     1     -18.210  -2.961   5.022  1.00  0.00     0.211 HD
ENDBRANCH   6  13
BRANCH   7  15
ATOM     15  O   UNL     1     -18.015  -4.079   0.941  1.00  0.00    -0.384 OA
ATOM     16  H   UNL     1     -17.353  -3.340   0.897  1.00  0.00     0.211 HD
ENDBRANCH   7  15
ENDBRANCH   1   2
BRANCH   1  17
ATOM     17  C   UNL     1     -22.070  -2.886   3.199  1.00  0.00     0.172 A 
ATOM     18  C   UNL     1     -22.794  -2.477   2.057  1.00  0.00     0.201 A 
ATOM     19  C   UNL     1     -22.750  -3.183   4.379  1.00  0.00     0.098 A 
ATOM     20  C   UNL     1     -24.207  -2.344   2.128  1.00  0.00     0.176 A 
ATOM     21  C   UNL     1     -24.129  -3.018   4.475  1.00  0.00     0.146 A 
ATOM     22  C   UNL     1     -24.873  -2.591   3.354  1.00  0.00     0.111 A 
ATOM     23  O   UNL     1     -24.729  -3.260   5.636  1.00  0.00    -0.456 OA
ATOM     24  C   UNL     1     -26.267  -2.437   3.521  1.00  0.00     0.197 A 
ATOM     25  C   UNL     1     -26.038  -3.125   5.827  1.00  0.00     0.138 A 
ATOM     26  C   UNL     1     -26.848  -2.703   4.761  1.00  0.00     0.100 A 
ATOM     27  O   UNL     1     -27.005  -2.050   2.575  1.00  0.00    -0.289 OA
BRANCH  18  28
ATOM     28  O   UNL     1     -22.097  -2.223   0.875  1.00  0.00    -0.502 OA
ATOM     29  H   UNL     1     -22.210  -1.401   0.304  1.00  0.00     0.293 HD
ENDBRANCH  18  28
BRANCH  20  30
ATOM     30  O   UNL     1     -24.964  -1.983   1.008  1.00  0.00    -0.504 OA
ATOM     31  H   UNL     1     -25.191  -1.034   0.749  1.00  0.00     0.293 HD
ENDBRANCH  20  30
BRANCH  25  32
ATOM     32  C   UNL     1     -26.596  -3.403   7.174  1.00  0.00     0.017 A 
ATOM     33  C   UNL     1     -25.768  -3.716   8.271  1.00  0.00     0.012 A 
ATOM     34  C   UNL     1     -27.987  -3.333   7.375  1.00  0.00     0.012 A 
ATOM     35  C   UNL     1     -26.325  -3.973   9.527  1.00  0.00     0.001 A 
ATOM     36  C   UNL     1     -28.538  -3.590   8.634  1.00  0.00     0.001 A 
ATOM     37  C   UNL     1     -27.708  -3.914   9.710  1.00  0.00     0.000 A 
ENDBRANCH  25  32
ENDBRANCH   1  17
TORSDOF 9
ENDMDL
MODEL 3
REMARK VINA RESULT:    -5.063      2.689      8.934
REMARK INTER + INTRA:          -8.176
REMARK INTER:                  -7.150
REMARK INTRA:                  -1.026
REMARK UNBOUND:                -1.189
REMARK SMILES O=C([O-])[C@H]1O[C@H](Oc2cc3oc(-c4ccccc4)cc(=O)c3c(O)c2O)[C@@H](O)[C@H](O)[C@H]1O
REMARK SMILES IDX 7 1 6 2 4 3 31 4 5 5 29 6 27 7 2 8 1 9 3 10 32 11 30 13
REMARK SMILES IDX 28 15 8 17 25 18 9 19 23 20 10 21 22 22 11 23 20 24 12 25
REMARK SMILES IDX 19 26 21 27 26 28 24 30 13 32 14 33 18 34 15 35 17 36 16 37
REMARK H PARENT 32 12 30 14 28 16 26 29 24 31
REMARK Flexibility Score: inf
ROOT
ATOM      1  O   UNL     1     -21.837  -2.266   4.406  1.00  0.00    -0.458 OA
ENDROOT
BRANCH   1   2
ATOM      2  C   UNL     1     -22.623  -3.396   4.007  1.00  0.00     0.339 C 
ATOM      3  C   UNL     1     -24.166  -3.122   5.757  1.00  0.00     0.199 C 
ATOM      4  C   UNL     1     -25.327  -2.743   4.807  1.00  0.00     0.180 C 
ATOM      5  O   UNL     1     -23.252  -4.009   5.125  1.00  0.00    -0.328 OA
ATOM      6  C   UNL     1     -24.769  -2.115   3.516  1.00  0.00     0.181 C 
ATOM      7  C   UNL     1     -23.645  -2.982   2.923  1.00  0.00     0.214 C 
BRANCH   3   8
ATOM      8  C   UNL     1     -24.699  -3.753   7.011  1.00  0.00     0.073 C 
ATOM      9  O   UNL     1     -23.917  -4.124   7.927  1.00  0.00    -0.547 OA
ATOM     10  O   UNL     1     -26.065  -3.981   7.144  1.00  0.00    -0.547 OA
ENDBRANCH   3   8
BRANCH   4  11
ATOM     11  O   UNL     1     -26.163  -3.838   4.504  1.00  0.00    -0.387 OA
ATOM     12  H   UNL     1     -26.697  -4.064   5.307  1.00  0.00     0.211 HD
ENDBRANCH   4  11
BRANCH   6  13
ATOM     13  O   UNL     1     -24.263  -0.832   3.786  1.00  0.00    -0.387 OA
ATOM     14  H   UNL     1     -23.858  -0.862   4.689  1.00  0.00     0.211 HD
ENDBRANCH   6  13
BRANCH   7  15
ATOM     15  O   UNL     1     -24.200  -4.124   2.323  1.00  0.00    -0.384 OA
ATOM     16  H   UNL     1     -25.183  -4.073   2.457  1.00  0.00     0.211 HD
ENDBRANCH   7  15
ENDBRANCH   1   2
BRANCH   1  17
ATOM     17  C   UNL     1     -20.687  -1.799   3.745  1.00  0.00     0.172 A 
ATOM     18  C   UNL     1     -20.731  -0.925   2.636  1.00  0.00     0.201 A 
ATOM     19  C   UNL     1     -19.457  -2.236   4.234  1.00  0.00     0.098 A 
ATOM     20  C   UNL     1     -19.521  -0.521   2.009  1.00  0.00     0.176 A 
ATOM     21  C   UNL     1     -18.267  -1.880   3.605  1.00  0.00     0.146 A 
ATOM     22  C   UNL     1     -18.284  -1.023   2.483  1.00  0.00     0.111 A 
ATOM     23  O   UNL     1     -17.120  -2.364   4.073  1.00  0.00    -0.456 OA
ATOM     24  C   UNL     1     -17.042  -0.708   1.888  1.00  0.00     0.197 A 
ATOM     25  C   UNL     1     -15.935  -2.086   3.537  1.00  0.00     0.138 A 
ATOM     26  C   UNL     1     -15.868  -1.243   2.416  1.00  0.00     0.100 A 
ATOM     27  O   UNL     1     -16.968   0.040   0.876  1.00  0.00    -0.289 OA
BRANCH  18  28
ATOM     28  O   UNL     1     -21.971  -0.469   2.188  1.00  0.00    -0.502 OA
ATOM     29  H   UNL     1     -22.108   0.311   1.564  1.00  0.00     0.293 HD
ENDBRANCH  18  28
BRANCH  20  30
ATOM     30  O   UNL     1     -19.520   0.377   0.936  1.00  0.00    -0.504 OA
ATOM     31  H   UNL     1     -19.869   0.169   0.012  1.00  0.00     0.293 HD
ENDBRANCH  20  30
BRANCH  25  32
ATOM     32  C   UNL     1     -14.721  -2.702   4.130  1.00  0.00     0.017 A 
ATOM     33  C   UNL     1     -14.786  -3.509   5.284  1.00  0.00     0.012 A 
ATOM     34  C   UNL     1     -13.471  -2.496   3.517  1.00  0.00     0.012 A 
ATOM     35  C   UNL     1     -13.624  -4.073   5.819  1.00  0.00     0.001 A 
ATOM     36  C   UNL     1     -12.313  -3.064   4.056  1.00  0.00     0.001 A 
ATOM     37  C   UNL     1     -12.388  -3.849   5.208  1.00  0.00     0.000 A 
ENDBRANCH  25  32
ENDBRANCH   1  17
TORSDOF 9
ENDMDL
MODEL 4
REMARK VINA RESULT:    -5.038      2.403      8.767
REMARK INTER + INTRA:          -8.141
REMARK INTER:                  -7.169
REMARK INTRA:                  -0.971
REMARK UNBOUND:                -1.189
REMARK SMILES O=C([O-])[C@H]1O[C@H](Oc2cc3oc(-c4ccccc4)cc(=O)c3c(O)c2O)[C@@H](O)[C@H](O)[C@H]1O
REMARK SMILES IDX 7 1 6 2 4 3 31 4 5 5 29 6 27 7 2 8 1 9 3 10 32 11 30 13
REMARK SMILES IDX 28 15 8 17 25 18 9 19 23 20 10 21 22 22 11 23 20 24 12 25
REMARK SMILES IDX 19 26 21 27 26 28 24 30 13 32 14 33 18 34 15 35 17 36 16 37
REMARK H PARENT 32 12 30 14 28 16 26 29 24 31
REMARK Flexibility Score: inf
ROOT
ATOM      1  O   UNL     1     -21.058  -2.180   4.105  1.00  0.00    -0.458 OA
ENDROOT
BRANCH   1   2
ATOM      2  C   UNL     1     -21.799  -3.301   3.606  1.00  0.00     0.339 C 
ATOM      3  C   UNL     1     -23.499  -3.074   5.213  1.00  0.00     0.199 C 
ATOM      4  C   UNL     1     -24.569  -2.672   4.170  1.00  0.00     0.180 C 
ATOM      5  O   UNL     1     -22.526  -3.943   4.645  1.00  0.00    -0.328 OA
ATOM      6  C   UNL     1     -23.895  -2.010   2.952  1.00  0.00     0.181 C 
ATOM      7  C   UNL     1     -22.718  -2.860   2.443  1.00  0.00     0.214 C 
BRANCH   3   8
ATOM      8  C   UNL     1     -24.143  -3.739   6.395  1.00  0.00     0.073 C 
ATOM      9  O   UNL     1     -25.390  -3.913   6.435  1.00  0.00    -0.547 OA
ATOM     10  O   UNL     1     -23.364  -4.119   7.483  1.00  0.00    -0.547 OA
ENDBRANCH   3   8
BRANCH   4  11
ATOM     11  O   UNL     1     -25.369  -3.760   3.762  1.00  0.00    -0.387 OA
ATOM     12  H   UNL     1     -25.218  -4.517   4.383  1.00  0.00     0.211 HD
ENDBRANCH   4  11
BRANCH   6  13
ATOM     13  O   UNL     1     -23.421  -0.734   3.300  1.00  0.00    -0.387 OA
ATOM     14  H   UNL     1     -22.789  -0.454   2.590  1.00  0.00     0.211 HD
ENDBRANCH   6  13
BRANCH   7  15
ATOM     15  O   UNL     1     -23.211  -3.987   1.766  1.00  0.00    -0.384 OA
ATOM     16  H   UNL     1     -22.455  -4.625   1.677  1.00  0.00     0.211 HD
ENDBRANCH   7  15
ENDBRANCH   1   2
BRANCH   1  17
ATOM     17  C   UNL     1     -19.879  -1.665   3.537  1.00  0.00     0.172 A 
ATOM     18  C   UNL     1     -19.873  -0.734   2.475  1.00  0.00     0.201 A 
ATOM     19  C   UNL     1     -18.672  -2.112   4.073  1.00  0.00     0.098 A 
ATOM     20  C   UNL     1     -18.636  -0.282   1.941  1.00  0.00     0.176 A 
ATOM     21  C   UNL     1     -17.454  -1.708   3.534  1.00  0.00     0.146 A 
ATOM     22  C   UNL     1     -17.420  -0.794   2.459  1.00  0.00     0.111 A 
ATOM     23  O   UNL     1     -16.329  -2.203   4.041  1.00  0.00    -0.456 OA
ATOM     24  C   UNL     1     -16.151  -0.432   1.954  1.00  0.00     0.197 A 
ATOM     25  C   UNL     1     -15.120  -1.883   3.589  1.00  0.00     0.138 A 
ATOM     26  C   UNL     1     -15.001  -0.980   2.521  1.00  0.00     0.100 A 
ATOM     27  O   UNL     1     -16.030   0.370   0.989  1.00  0.00    -0.289 OA
BRANCH  18  28
ATOM     28  O   UNL     1     -21.092  -0.270   1.980  1.00  0.00    -0.502 OA
ATOM     29  H   UNL     1     -21.241   0.080   1.047  1.00  0.00     0.293 HD
ENDBRANCH  18  28
BRANCH  20  30
ATOM     30  O   UNL     1     -18.586   0.672   0.918  1.00  0.00    -0.504 OA
ATOM     31  H   UNL     1     -19.374   0.944   0.348  1.00  0.00     0.293 HD
ENDBRANCH  20  30
BRANCH  25  32
ATOM     32  C   UNL     1     -13.932  -2.514   4.219  1.00  0.00     0.017 A 
ATOM     33  C   UNL     1     -13.116  -3.424   3.517  1.00  0.00     0.012 A 
ATOM     34  C   UNL     1     -13.594  -2.184   5.544  1.00  0.00     0.012 A 
ATOM     35  C   UNL     1     -12.005  -4.003   4.139  1.00  0.00     0.001 A 
ATOM     36  C   UNL     1     -12.481  -2.765   6.160  1.00  0.00     0.001 A 
ATOM     37  C   UNL     1     -11.688  -3.676   5.459  1.00  0.00     0.000 A 
ENDBRANCH  25  32
ENDBRANCH   1  17
TORSDOF 9
ENDMDL
MODEL 5
REMARK VINA RESULT:    -4.870      2.413      4.367
REMARK INTER + INTRA:          -7.909
REMARK INTER:                  -6.758
REMARK INTRA:                  -1.151
REMARK UNBOUND:                -1.189
REMARK SMILES O=C([O-])[C@H]1O[C@H](Oc2cc3oc(-c4ccccc4)cc(=O)c3c(O)c2O)[C@@H](O)[C@H](O)[C@H]1O
REMARK SMILES IDX 7 1 6 2 4 3 31 4 5 5 29 6 27 7 2 8 1 9 3 10 32 11 30 13
REMARK SMILES IDX 28 15 8 17 25 18 9 19 23 20 10 21 22 22 11 23 20 24 12 25
REMARK SMILES IDX 19 26 21 27 26 28 24 30 13 32 14 33 18 34 15 35 17 36 16 37
REMARK H PARENT 32 12 30 14 28 16 26 29 24 31
REMARK Flexibility Score: inf
ROOT
ATOM      1  O   UNL     1     -19.144  -1.123   3.749  1.00  0.00    -0.458 OA
ENDROOT
BRANCH   1   2
ATOM      2  C   UNL     1     -18.075  -1.846   4.372  1.00  0.00     0.339 C 
ATOM      3  C   UNL     1     -16.732  -1.807   2.444  1.00  0.00     0.199 C 
ATOM      4  C   UNL     1     -15.670  -0.881   3.081  1.00  0.00     0.180 C 
ATOM      5  O   UNL     1     -17.357  -2.626   3.425  1.00  0.00    -0.328 OA
ATOM      6  C   UNL     1     -16.316  -0.014   4.179  1.00  0.00     0.181 C 
ATOM      7  C   UNL     1     -17.150  -0.875   5.143  1.00  0.00     0.214 C 
BRANCH   3   8
ATOM      8  C   UNL     1     -16.108  -2.671   1.386  1.00  0.00     0.073 C 
ATOM      9  O   UNL     1     -14.998  -2.363   0.876  1.00  0.00    -0.547 OA
ATOM     10  O   UNL     1     -16.786  -3.795   0.924  1.00  0.00    -0.547 OA
ENDBRANCH   3   8
BRANCH   4  11
ATOM     11  O   UNL     1     -14.566  -1.591   3.598  1.00  0.00    -0.387 OA
ATOM     12  H   UNL     1     -13.781  -0.989   3.622  1.00  0.00     0.211 HD
ENDBRANCH   4  11
BRANCH   6  13
ATOM     13  O   UNL     1     -17.149   0.957   3.596  1.00  0.00    -0.387 OA
ATOM     14  H   UNL     1     -16.701   1.833   3.713  1.00  0.00     0.211 HD
ENDBRANCH   6  13
BRANCH   7  15
ATOM     15  O   UNL     1     -16.292  -1.598   5.988  1.00  0.00    -0.384 OA
ATOM     16  H   UNL     1     -16.765  -1.708   6.855  1.00  0.00     0.211 HD
ENDBRANCH   7  15
ENDBRANCH   1   2
BRANCH   1  17
ATOM     17  C   UNL     1     -20.444  -1.614   3.534  1.00  0.00     0.172 A 
ATOM     18  C   UNL     1     -21.036  -1.709   2.255  1.00  0.00     0.201 A 
ATOM     19  C   UNL     1     -21.158  -2.022   4.659  1.00  0.00     0.098 A 
ATOM     20  C   UNL     1     -22.366  -2.193   2.128  1.00  0.00     0.176 A 
ATOM     21  C   UNL     1     -22.475  -2.460   4.554  1.00  0.00     0.146 A 
ATOM     22  C   UNL     1     -23.097  -2.546   3.289  1.00  0.00     0.111 A 
ATOM     23  O   UNL     1     -23.137  -2.787   5.660  1.00  0.00    -0.456 OA
ATOM     24  C   UNL     1     -24.437  -2.991   3.254  1.00  0.00     0.197 A 
ATOM     25  C   UNL     1     -24.398  -3.209   5.660  1.00  0.00     0.138 A 
ATOM     26  C   UNL     1     -25.087  -3.321   4.443  1.00  0.00     0.100 A 
ATOM     27  O   UNL     1     -25.071  -3.086   2.168  1.00  0.00    -0.289 OA
BRANCH  18  28
ATOM     28  O   UNL     1     -20.288  -1.333   1.139  1.00  0.00    -0.502 OA
ATOM     29  H   UNL     1     -20.171  -0.385   0.816  1.00  0.00     0.293 HD
ENDBRANCH  18  28
BRANCH  20  30
ATOM     30  O   UNL     1     -22.972  -2.344   0.875  1.00  0.00    -0.504 OA
ATOM     31  H   UNL     1     -22.480  -2.568   0.022  1.00  0.00     0.293 HD
ENDBRANCH  20  30
BRANCH  25  32
ATOM     32  C   UNL     1     -25.044  -3.526   6.959  1.00  0.00     0.017 A 
ATOM     33  C   UNL     1     -24.288  -3.821   8.112  1.00  0.00     0.012 A 
ATOM     34  C   UNL     1     -26.448  -3.513   7.055  1.00  0.00     0.012 A 
ATOM     35  C   UNL     1     -24.927  -4.117   9.320  1.00  0.00     0.001 A 
ATOM     36  C   UNL     1     -27.081  -3.808   8.266  1.00  0.00     0.001 A 
ATOM     37  C   UNL     1     -26.322  -4.113   9.398  1.00  0.00     0.000 A 
ENDBRANCH  25  32
ENDBRANCH   1  17
TORSDOF 9
ENDMDL
