MODEL 1
REMARK VINA RESULT:    -4.260      0.000      0.000
REMARK INTER + INTRA:          -4.934
REMARK INTER:                  -4.758
REMARK INTRA:                  -0.176
REMARK UNBOUND:                -0.176
REMARK SMILES O=C([O-])c1ccccc1C(=O)[O-]
REMARK SMILES IDX 4 1 9 2 5 3 8 4 6 5 7 6 2 7 1 8 3 9 10 10 11 11 12 12
REMARK H PARENT
REMARK Flexibility Score: inf
ROOT
ATOM      1  C   UNL     1      62.184  33.250  60.315  1.00  0.00     0.006 A 
ATOM      2  C   UNL     1      63.580  33.087  60.534  1.00  0.00     0.006 A 
ATOM      3  C   UNL     1      61.624  34.538  60.400  1.00  0.00     0.010 A 
ATOM      4  C   UNL     1      64.351  34.208  60.895  1.00  0.00     0.010 A 
ATOM      5  C   UNL     1      62.411  35.639  60.737  1.00  0.00     0.001 A 
ATOM      6  C   UNL     1      63.770  35.473  60.995  1.00  0.00     0.001 A 
ENDROOT
BRANCH   1   7
ATOM      7  C   UNL     1      61.269  32.112  60.068  1.00  0.00     0.072 C 
ATOM      8  O   UNL     1      60.942  31.791  58.894  1.00  0.00    -0.545 OA
ATOM      9  O   UNL     1      60.811  31.341  61.130  1.00  0.00    -0.545 OA
ENDBRANCH   1   7
BRANCH   2  10
ATOM     10  C   UNL     1      64.277  31.797  60.331  1.00  0.00     0.072 C 
ATOM     11  O   UNL     1      64.965  31.605  59.293  1.00  0.00    -0.545 OA
ATOM     12  O   UNL     1      64.129  30.759  61.244  1.00  0.00    -0.545 OA
ENDBRANCH   2  10
TORSDOF 2
ENDMDL
MODEL 2
REMARK VINA RESULT:    -4.240      0.087      2.872
REMARK INTER + INTRA:          -4.912
REMARK INTER:                  -4.732
REMARK INTRA:                  -0.180
REMARK UNBOUND:                -0.176
REMARK SMILES O=C([O-])c1ccccc1C(=O)[O-]
REMARK SMILES IDX 4 1 9 2 5 3 8 4 6 5 7 6 2 7 1 8 3 9 10 10 11 11 12 12
REMARK H PARENT
REMARK Flexibility Score: inf
ROOT
ATOM      1  C   UNL     1      63.548  33.062  60.495  1.00  0.00     0.006 A 
ATOM      2  C   UNL     1      62.152  33.247  60.294  1.00  0.00     0.006 A 
ATOM      3  C   UNL     1      64.343  34.172  60.838  1.00  0.00     0.010 A 
ATOM      4  C   UNL     1      61.614  34.545  60.380  1.00  0.00     0.010 A 
ATOM      5  C   UNL     1      63.785  35.446  60.939  1.00  0.00     0.001 A 
ATOM      6  C   UNL     1      62.425  35.635  60.699  1.00  0.00     0.001 A 
ENDROOT
BRANCH   1   7
ATOM      7  C   UNL     1      64.226  31.761  60.291  1.00  0.00     0.072 C 
ATOM      8  O   UNL     1      64.938  31.558  59.272  1.00  0.00    -0.545 OA
ATOM      9  O   UNL     1      64.138  30.769  61.261  1.00  0.00    -0.545 OA
ENDBRANCH   1   7
BRANCH   2  10
ATOM     10  C   UNL     1      61.220  32.119  60.068  1.00  0.00     0.072 C 
ATOM     11  O   UNL     1      60.730  31.922  58.924  1.00  0.00    -0.545 OA
ATOM     12  O   UNL     1      60.822  31.306  61.122  1.00  0.00    -0.545 OA
ENDBRANCH   2  10
TORSDOF 2
ENDMDL
MODEL 3
REMARK VINA RESULT:    -4.232     11.634     13.502
REMARK INTER + INTRA:          -4.903
REMARK INTER:                  -4.692
REMARK INTRA:                  -0.211
REMARK UNBOUND:                -0.176
REMARK SMILES O=C([O-])c1ccccc1C(=O)[O-]
REMARK SMILES IDX 4 1 9 2 5 3 8 4 6 5 7 6 2 7 1 8 3 9 10 10 11 11 12 12
REMARK H PARENT
REMARK Flexibility Score: inf
ROOT
ATOM      1  C   UNL     1      56.437  28.187  50.322  1.00  0.00     0.006 A 
ATOM      2  C   UNL     1      56.548  26.790  50.080  1.00  0.00     0.006 A 
ATOM      3  C   UNL     1      55.190  28.815  50.145  1.00  0.00     0.010 A 
ATOM      4  C   UNL     1      55.425  26.086  49.608  1.00  0.00     0.010 A 
ATOM      5  C   UNL     1      54.084  28.093  49.697  1.00  0.00     0.001 A 
ATOM      6  C   UNL     1      54.203  26.734  49.418  1.00  0.00     0.001 A 
ENDROOT
BRANCH   1   7
ATOM      7  C   UNL     1      57.594  29.036  50.687  1.00  0.00     0.072 C 
ATOM      8  O   UNL     1      57.802  29.362  51.886  1.00  0.00    -0.545 OA
ATOM      9  O   UNL     1      58.505  29.430  49.713  1.00  0.00    -0.545 OA
ENDBRANCH   1   7
BRANCH   2  10
ATOM     10  C   UNL     1      57.780  26.023  50.372  1.00  0.00     0.072 C 
ATOM     11  O   UNL     1      57.901  25.409  51.466  1.00  0.00    -0.545 OA
ATOM     12  O   UNL     1      58.844  26.023  49.478  1.00  0.00    -0.545 OA
ENDBRANCH   2  10
TORSDOF 2
ENDMDL
MODEL 4
REMARK VINA RESULT:    -4.195     11.580     13.484
REMARK INTER + INTRA:          -4.861
REMARK INTER:                  -4.667
REMARK INTRA:                  -0.194
REMARK UNBOUND:                -0.176
REMARK SMILES O=C([O-])c1ccccc1C(=O)[O-]
REMARK SMILES IDX 4 1 9 2 5 3 8 4 6 5 7 6 2 7 1 8 3 9 10 10 11 11 12 12
REMARK H PARENT
REMARK Flexibility Score: inf
ROOT
ATOM      1  C   UNL     1      56.687  26.830  50.078  1.00  0.00     0.006 A 
ATOM      2  C   UNL     1      56.574  28.226  50.324  1.00  0.00     0.006 A 
ATOM      3  C   UNL     1      55.557  26.121  49.629  1.00  0.00     0.010 A 
ATOM      4  C   UNL     1      55.320  28.848  50.177  1.00  0.00     0.010 A 
ATOM      5  C   UNL     1      54.329  26.762  49.469  1.00  0.00     0.001 A 
ATOM      6  C   UNL     1      54.207  28.120  49.753  1.00  0.00     0.001 A 
ENDROOT
BRANCH   1   7
ATOM      7  C   UNL     1      57.927  26.064  50.337  1.00  0.00     0.072 C 
ATOM      8  O   UNL     1      58.033  25.335  51.359  1.00  0.00    -0.545 OA
ATOM      9  O   UNL     1      58.969  26.089  49.416  1.00  0.00    -0.545 OA
ENDBRANCH   1   7
BRANCH   2  10
ATOM     10  C   UNL     1      57.738  29.076  50.663  1.00  0.00     0.072 C 
ATOM     11  O   UNL     1      57.893  29.499  51.840  1.00  0.00    -0.545 OA
ATOM     12  O   UNL     1      58.637  29.473  49.680  1.00  0.00    -0.545 OA
ENDBRANCH   2  10
TORSDOF 2
ENDMDL
MODEL 5
REMARK VINA RESULT:    -3.785      2.045      3.243
REMARK INTER + INTRA:          -4.403
REMARK INTER:                  -4.187
REMARK INTRA:                  -0.216
REMARK UNBOUND:                -0.176
REMARK SMILES O=C([O-])c1ccccc1C(=O)[O-]
REMARK SMILES IDX 4 1 9 2 5 3 8 4 6 5 7 6 2 7 1 8 3 9 10 10 11 11 12 12
REMARK H PARENT
REMARK Flexibility Score: inf
ROOT
ATOM      1  C   UNL     1      62.095  32.704  60.322  1.00  0.00     0.006 A 
ATOM      2  C   UNL     1      63.505  32.525  60.386  1.00  0.00     0.006 A 
ATOM      3  C   UNL     1      61.253  31.649  60.720  1.00  0.00     0.010 A 
ATOM      4  C   UNL     1      64.019  31.276  60.783  1.00  0.00     0.010 A 
ATOM      5  C   UNL     1      61.784  30.427  61.131  1.00  0.00     0.001 A 
ATOM      6  C   UNL     1      63.164  30.236  61.152  1.00  0.00     0.001 A 
ENDROOT
BRANCH   1   7
ATOM      7  C   UNL     1      61.462  33.932  59.787  1.00  0.00     0.072 C 
ATOM      8  O   UNL     1      61.031  33.972  58.604  1.00  0.00    -0.545 OA
ATOM      9  O   UNL     1      61.277  35.037  60.611  1.00  0.00    -0.545 OA
ENDBRANCH   1   7
BRANCH   2  10
ATOM     10  C   UNL     1      64.464  33.622  60.121  1.00  0.00     0.072 C 
ATOM     11  O   UNL     1      64.763  34.437  61.034  1.00  0.00    -0.545 OA
ATOM     12  O   UNL     1      64.994  33.808  58.850  1.00  0.00    -0.545 OA
ENDBRANCH   2  10
TORSDOF 2
ENDMDL
MODEL 6
REMARK VINA RESULT:    -3.762     12.876     14.233
REMARK INTER + INTRA:          -4.378
REMARK INTER:                  -4.165
REMARK INTRA:                  -0.213
REMARK UNBOUND:                -0.176
REMARK SMILES O=C([O-])c1ccccc1C(=O)[O-]
REMARK SMILES IDX 4 1 9 2 5 3 8 4 6 5 7 6 2 7 1 8 3 9 10 10 11 11 12 12
REMARK H PARENT
REMARK Flexibility Score: inf
ROOT
ATOM      1  C   UNL     1      55.198  28.049  50.257  1.00  0.00     0.006 A 
ATOM      2  C   UNL     1      55.545  26.695  49.998  1.00  0.00     0.006 A 
ATOM      3  C   UNL     1      56.223  28.999  50.422  1.00  0.00     0.010 A 
ATOM      4  C   UNL     1      56.903  26.327  49.979  1.00  0.00     0.010 A 
ATOM      5  C   UNL     1      57.564  28.617  50.378  1.00  0.00     0.001 A 
ATOM      6  C   UNL     1      57.904  27.282  50.168  1.00  0.00     0.001 A 
ENDROOT
BRANCH   1   7
ATOM      7  C   UNL     1      53.799  28.504  50.432  1.00  0.00     0.072 C 
ATOM      8  O   UNL     1      53.093  28.815  49.436  1.00  0.00    -0.545 OA
ATOM      9  O   UNL     1      53.227  28.528  51.699  1.00  0.00    -0.545 OA
ENDBRANCH   1   7
BRANCH   2  10
ATOM     10  C   UNL     1      54.537  25.658  49.674  1.00  0.00     0.072 C 
ATOM     11  O   UNL     1      54.120  25.526  48.493  1.00  0.00    -0.545 OA
ATOM     12  O   UNL     1      53.990  24.864  50.676  1.00  0.00    -0.545 OA
ENDBRANCH   2  10
TORSDOF 2
ENDMDL
MODEL 7
REMARK VINA RESULT:    -3.718      2.376      4.407
REMARK INTER + INTRA:          -4.329
REMARK INTER:                  -4.105
REMARK INTRA:                  -0.224
REMARK UNBOUND:                -0.176
REMARK SMILES O=C([O-])c1ccccc1C(=O)[O-]
REMARK SMILES IDX 4 1 9 2 5 3 8 4 6 5 7 6 2 7 1 8 3 9 10 10 11 11 12 12
REMARK H PARENT
REMARK Flexibility Score: inf
ROOT
ATOM      1  C   UNL     1      63.694  33.360  60.426  1.00  0.00     0.006 A 
ATOM      2  C   UNL     1      62.302  33.581  60.239  1.00  0.00     0.006 A 
ATOM      3  C   UNL     1      64.157  32.047  60.633  1.00  0.00     0.010 A 
ATOM      4  C   UNL     1      61.417  32.491  60.333  1.00  0.00     0.010 A 
ATOM      5  C   UNL     1      63.264  30.978  60.700  1.00  0.00     0.001 A 
ATOM      6  C   UNL     1      61.896  31.200  60.561  1.00  0.00     0.001 A 
ENDROOT
BRANCH   1   7
ATOM      7  C   UNL     1      64.685  34.460  60.482  1.00  0.00     0.072 C 
ATOM      8  O   UNL     1      65.296  34.831  59.445  1.00  0.00    -0.545 OA
ATOM      9  O   UNL     1      64.903  35.142  61.674  1.00  0.00    -0.545 OA
ENDBRANCH   1   7
BRANCH   2  10
ATOM     10  C   UNL     1      61.743  34.905  59.879  1.00  0.00     0.072 C 
ATOM     11  O   UNL     1      61.268  35.657  60.771  1.00  0.00    -0.545 OA
ATOM     12  O   UNL     1      61.672  35.306  58.550  1.00  0.00    -0.545 OA
ENDBRANCH   2  10
TORSDOF 2
ENDMDL
MODEL 8
REMARK VINA RESULT:    -3.702     11.832     12.891
REMARK INTER + INTRA:          -4.311
REMARK INTER:                  -4.105
REMARK INTRA:                  -0.206
REMARK UNBOUND:                -0.176
REMARK SMILES O=C([O-])c1ccccc1C(=O)[O-]
REMARK SMILES IDX 4 1 9 2 5 3 8 4 6 5 7 6 2 7 1 8 3 9 10 10 11 11 12 12
REMARK H PARENT
REMARK Flexibility Score: inf
ROOT
ATOM      1  C   UNL     1      58.107  27.197  50.107  1.00  0.00     0.006 A 
ATOM      2  C   UNL     1      57.833  28.590  50.197  1.00  0.00     0.006 A 
ATOM      3  C   UNL     1      59.342  26.775  49.580  1.00  0.00     0.010 A 
ATOM      4  C   UNL     1      58.776  29.507  49.696  1.00  0.00     0.010 A 
ATOM      5  C   UNL     1      60.272  27.702  49.110  1.00  0.00     0.001 A 
ATOM      6  C   UNL     1      59.986  29.065  49.157  1.00  0.00     0.001 A 
ENDROOT
BRANCH   1   7
ATOM      7  C   UNL     1      57.122  26.156  50.480  1.00  0.00     0.072 C 
ATOM      8  O   UNL     1      57.246  25.505  51.551  1.00  0.00    -0.545 OA
ATOM      9  O   UNL     1      56.007  25.932  49.679  1.00  0.00    -0.545 OA
ENDBRANCH   1   7
BRANCH   2  10
ATOM     10  C   UNL     1      56.624  29.126  50.862  1.00  0.00     0.072 C 
ATOM     11  O   UNL     1      56.650  29.416  52.088  1.00  0.00    -0.545 OA
ATOM     12  O   UNL     1      55.429  29.255  50.164  1.00  0.00    -0.545 OA
ENDBRANCH   2  10
TORSDOF 2
ENDMDL
MODEL 9
REMARK VINA RESULT:    -3.684     11.821     12.773
REMARK INTER + INTRA:          -4.291
REMARK INTER:                  -4.100
REMARK INTRA:                  -0.191
REMARK UNBOUND:                -0.176
REMARK SMILES O=C([O-])c1ccccc1C(=O)[O-]
REMARK SMILES IDX 4 1 9 2 5 3 8 4 6 5 7 6 2 7 1 8 3 9 10 10 11 11 12 12
REMARK H PARENT
REMARK Flexibility Score: inf
ROOT
ATOM      1  C   UNL     1      57.892  28.571  50.197  1.00  0.00     0.006 A 
ATOM      2  C   UNL     1      58.189  27.182  50.134  1.00  0.00     0.006 A 
ATOM      3  C   UNL     1      58.810  29.493  49.661  1.00  0.00     0.010 A 
ATOM      4  C   UNL     1      59.424  26.770  49.597  1.00  0.00     0.010 A 
ATOM      5  C   UNL     1      60.018  29.061  49.113  1.00  0.00     0.001 A 
ATOM      6  C   UNL     1      60.330  27.703  49.091  1.00  0.00     0.001 A 
ENDROOT
BRANCH   1   7
ATOM      7  C   UNL     1      56.684  29.107  50.867  1.00  0.00     0.072 C 
ATOM      8  O   UNL     1      56.741  29.540  52.048  1.00  0.00    -0.545 OA
ATOM      9  O   UNL     1      55.484  29.198  50.171  1.00  0.00    -0.545 OA
ENDBRANCH   1   7
BRANCH   2  10
ATOM     10  C   UNL     1      57.224  26.137  50.545  1.00  0.00     0.072 C 
ATOM     11  O   UNL     1      57.456  25.423  51.558  1.00  0.00    -0.545 OA
ATOM     12  O   UNL     1      56.088  25.883  49.787  1.00  0.00    -0.545 OA
ENDBRANCH   2  10
TORSDOF 2
ENDMDL
