MODEL 1
REMARK VINA RESULT:    -3.203      0.000      0.000
REMARK INTER + INTRA:          -3.866
REMARK INTER:                  -3.764
REMARK INTRA:                  -0.101
REMARK UNBOUND:                -0.101
REMARK SMILES CCCCC(=O)[O-]
REMARK SMILES IDX 4 1 5 2 6 3 7 4 3 5 2 6 1 7
REMARK H PARENT
REMARK Flexibility Score: inf
ROOT
ATOM      1  C   UNL     1      10.053  14.990   1.446  1.00  0.00     0.053 C 
ENDROOT
BRANCH   1   2
ATOM      2  C   UNL     1      10.324  16.461   1.470  1.00  0.00     0.041 C 
ATOM      3  O   UNL     1      11.509  16.887   1.475  1.00  0.00    -0.550 OA
ATOM      4  O   UNL     1       9.268  17.364   1.439  1.00  0.00    -0.550 OA
ENDBRANCH   1   2
BRANCH   1   5
ATOM      5  C   UNL     1       9.770  14.523   0.012  1.00  0.00     0.006 C 
BRANCH   5   6
ATOM      6  C   UNL     1      11.017  13.947  -0.677  1.00  0.00    -0.003 C 
ATOM      7  C   UNL     1      11.900  13.142   0.276  1.00  0.00     0.004 C 
ENDBRANCH   5   6
ENDBRANCH   1   5
TORSDOF 3
ENDMDL
MODEL 2
REMARK VINA RESULT:    -3.193      0.090      1.226
REMARK INTER + INTRA:          -3.854
REMARK INTER:                  -3.752
REMARK INTRA:                  -0.102
REMARK UNBOUND:                -0.101
REMARK SMILES CCCCC(=O)[O-]
REMARK SMILES IDX 4 1 5 2 6 3 7 4 3 5 2 6 1 7
REMARK H PARENT
REMARK Flexibility Score: inf
ROOT
ATOM      1  C   UNL     1       9.970  15.030   1.417  1.00  0.00     0.053 C 
ENDROOT
BRANCH   1   2
ATOM      2  C   UNL     1      10.216  16.505   1.413  1.00  0.00     0.041 C 
ATOM      3  O   UNL     1       9.246  17.309   1.420  1.00  0.00    -0.550 OA
ATOM      4  O   UNL     1      11.515  16.995   1.451  1.00  0.00    -0.550 OA
ENDBRANCH   1   2
BRANCH   1   5
ATOM      5  C   UNL     1       9.748  14.521  -0.013  1.00  0.00     0.006 C 
BRANCH   5   6
ATOM      6  C   UNL     1      11.035  13.978  -0.652  1.00  0.00    -0.003 C 
ATOM      7  C   UNL     1      11.915  13.222   0.342  1.00  0.00     0.004 C 
ENDBRANCH   5   6
ENDBRANCH   1   5
TORSDOF 3
ENDMDL
MODEL 3
REMARK VINA RESULT:    -2.713      2.328      3.572
REMARK INTER + INTRA:          -3.290
REMARK INTER:                  -3.221
REMARK INTRA:                  -0.068
REMARK UNBOUND:                -0.101
REMARK SMILES CCCCC(=O)[O-]
REMARK SMILES IDX 4 1 5 2 6 3 7 4 3 5 2 6 1 7
REMARK H PARENT
REMARK Flexibility Score: inf
ROOT
ATOM      1  C   UNL     1      10.840  14.398   1.407  1.00  0.00     0.053 C 
ENDROOT
BRANCH   1   2
ATOM      2  C   UNL     1      11.069  13.848   0.035  1.00  0.00     0.041 C 
ATOM      3  O   UNL     1      10.178  13.956  -0.849  1.00  0.00    -0.550 OA
ATOM      4  O   UNL     1      12.286  13.259  -0.284  1.00  0.00    -0.550 OA
ENDBRANCH   1   2
BRANCH   1   5
ATOM      5  C   UNL     1       9.566  15.252   1.434  1.00  0.00     0.006 C 
BRANCH   5   6
ATOM      6  C   UNL     1       9.866  16.758   1.424  1.00  0.00    -0.003 C 
ATOM      7  C   UNL     1      11.327  17.072   1.750  1.00  0.00     0.004 C 
ENDBRANCH   5   6
ENDBRANCH   1   5
TORSDOF 3
ENDMDL
MODEL 4
REMARK VINA RESULT:    -2.687      2.310      3.481
REMARK INTER + INTRA:          -3.260
REMARK INTER:                  -3.179
REMARK INTRA:                  -0.080
REMARK UNBOUND:                -0.101
REMARK SMILES CCCCC(=O)[O-]
REMARK SMILES IDX 4 1 5 2 6 3 7 4 3 5 2 6 1 7
REMARK H PARENT
REMARK Flexibility Score: inf
ROOT
ATOM      1  C   UNL     1      10.267  14.404   0.085  1.00  0.00     0.053 C 
ENDROOT
BRANCH   1   2
ATOM      2  C   UNL     1      11.515  13.651   0.419  1.00  0.00     0.041 C 
ATOM      3  O   UNL     1      12.300  13.286  -0.496  1.00  0.00    -0.550 OA
ATOM      4  O   UNL     1      11.838  13.393   1.745  1.00  0.00    -0.550 OA
ENDBRANCH   1   2
BRANCH   1   5
ATOM      5  C   UNL     1       9.678  15.050   1.345  1.00  0.00     0.006 C 
BRANCH   5   6
ATOM      6  C   UNL     1       9.801  16.582   1.334  1.00  0.00    -0.003 C 
ATOM      7  C   UNL     1      11.220  17.063   1.638  1.00  0.00     0.004 C 
ENDBRANCH   5   6
ENDBRANCH   1   5
TORSDOF 3
ENDMDL
MODEL 5
REMARK VINA RESULT:    -2.249      2.759      3.778
REMARK INTER + INTRA:          -2.745
REMARK INTER:                  -2.727
REMARK INTRA:                  -0.018
REMARK UNBOUND:                -0.101
REMARK SMILES CCCCC(=O)[O-]
REMARK SMILES IDX 4 1 5 2 6 3 7 4 3 5 2 6 1 7
REMARK H PARENT
REMARK Flexibility Score: inf
ROOT
ATOM      1  C   UNL     1      11.365  14.861   1.452  1.00  0.00     0.053 C 
ENDROOT
BRANCH   1   2
ATOM      2  C   UNL     1      12.082  13.617   1.035  1.00  0.00     0.041 C 
ATOM      3  O   UNL     1      12.619  12.875   1.899  1.00  0.00    -0.550 OA
ATOM      4  O   UNL     1      12.116  13.248  -0.304  1.00  0.00    -0.550 OA
ENDBRANCH   1   2
BRANCH   1   5
ATOM      5  C   UNL     1       9.873  14.758   1.112  1.00  0.00     0.006 C 
BRANCH   5   6
ATOM      6  C   UNL     1       8.986  15.501   2.124  1.00  0.00    -0.003 C 
ATOM      7  C   UNL     1       9.226  17.010   2.124  1.00  0.00     0.004 C 
ENDBRANCH   5   6
ENDBRANCH   1   5
TORSDOF 3
ENDMDL
MODEL 6
REMARK VINA RESULT:    -1.222      1.937      2.944
REMARK INTER + INTRA:          -1.538
REMARK INTER:                  -1.506
REMARK INTRA:                  -0.032
REMARK UNBOUND:                -0.101
REMARK SMILES CCCCC(=O)[O-]
REMARK SMILES IDX 4 1 5 2 6 3 7 4 3 5 2 6 1 7
REMARK H PARENT
REMARK Flexibility Score: inf
ROOT
ATOM      1  C   UNL     1       9.991  15.001   1.521  1.00  0.00     0.053 C 
ENDROOT
BRANCH   1   2
ATOM      2  C   UNL     1      10.621  16.356   1.457  1.00  0.00     0.041 C 
ATOM      3  O   UNL     1      11.843  16.500   1.723  1.00  0.00    -0.550 OA
ATOM      4  O   UNL     1       9.870  17.454   1.056  1.00  0.00    -0.550 OA
ENDBRANCH   1   2
BRANCH   1   5
ATOM      5  C   UNL     1       8.584  15.092   2.125  1.00  0.00     0.006 C 
BRANCH   5   6
ATOM      6  C   UNL     1       7.572  14.194   1.398  1.00  0.00    -0.003 C 
ATOM      7  C   UNL     1       6.151  14.345   1.942  1.00  0.00     0.004 C 
ENDBRANCH   5   6
ENDBRANCH   1   5
TORSDOF 3
ENDMDL
MODEL 7
REMARK VINA RESULT:    -0.312      1.835      2.410
REMARK INTER + INTRA:          -0.468
REMARK INTER:                  -0.399
REMARK INTRA:                  -0.069
REMARK UNBOUND:                -0.101
REMARK SMILES CCCCC(=O)[O-]
REMARK SMILES IDX 4 1 5 2 6 3 7 4 3 5 2 6 1 7
REMARK H PARENT
REMARK Flexibility Score: inf
ROOT
ATOM      1  C   UNL     1      10.944  15.992   0.704  1.00  0.00     0.053 C 
ENDROOT
BRANCH   1   2
ATOM      2  C   UNL     1       9.611  16.540   1.103  1.00  0.00     0.041 C 
ATOM      3  O   UNL     1       9.242  17.672   0.690  1.00  0.00    -0.550 OA
ATOM      4  O   UNL     1       8.754  15.782   1.891  1.00  0.00    -0.550 OA
ENDBRANCH   1   2
BRANCH   1   5
ATOM      5  C   UNL     1      12.024  16.432   1.701  1.00  0.00     0.006 C 
BRANCH   5   6
ATOM      6  C   UNL     1      12.941  15.275   2.125  1.00  0.00    -0.003 C 
ATOM      7  C   UNL     1      12.298  13.904   1.917  1.00  0.00     0.004 C 
ENDBRANCH   5   6
ENDBRANCH   1   5
TORSDOF 3
ENDMDL
