MODEL 1
REMARK VINA RESULT:    -4.847      0.000      0.000
REMARK INTER + INTRA:          -4.989
REMARK INTER:                  -4.989
REMARK INTRA:                   0.000
REMARK UNBOUND:                 0.000
REMARK SMILES Nc1ncnc2nc[nH]c12
REMARK SMILES IDX 8 1 7 2 6 3 5 4 4 5 3 6 2 7 10 8 9 9 1 11
REMARK H PARENT 9 10 1 12 1 13
REMARK Flexibility Score: inf
ROOT
ATOM      1  C   UNL     1     -36.069  38.017  10.748  1.00  0.00     0.199 A 
ATOM      2  N   UNL     1     -36.112  39.303  10.304  1.00  0.00    -0.217 NA
ATOM      3  C   UNL     1     -36.233  39.996  11.448  1.00  0.00     0.182 A 
ATOM      4  N   UNL     1     -36.320  41.342  11.572  1.00  0.00    -0.215 NA
ATOM      5  C   UNL     1     -36.438  41.868  12.829  1.00  0.00     0.226 A 
ATOM      6  N   UNL     1     -36.467  41.047  13.928  1.00  0.00    -0.217 NA
ATOM      7  C   UNL     1     -36.381  39.689  13.805  1.00  0.00     0.152 A 
ATOM      8  C   UNL     1     -36.260  39.169  12.518  1.00  0.00     0.127 A 
ATOM      9  N   UNL     1     -36.157  37.902  12.097  1.00  0.00    -0.340 N 
ATOM     10  H   UNL     1     -36.146  37.025  12.664  1.00  0.00     0.168 HD
ENDROOT
BRANCH   7  11
ATOM     11  N   UNL     1     -36.414  38.854  14.963  1.00  0.00    -0.382 N 
ATOM     12  H   UNL     1     -37.042  38.023  15.016  1.00  0.00     0.158 HD
ATOM     13  H   UNL     1     -35.800  39.070  15.779  1.00  0.00     0.158 HD
ENDBRANCH   7  11
TORSDOF 1
ENDMDL
MODEL 2
REMARK VINA RESULT:    -4.668      3.374      5.360
REMARK INTER + INTRA:          -4.805
REMARK INTER:                  -4.805
REMARK INTRA:                   0.000
REMARK UNBOUND:                 0.000
REMARK SMILES Nc1ncnc2nc[nH]c12
REMARK SMILES IDX 8 1 7 2 6 3 5 4 4 5 3 6 2 7 10 8 9 9 1 11
REMARK H PARENT 9 10 1 12 1 13
REMARK Flexibility Score: inf
ROOT
ATOM      1  C   UNL     1     -35.298  34.536   8.160  1.00  0.00     0.199 A 
ATOM      2  N   UNL     1     -35.231  34.853   9.483  1.00  0.00    -0.217 NA
ATOM      3  C   UNL     1     -35.529  36.162   9.477  1.00  0.00     0.182 A 
ATOM      4  N   UNL     1     -35.602  36.979  10.556  1.00  0.00    -0.215 NA
ATOM      5  C   UNL     1     -35.924  38.292  10.350  1.00  0.00     0.226 A 
ATOM      6  N   UNL     1     -36.165  38.760   9.083  1.00  0.00    -0.217 NA
ATOM      7  C   UNL     1     -36.092  37.938   7.994  1.00  0.00     0.152 A 
ATOM      8  C   UNL     1     -35.763  36.603   8.220  1.00  0.00     0.127 A 
ATOM      9  N   UNL     1     -35.622  35.585   7.363  1.00  0.00    -0.340 N 
ATOM     10  H   UNL     1     -35.732  35.585   6.324  1.00  0.00     0.168 HD
ENDROOT
BRANCH   7  11
ATOM     11  N   UNL     1     -36.347  38.447   6.684  1.00  0.00    -0.382 N 
ATOM     12  H   UNL     1     -36.366  39.473   6.494  1.00  0.00     0.158 HD
ATOM     13  H   UNL     1     -36.519  37.789   5.893  1.00  0.00     0.158 HD
ENDBRANCH   7  11
TORSDOF 1
ENDMDL
MODEL 3
REMARK VINA RESULT:    -4.580      3.253      4.766
REMARK INTER + INTRA:          -4.713
REMARK INTER:                  -4.713
REMARK INTRA:                   0.000
REMARK UNBOUND:                 0.000
REMARK SMILES Nc1ncnc2nc[nH]c12
REMARK SMILES IDX 8 1 7 2 6 3 5 4 4 5 3 6 2 7 10 8 9 9 1 11
REMARK H PARENT 9 10 1 12 1 13
REMARK Flexibility Score: inf
ROOT
ATOM      1  C   UNL     1     -37.117  39.280   7.694  1.00  0.00     0.199 A 
ATOM      2  N   UNL     1     -36.286  38.499   6.950  1.00  0.00    -0.217 NA
ATOM      3  C   UNL     1     -35.641  37.790   7.891  1.00  0.00     0.182 A 
ATOM      4  N   UNL     1     -34.688  36.850   7.683  1.00  0.00    -0.215 NA
ATOM      5  C   UNL     1     -34.145  36.230   8.774  1.00  0.00     0.226 A 
ATOM      6  N   UNL     1     -34.560  36.558  10.040  1.00  0.00    -0.217 NA
ATOM      7  C   UNL     1     -35.521  37.505  10.251  1.00  0.00     0.152 A 
ATOM      8  C   UNL     1     -36.065  38.128   9.130  1.00  0.00     0.127 A 
ATOM      9  N   UNL     1     -37.005  39.075   9.031  1.00  0.00    -0.340 N 
ATOM     10  H   UNL     1     -37.535  39.552   9.794  1.00  0.00     0.168 HD
ENDROOT
BRANCH   7  11
ATOM     11  N   UNL     1     -35.938  37.830  11.579  1.00  0.00    -0.382 N 
ATOM     12  H   UNL     1     -36.843  37.482  11.964  1.00  0.00     0.158 HD
ATOM     13  H   UNL     1     -35.332  38.427  12.184  1.00  0.00     0.158 HD
ENDBRANCH   7  11
TORSDOF 1
ENDMDL
MODEL 4
REMARK VINA RESULT:    -4.523      5.562      6.550
REMARK INTER + INTRA:          -4.655
REMARK INTER:                  -4.655
REMARK INTRA:                   0.000
REMARK UNBOUND:                 0.000
REMARK SMILES Nc1ncnc2nc[nH]c12
REMARK SMILES IDX 8 1 7 2 6 3 5 4 4 5 3 6 2 7 10 8 9 9 1 11
REMARK H PARENT 9 10 1 12 1 13
REMARK Flexibility Score: inf
ROOT
ATOM      1  C   UNL     1     -35.551  36.046   8.506  1.00  0.00     0.199 A 
ATOM      2  N   UNL     1     -34.387  36.213   9.192  1.00  0.00    -0.217 NA
ATOM      3  C   UNL     1     -33.728  37.096   8.424  1.00  0.00     0.182 A 
ATOM      4  N   UNL     1     -32.496  37.608   8.659  1.00  0.00    -0.215 NA
ATOM      5  C   UNL     1     -31.987  38.502   7.758  1.00  0.00     0.226 A 
ATOM      6  N   UNL     1     -32.712  38.865   6.650  1.00  0.00    -0.217 NA
ATOM      7  C   UNL     1     -33.954  38.349   6.413  1.00  0.00     0.152 A 
ATOM      8  C   UNL     1     -34.459  37.440   7.340  1.00  0.00     0.127 A 
ATOM      9  N   UNL     1     -35.625  36.784   7.370  1.00  0.00    -0.340 N 
ATOM     10  H   UNL     1     -36.414  36.822   6.686  1.00  0.00     0.168 HD
ENDROOT
BRANCH   7  11
ATOM     11  N   UNL     1     -34.691  38.741   5.253  1.00  0.00    -0.382 N 
ATOM     12  H   UNL     1     -35.644  39.157   5.330  1.00  0.00     0.158 HD
ATOM     13  H   UNL     1     -34.276  38.612   4.304  1.00  0.00     0.158 HD
ENDBRANCH   7  11
TORSDOF 1
ENDMDL
MODEL 5
REMARK VINA RESULT:    -4.468      3.448      5.205
REMARK INTER + INTRA:          -4.599
REMARK INTER:                  -4.599
REMARK INTRA:                   0.000
REMARK UNBOUND:                 0.000
REMARK SMILES Nc1ncnc2nc[nH]c12
REMARK SMILES IDX 8 1 7 2 6 3 5 4 4 5 3 6 2 7 10 8 9 9 1 11
REMARK H PARENT 9 10 1 12 1 13
REMARK Flexibility Score: inf
ROOT
ATOM      1  C   UNL     1     -36.474  39.378   6.897  1.00  0.00     0.199 A 
ATOM      2  N   UNL     1     -36.487  39.769   8.201  1.00  0.00    -0.217 NA
ATOM      3  C   UNL     1     -36.152  38.637   8.841  1.00  0.00     0.182 A 
ATOM      4  N   UNL     1     -36.020  38.474  10.180  1.00  0.00    -0.215 NA
ATOM      5  C   UNL     1     -35.669  37.238  10.648  1.00  0.00     0.226 A 
ATOM      6  N   UNL     1     -35.459  36.198   9.778  1.00  0.00    -0.217 NA
ATOM      7  C   UNL     1     -35.592  36.360   8.428  1.00  0.00     0.152 A 
ATOM      8  C   UNL     1     -35.950  37.624   7.967  1.00  0.00     0.127 A 
ATOM      9  N   UNL     1     -36.149  38.073   6.721  1.00  0.00    -0.340 N 
ATOM     10  H   UNL     1     -36.074  37.551   5.820  1.00  0.00     0.168 HD
ENDROOT
BRANCH   7  11
ATOM     11  N   UNL     1     -35.368  35.262   7.542  1.00  0.00    -0.382 N 
ATOM     12  H   UNL     1     -34.419  35.054   7.164  1.00  0.00     0.158 HD
ATOM     13  H   UNL     1     -36.165  34.649   7.259  1.00  0.00     0.158 HD
ENDBRANCH   7  11
TORSDOF 1
ENDMDL
MODEL 6
REMARK VINA RESULT:    -4.432      5.806      7.219
REMARK INTER + INTRA:          -4.561
REMARK INTER:                  -4.561
REMARK INTRA:                   0.000
REMARK UNBOUND:                 0.000
REMARK SMILES Nc1ncnc2nc[nH]c12
REMARK SMILES IDX 8 1 7 2 6 3 5 4 4 5 3 6 2 7 10 8 9 9 1 11
REMARK H PARENT 9 10 1 12 1 13
REMARK Flexibility Score: inf
ROOT
ATOM      1  C   UNL     1     -31.331  38.150   8.000  1.00  0.00     0.199 A 
ATOM      2  N   UNL     1     -32.498  37.735   8.565  1.00  0.00    -0.217 NA
ATOM      3  C   UNL     1     -33.411  38.154   7.673  1.00  0.00     0.182 A 
ATOM      4  N   UNL     1     -34.754  37.993   7.756  1.00  0.00    -0.215 NA
ATOM      5  C   UNL     1     -35.526  38.489   6.742  1.00  0.00     0.226 A 
ATOM      6  N   UNL     1     -34.948  39.129   5.676  1.00  0.00    -0.217 NA
ATOM      7  C   UNL     1     -33.595  39.293   5.591  1.00  0.00     0.152 A 
ATOM      8  C   UNL     1     -32.821  38.782   6.631  1.00  0.00     0.127 A 
ATOM      9  N   UNL     1     -31.496  38.792   6.816  1.00  0.00    -0.340 N 
ATOM     10  H   UNL     1     -30.753  39.195   6.202  1.00  0.00     0.168 HD
ENDROOT
BRANCH   7  11
ATOM     11  N   UNL     1     -33.015  39.963   4.471  1.00  0.00    -0.382 N 
ATOM     12  H   UNL     1     -33.555  40.663   3.917  1.00  0.00     0.158 HD
ATOM     13  H   UNL     1     -32.031  39.757   4.191  1.00  0.00     0.158 HD
ENDBRANCH   7  11
TORSDOF 1
ENDMDL
MODEL 7
REMARK VINA RESULT:    -4.293      3.116      4.856
REMARK INTER + INTRA:          -4.418
REMARK INTER:                  -4.418
REMARK INTRA:                   0.000
REMARK UNBOUND:                 0.000
REMARK SMILES Nc1ncnc2nc[nH]c12
REMARK SMILES IDX 8 1 7 2 6 3 5 4 4 5 3 6 2 7 10 8 9 9 1 11
REMARK H PARENT 9 10 1 12 1 13
REMARK Flexibility Score: inf
ROOT
ATOM      1  C   UNL     1     -35.611  37.546  10.793  1.00  0.00     0.199 A 
ATOM      2  N   UNL     1     -35.051  36.993   9.682  1.00  0.00    -0.217 NA
ATOM      3  C   UNL     1     -35.419  37.854   8.718  1.00  0.00     0.182 A 
ATOM      4  N   UNL     1     -35.119  37.768   7.400  1.00  0.00    -0.215 NA
ATOM      5  C   UNL     1     -35.585  38.747   6.568  1.00  0.00     0.226 A 
ATOM      6  N   UNL     1     -36.335  39.784   7.063  1.00  0.00    -0.217 NA
ATOM      7  C   UNL     1     -36.639  39.871   8.391  1.00  0.00     0.152 A 
ATOM      8  C   UNL     1     -36.157  38.867   9.227  1.00  0.00     0.127 A 
ATOM      9  N   UNL     1     -36.293  38.692  10.547  1.00  0.00    -0.340 N 
ATOM     10  H   UNL     1     -36.801  39.291  11.236  1.00  0.00     0.168 HD
ENDROOT
BRANCH   7  11
ATOM     11  N   UNL     1     -37.422  40.960   8.884  1.00  0.00    -0.382 N 
ATOM     12  H   UNL     1     -38.024  41.528   8.250  1.00  0.00     0.158 HD
ATOM     13  H   UNL     1     -37.399  41.201   9.900  1.00  0.00     0.158 HD
ENDBRANCH   7  11
TORSDOF 1
ENDMDL
MODEL 8
REMARK VINA RESULT:    -4.219      2.535      5.445
REMARK INTER + INTRA:          -4.342
REMARK INTER:                  -4.342
REMARK INTRA:                   0.000
REMARK UNBOUND:                 0.000
REMARK SMILES Nc1ncnc2nc[nH]c12
REMARK SMILES IDX 8 1 7 2 6 3 5 4 4 5 3 6 2 7 10 8 9 9 1 11
REMARK H PARENT 9 10 1 12 1 13
REMARK Flexibility Score: inf
ROOT
ATOM      1  C   UNL     1     -36.217  39.087  11.000  1.00  0.00     0.199 A 
ATOM      2  N   UNL     1     -35.781  37.863  11.410  1.00  0.00    -0.217 NA
ATOM      3  C   UNL     1     -35.621  37.214  10.245  1.00  0.00     0.182 A 
ATOM      4  N   UNL     1     -35.196  35.938  10.083  1.00  0.00    -0.215 NA
ATOM      5  C   UNL     1     -35.094  35.448   8.811  1.00  0.00     0.226 A 
ATOM      6  N   UNL     1     -35.415  36.235   7.734  1.00  0.00    -0.217 NA
ATOM      7  C   UNL     1     -35.843  37.522   7.895  1.00  0.00     0.152 A 
ATOM      8  C   UNL     1     -35.942  38.007   9.197  1.00  0.00     0.127 A 
ATOM      9  N   UNL     1     -36.324  39.205   9.653  1.00  0.00    -0.340 N 
ATOM     10  H   UNL     1     -36.635  40.042   9.111  1.00  0.00     0.168 HD
ENDROOT
BRANCH   7  11
ATOM     11  N   UNL     1     -36.171  38.323   6.758  1.00  0.00    -0.382 N 
ATOM     12  H   UNL     1     -35.770  38.121   5.817  1.00  0.00     0.158 HD
ATOM     13  H   UNL     1     -36.825  39.131   6.861  1.00  0.00     0.158 HD
ENDBRANCH   7  11
TORSDOF 1
ENDMDL
MODEL 9
REMARK VINA RESULT:    -4.186      4.336      5.361
REMARK INTER + INTRA:          -4.308
REMARK INTER:                  -4.308
REMARK INTRA:                   0.000
REMARK UNBOUND:                 0.000
REMARK SMILES Nc1ncnc2nc[nH]c12
REMARK SMILES IDX 8 1 7 2 6 3 5 4 4 5 3 6 2 7 10 8 9 9 1 11
REMARK H PARENT 9 10 1 12 1 13
REMARK Flexibility Score: inf
ROOT
ATOM      1  C   UNL     1     -32.943  38.665   7.787  1.00  0.00     0.199 A 
ATOM      2  N   UNL     1     -32.768  37.484   8.443  1.00  0.00    -0.217 NA
ATOM      3  C   UNL     1     -34.017  37.195   8.846  1.00  0.00     0.182 A 
ATOM      4  N   UNL     1     -34.405  36.107   9.554  1.00  0.00    -0.215 NA
ATOM      5  C   UNL     1     -35.729  35.985   9.873  1.00  0.00     0.226 A 
ATOM      6  N   UNL     1     -36.631  36.942   9.483  1.00  0.00    -0.217 NA
ATOM      7  C   UNL     1     -36.241  38.040   8.771  1.00  0.00     0.152 A 
ATOM      8  C   UNL     1     -34.889  38.151   8.453  1.00  0.00     0.127 A 
ATOM      9  N   UNL     1     -34.229  39.098   7.776  1.00  0.00    -0.340 N 
ATOM     10  H   UNL     1     -34.603  39.969   7.338  1.00  0.00     0.168 HD
ENDROOT
BRANCH   7  11
ATOM     11  N   UNL     1     -37.198  39.024   8.375  1.00  0.00    -0.382 N 
ATOM     12  H   UNL     1     -36.903  39.929   7.948  1.00  0.00     0.158 HD
ATOM     13  H   UNL     1     -38.217  38.845   8.512  1.00  0.00     0.158 HD
ENDBRANCH   7  11
TORSDOF 1
ENDMDL
