MODEL 1
REMARK VINA RESULT:    -2.955      0.000      0.000
REMARK INTER + INTRA:          -2.901
REMARK INTER:                  -3.646
REMARK INTRA:                   0.745
REMARK UNBOUND:                 0.745
REMARK SMILES CC1=CC=CC(C)(C)CC1=O
REMARK SMILES IDX 1 1 2 2 3 3 10 4 11 5 9 6 4 8 5 9 6 10 7 11 8 12
REMARK H PARENT
REMARK Flexibility Score: 80.00
ROOT
ATOM      1  C   UNL     1       2.374  -3.293  -3.967  1.00  0.00     0.048 C 
ATOM      2  C   UNL     1       3.181  -4.556  -4.153  1.00  0.00    -0.008 C 
ATOM      3  C   UNL     1       4.130  -4.833  -3.234  1.00  0.00     0.007 C 
ENDROOT
BRANCH   2   4
ATOM      4  C   UNL     1       2.812  -5.431  -5.294  1.00  0.00     0.159 C 
ATOM      5  O   UNL     1       1.736  -5.204  -5.912  1.00  0.00    -0.295 OA
BRANCH   4   6
ATOM      6  C   UNL     1       3.661  -6.570  -5.769  1.00  0.00     0.091 CG0
ATOM      7  G   UNL     1       3.893  -7.648  -4.686  1.00  0.00     0.000 G0
ENDBRANCH   4   6
ENDBRANCH   2   4
BRANCH   3   8
ATOM      8  C   UNL     1       5.048  -5.991  -3.134  1.00  0.00    -0.003 C 
ATOM      9  C   UNL     1       4.962  -7.191  -3.725  1.00  0.00    -0.020 C 
BRANCH   9  10
ATOM     10  C   UNL     1       3.885  -7.644  -4.682  1.00  0.00    -0.010 CG0
ATOM     11  C   UNL     1       2.599  -7.997  -3.901  1.00  0.00     0.016 C 
ATOM     12  C   UNL     1       4.378  -8.924  -5.394  1.00  0.00     0.016 C 
ATOM     13  G   UNL     1       3.652  -6.556  -5.755  1.00  0.00     0.000 G0
ENDBRANCH   9  10
ENDBRANCH   3   8
TORSDOF 0
ENDMDL
MODEL 2
REMARK VINA RESULT:    -2.928      1.770      2.649
REMARK INTER + INTRA:          -2.867
REMARK INTER:                  -3.621
REMARK INTRA:                   0.754
REMARK UNBOUND:                 0.745
REMARK SMILES CC1=CC=CC(C)(C)CC1=O
REMARK SMILES IDX 1 1 2 2 3 3 10 4 11 5 9 6 4 8 5 9 6 10 7 11 8 12
REMARK H PARENT
REMARK Flexibility Score: 80.00
ROOT
ATOM      1  C   UNL     1       2.505  -3.947  -4.836  1.00  0.00     0.048 C 
ATOM      2  C   UNL     1       2.999  -5.246  -4.244  1.00  0.00    -0.008 C 
ATOM      3  C   UNL     1       2.242  -6.347  -4.431  1.00  0.00     0.007 C 
ENDROOT
BRANCH   2   4
ATOM      4  C   UNL     1       4.320  -5.219  -3.568  1.00  0.00     0.159 C 
ATOM      5  O   UNL     1       5.046  -4.195  -3.690  1.00  0.00    -0.295 OA
BRANCH   4   6
ATOM      6  C   UNL     1       4.840  -6.345  -2.727  1.00  0.00     0.091 CG0
ATOM      7  G   UNL     1       4.963  -7.677  -3.502  1.00  0.00     0.000 G0
ENDBRANCH   4   6
ENDBRANCH   2   4
BRANCH   3   8
ATOM      8  C   UNL     1       2.474  -7.746  -4.000  1.00  0.00    -0.003 C 
ATOM      9  C   UNL     1       3.615  -8.331  -3.612  1.00  0.00    -0.020 C 
BRANCH   9  10
ATOM     10  C   UNL     1       4.968  -7.671  -3.494  1.00  0.00    -0.010 CG0
ATOM     11  C   UNL     1       5.593  -7.494  -4.897  1.00  0.00     0.016 C 
ATOM     12  C   UNL     1       5.891  -8.600  -2.674  1.00  0.00     0.016 C 
ATOM     13  G   UNL     1       4.829  -6.334  -2.730  1.00  0.00     0.000 G0
ENDBRANCH   9  10
ENDBRANCH   3   8
TORSDOF 0
ENDMDL
MODEL 3
REMARK VINA RESULT:    -2.817     11.286     12.222
REMARK INTER + INTRA:          -2.730
REMARK INTER:                  -3.486
REMARK INTRA:                   0.757
REMARK UNBOUND:                 0.745
REMARK SMILES CC1=CC=CC(C)(C)CC1=O
REMARK SMILES IDX 1 1 2 2 3 3 10 4 11 5 9 6 4 8 5 9 6 10 7 11 8 12
REMARK H PARENT
REMARK Flexibility Score: 80.00
ROOT
ATOM      1  C   UNL     1      -2.969  -2.752   5.562  1.00  0.00     0.048 C 
ATOM      2  C   UNL     1      -3.716  -3.654   4.609  1.00  0.00    -0.008 C 
ATOM      3  C   UNL     1      -3.232  -3.778   3.355  1.00  0.00     0.007 C 
ENDROOT
BRANCH   2   4
ATOM      4  C   UNL     1      -4.882  -4.394   5.154  1.00  0.00     0.159 C 
ATOM      5  O   UNL     1      -5.060  -4.414   6.403  1.00  0.00    -0.295 OA
BRANCH   4   6
ATOM      6  C   UNL     1      -5.879  -5.111   4.297  1.00  0.00     0.091 CG0
ATOM      7  G   UNL     1      -5.252  -6.240   3.449  1.00  0.00     0.000 G0
ENDBRANCH   4   6
ENDBRANCH   2   4
BRANCH   3   8
ATOM      8  C   UNL     1      -3.725  -4.596   2.222  1.00  0.00    -0.003 C 
ATOM      9  C   UNL     1      -4.562  -5.642   2.237  1.00  0.00    -0.020 C 
BRANCH   9  10
ATOM     10  C   UNL     1      -5.242  -6.230   3.450  1.00  0.00    -0.010 CG0
ATOM     11  C   UNL     1      -4.238  -7.089   4.253  1.00  0.00     0.016 C 
ATOM     12  C   UNL     1      -6.382  -7.155   2.967  1.00  0.00     0.016 C 
ATOM     13  G   UNL     1      -5.867  -5.097   4.296  1.00  0.00     0.000 G0
ENDBRANCH   9  10
ENDBRANCH   3   8
TORSDOF 0
ENDMDL
MODEL 4
REMARK VINA RESULT:    -2.806     10.495     11.078
REMARK INTER + INTRA:          -2.717
REMARK INTER:                  -3.482
REMARK INTRA:                   0.765
REMARK UNBOUND:                 0.745
REMARK SMILES CC1=CC=CC(C)(C)CC1=O
REMARK SMILES IDX 1 1 2 2 3 3 10 4 11 5 9 6 4 8 5 9 6 10 7 11 8 12
REMARK H PARENT
REMARK Flexibility Score: 80.00
ROOT
ATOM      1  C   UNL     1      -3.816  -1.793   1.248  1.00  0.00     0.048 C 
ATOM      2  C   UNL     1      -3.703  -3.073   2.042  1.00  0.00    -0.008 C 
ATOM      3  C   UNL     1      -2.762  -3.128   3.009  1.00  0.00     0.007 C 
ENDROOT
BRANCH   2   4
ATOM      4  C   UNL     1      -4.690  -4.141   1.746  1.00  0.00     0.159 C 
ATOM      5  O   UNL     1      -5.667  -3.875   0.994  1.00  0.00    -0.295 OA
BRANCH   4   6
ATOM      6  C   UNL     1      -4.582  -5.536   2.280  1.00  0.00     0.091 CG0
ATOM      7  G   UNL     1      -4.560  -5.596   3.825  1.00  0.00     0.000 G0
ENDBRANCH   4   6
ENDBRANCH   2   4
BRANCH   3   8
ATOM      8  C   UNL     1      -2.433  -4.220   3.955  1.00  0.00    -0.003 C 
ATOM      9  C   UNL     1      -3.179  -5.269   4.326  1.00  0.00    -0.020 C 
BRANCH   9  10
ATOM     10  C   UNL     1      -4.563  -5.608   3.826  1.00  0.00    -0.010 CG0
ATOM     11  C   UNL     1      -5.605  -4.676   4.487  1.00  0.00     0.016 C 
ATOM     12  C   UNL     1      -4.888  -7.059   4.243  1.00  0.00     0.016 C 
ATOM     13  G   UNL     1      -4.591  -5.533   2.282  1.00  0.00     0.000 G0
ENDBRANCH   9  10
ENDBRANCH   3   8
TORSDOF 0
ENDMDL
MODEL 5
REMARK VINA RESULT:    -2.758     10.713     11.784
REMARK INTER + INTRA:          -2.657
REMARK INTER:                  -3.412
REMARK INTRA:                   0.755
REMARK UNBOUND:                 0.745
REMARK SMILES CC1=CC=CC(C)(C)CC1=O
REMARK SMILES IDX 1 1 2 2 3 3 10 4 11 5 9 6 4 8 5 9 6 10 7 11 8 12
REMARK H PARENT
REMARK Flexibility Score: 80.00
ROOT
ATOM      1  C   UNL     1      -5.937  -4.130   6.407  1.00  0.00     0.048 C 
ATOM      2  C   UNL     1      -5.078  -4.538   5.234  1.00  0.00    -0.008 C 
ATOM      3  C   UNL     1      -5.542  -5.520   4.431  1.00  0.00     0.007 C 
ENDROOT
BRANCH   2   4
ATOM      4  C   UNL     1      -3.826  -3.773   5.015  1.00  0.00     0.159 C 
ATOM      5  O   UNL     1      -3.631  -2.721   5.683  1.00  0.00    -0.295 OA
BRANCH   4   6
ATOM      6  C   UNL     1      -2.761  -4.190   4.048  1.00  0.00     0.091 CG0
ATOM      7  G   UNL     1      -3.271  -4.302   2.593  1.00  0.00     0.000 G0
ENDBRANCH   4   6
ENDBRANCH   2   4
BRANCH   3   8
ATOM      8  C   UNL     1      -4.947  -6.109   3.208  1.00  0.00    -0.003 C 
ATOM      9  C   UNL     1      -3.997  -5.610   2.407  1.00  0.00    -0.020 C 
BRANCH   9  10
ATOM     10  C   UNL     1      -3.269  -4.299   2.587  1.00  0.00    -0.010 CG0
ATOM     11  C   UNL     1      -4.184  -3.125   2.170  1.00  0.00     0.016 C 
ATOM     12  C   UNL     1      -2.036  -4.297   1.655  1.00  0.00     0.016 C 
ATOM     13  G   UNL     1      -2.770  -4.177   4.045  1.00  0.00     0.000 G0
ENDBRANCH   9  10
ENDBRANCH   3   8
TORSDOF 0
ENDMDL
MODEL 6
REMARK VINA RESULT:    -2.745      1.497      2.117
REMARK INTER + INTRA:          -2.642
REMARK INTER:                  -3.688
REMARK INTRA:                   1.046
REMARK UNBOUND:                 0.745
REMARK SMILES CC1=CC=CC(C)(C)CC1=O
REMARK SMILES IDX 1 1 2 2 3 3 10 4 11 5 9 6 4 8 5 9 6 10 7 11 8 12
REMARK H PARENT
REMARK Flexibility Score: 80.00
ROOT
ATOM      1  C   UNL     1       4.913  -4.273  -3.569  1.00  0.00     0.048 C 
ATOM      2  C   UNL     1       4.088  -5.513  -3.818  1.00  0.00    -0.008 C 
ATOM      3  C   UNL     1       4.610  -6.698  -3.436  1.00  0.00     0.007 C 
ENDROOT
BRANCH   2   4
ATOM      4  C   UNL     1       2.734  -5.319  -4.395  1.00  0.00     0.159 C 
ATOM      5  O   UNL     1       2.456  -4.214  -4.936  1.00  0.00    -0.295 OA
BRANCH   4   6
ATOM      6  C   UNL     1       1.674  -6.376  -4.386  1.00  0.00     0.091 CG0
ATOM      7  G   UNL     1       2.096  -7.669  -5.121  1.00  0.00     0.000 G0
ENDBRANCH   4   6
ENDBRANCH   2   4
BRANCH   3   8
ATOM      8  C   UNL     1       4.037  -8.062  -3.524  1.00  0.00    -0.003 C 
ATOM      9  C   UNL     1       2.970  -8.487  -4.214  1.00  0.00    -0.020 C 
BRANCH   9  10
ATOM     10  C   UNL     1       2.092  -7.651  -5.113  1.00  0.00    -0.010 CG0
ATOM     11  C   UNL     1       0.879  -8.483  -5.590  1.00  0.00     0.016 C 
ATOM     12  C   UNL     1       2.915  -7.251  -6.359  1.00  0.00     0.016 C 
ATOM     13  G   UNL     1       1.675  -6.357  -4.377  1.00  0.00     0.000 G0
ENDBRANCH   9  10
ENDBRANCH   3   8
TORSDOF 0
ENDMDL
MODEL 7
REMARK VINA RESULT:    -2.623      1.931      3.150
REMARK INTER + INTRA:          -2.491
REMARK INTER:                  -3.250
REMARK INTRA:                   0.759
REMARK UNBOUND:                 0.745
REMARK SMILES CC1=CC=CC(C)(C)CC1=O
REMARK SMILES IDX 1 1 2 2 3 3 10 4 11 5 9 6 4 8 5 9 6 10 7 11 8 12
REMARK H PARENT
REMARK Flexibility Score: 80.00
ROOT
ATOM      1  C   UNL     1       5.441  -6.348  -2.743  1.00  0.00     0.048 C 
ATOM      2  C   UNL     1       4.177  -6.253  -3.563  1.00  0.00    -0.008 C 
ATOM      3  C   UNL     1       3.823  -5.036  -4.029  1.00  0.00     0.007 C 
ENDROOT
BRANCH   2   4
ATOM      4  C   UNL     1       3.464  -7.522  -3.854  1.00  0.00     0.159 C 
ATOM      5  O   UNL     1       4.038  -8.615  -3.595  1.00  0.00    -0.295 OA
BRANCH   4   6
ATOM      6  C   UNL     1       2.083  -7.580  -4.430  1.00  0.00     0.091 CG0
ATOM      7  G   UNL     1       1.972  -6.905  -5.816  1.00  0.00     0.000 G0
ENDBRANCH   4   6
ENDBRANCH   2   4
BRANCH   3   8
ATOM      8  C   UNL     1       2.670  -4.638  -4.870  1.00  0.00    -0.003 C 
ATOM      9  C   UNL     1       1.883  -5.401  -5.640  1.00  0.00    -0.020 C 
BRANCH   9  10
ATOM     10  C   UNL     1       1.977  -6.899  -5.813  1.00  0.00    -0.010 CG0
ATOM     11  C   UNL     1       3.162  -7.250  -6.742  1.00  0.00     0.016 C 
ATOM     12  C   UNL     1       0.678  -7.390  -6.490  1.00  0.00     0.016 C 
ATOM     13  G   UNL     1       2.084  -7.576  -4.428  1.00  0.00     0.000 G0
ENDBRANCH   9  10
ENDBRANCH   3   8
TORSDOF 0
ENDMDL
MODEL 8
REMARK VINA RESULT:    -2.591     11.183     12.135
REMARK INTER + INTRA:          -2.451
REMARK INTER:                  -3.516
REMARK INTRA:                   1.064
REMARK UNBOUND:                 0.745
REMARK SMILES CC1=CC=CC(C)(C)CC1=O
REMARK SMILES IDX 1 1 2 2 3 3 10 4 11 5 9 6 4 8 5 9 6 10 7 11 8 12
REMARK H PARENT
REMARK Flexibility Score: 80.00
ROOT
ATOM      1  C   UNL     1      -2.387  -3.440   4.282  1.00  0.00     0.048 C 
ATOM      2  C   UNL     1      -3.770  -4.023   4.115  1.00  0.00    -0.008 C 
ATOM      3  C   UNL     1      -4.542  -4.129   5.217  1.00  0.00     0.007 C 
ENDROOT
BRANCH   2   4
ATOM      4  C   UNL     1      -4.197  -4.362   2.734  1.00  0.00     0.159 C 
ATOM      5  O   UNL     1      -3.322  -4.436   1.828  1.00  0.00    -0.295 OA
BRANCH   4   6
ATOM      6  C   UNL     1      -5.618  -4.639   2.354  1.00  0.00     0.091 CG0
ATOM      7  G   UNL     1      -6.233  -5.830   3.125  1.00  0.00     0.000 G0
ENDBRANCH   4   6
ENDBRANCH   2   4
BRANCH   3   8
ATOM      8  C   UNL     1      -5.929  -4.629   5.362  1.00  0.00    -0.003 C 
ATOM      9  C   UNL     1      -6.669  -5.331   4.493  1.00  0.00    -0.020 C 
BRANCH   9  10
ATOM     10  C   UNL     1      -6.234  -5.815   3.131  1.00  0.00    -0.010 CG0
ATOM     11  C   UNL     1      -7.428  -6.470   2.398  1.00  0.00     0.016 C 
ATOM     12  C   UNL     1      -5.144  -6.893   3.324  1.00  0.00     0.016 C 
ATOM     13  G   UNL     1      -5.616  -4.643   2.335  1.00  0.00     0.000 G0
ENDBRANCH   9  10
ENDBRANCH   3   8
TORSDOF 0
ENDMDL
MODEL 9
REMARK VINA RESULT:    -2.506     11.412     12.429
REMARK INTER + INTRA:          -2.346
REMARK INTER:                  -3.112
REMARK INTRA:                   0.766
REMARK UNBOUND:                 0.745
REMARK SMILES CC1=CC=CC(C)(C)CC1=O
REMARK SMILES IDX 1 1 2 2 3 3 10 4 11 5 9 6 4 8 5 9 6 10 7 11 8 12
REMARK H PARENT
REMARK Flexibility Score: 80.00
ROOT
ATOM      1  C   UNL     1      -2.894  -5.353   4.622  1.00  0.00     0.048 C 
ATOM      2  C   UNL     1      -4.134  -5.671   3.820  1.00  0.00    -0.008 C 
ATOM      3  C   UNL     1      -4.674  -6.900   3.964  1.00  0.00     0.007 C 
ENDROOT
BRANCH   2   4
ATOM      4  C   UNL     1      -4.705  -4.576   2.996  1.00  0.00     0.159 C 
ATOM      5  O   UNL     1      -4.251  -3.408   3.139  1.00  0.00    -0.295 OA
BRANCH   4   6
ATOM      6  C   UNL     1      -5.787  -4.784   1.982  1.00  0.00     0.091 CG0
ATOM      7  G   UNL     1      -7.080  -5.377   2.586  1.00  0.00     0.000 G0
ENDBRANCH   4   6
ENDBRANCH   2   4
BRANCH   3   8
ATOM      8  C   UNL     1      -5.883  -7.487   3.341  1.00  0.00    -0.003 C 
ATOM      9  C   UNL     1      -6.919  -6.867   2.760  1.00  0.00    -0.020 C 
BRANCH   9  10
ATOM     10  C   UNL     1      -7.085  -5.377   2.577  1.00  0.00    -0.010 CG0
ATOM     11  C   UNL     1      -7.482  -4.721   3.920  1.00  0.00     0.016 C 
ATOM     12  C   UNL     1      -8.233  -5.137   1.571  1.00  0.00     0.016 C 
ATOM     13  G   UNL     1      -5.791  -4.779   1.981  1.00  0.00     0.000 G0
ENDBRANCH   9  10
ENDBRANCH   3   8
TORSDOF 0
ENDMDL
