MODEL 1
REMARK VINA RESULT:    -6.084      0.000      0.000
REMARK INTER + INTRA:          -7.415
REMARK INTER:                  -7.151
REMARK INTRA:                  -0.263
REMARK UNBOUND:                -0.263
REMARK SMILES O=c1cc(-c2ccc(O)c(O)c2)oc2cc(O)cc(O)c12
REMARK SMILES IDX 4 1 3 2 2 3 1 4 21 5 19 6 18 7 16 8 15 9 14 10 13 11 5 12
REMARK SMILES IDX 6 13 7 14 8 15 12 16 10 17 9 18 11 20 20 22 17 24
REMARK H PARENT 9 19 11 21 20 23 17 25
REMARK Flexibility Score: inf
ROOT
ATOM      1  C   UNL     1      71.328  38.538  20.262  1.00  0.00     0.138 A 
ATOM      2  C   UNL     1      71.693  37.377  19.568  1.00  0.00     0.100 A 
ATOM      3  C   UNL     1      70.703  36.535  19.062  1.00  0.00     0.197 A 
ATOM      4  O   UNL     1      71.061  35.469  18.497  1.00  0.00    -0.289 OA
ATOM      5  C   UNL     1      69.338  36.875  19.226  1.00  0.00     0.107 A 
ATOM      6  C   UNL     1      68.244  36.113  18.717  1.00  0.00     0.134 A 
ATOM      7  C   UNL     1      66.934  36.487  19.042  1.00  0.00     0.093 A 
ATOM      8  C   UNL     1      66.678  37.628  19.806  1.00  0.00     0.123 A 
ATOM      9  C   UNL     1      67.738  38.408  20.262  1.00  0.00     0.094 A 
ATOM     10  C   UNL     1      69.057  38.043  19.983  1.00  0.00     0.146 A 
ATOM     11  O   UNL     1      70.040  38.807  20.451  1.00  0.00    -0.456 OA
ENDROOT
BRANCH   1  12
ATOM     12  C   UNL     1      72.341  39.470  20.820  1.00  0.00     0.021 A 
ATOM     13  C   UNL     1      72.525  40.763  20.296  1.00  0.00     0.016 A 
ATOM     14  C   UNL     1      73.478  41.623  20.848  1.00  0.00     0.051 A 
ATOM     15  C   UNL     1      74.257  41.209  21.935  1.00  0.00     0.157 A 
ATOM     16  C   UNL     1      73.118  39.068  21.922  1.00  0.00     0.062 A 
ATOM     17  C   UNL     1      74.076  39.930  22.475  1.00  0.00     0.158 A 
BRANCH  15  18
ATOM     18  O   UNL     1      75.209  42.064  22.488  1.00  0.00    -0.504 OA
ATOM     19  H   UNL     1      75.075  42.490  23.398  1.00  0.00     0.293 HD
ENDBRANCH  15  18
BRANCH  17  20
ATOM     20  O   UNL     1      74.850  39.524  23.560  1.00  0.00    -0.504 OA
ATOM     21  H   UNL     1      75.783  39.148  23.434  1.00  0.00     0.293 HD
ENDBRANCH  17  20
ENDBRANCH   1  12
BRANCH   6  22
ATOM     22  O   UNL     1      68.388  35.007  17.875  1.00  0.00    -0.507 OA
ATOM     23  H   UNL     1      68.736  35.042  16.930  1.00  0.00     0.293 HD
ENDBRANCH   6  22
BRANCH   8  24
ATOM     24  O   UNL     1      65.371  38.000  20.111  1.00  0.00    -0.508 OA
ATOM     25  H   UNL     1      65.003  38.907  19.847  1.00  0.00     0.293 HD
ENDBRANCH   8  24
TORSDOF 5
ENDMDL
MODEL 2
REMARK VINA RESULT:    -5.768      1.242      1.506
REMARK INTER + INTRA:          -7.043
REMARK INTER:                  -6.775
REMARK INTRA:                  -0.268
REMARK UNBOUND:                -0.263
REMARK SMILES O=c1cc(-c2ccc(O)c(O)c2)oc2cc(O)cc(O)c12
REMARK SMILES IDX 4 1 3 2 2 3 1 4 21 5 19 6 18 7 16 8 15 9 14 10 13 11 5 12
REMARK SMILES IDX 6 13 7 14 8 15 12 16 10 17 9 18 11 20 20 22 17 24
REMARK H PARENT 9 19 11 21 20 23 17 25
REMARK Flexibility Score: inf
ROOT
ATOM      1  C   UNL     1      72.723  38.911  20.519  1.00  0.00     0.138 A 
ATOM      2  C   UNL     1      73.005  37.868  19.627  1.00  0.00     0.100 A 
ATOM      3  C   UNL     1      71.960  37.105  19.104  1.00  0.00     0.197 A 
ATOM      4  O   UNL     1      72.249  36.137  18.354  1.00  0.00    -0.289 OA
ATOM      5  C   UNL     1      70.623  37.411  19.452  1.00  0.00     0.107 A 
ATOM      6  C   UNL     1      69.475  36.728  18.948  1.00  0.00     0.134 A 
ATOM      7  C   UNL     1      68.208  37.044  19.455  1.00  0.00     0.093 A 
ATOM      8  C   UNL     1      68.041  38.057  20.402  1.00  0.00     0.123 A 
ATOM      9  C   UNL     1      69.150  38.765  20.859  1.00  0.00     0.094 A 
ATOM     10  C   UNL     1      70.431  38.452  20.399  1.00  0.00     0.146 A 
ATOM     11  O   UNL     1      71.463  39.142  20.874  1.00  0.00    -0.456 OA
ENDROOT
BRANCH   1  12
ATOM     12  C   UNL     1      73.796  39.753  21.105  1.00  0.00     0.021 A 
ATOM     13  C   UNL     1      74.413  40.784  20.370  1.00  0.00     0.016 A 
ATOM     14  C   UNL     1      75.412  41.568  20.950  1.00  0.00     0.051 A 
ATOM     15  C   UNL     1      75.808  41.343  22.274  1.00  0.00     0.157 A 
ATOM     16  C   UNL     1      74.191  39.543  22.439  1.00  0.00     0.062 A 
ATOM     17  C   UNL     1      75.195  40.330  23.021  1.00  0.00     0.158 A 
BRANCH  15  18
ATOM     18  O   UNL     1      76.806  42.123  22.855  1.00  0.00    -0.504 OA
ATOM     19  H   UNL     1      77.738  42.173  22.461  1.00  0.00     0.293 HD
ENDBRANCH  15  18
BRANCH  17  20
ATOM     20  O   UNL     1      75.589  40.112  24.340  1.00  0.00    -0.504 OA
ATOM     21  H   UNL     1      75.209  40.660  25.103  1.00  0.00     0.293 HD
ENDBRANCH  17  20
ENDBRANCH   1  12
BRANCH   6  22
ATOM     22  O   UNL     1      69.523  35.760  17.941  1.00  0.00    -0.507 OA
ATOM     23  H   UNL     1      68.960  34.924  17.917  1.00  0.00     0.293 HD
ENDBRANCH   6  22
BRANCH   8  24
ATOM     24  O   UNL     1      66.775  38.374  20.887  1.00  0.00    -0.508 OA
ATOM     25  H   UNL     1      66.339  37.832  21.624  1.00  0.00     0.293 HD
ENDBRANCH   8  24
TORSDOF 5
ENDMDL
MODEL 3
REMARK VINA RESULT:    -5.576      1.485      2.876
REMARK INTER + INTRA:          -6.817
REMARK INTER:                  -6.540
REMARK INTRA:                  -0.277
REMARK UNBOUND:                -0.263
REMARK SMILES O=c1cc(-c2ccc(O)c(O)c2)oc2cc(O)cc(O)c12
REMARK SMILES IDX 4 1 3 2 2 3 1 4 21 5 19 6 18 7 16 8 15 9 14 10 13 11 5 12
REMARK SMILES IDX 6 13 7 14 8 15 12 16 10 17 9 18 11 20 20 22 17 24
REMARK H PARENT 9 19 11 21 20 23 17 25
REMARK Flexibility Score: inf
ROOT
ATOM      1  C   UNL     1      70.353  39.907  20.319  1.00  0.00     0.138 A 
ATOM      2  C   UNL     1      69.361  40.892  20.237  1.00  0.00     0.100 A 
ATOM      3  C   UNL     1      68.069  40.539  19.845  1.00  0.00     0.197 A 
ATOM      4  O   UNL     1      67.214  41.455  19.722  1.00  0.00    -0.289 OA
ATOM      5  C   UNL     1      67.763  39.186  19.564  1.00  0.00     0.107 A 
ATOM      6  C   UNL     1      66.472  38.704  19.195  1.00  0.00     0.134 A 
ATOM      7  C   UNL     1      66.316  37.362  18.828  1.00  0.00     0.093 A 
ATOM      8  C   UNL     1      67.392  36.472  18.873  1.00  0.00     0.123 A 
ATOM      9  C   UNL     1      68.644  36.921  19.284  1.00  0.00     0.094 A 
ATOM     10  C   UNL     1      68.840  38.262  19.624  1.00  0.00     0.146 A 
ATOM     11  O   UNL     1      70.055  38.652  19.996  1.00  0.00    -0.456 OA
ENDROOT
BRANCH   1  12
ATOM     12  C   UNL     1      71.744  40.227  20.731  1.00  0.00     0.021 A 
ATOM     13  C   UNL     1      72.534  41.148  20.017  1.00  0.00     0.016 A 
ATOM     14  C   UNL     1      73.835  41.438  20.433  1.00  0.00     0.051 A 
ATOM     15  C   UNL     1      74.367  40.821  21.571  1.00  0.00     0.157 A 
ATOM     16  C   UNL     1      72.282  39.621  21.881  1.00  0.00     0.062 A 
ATOM     17  C   UNL     1      73.589  39.912  22.298  1.00  0.00     0.158 A 
BRANCH  15  18
ATOM     18  O   UNL     1      75.666  41.108  21.989  1.00  0.00    -0.504 OA
ATOM     19  H   UNL     1      76.315  41.610  21.394  1.00  0.00     0.293 HD
ENDBRANCH  15  18
BRANCH  17  20
ATOM     20  O   UNL     1      74.121  39.303  23.433  1.00  0.00    -0.504 OA
ATOM     21  H   UNL     1      74.960  38.737  23.386  1.00  0.00     0.293 HD
ENDBRANCH  17  20
ENDBRANCH   1  12
BRANCH   6  22
ATOM     22  O   UNL     1      65.315  39.489  19.199  1.00  0.00    -0.507 OA
ATOM     23  H   UNL     1      65.277  40.459  19.469  1.00  0.00     0.293 HD
ENDBRANCH   6  22
BRANCH   8  24
ATOM     24  O   UNL     1      67.224  35.135  18.521  1.00  0.00    -0.508 OA
ATOM     25  H   UNL     1      66.784  34.472  19.149  1.00  0.00     0.293 HD
ENDBRANCH   8  24
TORSDOF 5
ENDMDL
MODEL 4
REMARK VINA RESULT:    -5.571      1.041      1.530
REMARK INTER + INTRA:          -6.811
REMARK INTER:                  -6.547
REMARK INTRA:                  -0.264
REMARK UNBOUND:                -0.263
REMARK SMILES O=c1cc(-c2ccc(O)c(O)c2)oc2cc(O)cc(O)c12
REMARK SMILES IDX 4 1 3 2 2 3 1 4 21 5 19 6 18 7 16 8 15 9 14 10 13 11 5 12
REMARK SMILES IDX 6 13 7 14 8 15 12 16 10 17 9 18 11 20 20 22 17 24
REMARK H PARENT 9 19 11 21 20 23 17 25
REMARK Flexibility Score: inf
ROOT
ATOM      1  C   UNL     1      71.547  38.207  20.052  1.00  0.00     0.138 A 
ATOM      2  C   UNL     1      71.747  36.968  19.431  1.00  0.00     0.100 A 
ATOM      3  C   UNL     1      70.648  36.239  18.975  1.00  0.00     0.197 A 
ATOM      4  O   UNL     1      70.854  35.102  18.476  1.00  0.00    -0.289 OA
ATOM      5  C   UNL     1      69.344  36.770  19.115  1.00  0.00     0.107 A 
ATOM      6  C   UNL     1      68.153  36.135  18.652  1.00  0.00     0.134 A 
ATOM      7  C   UNL     1      66.908  36.703  18.951  1.00  0.00     0.093 A 
ATOM      8  C   UNL     1      66.814  37.912  19.645  1.00  0.00     0.123 A 
ATOM      9  C   UNL     1      67.973  38.566  20.054  1.00  0.00     0.094 A 
ATOM     10  C   UNL     1      69.228  38.009  19.800  1.00  0.00     0.146 A 
ATOM     11  O   UNL     1      70.309  38.659  20.222  1.00  0.00    -0.456 OA
ENDROOT
BRANCH   1  12
ATOM     12  C   UNL     1      72.681  39.024  20.555  1.00  0.00     0.021 A 
ATOM     13  C   UNL     1      72.931  39.174  21.933  1.00  0.00     0.016 A 
ATOM     14  C   UNL     1      74.011  39.939  22.378  1.00  0.00     0.051 A 
ATOM     15  C   UNL     1      74.863  40.561  21.458  1.00  0.00     0.157 A 
ATOM     16  C   UNL     1      73.550  39.641  19.638  1.00  0.00     0.062 A 
ATOM     17  C   UNL     1      74.634  40.411  20.085  1.00  0.00     0.158 A 
BRANCH  15  18
ATOM     18  O   UNL     1      75.942  41.327  21.898  1.00  0.00    -0.504 OA
ATOM     19  H   UNL     1      76.124  42.251  21.523  1.00  0.00     0.293 HD
ENDBRANCH  15  18
BRANCH  17  20
ATOM     20  O   UNL     1      75.487  41.028  19.172  1.00  0.00    -0.504 OA
ATOM     21  H   UNL     1      75.683  42.021  19.218  1.00  0.00     0.293 HD
ENDBRANCH  17  20
ENDBRANCH   1  12
BRANCH   6  22
ATOM     22  O   UNL     1      68.139  34.971  17.879  1.00  0.00    -0.507 OA
ATOM     23  H   UNL     1      68.422  34.060  18.202  1.00  0.00     0.293 HD
ENDBRANCH   6  22
BRANCH   8  24
ATOM     24  O   UNL     1      65.571  38.476  19.924  1.00  0.00    -0.508 OA
ATOM     25  H   UNL     1      64.784  38.360  19.297  1.00  0.00     0.293 HD
ENDBRANCH   8  24
TORSDOF 5
ENDMDL
MODEL 5
REMARK VINA RESULT:    -5.203      1.348      2.934
REMARK INTER + INTRA:          -6.378
REMARK INTER:                  -6.114
REMARK INTRA:                  -0.264
REMARK UNBOUND:                -0.263
REMARK SMILES O=c1cc(-c2ccc(O)c(O)c2)oc2cc(O)cc(O)c12
REMARK SMILES IDX 4 1 3 2 2 3 1 4 21 5 19 6 18 7 16 8 15 9 14 10 13 11 5 12
REMARK SMILES IDX 6 13 7 14 8 15 12 16 10 17 9 18 11 20 20 22 17 24
REMARK H PARENT 9 19 11 21 20 23 17 25
REMARK Flexibility Score: inf
ROOT
ATOM      1  C   UNL     1      71.829  39.732  21.222  1.00  0.00     0.138 A 
ATOM      2  C   UNL     1      70.622  40.276  21.680  1.00  0.00     0.100 A 
ATOM      3  C   UNL     1      69.413  39.683  21.312  1.00  0.00     0.197 A 
ATOM      4  O   UNL     1      68.344  40.230  21.688  1.00  0.00    -0.289 OA
ATOM      5  C   UNL     1      69.417  38.519  20.506  1.00  0.00     0.107 A 
ATOM      6  C   UNL     1      68.249  37.805  20.103  1.00  0.00     0.134 A 
ATOM      7  C   UNL     1      68.370  36.734  19.209  1.00  0.00     0.093 A 
ATOM      8  C   UNL     1      69.622  36.314  18.752  1.00  0.00     0.123 A 
ATOM      9  C   UNL     1      70.772  36.970  19.183  1.00  0.00     0.094 A 
ATOM     10  C   UNL     1      70.682  38.064  20.047  1.00  0.00     0.146 A 
ATOM     11  O   UNL     1      71.804  38.671  20.421  1.00  0.00    -0.456 OA
ENDROOT
BRANCH   1  12
ATOM     12  C   UNL     1      73.142  40.323  21.583  1.00  0.00     0.021 A 
ATOM     13  C   UNL     1      73.697  41.394  20.856  1.00  0.00     0.016 A 
ATOM     14  C   UNL     1      74.930  41.938  21.224  1.00  0.00     0.051 A 
ATOM     15  C   UNL     1      75.625  41.429  22.327  1.00  0.00     0.157 A 
ATOM     16  C   UNL     1      73.842  39.827  22.698  1.00  0.00     0.062 A 
ATOM     17  C   UNL     1      75.080  40.373  23.068  1.00  0.00     0.158 A 
BRANCH  15  18
ATOM     18  O   UNL     1      76.856  41.969  22.698  1.00  0.00    -0.504 OA
ATOM     19  H   UNL     1      77.552  42.224  22.007  1.00  0.00     0.293 HD
ENDBRANCH  15  18
BRANCH  17  20
ATOM     20  O   UNL     1      75.773  39.872  24.168  1.00  0.00    -0.504 OA
ATOM     21  H   UNL     1      76.747  40.103  24.330  1.00  0.00     0.293 HD
ENDBRANCH  17  20
ENDBRANCH   1  12
BRANCH   6  22
ATOM     22  O   UNL     1      66.962  38.089  20.568  1.00  0.00    -0.507 OA
ATOM     23  H   UNL     1      66.131  37.578  20.315  1.00  0.00     0.293 HD
ENDBRANCH   6  22
BRANCH   8  24
ATOM     24  O   UNL     1      69.733  35.237  17.875  1.00  0.00    -0.508 OA
ATOM     25  H   UNL     1      70.408  34.497  18.028  1.00  0.00     0.293 HD
ENDBRANCH   8  24
TORSDOF 5
ENDMDL
MODEL 6
REMARK VINA RESULT:    -5.198      1.849      7.191
REMARK INTER + INTRA:          -6.373
REMARK INTER:                  -6.101
REMARK INTRA:                  -0.271
REMARK UNBOUND:                -0.263
REMARK SMILES O=c1cc(-c2ccc(O)c(O)c2)oc2cc(O)cc(O)c12
REMARK SMILES IDX 4 1 3 2 2 3 1 4 21 5 19 6 18 7 16 8 15 9 14 10 13 11 5 12
REMARK SMILES IDX 6 13 7 14 8 15 12 16 10 17 9 18 11 20 20 22 17 24
REMARK H PARENT 9 19 11 21 20 23 17 25
REMARK Flexibility Score: inf
ROOT
ATOM      1  C   UNL     1      71.661  39.175  19.749  1.00  0.00     0.138 A 
ATOM      2  C   UNL     1      72.150  39.930  18.675  1.00  0.00     0.100 A 
ATOM      3  C   UNL     1      73.306  40.694  18.838  1.00  0.00     0.197 A 
ATOM      4  O   UNL     1      73.686  41.410  17.875  1.00  0.00    -0.289 OA
ATOM      5  C   UNL     1      73.993  40.676  20.076  1.00  0.00     0.107 A 
ATOM      6  C   UNL     1      75.203  41.383  20.344  1.00  0.00     0.134 A 
ATOM      7  C   UNL     1      75.728  41.382  21.643  1.00  0.00     0.093 A 
ATOM      8  C   UNL     1      75.120  40.652  22.666  1.00  0.00     0.123 A 
ATOM      9  C   UNL     1      73.968  39.915  22.400  1.00  0.00     0.094 A 
ATOM     10  C   UNL     1      73.401  39.923  21.124  1.00  0.00     0.146 A 
ATOM     11  O   UNL     1      72.293  39.218  20.917  1.00  0.00    -0.456 OA
ENDROOT
BRANCH   1  12
ATOM     12  C   UNL     1      70.436  38.344  19.629  1.00  0.00     0.021 A 
ATOM     13  C   UNL     1      70.421  37.152  18.880  1.00  0.00     0.016 A 
ATOM     14  C   UNL     1      69.257  36.383  18.794  1.00  0.00     0.051 A 
ATOM     15  C   UNL     1      68.093  36.787  19.458  1.00  0.00     0.157 A 
ATOM     16  C   UNL     1      69.266  38.735  20.304  1.00  0.00     0.062 A 
ATOM     17  C   UNL     1      68.097  37.964  20.217  1.00  0.00     0.158 A 
BRANCH  15  18
ATOM     18  O   UNL     1      66.930  36.024  19.374  1.00  0.00    -0.504 OA
ATOM     19  H   UNL     1      66.935  35.091  18.978  1.00  0.00     0.293 HD
ENDBRANCH  15  18
BRANCH  17  20
ATOM     20  O   UNL     1      66.937  38.361  20.880  1.00  0.00    -0.504 OA
ATOM     21  H   UNL     1      66.418  39.183  20.592  1.00  0.00     0.293 HD
ENDBRANCH  17  20
ENDBRANCH   1  12
BRANCH   6  22
ATOM     22  O   UNL     1      75.935  42.074  19.375  1.00  0.00    -0.507 OA
ATOM     23  H   UNL     1      76.009  43.077  19.313  1.00  0.00     0.293 HD
ENDBRANCH   6  22
BRANCH   8  24
ATOM     24  O   UNL     1      75.659  40.644  23.951  1.00  0.00    -0.508 OA
ATOM     25  H   UNL     1      75.091  40.850  24.765  1.00  0.00     0.293 HD
ENDBRANCH   8  24
TORSDOF 5
ENDMDL
MODEL 7
REMARK VINA RESULT:    -4.966      1.799      7.268
REMARK INTER + INTRA:          -6.101
REMARK INTER:                  -5.837
REMARK INTRA:                  -0.263
REMARK UNBOUND:                -0.263
REMARK SMILES O=c1cc(-c2ccc(O)c(O)c2)oc2cc(O)cc(O)c12
REMARK SMILES IDX 4 1 3 2 2 3 1 4 21 5 19 6 18 7 16 8 15 9 14 10 13 11 5 12
REMARK SMILES IDX 6 13 7 14 8 15 12 16 10 17 9 18 11 20 20 22 17 24
REMARK H PARENT 9 19 11 21 20 23 17 25
REMARK Flexibility Score: inf
ROOT
ATOM      1  C   UNL     1      71.851  39.303  20.020  1.00  0.00     0.138 A 
ATOM      2  C   UNL     1      72.364  40.034  18.940  1.00  0.00     0.100 A 
ATOM      3  C   UNL     1      73.531  40.781  19.105  1.00  0.00     0.197 A 
ATOM      4  O   UNL     1      73.934  41.475  18.136  1.00  0.00    -0.289 OA
ATOM      5  C   UNL     1      74.204  40.769  20.351  1.00  0.00     0.107 A 
ATOM      6  C   UNL     1      75.423  41.460  20.622  1.00  0.00     0.134 A 
ATOM      7  C   UNL     1      75.934  41.469  21.926  1.00  0.00     0.093 A 
ATOM      8  C   UNL     1      75.302  40.764  22.954  1.00  0.00     0.123 A 
ATOM      9  C   UNL     1      74.142  40.043  22.686  1.00  0.00     0.094 A 
ATOM     10  C   UNL     1      73.588  40.041  21.403  1.00  0.00     0.146 A 
ATOM     11  O   UNL     1      72.470  39.353  21.195  1.00  0.00    -0.456 OA
ENDROOT
BRANCH   1  12
ATOM     12  C   UNL     1      70.613  38.491  19.899  1.00  0.00     0.021 A 
ATOM     13  C   UNL     1      69.449  38.804  20.627  1.00  0.00     0.016 A 
ATOM     14  C   UNL     1      68.295  38.030  20.486  1.00  0.00     0.051 A 
ATOM     15  C   UNL     1      68.280  36.937  19.612  1.00  0.00     0.157 A 
ATOM     16  C   UNL     1      70.585  37.399  19.013  1.00  0.00     0.062 A 
ATOM     17  C   UNL     1      69.426  36.621  18.872  1.00  0.00     0.158 A 
BRANCH  15  18
ATOM     18  O   UNL     1      67.131  36.161  19.469  1.00  0.00    -0.504 OA
ATOM     19  H   UNL     1      66.758  35.928  18.556  1.00  0.00     0.293 HD
ENDBRANCH  15  18
BRANCH  17  20
ATOM     20  O   UNL     1      69.406  35.535  18.000  1.00  0.00    -0.504 OA
ATOM     21  H   UNL     1      69.400  34.580  18.342  1.00  0.00     0.293 HD
ENDBRANCH  17  20
ENDBRANCH   1  12
BRANCH   6  22
ATOM     22  O   UNL     1      76.178  42.123  19.651  1.00  0.00    -0.507 OA
ATOM     23  H   UNL     1      75.803  42.533  18.810  1.00  0.00     0.293 HD
ENDBRANCH   6  22
BRANCH   8  24
ATOM     24  O   UNL     1      75.827  40.766  24.244  1.00  0.00    -0.508 OA
ATOM     25  H   UNL     1      76.503  40.072  24.543  1.00  0.00     0.293 HD
ENDBRANCH   8  24
TORSDOF 5
ENDMDL
MODEL 8
REMARK VINA RESULT:    -4.901      2.179      7.615
REMARK INTER + INTRA:          -6.024
REMARK INTER:                  -5.750
REMARK INTRA:                  -0.274
REMARK UNBOUND:                -0.263
REMARK SMILES O=c1cc(-c2ccc(O)c(O)c2)oc2cc(O)cc(O)c12
REMARK SMILES IDX 4 1 3 2 2 3 1 4 21 5 19 6 18 7 16 8 15 9 14 10 13 11 5 12
REMARK SMILES IDX 6 13 7 14 8 15 12 16 10 17 9 18 11 20 20 22 17 24
REMARK H PARENT 9 19 11 21 20 23 17 25
REMARK Flexibility Score: inf
ROOT
ATOM      1  C   UNL     1      72.770  38.644  19.915  1.00  0.00     0.138 A 
ATOM      2  C   UNL     1      72.912  38.852  21.293  1.00  0.00     0.100 A 
ATOM      3  C   UNL     1      73.893  39.728  21.762  1.00  0.00     0.197 A 
ATOM      4  O   UNL     1      74.037  39.847  23.006  1.00  0.00    -0.289 OA
ATOM      5  C   UNL     1      74.714  40.421  20.841  1.00  0.00     0.107 A 
ATOM      6  C   UNL     1      75.719  41.368  21.202  1.00  0.00     0.134 A 
ATOM      7  C   UNL     1      76.549  41.905  20.209  1.00  0.00     0.093 A 
ATOM      8  C   UNL     1      76.371  41.574  18.864  1.00  0.00     0.123 A 
ATOM      9  C   UNL     1      75.358  40.692  18.497  1.00  0.00     0.094 A 
ATOM     10  C   UNL     1      74.535  40.114  19.466  1.00  0.00     0.146 A 
ATOM     11  O   UNL     1      73.591  39.265  19.073  1.00  0.00    -0.456 OA
ENDROOT
BRANCH   1  12
ATOM     12  C   UNL     1      71.743  37.724  19.363  1.00  0.00     0.021 A 
ATOM     13  C   UNL     1      72.067  36.742  18.407  1.00  0.00     0.016 A 
ATOM     14  C   UNL     1      71.083  35.883  17.913  1.00  0.00     0.051 A 
ATOM     15  C   UNL     1      69.763  35.984  18.367  1.00  0.00     0.157 A 
ATOM     16  C   UNL     1      70.417  37.810  19.824  1.00  0.00     0.062 A 
ATOM     17  C   UNL     1      69.428  36.948  19.326  1.00  0.00     0.158 A 
BRANCH  15  18
ATOM     18  O   UNL     1      68.778  35.129  17.875  1.00  0.00    -0.504 OA
ATOM     19  H   UNL     1      68.986  34.168  17.627  1.00  0.00     0.293 HD
ENDBRANCH  15  18
BRANCH  17  20
ATOM     20  O   UNL     1      68.114  37.043  19.780  1.00  0.00    -0.504 OA
ATOM     21  H   UNL     1      67.894  37.035  20.769  1.00  0.00     0.293 HD
ENDBRANCH  17  20
ENDBRANCH   1  12
BRANCH   6  22
ATOM     22  O   UNL     1      75.924  41.831  22.505  1.00  0.00    -0.507 OA
ATOM     23  H   UNL     1      75.222  42.272  23.078  1.00  0.00     0.293 HD
ENDBRANCH   6  22
BRANCH   8  24
ATOM     24  O   UNL     1      77.191  42.125  17.882  1.00  0.00    -0.508 OA
ATOM     25  H   UNL     1      77.234  43.126  17.728  1.00  0.00     0.293 HD
ENDBRANCH   8  24
TORSDOF 5
ENDMDL
