MODEL 1
REMARK VINA RESULT:    -5.280      0.000      0.000
REMARK INTER + INTRA:          -6.359
REMARK INTER:                  -6.051
REMARK INTRA:                  -0.308
REMARK UNBOUND:                -0.308
REMARK SMILES O=C1C[C@@H](c2ccc(O)cc2)Oc2cc(O)cc(O)c21
REMARK SMILES IDX 3 1 4 2 12 3 13 4 14 5 15 6 17 7 18 8 20 9 2 10 1 11 5 12
REMARK SMILES IDX 6 13 11 14 7 15 10 16 8 17 9 18 19 20 16 22
REMARK H PARENT 9 19 19 21 16 23
REMARK Flexibility Score: inf
ROOT
ATOM      1  C   UNL     1      -1.733  -2.529  -9.398  1.00  0.00     0.131 C 
ATOM      2  C   UNL     1      -1.788  -1.171 -10.113  1.00  0.00     0.211 C 
ATOM      3  O   UNL     1      -0.568  -0.448  -9.915  1.00  0.00    -0.484 OA
ATOM      4  C   UNL     1       0.689  -1.069  -9.922  1.00  0.00     0.138 A 
ATOM      5  C   UNL     1       1.835  -0.276 -10.001  1.00  0.00     0.093 A 
ATOM      6  C   UNL     1       3.101  -0.868 -10.024  1.00  0.00     0.123 A 
ATOM      7  C   UNL     1       3.220  -2.256  -9.939  1.00  0.00     0.093 A 
ATOM      8  C   UNL     1       2.086  -3.068  -9.818  1.00  0.00     0.133 A 
ATOM      9  C   UNL     1       0.796  -2.475  -9.842  1.00  0.00     0.102 A 
ATOM     10  C   UNL     1      -0.474  -3.241  -9.792  1.00  0.00     0.174 C 
ATOM     11  O   UNL     1      -0.529  -4.454 -10.125  1.00  0.00    -0.294 OA
ENDROOT
BRANCH   2  12
ATOM     12  C   UNL     1      -2.958  -0.355  -9.621  1.00  0.00    -0.007 A 
ATOM     13  C   UNL     1      -4.072  -0.983  -9.036  1.00  0.00     0.011 A 
ATOM     14  C   UNL     1      -2.970   1.040  -9.794  1.00  0.00     0.011 A 
ATOM     15  C   UNL     1      -5.166  -0.225  -8.610  1.00  0.00     0.046 A 
ATOM     16  C   UNL     1      -4.066   1.795  -9.367  1.00  0.00     0.046 A 
ATOM     17  C   UNL     1      -5.166   1.167  -8.774  1.00  0.00     0.115 A 
BRANCH  17  18
ATOM     18  O   UNL     1      -6.250   1.933  -8.353  1.00  0.00    -0.508 OA
ATOM     19  H   UNL     1      -6.801   1.671  -7.543  1.00  0.00     0.293 HD
ENDBRANCH  17  18
ENDBRANCH   2  12
BRANCH   8  20
ATOM     20  O   UNL     1       2.293  -4.438  -9.644  1.00  0.00    -0.507 OA
ATOM     21  H   UNL     1       3.187  -4.893  -9.757  1.00  0.00     0.293 HD
ENDBRANCH   8  20
BRANCH   6  22
ATOM     22  O   UNL     1       4.249  -0.084 -10.125  1.00  0.00    -0.508 OA
ATOM     23  H   UNL     1       5.159  -0.442  -9.861  1.00  0.00     0.293 HD
ENDBRANCH   6  22
TORSDOF 4
ENDMDL
MODEL 2
REMARK VINA RESULT:    -5.009      1.961      3.081
REMARK INTER + INTRA:          -6.049
REMARK INTER:                  -5.750
REMARK INTRA:                  -0.300
REMARK UNBOUND:                -0.308
REMARK SMILES O=C1C[C@@H](c2ccc(O)cc2)Oc2cc(O)cc(O)c21
REMARK SMILES IDX 3 1 4 2 12 3 13 4 14 5 15 6 17 7 18 8 20 9 2 10 1 11 5 12
REMARK SMILES IDX 6 13 11 14 7 15 10 16 8 17 9 18 19 20 16 22
REMARK H PARENT 9 19 19 21 16 23
REMARK Flexibility Score: inf
ROOT
ATOM      1  C   UNL     1      -3.975  -1.512  -8.731  1.00  0.00     0.131 C 
ATOM      2  C   UNL     1      -4.309  -0.122  -9.293  1.00  0.00     0.211 C 
ATOM      3  O   UNL     1      -3.169   0.739  -9.215  1.00  0.00    -0.484 OA
ATOM      4  C   UNL     1      -1.865   0.295  -9.475  1.00  0.00     0.138 A 
ATOM      5  C   UNL     1      -0.851   1.237  -9.652  1.00  0.00     0.093 A 
ATOM      6  C   UNL     1       0.456   0.824  -9.926  1.00  0.00     0.123 A 
ATOM      7  C   UNL     1       0.752  -0.538  -9.996  1.00  0.00     0.093 A 
ATOM      8  C   UNL     1      -0.241  -1.502  -9.782  1.00  0.00     0.133 A 
ATOM      9  C   UNL     1      -1.579  -1.087  -9.550  1.00  0.00     0.102 A 
ATOM     10  C   UNL     1      -2.722  -2.017  -9.381  1.00  0.00     0.174 C 
ATOM     11  O   UNL     1      -2.686  -3.197  -9.818  1.00  0.00    -0.294 OA
ENDROOT
BRANCH   2  12
ATOM     12  C   UNL     1      -5.471   0.489  -8.551  1.00  0.00    -0.007 A 
ATOM     13  C   UNL     1      -5.915   1.786  -8.862  1.00  0.00     0.011 A 
ATOM     14  C   UNL     1      -6.087  -0.212  -7.499  1.00  0.00     0.011 A 
ATOM     15  C   UNL     1      -6.973   2.360  -8.150  1.00  0.00     0.046 A 
ATOM     16  C   UNL     1      -7.144   0.365  -6.790  1.00  0.00     0.046 A 
ATOM     17  C   UNL     1      -7.591   1.650  -7.112  1.00  0.00     0.115 A 
BRANCH  17  18
ATOM     18  O   UNL     1      -8.646   2.211  -6.396  1.00  0.00    -0.508 OA
ATOM     19  H   UNL     1      -9.525   1.720  -6.276  1.00  0.00     0.293 HD
ENDBRANCH  17  18
ENDBRANCH   2  12
BRANCH   8  20
ATOM     20  O   UNL     1       0.155  -2.842  -9.776  1.00  0.00    -0.507 OA
ATOM     21  H   UNL     1      -0.436  -3.603  -9.476  1.00  0.00     0.293 HD
ENDBRANCH   8  20
BRANCH   6  22
ATOM     22  O   UNL     1       1.469   1.759 -10.125  1.00  0.00    -0.508 OA
ATOM     23  H   UNL     1       1.920   1.869 -11.026  1.00  0.00     0.293 HD
ENDBRANCH   6  22
TORSDOF 4
ENDMDL
MODEL 3
REMARK VINA RESULT:    -4.590     12.222     14.979
REMARK INTER + INTRA:          -5.569
REMARK INTER:                  -5.282
REMARK INTRA:                  -0.286
REMARK UNBOUND:                -0.308
REMARK SMILES O=C1C[C@@H](c2ccc(O)cc2)Oc2cc(O)cc(O)c21
REMARK SMILES IDX 3 1 4 2 12 3 13 4 14 5 15 6 17 7 18 8 20 9 2 10 1 11 5 12
REMARK SMILES IDX 6 13 11 14 7 15 10 16 8 17 9 18 19 20 16 22
REMARK H PARENT 9 19 19 21 16 23
REMARK Flexibility Score: inf
ROOT
ATOM      1  C   UNL     1      -0.469   8.291   1.847  1.00  0.00     0.131 C 
ATOM      2  C   UNL     1       0.161   8.069   0.464  1.00  0.00     0.211 C 
ATOM      3  O   UNL     1      -0.824   7.615  -0.470  1.00  0.00    -0.484 OA
ATOM      4  C   UNL     1      -2.134   8.113  -0.491  1.00  0.00     0.138 A 
ATOM      5  C   UNL     1      -2.947   7.834  -1.591  1.00  0.00     0.093 A 
ATOM      6  C   UNL     1      -4.253   8.329  -1.645  1.00  0.00     0.123 A 
ATOM      7  C   UNL     1      -4.755   9.082  -0.583  1.00  0.00     0.093 A 
ATOM      8  C   UNL     1      -3.971   9.341   0.548  1.00  0.00     0.133 A 
ATOM      9  C   UNL     1      -2.628   8.880   0.588  1.00  0.00     0.102 A 
ATOM     10  C   UNL     1      -1.686   9.155   1.700  1.00  0.00     0.174 C 
ATOM     11  O   UNL     1      -1.853  10.124   2.486  1.00  0.00    -0.294 OA
ENDROOT
BRANCH   2  12
ATOM     12  C   UNL     1       1.293   7.076   0.546  1.00  0.00    -0.007 A 
ATOM     13  C   UNL     1       1.108   5.830   1.171  1.00  0.00     0.011 A 
ATOM     14  C   UNL     1       2.564   7.409   0.046  1.00  0.00     0.011 A 
ATOM     15  C   UNL     1       2.169   4.925   1.271  1.00  0.00     0.046 A 
ATOM     16  C   UNL     1       3.623   6.502   0.148  1.00  0.00     0.046 A 
ATOM     17  C   UNL     1       3.430   5.259   0.759  1.00  0.00     0.115 A 
BRANCH  17  18
ATOM     18  O   UNL     1       4.494   4.366   0.852  1.00  0.00    -0.508 OA
ATOM     19  H   UNL     1       4.570   3.710   1.621  1.00  0.00     0.293 HD
ENDBRANCH  17  18
ENDBRANCH   2  12
BRANCH   8  20
ATOM     20  O   UNL     1      -4.576  10.021   1.608  1.00  0.00    -0.507 OA
ATOM     21  H   UNL     1      -5.515   9.841   1.932  1.00  0.00     0.293 HD
ENDBRANCH   8  20
BRANCH   6  22
ATOM     22  O   UNL     1      -5.063   8.072  -2.750  1.00  0.00    -0.508 OA
ATOM     23  H   UNL     1      -6.074   8.081  -2.678  1.00  0.00     0.293 HD
ENDBRANCH   6  22
TORSDOF 4
ENDMDL
MODEL 4
REMARK VINA RESULT:    -4.053      2.278      7.357
REMARK INTER + INTRA:          -4.954
REMARK INTER:                  -4.643
REMARK INTRA:                  -0.310
REMARK UNBOUND:                -0.308
REMARK SMILES O=C1C[C@@H](c2ccc(O)cc2)Oc2cc(O)cc(O)c21
REMARK SMILES IDX 3 1 4 2 12 3 13 4 14 5 15 6 17 7 18 8 20 9 2 10 1 11 5 12
REMARK SMILES IDX 6 13 11 14 7 15 10 16 8 17 9 18 19 20 16 22
REMARK H PARENT 9 19 19 21 16 23
REMARK Flexibility Score: inf
ROOT
ATOM      1  C   UNL     1       2.173  -1.590  -9.319  1.00  0.00     0.131 C 
ATOM      2  C   UNL     1       1.581  -2.755 -10.125  1.00  0.00     0.211 C 
ATOM      3  O   UNL     1       0.211  -2.967  -9.769  1.00  0.00    -0.484 OA
ATOM      4  C   UNL     1      -0.677  -1.912  -9.516  1.00  0.00     0.138 A 
ATOM      5  C   UNL     1      -2.046  -2.180  -9.450  1.00  0.00     0.093 A 
ATOM      6  C   UNL     1      -2.955  -1.145  -9.213  1.00  0.00     0.123 A 
ATOM      7  C   UNL     1      -2.491   0.155  -9.013  1.00  0.00     0.093 A 
ATOM      8  C   UNL     1      -1.120   0.440  -9.034  1.00  0.00     0.133 A 
ATOM      9  C   UNL     1      -0.195  -0.598  -9.322  1.00  0.00     0.102 A 
ATOM     10  C   UNL     1       1.271  -0.399  -9.440  1.00  0.00     0.174 C 
ATOM     11  O   UNL     1       1.768   0.730  -9.692  1.00  0.00    -0.294 OA
ENDROOT
BRANCH   2  12
ATOM     12  C   UNL     1       2.374  -4.018  -9.900  1.00  0.00    -0.007 A 
ATOM     13  C   UNL     1       3.735  -3.956  -9.550  1.00  0.00     0.011 A 
ATOM     14  C   UNL     1       1.774  -5.275 -10.095  1.00  0.00     0.011 A 
ATOM     15  C   UNL     1       4.473  -5.130  -9.373  1.00  0.00     0.046 A 
ATOM     16  C   UNL     1       2.516  -6.446  -9.917  1.00  0.00     0.046 A 
ATOM     17  C   UNL     1       3.865  -6.379  -9.556  1.00  0.00     0.115 A 
BRANCH  17  18
ATOM     18  O   UNL     1       4.590  -7.555  -9.381  1.00  0.00    -0.508 OA
ATOM     19  H   UNL     1       4.148  -8.464  -9.449  1.00  0.00     0.293 HD
ENDBRANCH  17  18
ENDBRANCH   2  12
BRANCH   8  20
ATOM     20  O   UNL     1      -0.730   1.747  -8.733  1.00  0.00    -0.507 OA
ATOM     21  H   UNL     1      -0.907   2.199  -7.847  1.00  0.00     0.293 HD
ENDBRANCH   8  20
BRANCH   6  22
ATOM     22  O   UNL     1      -4.324  -1.401  -9.168  1.00  0.00    -0.508 OA
ATOM     23  H   UNL     1      -4.700  -2.316  -9.389  1.00  0.00     0.293 HD
ENDBRANCH   6  22
TORSDOF 4
ENDMDL
MODEL 5
REMARK VINA RESULT:    -3.250     12.318     13.741
REMARK INTER + INTRA:          -4.033
REMARK INTER:                  -3.740
REMARK INTRA:                  -0.293
REMARK UNBOUND:                -0.308
REMARK SMILES O=C1C[C@@H](c2ccc(O)cc2)Oc2cc(O)cc(O)c21
REMARK SMILES IDX 3 1 4 2 12 3 13 4 14 5 15 6 17 7 18 8 20 9 2 10 1 11 5 12
REMARK SMILES IDX 6 13 11 14 7 15 10 16 8 17 9 18 19 20 16 22
REMARK H PARENT 9 19 19 21 16 23
REMARK Flexibility Score: inf
ROOT
ATOM      1  C   UNL     1      -1.577   9.638  -0.022  1.00  0.00     0.131 C 
ATOM      2  C   UNL     1      -2.689   8.720   0.506  1.00  0.00     0.211 C 
ATOM      3  O   UNL     1      -2.319   7.346   0.359  1.00  0.00    -0.484 OA
ATOM      4  C   UNL     1      -1.015   6.884   0.587  1.00  0.00     0.138 A 
ATOM      5  C   UNL     1      -0.792   5.510   0.696  1.00  0.00     0.093 A 
ATOM      6  C   UNL     1       0.495   5.022   0.937  1.00  0.00     0.123 A 
ATOM      7  C   UNL     1       1.566   5.911   1.040  1.00  0.00     0.093 A 
ATOM      8  C   UNL     1       1.372   7.290   0.894  1.00  0.00     0.133 A 
ATOM      9  C   UNL     1       0.060   7.794   0.697  1.00  0.00     0.102 A 
ATOM     10  C   UNL     1      -0.272   9.237   0.599  1.00  0.00     0.174 C 
ATOM     11  O   UNL     1       0.485  10.125   1.073  1.00  0.00    -0.294 OA
ENDROOT
BRANCH   2  12
ATOM     12  C   UNL     1      -3.988   8.987  -0.213  1.00  0.00    -0.007 A 
ATOM     13  C   UNL     1      -4.111   8.721  -1.589  1.00  0.00     0.011 A 
ATOM     14  C   UNL     1      -5.073   9.557   0.474  1.00  0.00     0.011 A 
ATOM     15  C   UNL     1      -5.307   8.998  -2.257  1.00  0.00     0.046 A 
ATOM     16  C   UNL     1      -6.268   9.833  -0.198  1.00  0.00     0.046 A 
ATOM     17  C   UNL     1      -6.390   9.554  -1.563  1.00  0.00     0.115 A 
BRANCH  17  18
ATOM     18  O   UNL     1      -7.586   9.834  -2.218  1.00  0.00    -0.508 OA
ATOM     19  H   UNL     1      -8.478   9.523  -1.848  1.00  0.00     0.293 HD
ENDBRANCH  17  18
ENDBRANCH   2  12
BRANCH   8  20
ATOM     20  O   UNL     1       2.507   8.104   0.917  1.00  0.00    -0.507 OA
ATOM     21  H   UNL     1       3.295   7.958   1.532  1.00  0.00     0.293 HD
ENDBRANCH   8  20
BRANCH   6  22
ATOM     22  O   UNL     1       0.721   3.653   1.068  1.00  0.00    -0.508 OA
ATOM     23  H   UNL     1       1.641   3.253   0.926  1.00  0.00     0.293 HD
ENDBRANCH   6  22
TORSDOF 4
ENDMDL
