MODEL 1
REMARK VINA RESULT:    -8.265      0.000      0.000
REMARK INTER + INTRA:         -13.002
REMARK INTER:                 -12.131
REMARK INTRA:                  -0.871
REMARK UNBOUND:                -0.871
REMARK SMILES O=c1c(O[C@H]2O[C@H](CO)[C@H](O)[C@@H](O)[C@H]2O)c(-c2ccc(O)c(O)c2)oc2cc(O)cc(O)c12
REMARK SMILES IDX 4 1 3 2 16 3 25 4 2 5 26 6 1 7 33 8 27 9 31 10 28 11 30 12
REMARK SMILES IDX 17 13 18 14 19 15 20 16 24 17 22 18 21 19 23 21 32 23 29 25
REMARK SMILES IDX 5 27 14 28 6 29 12 30 7 31 10 32 15 33 13 35 8 37 9 38 11 40
REMARK H PARENT 21 20 23 22 32 24 29 26 15 34 13 36 9 39 11 41
REMARK Flexibility Score: inf
ROOT
ATOM      1  O   UNL     1     147.662 168.054 153.624  1.00  0.00    -0.454 OA
ENDROOT
BRANCH   1   2
ATOM      2  C   UNL     1     148.990 168.383 153.273  1.00  0.00     0.214 A 
ATOM      3  C   UNL     1     149.765 167.407 152.614  1.00  0.00     0.180 A 
ATOM      4  O   UNL     1     151.044 167.631 152.341  1.00  0.00    -0.452 OA
ATOM      5  C   UNL     1     149.603 169.624 153.574  1.00  0.00     0.239 A 
ATOM      6  C   UNL     1     151.660 168.769 152.628  1.00  0.00     0.146 A 
ATOM      7  O   UNL     1     148.944 170.545 154.122  1.00  0.00    -0.285 OA
ATOM      8  C   UNL     1     150.963 169.827 153.252  1.00  0.00     0.111 A 
ATOM      9  C   UNL     1     153.011 168.910 152.297  1.00  0.00     0.094 A 
ATOM     10  C   UNL     1     151.653 171.034 153.532  1.00  0.00     0.134 A 
ATOM     11  C   UNL     1     153.686 170.103 152.577  1.00  0.00     0.123 A 
ATOM     12  C   UNL     1     153.007 171.157 153.190  1.00  0.00     0.093 A 
BRANCH   3  13
ATOM     13  C   UNL     1     149.191 166.108 152.218  1.00  0.00     0.025 A 
ATOM     14  C   UNL     1     149.218 165.031 153.112  1.00  0.00     0.016 A 
ATOM     15  C   UNL     1     148.691 163.794 152.737  1.00  0.00     0.051 A 
ATOM     16  C   UNL     1     148.144 163.606 151.462  1.00  0.00     0.157 A 
ATOM     17  C   UNL     1     148.670 165.920 150.929  1.00  0.00     0.062 A 
ATOM     18  C   UNL     1     148.139 164.683 150.543  1.00  0.00     0.158 A 
BRANCH  16  19
ATOM     19  O   UNL     1     147.627 162.347 151.151  1.00  0.00    -0.504 OA
ATOM     20  H   UNL     1     147.727 161.902 150.251  1.00  0.00     0.293 HD
ENDBRANCH  16  19
BRANCH  18  21
ATOM     21  O   UNL     1     147.625 164.570 149.250  1.00  0.00    -0.504 OA
ATOM     22  H   UNL     1     148.000 165.058 148.449  1.00  0.00     0.293 HD
ENDBRANCH  18  21
ENDBRANCH   3  13
BRANCH  10  23
ATOM     23  O   UNL     1     151.005 172.107 154.145  1.00  0.00    -0.507 OA
ATOM     24  H   UNL     1     151.326 172.490 155.027  1.00  0.00     0.293 HD
ENDBRANCH  10  23
BRANCH  11  25
ATOM     25  O   UNL     1     155.033 170.250 152.250  1.00  0.00    -0.508 OA
ATOM     26  H   UNL     1     155.757 170.218 152.959  1.00  0.00     0.293 HD
ENDBRANCH  11  25
ENDBRANCH   1   2
BRANCH   1  27
ATOM     27  C   UNL     1     146.482 168.804 153.311  1.00  0.00     0.339 C 
ATOM     28  C   UNL     1     145.198 168.000 153.616  1.00  0.00     0.214 C 
ATOM     29  O   UNL     1     146.501 169.267 151.969  1.00  0.00    -0.332 OA
ATOM     30  C   UNL     1     144.901 166.911 152.557  1.00  0.00     0.180 C 
ATOM     31  C   UNL     1     146.494 168.189 151.050  1.00  0.00     0.179 C 
ATOM     32  C   UNL     1     145.148 167.430 151.124  1.00  0.00     0.177 C 
BRANCH  28  33
ATOM     33  O   UNL     1     145.287 167.435 154.900  1.00  0.00    -0.384 OA
ATOM     34  H   UNL     1     144.401 167.561 155.330  1.00  0.00     0.211 HD
ENDBRANCH  28  33
BRANCH  30  35
ATOM     35  O   UNL     1     145.614 165.724 152.807  1.00  0.00    -0.387 OA
ATOM     36  H   UNL     1     146.489 165.969 153.194  1.00  0.00     0.211 HD
ENDBRANCH  30  35
BRANCH  31  37
ATOM     37  C   UNL     1     146.749 168.750 149.643  1.00  0.00     0.191 C 
BRANCH  37  38
ATOM     38  O   UNL     1     147.464 167.834 148.857  1.00  0.00    -0.394 OA
ATOM     39  H   UNL     1     147.383 168.142 147.917  1.00  0.00     0.210 HD
ENDBRANCH  37  38
ENDBRANCH  31  37
BRANCH  32  40
ATOM     40  O   UNL     1     144.102 168.293 150.750  1.00  0.00    -0.387 OA
ATOM     41  H   UNL     1     144.139 169.073 151.363  1.00  0.00     0.211 HD
ENDBRANCH  32  40
ENDBRANCH   1  27
TORSDOF 12
ENDMDL
MODEL 2
REMARK VINA RESULT:    -7.943      2.065      3.013
REMARK INTER + INTRA:         -12.528
REMARK INTER:                 -11.700
REMARK INTRA:                  -0.828
REMARK UNBOUND:                -0.871
REMARK SMILES O=c1c(O[C@H]2O[C@H](CO)[C@H](O)[C@@H](O)[C@H]2O)c(-c2ccc(O)c(O)c2)oc2cc(O)cc(O)c12
REMARK SMILES IDX 4 1 3 2 16 3 25 4 2 5 26 6 1 7 33 8 27 9 31 10 28 11 30 12
REMARK SMILES IDX 17 13 18 14 19 15 20 16 24 17 22 18 21 19 23 21 32 23 29 25
REMARK SMILES IDX 5 27 14 28 6 29 12 30 7 31 10 32 15 33 13 35 8 37 9 38 11 40
REMARK H PARENT 21 20 23 22 32 24 29 26 15 34 13 36 9 39 11 41
REMARK Flexibility Score: inf
ROOT
ATOM      1  O   UNL     1     149.360 169.713 153.164  1.00  0.00    -0.454 OA
ENDROOT
BRANCH   1   2
ATOM      2  C   UNL     1     150.640 169.119 153.234  1.00  0.00     0.214 A 
ATOM      3  C   UNL     1     150.730 167.780 153.665  1.00  0.00     0.180 A 
ATOM      4  O   UNL     1     151.912 167.202 153.833  1.00  0.00    -0.452 OA
ATOM      5  C   UNL     1     151.845 169.799 152.929  1.00  0.00     0.239 A 
ATOM      6  C   UNL     1     153.062 167.811 153.583  1.00  0.00     0.146 A 
ATOM      7  O   UNL     1     151.819 170.982 152.499  1.00  0.00    -0.285 OA
ATOM      8  C   UNL     1     153.082 169.142 153.108  1.00  0.00     0.111 A 
ATOM      9  C   UNL     1     154.257 167.116 153.789  1.00  0.00     0.094 A 
ATOM     10  C   UNL     1     154.331 169.756 152.838  1.00  0.00     0.134 A 
ATOM     11  C   UNL     1     155.486 167.728 153.523  1.00  0.00     0.123 A 
ATOM     12  C   UNL     1     155.519 169.041 153.049  1.00  0.00     0.093 A 
BRANCH   3  13
ATOM     13  C   UNL     1     149.523 166.983 153.953  1.00  0.00     0.025 A 
ATOM     14  C   UNL     1     148.812 167.198 155.140  1.00  0.00     0.016 A 
ATOM     15  C   UNL     1     147.678 166.436 155.427  1.00  0.00     0.051 A 
ATOM     16  C   UNL     1     147.245 165.438 154.545  1.00  0.00     0.157 A 
ATOM     17  C   UNL     1     149.112 165.966 153.079  1.00  0.00     0.062 A 
ATOM     18  C   UNL     1     147.977 165.196 153.357  1.00  0.00     0.158 A 
BRANCH  16  19
ATOM     19  O   UNL     1     146.100 164.716 154.886  1.00  0.00    -0.504 OA
ATOM     20  H   UNL     1     145.290 164.626 154.289  1.00  0.00     0.293 HD
ENDBRANCH  16  19
BRANCH  18  21
ATOM     21  O   UNL     1     147.617 164.210 152.437  1.00  0.00    -0.504 OA
ATOM     22  H   UNL     1     147.885 164.222 151.463  1.00  0.00     0.293 HD
ENDBRANCH  18  21
ENDBRANCH   3  13
BRANCH  10  23
ATOM     23  O   UNL     1     154.401 171.067 152.366  1.00  0.00    -0.507 OA
ATOM     24  H   UNL     1     154.838 171.806 152.905  1.00  0.00     0.293 HD
ENDBRANCH  10  23
BRANCH  11  25
ATOM     25  O   UNL     1     156.681 167.041 153.726  1.00  0.00    -0.508 OA
ATOM     26  H   UNL     1     157.159 166.574 152.964  1.00  0.00     0.293 HD
ENDBRANCH  11  25
ENDBRANCH   1   2
BRANCH   1  27
ATOM     27  C   UNL     1     148.811 170.439 152.057  1.00  0.00     0.339 C 
ATOM     28  C   UNL     1     147.268 170.488 152.117  1.00  0.00     0.214 C 
ATOM     29  O   UNL     1     149.269 169.921 150.818  1.00  0.00    -0.332 OA
ATOM     30  C   UNL     1     146.604 169.155 151.695  1.00  0.00     0.180 C 
ATOM     31  C   UNL     1     148.833 168.586 150.622  1.00  0.00     0.179 C 
ATOM     32  C   UNL     1     147.296 168.544 150.457  1.00  0.00     0.177 C 
BRANCH  28  33
ATOM     33  O   UNL     1     146.856 170.862 153.408  1.00  0.00    -0.384 OA
ATOM     34  H   UNL     1     146.030 171.401 153.299  1.00  0.00     0.211 HD
ENDBRANCH  28  33
BRANCH  30  35
ATOM     35  O   UNL     1     146.543 168.236 152.758  1.00  0.00    -0.387 OA
ATOM     36  H   UNL     1     145.598 167.980 152.886  1.00  0.00     0.211 HD
ENDBRANCH  30  35
BRANCH  31  37
ATOM     37  C   UNL     1     149.550 168.019 149.388  1.00  0.00     0.191 C 
BRANCH  37  38
ATOM     38  O   UNL     1     150.206 166.818 149.694  1.00  0.00    -0.394 OA
ATOM     39  H   UNL     1     151.177 167.021 149.718  1.00  0.00     0.210 HD
ENDBRANCH  37  38
ENDBRANCH  31  37
BRANCH  32  40
ATOM     40  O   UNL     1     146.928 169.267 149.308  1.00  0.00    -0.387 OA
ATOM     41  H   UNL     1     147.300 170.181 149.411  1.00  0.00     0.211 HD
ENDBRANCH  32  40
ENDBRANCH   1  27
TORSDOF 12
ENDMDL
MODEL 3
REMARK VINA RESULT:    -7.767      2.160      6.456
REMARK INTER + INTRA:         -12.270
REMARK INTER:                 -11.348
REMARK INTRA:                  -0.922
REMARK UNBOUND:                -0.871
REMARK SMILES O=c1c(O[C@H]2O[C@H](CO)[C@H](O)[C@@H](O)[C@H]2O)c(-c2ccc(O)c(O)c2)oc2cc(O)cc(O)c12
REMARK SMILES IDX 4 1 3 2 16 3 25 4 2 5 26 6 1 7 33 8 27 9 31 10 28 11 30 12
REMARK SMILES IDX 17 13 18 14 19 15 20 16 24 17 22 18 21 19 23 21 32 23 29 25
REMARK SMILES IDX 5 27 14 28 6 29 12 30 7 31 10 32 15 33 13 35 8 37 9 38 11 40
REMARK H PARENT 21 20 23 22 32 24 29 26 15 34 13 36 9 39 11 41
REMARK Flexibility Score: inf
ROOT
ATOM      1  O   UNL     1     147.055 165.835 151.239  1.00  0.00    -0.454 OA
ENDROOT
BRANCH   1   2
ATOM      2  C   UNL     1     147.969 164.769 151.390  1.00  0.00     0.214 A 
ATOM      3  C   UNL     1     149.120 164.986 152.174  1.00  0.00     0.180 A 
ATOM      4  O   UNL     1     150.054 164.050 152.276  1.00  0.00    -0.452 OA
ATOM      5  C   UNL     1     147.818 163.504 150.771  1.00  0.00     0.239 A 
ATOM      6  C   UNL     1     149.962 162.863 151.694  1.00  0.00     0.146 A 
ATOM      7  O   UNL     1     146.789 163.243 150.096  1.00  0.00    -0.285 OA
ATOM      8  C   UNL     1     148.829 162.529 150.918  1.00  0.00     0.111 A 
ATOM      9  C   UNL     1     150.999 161.941 151.864  1.00  0.00     0.094 A 
ATOM     10  C   UNL     1     148.760 161.245 150.321  1.00  0.00     0.134 A 
ATOM     11  C   UNL     1     150.925 160.676 151.272  1.00  0.00     0.123 A 
ATOM     12  C   UNL     1     149.809 160.333 150.506  1.00  0.00     0.093 A 
BRANCH   3  13
ATOM     13  C   UNL     1     149.331 166.255 152.895  1.00  0.00     0.025 A 
ATOM     14  C   UNL     1     149.021 166.344 154.257  1.00  0.00     0.016 A 
ATOM     15  C   UNL     1     149.204 167.547 154.942  1.00  0.00     0.051 A 
ATOM     16  C   UNL     1     149.682 168.682 154.277  1.00  0.00     0.157 A 
ATOM     17  C   UNL     1     149.783 167.396 152.216  1.00  0.00     0.062 A 
ATOM     18  C   UNL     1     149.970 168.607 152.893  1.00  0.00     0.158 A 
BRANCH  16  19
ATOM     19  O   UNL     1     149.849 169.853 155.020  1.00  0.00    -0.504 OA
ATOM     20  H   UNL     1     149.155 170.584 155.087  1.00  0.00     0.293 HD
ENDBRANCH  16  19
BRANCH  18  21
ATOM     21  O   UNL     1     150.436 169.699 152.158  1.00  0.00    -0.504 OA
ATOM     22  H   UNL     1     151.376 169.776 151.797  1.00  0.00     0.293 HD
ENDBRANCH  18  21
ENDBRANCH   3  13
BRANCH  10  23
ATOM     23  O   UNL     1     147.660 160.870 149.548  1.00  0.00    -0.507 OA
ATOM     24  H   UNL     1     147.752 160.645 148.564  1.00  0.00     0.293 HD
ENDBRANCH  10  23
BRANCH  11  25
ATOM     25  O   UNL     1     151.955 159.753 151.438  1.00  0.00    -0.508 OA
ATOM     26  H   UNL     1     152.732 159.704 150.789  1.00  0.00     0.293 HD
ENDBRANCH  11  25
ENDBRANCH   1   2
BRANCH   1  27
ATOM     27  C   UNL     1     145.647 165.801 151.504  1.00  0.00     0.339 C 
ATOM     28  C   UNL     1     145.046 167.222 151.577  1.00  0.00     0.214 C 
ATOM     29  O   UNL     1     145.356 165.050 152.673  1.00  0.00    -0.332 OA
ATOM     30  C   UNL     1     145.374 167.948 152.904  1.00  0.00     0.180 C 
ATOM     31  C   UNL     1     145.923 165.648 153.826  1.00  0.00     0.179 C 
ATOM     32  C   UNL     1     145.237 167.003 154.117  1.00  0.00     0.177 C 
BRANCH  28  33
ATOM     33  O   UNL     1     145.481 167.978 150.475  1.00  0.00    -0.384 OA
ATOM     34  H   UNL     1     146.371 168.347 150.715  1.00  0.00     0.211 HD
ENDBRANCH  28  33
BRANCH  30  35
ATOM     35  O   UNL     1     146.638 168.565 152.870  1.00  0.00    -0.387 OA
ATOM     36  H   UNL     1     147.142 168.273 153.667  1.00  0.00     0.211 HD
ENDBRANCH  30  35
BRANCH  31  37
ATOM     37  C   UNL     1     145.770 164.673 155.002  1.00  0.00     0.191 C 
BRANCH  37  38
ATOM     38  O   UNL     1     146.115 165.288 156.215  1.00  0.00    -0.394 OA
ATOM     39  H   UNL     1     146.905 165.860 156.030  1.00  0.00     0.210 HD
ENDBRANCH  37  38
ENDBRANCH  31  37
BRANCH  32  40
ATOM     40  O   UNL     1     143.875 166.790 154.395  1.00  0.00    -0.387 OA
ATOM     41  H   UNL     1     143.810 166.567 155.361  1.00  0.00     0.211 HD
ENDBRANCH  32  40
ENDBRANCH   1  27
TORSDOF 12
ENDMDL
MODEL 4
REMARK VINA RESULT:    -7.734      2.622      6.987
REMARK INTER + INTRA:         -12.222
REMARK INTER:                 -10.419
REMARK INTRA:                  -1.803
REMARK UNBOUND:                -0.871
REMARK SMILES O=c1c(O[C@H]2O[C@H](CO)[C@H](O)[C@@H](O)[C@H]2O)c(-c2ccc(O)c(O)c2)oc2cc(O)cc(O)c12
REMARK SMILES IDX 4 1 3 2 16 3 25 4 2 5 26 6 1 7 33 8 27 9 31 10 28 11 30 12
REMARK SMILES IDX 17 13 18 14 19 15 20 16 24 17 22 18 21 19 23 21 32 23 29 25
REMARK SMILES IDX 5 27 14 28 6 29 12 30 7 31 10 32 15 33 13 35 8 37 9 38 11 40
REMARK H PARENT 21 20 23 22 32 24 29 26 15 34 13 36 9 39 11 41
REMARK Flexibility Score: inf
ROOT
ATOM      1  O   UNL     1     149.050 164.924 152.881  1.00  0.00    -0.454 OA
ENDROOT
BRANCH   1   2
ATOM      2  C   UNL     1     148.941 163.866 151.952  1.00  0.00     0.214 A 
ATOM      3  C   UNL     1     147.814 163.836 151.107  1.00  0.00     0.180 A 
ATOM      4  O   UNL     1     147.617 162.818 150.279  1.00  0.00    -0.452 OA
ATOM      5  C   UNL     1     149.881 162.812 151.841  1.00  0.00     0.239 A 
ATOM      6  C   UNL     1     148.460 161.802 150.162  1.00  0.00     0.146 A 
ATOM      7  O   UNL     1     150.927 162.813 152.541  1.00  0.00    -0.285 OA
ATOM      8  C   UNL     1     149.641 161.755 150.935  1.00  0.00     0.111 A 
ATOM      9  C   UNL     1     148.166 160.777 149.258  1.00  0.00     0.094 A 
ATOM     10  C   UNL     1     150.525 160.658 150.774  1.00  0.00     0.134 A 
ATOM     11  C   UNL     1     149.041 159.697 149.105  1.00  0.00     0.123 A 
ATOM     12  C   UNL     1     150.214 159.641 149.860  1.00  0.00     0.093 A 
BRANCH   3  13
ATOM     13  C   UNL     1     146.813 164.919 151.120  1.00  0.00     0.025 A 
ATOM     14  C   UNL     1     145.563 164.707 151.714  1.00  0.00     0.016 A 
ATOM     15  C   UNL     1     144.605 165.722 151.716  1.00  0.00     0.051 A 
ATOM     16  C   UNL     1     144.872 166.957 151.113  1.00  0.00     0.157 A 
ATOM     17  C   UNL     1     147.077 166.144 150.490  1.00  0.00     0.062 A 
ATOM     18  C   UNL     1     146.123 167.169 150.486  1.00  0.00     0.158 A 
BRANCH  16  19
ATOM     19  O   UNL     1     143.875 167.934 151.156  1.00  0.00    -0.504 OA
ATOM     20  H   UNL     1     144.048 168.923 151.042  1.00  0.00     0.293 HD
ENDBRANCH  16  19
BRANCH  18  21
ATOM     21  O   UNL     1     146.458 168.367 149.852  1.00  0.00    -0.504 OA
ATOM     22  H   UNL     1     146.429 168.503 148.851  1.00  0.00     0.293 HD
ENDBRANCH  18  21
ENDBRANCH   3  13
BRANCH  10  23
ATOM     23  O   UNL     1     151.705 160.570 151.514  1.00  0.00    -0.507 OA
ATOM     24  H   UNL     1     152.614 160.548 151.068  1.00  0.00     0.293 HD
ENDBRANCH  10  23
BRANCH  11  25
ATOM     25  O   UNL     1     148.754 158.673 148.205  1.00  0.00    -0.508 OA
ATOM     26  H   UNL     1     148.137 157.908 148.452  1.00  0.00     0.293 HD
ENDBRANCH  11  25
ENDBRANCH   1   2
BRANCH   1  27
ATOM     27  C   UNL     1     149.891 166.079 152.771  1.00  0.00     0.339 C 
ATOM     28  C   UNL     1     150.813 166.232 154.001  1.00  0.00     0.214 C 
ATOM     29  O   UNL     1     149.131 167.255 152.540  1.00  0.00    -0.332 OA
ATOM     30  C   UNL     1     150.074 166.773 155.248  1.00  0.00     0.180 C 
ATOM     31  C   UNL     1     148.273 167.541 153.632  1.00  0.00     0.179 C 
ATOM     32  C   UNL     1     149.104 167.917 154.880  1.00  0.00     0.177 C 
BRANCH  28  33
ATOM     33  O   UNL     1     151.432 165.002 154.284  1.00  0.00    -0.384 OA
ATOM     34  H   UNL     1     151.230 164.398 153.523  1.00  0.00     0.211 HD
ENDBRANCH  28  33
BRANCH  30  35
ATOM     35  O   UNL     1     149.419 165.750 155.958  1.00  0.00    -0.387 OA
ATOM     36  H   UNL     1     149.311 164.978 155.353  1.00  0.00     0.211 HD
ENDBRANCH  30  35
BRANCH  31  37
ATOM     37  C   UNL     1     147.325 168.677 153.219  1.00  0.00     0.191 C 
BRANCH  37  38
ATOM     38  O   UNL     1     147.943 169.541 152.303  1.00  0.00    -0.394 OA
ATOM     39  H   UNL     1     147.228 169.878 151.703  1.00  0.00     0.210 HD
ENDBRANCH  37  38
ENDBRANCH  31  37
BRANCH  32  40
ATOM     40  O   UNL     1     149.837 169.089 154.620  1.00  0.00    -0.387 OA
ATOM     41  H   UNL     1     149.945 169.149 153.635  1.00  0.00     0.211 HD
ENDBRANCH  32  40
ENDBRANCH   1  27
TORSDOF 12
ENDMDL
MODEL 5
REMARK VINA RESULT:    -7.579      2.294      5.023
REMARK INTER + INTRA:         -11.995
REMARK INTER:                 -10.454
REMARK INTRA:                  -1.541
REMARK UNBOUND:                -0.871
REMARK SMILES O=c1c(O[C@H]2O[C@H](CO)[C@H](O)[C@@H](O)[C@H]2O)c(-c2ccc(O)c(O)c2)oc2cc(O)cc(O)c12
REMARK SMILES IDX 4 1 3 2 16 3 25 4 2 5 26 6 1 7 33 8 27 9 31 10 28 11 30 12
REMARK SMILES IDX 17 13 18 14 19 15 20 16 24 17 22 18 21 19 23 21 32 23 29 25
REMARK SMILES IDX 5 27 14 28 6 29 12 30 7 31 10 32 15 33 13 35 8 37 9 38 11 40
REMARK H PARENT 21 20 23 22 32 24 29 26 15 34 13 36 9 39 11 41
REMARK Flexibility Score: inf
ROOT
ATOM      1  O   UNL     1     148.883 166.376 153.685  1.00  0.00    -0.454 OA
ENDROOT
BRANCH   1   2
ATOM      2  C   UNL     1     150.184 166.926 153.706  1.00  0.00     0.214 A 
ATOM      3  C   UNL     1     150.325 168.311 153.484  1.00  0.00     0.180 A 
ATOM      4  O   UNL     1     151.528 168.864 153.405  1.00  0.00    -0.452 OA
ATOM      5  C   UNL     1     151.362 166.164 153.902  1.00  0.00     0.239 A 
ATOM      6  C   UNL     1     152.654 168.182 153.559  1.00  0.00     0.146 A 
ATOM      7  O   UNL     1     151.291 164.931 154.147  1.00  0.00    -0.285 OA
ATOM      8  C   UNL     1     152.623 166.795 153.825  1.00  0.00     0.111 A 
ATOM      9  C   UNL     1     153.875 168.856 153.461  1.00  0.00     0.094 A 
ATOM     10  C   UNL     1     153.848 166.101 153.997  1.00  0.00     0.134 A 
ATOM     11  C   UNL     1     155.079 168.165 153.630  1.00  0.00     0.123 A 
ATOM     12  C   UNL     1     155.062 166.795 153.897  1.00  0.00     0.093 A 
BRANCH   3  13
ATOM     13  C   UNL     1     149.150 169.187 153.322  1.00  0.00     0.025 A 
ATOM     14  C   UNL     1     148.658 169.464 152.040  1.00  0.00     0.016 A 
ATOM     15  C   UNL     1     147.555 170.305 151.878  1.00  0.00     0.051 A 
ATOM     16  C   UNL     1     146.937 170.895 152.987  1.00  0.00     0.157 A 
ATOM     17  C   UNL     1     148.553 169.797 154.435  1.00  0.00     0.062 A 
ATOM     18  C   UNL     1     147.447 170.642 154.283  1.00  0.00     0.158 A 
BRANCH  16  19
ATOM     19  O   UNL     1     145.835 171.721 152.758  1.00  0.00    -0.504 OA
ATOM     20  H   UNL     1     145.765 172.369 151.986  1.00  0.00     0.293 HD
ENDBRANCH  16  19
BRANCH  18  21
ATOM     21  O   UNL     1     146.895 171.205 155.435  1.00  0.00    -0.504 OA
ATOM     22  H   UNL     1     146.362 172.063 155.444  1.00  0.00     0.293 HD
ENDBRANCH  18  21
ENDBRANCH   3  13
BRANCH  10  23
ATOM     23  O   UNL     1     153.867 164.731 154.264  1.00  0.00    -0.507 OA
ATOM     24  H   UNL     1     153.632 164.362 155.178  1.00  0.00     0.293 HD
ENDBRANCH  10  23
BRANCH  11  25
ATOM     25  O   UNL     1     156.299 168.832 153.533  1.00  0.00    -0.508 OA
ATOM     26  H   UNL     1     156.951 168.857 154.309  1.00  0.00     0.293 HD
ENDBRANCH  11  25
ENDBRANCH   1   2
BRANCH   1  27
ATOM     27  C   UNL     1     148.097 166.078 152.525  1.00  0.00     0.339 C 
ATOM     28  C   UNL     1     146.590 166.012 152.859  1.00  0.00     0.214 C 
ATOM     29  O   UNL     1     148.542 164.891 151.886  1.00  0.00    -0.332 OA
ATOM     30  C   UNL     1     146.188 164.705 153.583  1.00  0.00     0.180 C 
ATOM     31  C   UNL     1     148.383 163.760 152.726  1.00  0.00     0.179 C 
ATOM     32  C   UNL     1     146.881 163.474 152.958  1.00  0.00     0.177 C 
BRANCH  28  33
ATOM     33  O   UNL     1     146.224 167.135 153.620  1.00  0.00    -0.384 OA
ATOM     34  H   UNL     1     146.356 166.890 154.573  1.00  0.00     0.211 HD
ENDBRANCH  28  33
BRANCH  30  35
ATOM     35  O   UNL     1     146.417 164.778 154.969  1.00  0.00    -0.387 OA
ATOM     36  H   UNL     1     146.462 163.856 155.320  1.00  0.00     0.211 HD
ENDBRANCH  30  35
BRANCH  31  37
ATOM     37  C   UNL     1     149.091 162.566 152.070  1.00  0.00     0.191 C 
BRANCH  37  38
ATOM     38  O   UNL     1     150.443 162.515 152.442  1.00  0.00    -0.394 OA
ATOM     39  H   UNL     1     150.775 163.451 152.434  1.00  0.00     0.210 HD
ENDBRANCH  37  38
ENDBRANCH  31  37
BRANCH  32  40
ATOM     40  O   UNL     1     146.268 163.161 151.732  1.00  0.00    -0.387 OA
ATOM     41  H   UNL     1     145.736 163.957 151.464  1.00  0.00     0.211 HD
ENDBRANCH  32  40
ENDBRANCH   1  27
TORSDOF 12
ENDMDL
MODEL 6
REMARK VINA RESULT:    -7.564      1.626      2.967
REMARK INTER + INTRA:         -11.972
REMARK INTER:                 -11.664
REMARK INTRA:                  -0.309
REMARK UNBOUND:                -0.871
REMARK SMILES O=c1c(O[C@H]2O[C@H](CO)[C@H](O)[C@@H](O)[C@H]2O)c(-c2ccc(O)c(O)c2)oc2cc(O)cc(O)c12
REMARK SMILES IDX 4 1 3 2 16 3 25 4 2 5 26 6 1 7 33 8 27 9 31 10 28 11 30 12
REMARK SMILES IDX 17 13 18 14 19 15 20 16 24 17 22 18 21 19 23 21 32 23 29 25
REMARK SMILES IDX 5 27 14 28 6 29 12 30 7 31 10 32 15 33 13 35 8 37 9 38 11 40
REMARK H PARENT 21 20 23 22 32 24 29 26 15 34 13 36 9 39 11 41
REMARK Flexibility Score: inf
ROOT
ATOM      1  O   UNL     1     146.500 167.002 152.158  1.00  0.00    -0.454 OA
ENDROOT
BRANCH   1   2
ATOM      2  C   UNL     1     147.820 167.478 152.327  1.00  0.00     0.214 A 
ATOM      3  C   UNL     1     148.885 166.599 152.046  1.00  0.00     0.180 A 
ATOM      4  O   UNL     1     150.140 166.964 152.272  1.00  0.00    -0.452 OA
ATOM      5  C   UNL     1     148.138 168.776 152.795  1.00  0.00     0.239 A 
ATOM      6  C   UNL     1     150.478 168.160 152.732  1.00  0.00     0.146 A 
ATOM      7  O   UNL     1     147.227 169.615 153.019  1.00  0.00    -0.285 OA
ATOM      8  C   UNL     1     149.488 169.130 153.008  1.00  0.00     0.111 A 
ATOM      9  C   UNL     1     151.830 168.452 152.936  1.00  0.00     0.094 A 
ATOM     10  C   UNL     1     149.889 170.404 153.486  1.00  0.00     0.134 A 
ATOM     11  C   UNL     1     152.218 169.709 153.409  1.00  0.00     0.123 A 
ATOM     12  C   UNL     1     151.250 170.678 153.681  1.00  0.00     0.093 A 
BRANCH   3  13
ATOM     13  C   UNL     1     148.645 165.248 151.507  1.00  0.00     0.025 A 
ATOM     14  C   UNL     1     149.090 164.124 152.214  1.00  0.00     0.016 A 
ATOM     15  C   UNL     1     148.881 162.843 151.702  1.00  0.00     0.051 A 
ATOM     16  C   UNL     1     148.241 162.661 150.470  1.00  0.00     0.157 A 
ATOM     17  C   UNL     1     148.029 165.075 150.259  1.00  0.00     0.062 A 
ATOM     18  C   UNL     1     147.814 163.794 149.735  1.00  0.00     0.158 A 
BRANCH  16  19
ATOM     19  O   UNL     1     148.055 161.354 150.016  1.00  0.00    -0.504 OA
ATOM     20  H   UNL     1     148.748 160.624 150.098  1.00  0.00     0.293 HD
ENDBRANCH  16  19
BRANCH  18  21
ATOM     21  O   UNL     1     147.182 163.695 148.495  1.00  0.00    -0.504 OA
ATOM     22  H   UNL     1     147.344 164.331 147.726  1.00  0.00     0.293 HD
ENDBRANCH  18  21
ENDBRANCH   3  13
BRANCH  10  23
ATOM     23  O   UNL     1     148.948 171.394 153.770  1.00  0.00    -0.507 OA
ATOM     24  H   UNL     1     148.882 172.241 153.218  1.00  0.00     0.293 HD
ENDBRANCH  10  23
BRANCH  11  25
ATOM     25  O   UNL     1     153.564 170.006 153.613  1.00  0.00    -0.508 OA
ATOM     26  H   UNL     1     153.882 170.476 154.454  1.00  0.00     0.293 HD
ENDBRANCH  11  25
ENDBRANCH   1   2
BRANCH   1  27
ATOM     27  C   UNL     1     145.919 165.849 152.777  1.00  0.00     0.339 C 
ATOM     28  C   UNL     1     144.379 165.953 152.845  1.00  0.00     0.214 C 
ATOM     29  O   UNL     1     146.482 165.606 154.057  1.00  0.00    -0.332 OA
ATOM     30  C   UNL     1     143.887 166.914 153.955  1.00  0.00     0.180 C 
ATOM     31  C   UNL     1     146.208 166.670 154.953  1.00  0.00     0.179 C 
ATOM     32  C   UNL     1     144.694 166.734 155.259  1.00  0.00     0.177 C 
BRANCH  28  33
ATOM     33  O   UNL     1     143.875 166.341 151.592  1.00  0.00    -0.384 OA
ATOM     34  H   UNL     1     144.010 167.322 151.520  1.00  0.00     0.211 HD
ENDBRANCH  28  33
BRANCH  30  35
ATOM     35  O   UNL     1     143.886 168.255 153.529  1.00  0.00    -0.387 OA
ATOM     36  H   UNL     1     144.561 168.744 154.058  1.00  0.00     0.211 HD
ENDBRANCH  30  35
BRANCH  31  37
ATOM     37  C   UNL     1     147.034 166.453 156.230  1.00  0.00     0.191 C 
BRANCH  37  38
ATOM     38  O   UNL     1     148.358 166.107 155.920  1.00  0.00    -0.394 OA
ATOM     39  H   UNL     1     148.547 166.481 155.021  1.00  0.00     0.210 HD
ENDBRANCH  37  38
ENDBRANCH  31  37
BRANCH  32  40
ATOM     40  O   UNL     1     144.293 165.547 155.899  1.00  0.00    -0.387 OA
ATOM     41  H   UNL     1     143.737 165.043 155.250  1.00  0.00     0.211 HD
ENDBRANCH  32  40
ENDBRANCH   1  27
TORSDOF 12
ENDMDL
MODEL 7
REMARK VINA RESULT:    -7.524      2.290      6.195
REMARK INTER + INTRA:         -11.914
REMARK INTER:                 -10.426
REMARK INTRA:                  -1.488
REMARK UNBOUND:                -0.871
REMARK SMILES O=c1c(O[C@H]2O[C@H](CO)[C@H](O)[C@@H](O)[C@H]2O)c(-c2ccc(O)c(O)c2)oc2cc(O)cc(O)c12
REMARK SMILES IDX 4 1 3 2 16 3 25 4 2 5 26 6 1 7 33 8 27 9 31 10 28 11 30 12
REMARK SMILES IDX 17 13 18 14 19 15 20 16 24 17 22 18 21 19 23 21 32 23 29 25
REMARK SMILES IDX 5 27 14 28 6 29 12 30 7 31 10 32 15 33 13 35 8 37 9 38 11 40
REMARK H PARENT 21 20 23 22 32 24 29 26 15 34 13 36 9 39 11 41
REMARK Flexibility Score: inf
ROOT
ATOM      1  O   UNL     1     147.022 165.214 152.098  1.00  0.00    -0.454 OA
ENDROOT
BRANCH   1   2
ATOM      2  C   UNL     1     148.094 164.294 152.111  1.00  0.00     0.214 A 
ATOM      3  C   UNL     1     149.333 164.723 152.627  1.00  0.00     0.180 A 
ATOM      4  O   UNL     1     150.395 163.930 152.582  1.00  0.00    -0.452 OA
ATOM      5  C   UNL     1     148.008 162.974 151.604  1.00  0.00     0.239 A 
ATOM      6  C   UNL     1     150.363 162.698 152.095  1.00  0.00     0.146 A 
ATOM      7  O   UNL     1     146.915 162.526 151.171  1.00  0.00    -0.285 OA
ATOM      8  C   UNL     1     149.160 162.157 151.589  1.00  0.00     0.111 A 
ATOM      9  C   UNL     1     151.536 161.937 152.093  1.00  0.00     0.094 A 
ATOM     10  C   UNL     1     149.161 160.830 151.087  1.00  0.00     0.134 A 
ATOM     11  C   UNL     1     151.530 160.631 151.595  1.00  0.00     0.123 A 
ATOM     12  C   UNL     1     150.347 160.082 151.097  1.00  0.00     0.093 A 
BRANCH   3  13
ATOM     13  C   UNL     1     149.496 166.063 153.221  1.00  0.00     0.025 A 
ATOM     14  C   UNL     1     149.318 166.242 154.598  1.00  0.00     0.016 A 
ATOM     15  C   UNL     1     149.455 167.511 155.165  1.00  0.00     0.051 A 
ATOM     16  C   UNL     1     149.755 168.622 154.367  1.00  0.00     0.157 A 
ATOM     17  C   UNL     1     149.768 167.176 152.412  1.00  0.00     0.062 A 
ATOM     18  C   UNL     1     149.908 168.452 152.970  1.00  0.00     0.158 A 
BRANCH  16  19
ATOM     19  O   UNL     1     149.886 169.861 154.995  1.00  0.00    -0.504 OA
ATOM     20  H   UNL     1     149.105 170.442 155.269  1.00  0.00     0.293 HD
ENDBRANCH  16  19
BRANCH  18  21
ATOM     21  O   UNL     1     150.192 169.513 152.107  1.00  0.00    -0.504 OA
ATOM     22  H   UNL     1     150.565 170.402 152.410  1.00  0.00     0.293 HD
ENDBRANCH  18  21
ENDBRANCH   3  13
BRANCH  10  23
ATOM     23  O   UNL     1     147.997 160.253 150.579  1.00  0.00    -0.507 OA
ATOM     24  H   UNL     1     147.395 160.746 149.930  1.00  0.00     0.293 HD
ENDBRANCH  10  23
BRANCH  11  25
ATOM     25  O   UNL     1     152.696 159.867 151.592  1.00  0.00    -0.508 OA
ATOM     26  H   UNL     1     153.257 159.760 150.754  1.00  0.00     0.293 HD
ENDBRANCH  11  25
ENDBRANCH   1   2
BRANCH   1  27
ATOM     27  C   UNL     1     146.225 165.619 153.218  1.00  0.00     0.339 C 
ATOM     28  C   UNL     1     144.727 165.322 152.988  1.00  0.00     0.214 C 
ATOM     29  O   UNL     1     146.443 166.983 153.545  1.00  0.00    -0.332 OA
ATOM     30  C   UNL     1     144.052 166.329 152.025  1.00  0.00     0.180 C 
ATOM     31  C   UNL     1     146.038 167.839 152.491  1.00  0.00     0.179 C 
ATOM     32  C   UNL     1     144.504 167.777 152.311  1.00  0.00     0.177 C 
BRANCH  28  33
ATOM     33  O   UNL     1     144.571 164.006 152.522  1.00  0.00    -0.384 OA
ATOM     34  H   UNL     1     145.478 163.676 152.289  1.00  0.00     0.211 HD
ENDBRANCH  28  33
BRANCH  30  35
ATOM     35  O   UNL     1     144.252 165.982 150.676  1.00  0.00    -0.387 OA
ATOM     36  H   UNL     1     144.339 165.001 150.622  1.00  0.00     0.211 HD
ENDBRANCH  30  35
BRANCH  31  37
ATOM     37  C   UNL     1     146.513 169.264 152.814  1.00  0.00     0.191 C 
BRANCH  37  38
ATOM     38  O   UNL     1     146.340 169.555 154.175  1.00  0.00    -0.394 OA
ATOM     39  H   UNL     1     146.436 168.697 154.665  1.00  0.00     0.210 HD
ENDBRANCH  37  38
ENDBRANCH  31  37
BRANCH  32  40
ATOM     40  O   UNL     1     143.875 168.243 153.479  1.00  0.00    -0.387 OA
ATOM     41  H   UNL     1     143.395 169.077 153.235  1.00  0.00     0.211 HD
ENDBRANCH  32  40
ENDBRANCH   1  27
TORSDOF 12
ENDMDL
MODEL 8
REMARK VINA RESULT:    -7.231      2.441      6.267
REMARK INTER + INTRA:         -11.483
REMARK INTER:                 -10.492
REMARK INTRA:                  -0.991
REMARK UNBOUND:                -0.871
REMARK SMILES O=c1c(O[C@H]2O[C@H](CO)[C@H](O)[C@@H](O)[C@H]2O)c(-c2ccc(O)c(O)c2)oc2cc(O)cc(O)c12
REMARK SMILES IDX 4 1 3 2 16 3 25 4 2 5 26 6 1 7 33 8 27 9 31 10 28 11 30 12
REMARK SMILES IDX 17 13 18 14 19 15 20 16 24 17 22 18 21 19 23 21 32 23 29 25
REMARK SMILES IDX 5 27 14 28 6 29 12 30 7 31 10 32 15 33 13 35 8 37 9 38 11 40
REMARK H PARENT 21 20 23 22 32 24 29 26 15 34 13 36 9 39 11 41
REMARK Flexibility Score: inf
ROOT
ATOM      1  O   UNL     1     146.212 166.993 153.018  1.00  0.00    -0.454 OA
ENDROOT
BRANCH   1   2
ATOM      2  C   UNL     1     147.013 165.915 152.581  1.00  0.00     0.214 A 
ATOM      3  C   UNL     1     147.986 166.167 151.594  1.00  0.00     0.180 A 
ATOM      4  O   UNL     1     148.705 165.174 151.084  1.00  0.00    -0.452 OA
ATOM      5  C   UNL     1     146.874 164.586 153.051  1.00  0.00     0.239 A 
ATOM      6  C   UNL     1     148.588 163.915 151.479  1.00  0.00     0.146 A 
ATOM      7  O   UNL     1     146.050 164.313 153.962  1.00  0.00    -0.285 OA
ATOM      8  C   UNL     1     147.669 163.561 152.492  1.00  0.00     0.111 A 
ATOM      9  C   UNL     1     149.393 162.939 150.882  1.00  0.00     0.094 A 
ATOM     10  C   UNL     1     147.582 162.205 152.897  1.00  0.00     0.134 A 
ATOM     11  C   UNL     1     149.300 161.604 151.285  1.00  0.00     0.123 A 
ATOM     12  C   UNL     1     148.399 161.242 152.288  1.00  0.00     0.093 A 
BRANCH   3  13
ATOM     13  C   UNL     1     148.233 167.529 151.087  1.00  0.00     0.025 A 
ATOM     14  C   UNL     1     147.434 168.047 150.060  1.00  0.00     0.016 A 
ATOM     15  C   UNL     1     147.671 169.330 149.564  1.00  0.00     0.051 A 
ATOM     16  C   UNL     1     148.718 170.110 150.072  1.00  0.00     0.157 A 
ATOM     17  C   UNL     1     149.300 168.294 151.580  1.00  0.00     0.062 A 
ATOM     18  C   UNL     1     149.548 169.582 151.090  1.00  0.00     0.158 A 
BRANCH  16  19
ATOM     19  O   UNL     1     148.899 171.388 149.538  1.00  0.00    -0.504 OA
ATOM     20  H   UNL     1     148.212 171.866 148.973  1.00  0.00     0.293 HD
ENDBRANCH  16  19
BRANCH  18  21
ATOM     21  O   UNL     1     150.618 170.292 151.636  1.00  0.00    -0.504 OA
ATOM     22  H   UNL     1     150.723 171.295 151.568  1.00  0.00     0.293 HD
ENDBRANCH  18  21
ENDBRANCH   3  13
BRANCH  10  23
ATOM     23  O   UNL     1     146.691 161.808 153.895  1.00  0.00    -0.507 OA
ATOM     24  H   UNL     1     146.367 162.452 154.608  1.00  0.00     0.293 HD
ENDBRANCH  10  23
BRANCH  11  25
ATOM     25  O   UNL     1     150.100 160.627 150.695  1.00  0.00    -0.508 OA
ATOM     26  H   UNL     1     149.922 160.294 149.754  1.00  0.00     0.293 HD
ENDBRANCH  11  25
ENDBRANCH   1   2
BRANCH   1  27
ATOM     27  C   UNL     1     146.086 167.478 154.360  1.00  0.00     0.339 C 
ATOM     28  C   UNL     1     145.296 168.805 154.415  1.00  0.00     0.214 C 
ATOM     29  O   UNL     1     147.352 167.598 154.991  1.00  0.00    -0.332 OA
ATOM     30  C   UNL     1     146.130 170.024 153.952  1.00  0.00     0.180 C 
ATOM     31  C   UNL     1     148.166 168.558 154.338  1.00  0.00     0.179 C 
ATOM     32  C   UNL     1     147.568 169.973 154.512  1.00  0.00     0.177 C 
BRANCH  28  33
ATOM     33  O   UNL     1     144.121 168.688 153.654  1.00  0.00    -0.384 OA
ATOM     34  H   UNL     1     143.372 168.981 154.237  1.00  0.00     0.211 HD
ENDBRANCH  28  33
BRANCH  30  35
ATOM     35  O   UNL     1     146.126 170.165 152.552  1.00  0.00    -0.387 OA
ATOM     36  H   UNL     1     145.404 169.598 152.190  1.00  0.00     0.211 HD
ENDBRANCH  30  35
BRANCH  31  37
ATOM     37  C   UNL     1     149.584 168.467 154.921  1.00  0.00     0.191 C 
BRANCH  37  38
ATOM     38  O   UNL     1     150.275 169.676 154.755  1.00  0.00    -0.394 OA
ATOM     39  H   UNL     1     149.678 170.395 155.091  1.00  0.00     0.210 HD
ENDBRANCH  37  38
ENDBRANCH  31  37
BRANCH  32  40
ATOM     40  O   UNL     1     147.553 170.312 155.877  1.00  0.00    -0.387 OA
ATOM     41  H   UNL     1     147.282 169.495 156.374  1.00  0.00     0.211 HD
ENDBRANCH  32  40
ENDBRANCH   1  27
TORSDOF 12
ENDMDL
MODEL 9
REMARK VINA RESULT:    -6.941      2.078      4.697
REMARK INTER + INTRA:         -11.058
REMARK INTER:                 -10.265
REMARK INTRA:                  -0.793
REMARK UNBOUND:                -0.871
REMARK SMILES O=c1c(O[C@H]2O[C@H](CO)[C@H](O)[C@@H](O)[C@H]2O)c(-c2ccc(O)c(O)c2)oc2cc(O)cc(O)c12
REMARK SMILES IDX 4 1 3 2 16 3 25 4 2 5 26 6 1 7 33 8 27 9 31 10 28 11 30 12
REMARK SMILES IDX 17 13 18 14 19 15 20 16 24 17 22 18 21 19 23 21 32 23 29 25
REMARK SMILES IDX 5 27 14 28 6 29 12 30 7 31 10 32 15 33 13 35 8 37 9 38 11 40
REMARK H PARENT 21 20 23 22 32 24 29 26 15 34 13 36 9 39 11 41
REMARK Flexibility Score: inf
ROOT
ATOM      1  O   UNL     1     146.904 166.337 151.726  1.00  0.00    -0.454 OA
ENDROOT
BRANCH   1   2
ATOM      2  C   UNL     1     147.943 167.166 152.203  1.00  0.00     0.214 A 
ATOM      3  C   UNL     1     147.914 167.558 153.557  1.00  0.00     0.180 A 
ATOM      4  O   UNL     1     148.815 168.406 154.034  1.00  0.00    -0.452 OA
ATOM      5  C   UNL     1     148.997 167.656 151.394  1.00  0.00     0.239 A 
ATOM      6  C   UNL     1     149.802 168.906 153.304  1.00  0.00     0.146 A 
ATOM      7  O   UNL     1     149.096 167.303 150.190  1.00  0.00    -0.285 OA
ATOM      8  C   UNL     1     149.945 168.546 151.946  1.00  0.00     0.111 A 
ATOM      9  C   UNL     1     150.705 169.793 153.900  1.00  0.00     0.094 A 
ATOM     10  C   UNL     1     151.021 169.092 151.200  1.00  0.00     0.134 A 
ATOM     11  C   UNL     1     151.763 170.328 153.158  1.00  0.00     0.123 A 
ATOM     12  C   UNL     1     151.918 169.976 151.816  1.00  0.00     0.093 A 
BRANCH   3  13
ATOM     13  C   UNL     1     146.883 167.053 154.481  1.00  0.00     0.025 A 
ATOM     14  C   UNL     1     145.553 167.466 154.336  1.00  0.00     0.016 A 
ATOM     15  C   UNL     1     144.573 167.005 155.217  1.00  0.00     0.051 A 
ATOM     16  C   UNL     1     144.906 166.139 156.266  1.00  0.00     0.157 A 
ATOM     17  C   UNL     1     147.228 166.208 155.546  1.00  0.00     0.062 A 
ATOM     18  C   UNL     1     146.254 165.740 156.436  1.00  0.00     0.158 A 
BRANCH  16  19
ATOM     19  O   UNL     1     143.880 165.707 157.109  1.00  0.00    -0.504 OA
ATOM     20  H   UNL     1     144.016 165.082 157.890  1.00  0.00     0.293 HD
ENDBRANCH  16  19
BRANCH  18  21
ATOM     21  O   UNL     1     146.667 164.891 157.465  1.00  0.00    -0.504 OA
ATOM     22  H   UNL     1     147.609 164.861 157.828  1.00  0.00     0.293 HD
ENDBRANCH  18  21
ENDBRANCH   3  13
BRANCH  10  23
ATOM     23  O   UNL     1     151.204 168.763 149.857  1.00  0.00    -0.507 OA
ATOM     24  H   UNL     1     151.159 167.804 149.531  1.00  0.00     0.293 HD
ENDBRANCH  10  23
BRANCH  11  25
ATOM     25  O   UNL     1     152.666 171.211 153.746  1.00  0.00    -0.508 OA
ATOM     26  H   UNL     1     152.984 171.087 154.701  1.00  0.00     0.293 HD
ENDBRANCH  11  25
ENDBRANCH   1   2
BRANCH   1  27
ATOM     27  C   UNL     1     147.041 165.197 150.870  1.00  0.00     0.339 C 
ATOM     28  C   UNL     1     145.847 164.227 151.016  1.00  0.00     0.214 C 
ATOM     29  O   UNL     1     148.279 164.536 151.078  1.00  0.00    -0.332 OA
ATOM     30  C   UNL     1     145.912 163.380 152.310  1.00  0.00     0.180 C 
ATOM     31  C   UNL     1     148.370 164.010 152.391  1.00  0.00     0.179 C 
ATOM     32  C   UNL     1     147.343 162.869 152.582  1.00  0.00     0.177 C 
BRANCH  28  33
ATOM     33  O   UNL     1     144.642 164.946 150.952  1.00  0.00    -0.384 OA
ATOM     34  H   UNL     1     144.830 165.774 150.438  1.00  0.00     0.211 HD
ENDBRANCH  28  33
BRANCH  30  35
ATOM     35  O   UNL     1     145.392 164.072 153.419  1.00  0.00    -0.387 OA
ATOM     36  H   UNL     1     144.418 163.911 153.450  1.00  0.00     0.211 HD
ENDBRANCH  30  35
BRANCH  31  37
ATOM     37  C   UNL     1     149.808 163.520 152.619  1.00  0.00     0.191 C 
BRANCH  37  38
ATOM     38  O   UNL     1     150.259 162.759 151.531  1.00  0.00    -0.394 OA
ATOM     39  H   UNL     1     150.851 162.054 151.903  1.00  0.00     0.210 HD
ENDBRANCH  37  38
ENDBRANCH  31  37
BRANCH  32  40
ATOM     40  O   UNL     1     147.642 161.816 151.699  1.00  0.00    -0.387 OA
ATOM     41  H   UNL     1     146.814 161.276 151.604  1.00  0.00     0.211 HD
ENDBRANCH  32  40
ENDBRANCH   1  27
TORSDOF 12
ENDMDL
