MODEL 1
REMARK VINA RESULT:    -3.668      0.000      0.000
REMARK INTER + INTRA:          -5.437
REMARK INTER:                  -4.955
REMARK INTRA:                  -0.482
REMARK UNBOUND:                -0.482
REMARK SMILES CCCCCCC=CC(=O)[O-]
REMARK SMILES IDX 5 1 6 2 7 3 8 4 9 5 10 6 11 7 4 8 3 9 2 10 1 11
REMARK H PARENT
REMARK Flexibility Score: inf
ROOT
ATOM      1  C   UNL     1       3.265  -8.381  -8.479  1.00  0.00     0.004 C 
ENDROOT
BRANCH   1   2
ATOM      2  C   UNL     1       2.772  -7.538  -9.668  1.00  0.00     0.027 C 
BRANCH   2   3
ATOM      3  C   UNL     1       2.107  -6.260  -9.236  1.00  0.00    -0.025 C 
ATOM      4  C   UNL     1       2.466  -5.631  -8.112  1.00  0.00     0.020 C 
BRANCH   4   5
ATOM      5  C   UNL     1       1.831  -4.378  -7.674  1.00  0.00     0.064 C 
ATOM      6  O   UNL     1       1.404  -3.537  -8.510  1.00  0.00    -0.545 OA
ATOM      7  O   UNL     1       1.700  -4.117  -6.317  1.00  0.00    -0.545 OA
ENDBRANCH   4   5
ENDBRANCH   2   3
ENDBRANCH   1   2
BRANCH   1   8
ATOM      8  C   UNL     1       4.797  -8.553  -8.409  1.00  0.00     0.000 C 
BRANCH   8   9
ATOM      9  C   UNL     1       5.577  -7.908  -9.568  1.00  0.00    -0.000 C 
BRANCH   9  10
ATOM     10  C   UNL     1       6.348  -6.651  -9.141  1.00  0.00    -0.003 C 
ATOM     11  C   UNL     1       7.813  -6.735  -9.563  1.00  0.00     0.004 C 
ENDBRANCH   9  10
ENDBRANCH   8   9
ENDBRANCH   1   8
TORSDOF 6
ENDMDL
MODEL 2
REMARK VINA RESULT:    -3.667     14.184     15.757
REMARK INTER + INTRA:          -5.435
REMARK INTER:                  -5.098
REMARK INTRA:                  -0.337
REMARK UNBOUND:                -0.482
REMARK SMILES CCCCCCC=CC(=O)[O-]
REMARK SMILES IDX 5 1 6 2 7 3 8 4 9 5 10 6 11 7 4 8 3 9 2 10 1 11
REMARK H PARENT
REMARK Flexibility Score: inf
ROOT
ATOM      1  C   UNL     1      -4.149   6.391  -4.055  1.00  0.00     0.004 C 
ENDROOT
BRANCH   1   2
ATOM      2  C   UNL     1      -4.984   5.669  -2.982  1.00  0.00     0.027 C 
BRANCH   2   3
ATOM      3  C   UNL     1      -4.324   5.679  -1.631  1.00  0.00    -0.025 C 
ATOM      4  C   UNL     1      -3.002   5.838  -1.499  1.00  0.00     0.020 C 
BRANCH   4   5
ATOM      5  C   UNL     1      -2.338   5.855  -0.187  1.00  0.00     0.064 C 
ATOM      6  O   UNL     1      -2.938   5.471   0.852  1.00  0.00    -0.545 OA
ATOM      7  O   UNL     1      -1.026   6.302  -0.091  1.00  0.00    -0.545 OA
ENDBRANCH   4   5
ENDBRANCH   2   3
ENDBRANCH   1   2
BRANCH   1   8
ATOM      8  C   UNL     1      -4.694   6.247  -5.491  1.00  0.00     0.000 C 
BRANCH   8   9
ATOM      9  C   UNL     1      -5.960   5.383  -5.623  1.00  0.00    -0.000 C 
BRANCH   9  10
ATOM     10  C   UNL     1      -5.682   4.009  -6.248  1.00  0.00    -0.003 C 
ATOM     11  C   UNL     1      -4.823   4.139  -7.504  1.00  0.00     0.004 C 
ENDBRANCH   9  10
ENDBRANCH   8   9
ENDBRANCH   1   8
TORSDOF 6
ENDMDL
MODEL 3
REMARK VINA RESULT:    -3.624     15.763     16.940
REMARK INTER + INTRA:          -5.377
REMARK INTER:                  -4.766
REMARK INTRA:                  -0.610
REMARK UNBOUND:                -0.482
REMARK SMILES CCCCCCC=CC(=O)[O-]
REMARK SMILES IDX 5 1 6 2 7 3 8 4 9 5 10 6 11 7 4 8 3 9 2 10 1 11
REMARK H PARENT
REMARK Flexibility Score: inf
ROOT
ATOM      1  C   UNL     1      -3.481   6.167  -3.226  1.00  0.00     0.004 C 
ENDROOT
BRANCH   1   2
ATOM      2  C   UNL     1      -4.655   7.071  -2.810  1.00  0.00     0.027 C 
BRANCH   2   3
ATOM      3  C   UNL     1      -5.682   6.345  -1.986  1.00  0.00    -0.025 C 
ATOM      4  C   UNL     1      -6.081   6.810  -0.797  1.00  0.00     0.020 C 
BRANCH   4   5
ATOM      5  C   UNL     1      -7.088   6.117   0.021  1.00  0.00     0.064 C 
ATOM      6  O   UNL     1      -6.774   5.137   0.749  1.00  0.00    -0.545 OA
ATOM      7  O   UNL     1      -8.407   6.550  -0.006  1.00  0.00    -0.545 OA
ENDBRANCH   4   5
ENDBRANCH   2   3
ENDBRANCH   1   2
BRANCH   1   8
ATOM      8  C   UNL     1      -2.086   6.773  -2.968  1.00  0.00     0.000 C 
BRANCH   8   9
ATOM      9  C   UNL     1      -1.388   6.277  -1.689  1.00  0.00    -0.000 C 
BRANCH   9  10
ATOM     10  C   UNL     1      -2.204   5.216  -0.938  1.00  0.00    -0.003 C 
ATOM     11  C   UNL     1      -2.687   5.745   0.410  1.00  0.00     0.004 C 
ENDBRANCH   9  10
ENDBRANCH   8   9
ENDBRANCH   1   8
TORSDOF 6
ENDMDL
MODEL 4
REMARK VINA RESULT:    -3.517     13.987     15.277
REMARK INTER + INTRA:          -5.233
REMARK INTER:                  -5.028
REMARK INTRA:                  -0.206
REMARK UNBOUND:                -0.482
REMARK SMILES CCCCCCC=CC(=O)[O-]
REMARK SMILES IDX 5 1 6 2 7 3 8 4 9 5 10 6 11 7 4 8 3 9 2 10 1 11
REMARK H PARENT
REMARK Flexibility Score: inf
ROOT
ATOM      1  C   UNL     1      -4.407   6.097  -3.198  1.00  0.00     0.004 C 
ENDROOT
BRANCH   1   2
ATOM      2  C   UNL     1      -5.672   6.004  -4.069  1.00  0.00     0.027 C 
BRANCH   2   3
ATOM      3  C   UNL     1      -5.363   5.709  -5.510  1.00  0.00    -0.025 C 
ATOM      4  C   UNL     1      -5.533   4.486  -6.025  1.00  0.00     0.020 C 
BRANCH   4   5
ATOM      5  C   UNL     1      -5.241   4.178  -7.434  1.00  0.00     0.064 C 
ATOM      6  O   UNL     1      -6.168   3.970  -8.262  1.00  0.00    -0.545 OA
ATOM      7  O   UNL     1      -3.920   4.115  -7.859  1.00  0.00    -0.545 OA
ENDBRANCH   4   5
ENDBRANCH   2   3
ENDBRANCH   1   2
BRANCH   1   8
ATOM      8  C   UNL     1      -4.526   5.405  -1.824  1.00  0.00     0.000 C 
BRANCH   8   9
ATOM      9  C   UNL     1      -3.579   5.948  -0.738  1.00  0.00    -0.000 C 
BRANCH   9  10
ATOM     10  C   UNL     1      -2.321   5.086  -0.559  1.00  0.00    -0.003 C 
ATOM     11  C   UNL     1      -1.203   5.544  -1.493  1.00  0.00     0.004 C 
ENDBRANCH   9  10
ENDBRANCH   8   9
ENDBRANCH   1   8
TORSDOF 6
ENDMDL
MODEL 5
REMARK VINA RESULT:    -3.493      3.395      5.145
REMARK INTER + INTRA:          -5.200
REMARK INTER:                  -4.764
REMARK INTRA:                  -0.436
REMARK UNBOUND:                -0.482
REMARK SMILES CCCCCCC=CC(=O)[O-]
REMARK SMILES IDX 5 1 6 2 7 3 8 4 9 5 10 6 11 7 4 8 3 9 2 10 1 11
REMARK H PARENT
REMARK Flexibility Score: inf
ROOT
ATOM      1  C   UNL     1       2.668  -8.113  -8.618  1.00  0.00     0.004 C 
ENDROOT
BRANCH   1   2
ATOM      2  C   UNL     1       3.440  -9.333  -9.150  1.00  0.00     0.027 C 
BRANCH   2   3
ATOM      3  C   UNL     1       4.881  -9.022  -9.446  1.00  0.00    -0.025 C 
ATOM      4  C   UNL     1       5.650  -8.366  -8.569  1.00  0.00     0.020 C 
BRANCH   4   5
ATOM      5  C   UNL     1       7.063  -8.057  -8.838  1.00  0.00     0.064 C 
ATOM      6  O   UNL     1       7.474  -6.866  -8.875  1.00  0.00    -0.545 OA
ATOM      7  O   UNL     1       7.960  -9.094  -9.055  1.00  0.00    -0.545 OA
ENDBRANCH   4   5
ENDBRANCH   2   3
ENDBRANCH   1   2
BRANCH   1   8
ATOM      8  C   UNL     1       1.992  -7.259  -9.710  1.00  0.00     0.000 C 
BRANCH   8   9
ATOM      9  C   UNL     1       1.995  -5.743  -9.446  1.00  0.00    -0.000 C 
BRANCH   9  10
ATOM     10  C   UNL     1       2.685  -5.369  -8.126  1.00  0.00    -0.003 C 
ATOM     11  C   UNL     1       1.746  -4.574  -7.222  1.00  0.00     0.004 C 
ENDBRANCH   9  10
ENDBRANCH   8   9
ENDBRANCH   1   8
TORSDOF 6
ENDMDL
MODEL 6
REMARK VINA RESULT:    -3.467     17.690     18.985
REMARK INTER + INTRA:          -5.166
REMARK INTER:                  -4.568
REMARK INTRA:                  -0.598
REMARK UNBOUND:                -0.482
REMARK SMILES CCCCCCC=CC(=O)[O-]
REMARK SMILES IDX 5 1 6 2 7 3 8 4 9 5 10 6 11 7 4 8 3 9 2 10 1 11
REMARK H PARENT
REMARK Flexibility Score: inf
ROOT
ATOM      1  C   UNL     1      -5.222  -7.158   8.376  1.00  0.00     0.004 C 
ENDROOT
BRANCH   1   2
ATOM      2  C   UNL     1      -4.388  -7.513   7.132  1.00  0.00     0.027 C 
BRANCH   2   3
ATOM      3  C   UNL     1      -4.916  -8.719   6.406  1.00  0.00    -0.025 C 
ATOM      4  C   UNL     1      -5.769  -9.568   6.988  1.00  0.00     0.020 C 
BRANCH   4   5
ATOM      5  C   UNL     1      -6.301 -10.751   6.293  1.00  0.00     0.064 C 
ATOM      6  O   UNL     1      -7.044 -11.577   6.887  1.00  0.00    -0.545 OA
ATOM      7  O   UNL     1      -5.980 -10.960   4.958  1.00  0.00    -0.545 OA
ENDBRANCH   4   5
ENDBRANCH   2   3
ENDBRANCH   1   2
BRANCH   1   8
ATOM      8  C   UNL     1      -4.443  -7.221   9.706  1.00  0.00     0.000 C 
BRANCH   8   9
ATOM      9  C   UNL     1      -3.700  -8.543   9.963  1.00  0.00    -0.000 C 
BRANCH   9  10
ATOM     10  C   UNL     1      -2.174  -8.376   9.982  1.00  0.00    -0.003 C 
ATOM     11  C   UNL     1      -1.528  -9.088   8.796  1.00  0.00     0.004 C 
ENDBRANCH   9  10
ENDBRANCH   8   9
ENDBRANCH   1   8
TORSDOF 6
ENDMDL
MODEL 7
REMARK VINA RESULT:    -3.466     17.003     18.539
REMARK INTER + INTRA:          -5.164
REMARK INTER:                  -4.895
REMARK INTRA:                  -0.269
REMARK UNBOUND:                -0.482
REMARK SMILES CCCCCCC=CC(=O)[O-]
REMARK SMILES IDX 5 1 6 2 7 3 8 4 9 5 10 6 11 7 4 8 3 9 2 10 1 11
REMARK H PARENT
REMARK Flexibility Score: inf
ROOT
ATOM      1  C   UNL     1      -2.419  -8.912   8.747  1.00  0.00     0.004 C 
ENDROOT
BRANCH   1   2
ATOM      2  C   UNL     1      -1.482  -8.416   9.863  1.00  0.00     0.027 C 
BRANCH   2   3
ATOM      3  C   UNL     1      -0.029  -8.527   9.491  1.00  0.00    -0.025 C 
ATOM      4  C   UNL     1       0.379  -9.317   8.491  1.00  0.00     0.020 C 
BRANCH   4   5
ATOM      5  C   UNL     1       1.794  -9.436   8.108  1.00  0.00     0.064 C 
ATOM      6  O   UNL     1       2.135  -9.567   6.902  1.00  0.00    -0.545 OA
ATOM      7  O   UNL     1       2.773  -9.402   9.093  1.00  0.00    -0.545 OA
ENDBRANCH   4   5
ENDBRANCH   2   3
ENDBRANCH   1   2
BRANCH   1   8
ATOM      8  C   UNL     1      -3.892  -8.484   8.913  1.00  0.00     0.000 C 
BRANCH   8   9
ATOM      9  C   UNL     1      -4.386  -7.443   7.893  1.00  0.00    -0.000 C 
BRANCH   9  10
ATOM     10  C   UNL     1      -4.524  -8.016   6.476  1.00  0.00    -0.003 C 
ATOM     11  C   UNL     1      -5.360  -9.293   6.478  1.00  0.00     0.004 C 
ENDBRANCH   9  10
ENDBRANCH   8   9
ENDBRANCH   1   8
TORSDOF 6
ENDMDL
MODEL 8
REMARK VINA RESULT:    -3.460     18.023     19.595
REMARK INTER + INTRA:          -5.156
REMARK INTER:                  -4.588
REMARK INTRA:                  -0.568
REMARK UNBOUND:                -0.482
REMARK SMILES CCCCCCC=CC(=O)[O-]
REMARK SMILES IDX 5 1 6 2 7 3 8 4 9 5 10 6 11 7 4 8 3 9 2 10 1 11
REMARK H PARENT
REMARK Flexibility Score: inf
ROOT
ATOM      1  C   UNL     1      -3.748  -8.334   7.573  1.00  0.00     0.004 C 
ENDROOT
BRANCH   1   2
ATOM      2  C   UNL     1      -4.239  -7.659   8.865  1.00  0.00     0.027 C 
BRANCH   2   3
ATOM      3  C   UNL     1      -5.443  -6.786   8.642  1.00  0.00    -0.025 C 
ATOM      4  C   UNL     1      -5.724  -5.761   9.454  1.00  0.00     0.020 C 
BRANCH   4   5
ATOM      5  C   UNL     1      -6.894  -4.893   9.250  1.00  0.00     0.064 C 
ATOM      6  O   UNL     1      -6.781  -3.765   8.700  1.00  0.00    -0.545 OA
ATOM      7  O   UNL     1      -8.146  -5.324   9.670  1.00  0.00    -0.545 OA
ENDBRANCH   4   5
ENDBRANCH   2   3
ENDBRANCH   1   2
BRANCH   1   8
ATOM      8  C   UNL     1      -4.820  -8.454   6.469  1.00  0.00     0.000 C 
BRANCH   8   9
ATOM      9  C   UNL     1      -5.494  -9.834   6.364  1.00  0.00    -0.000 C 
BRANCH   9  10
ATOM     10  C   UNL     1      -6.765  -9.943   7.218  1.00  0.00    -0.003 C 
ATOM     11  C   UNL     1      -6.502 -10.733   8.498  1.00  0.00     0.004 C 
ENDBRANCH   9  10
ENDBRANCH   8   9
ENDBRANCH   1   8
TORSDOF 6
ENDMDL
MODEL 9
REMARK VINA RESULT:    -3.390     14.932     15.639
REMARK INTER + INTRA:          -5.061
REMARK INTER:                  -4.591
REMARK INTRA:                  -0.470
REMARK UNBOUND:                -0.482
REMARK SMILES CCCCCCC=CC(=O)[O-]
REMARK SMILES IDX 5 1 6 2 7 3 8 4 9 5 10 6 11 7 4 8 3 9 2 10 1 11
REMARK H PARENT
REMARK Flexibility Score: inf
ROOT
ATOM      1  C   UNL     1      -4.699   5.353  -1.728  1.00  0.00     0.004 C 
ENDROOT
BRANCH   1   2
ATOM      2  C   UNL     1      -5.271   6.456  -2.634  1.00  0.00     0.027 C 
BRANCH   2   3
ATOM      3  C   UNL     1      -5.440   6.006  -4.059  1.00  0.00    -0.025 C 
ATOM      4  C   UNL     1      -4.581   6.375  -5.015  1.00  0.00     0.020 C 
BRANCH   4   5
ATOM      5  C   UNL     1      -4.725   5.942  -6.413  1.00  0.00     0.064 C 
ATOM      6  O   UNL     1      -4.494   4.751  -6.754  1.00  0.00    -0.545 OA
ATOM      7  O   UNL     1      -5.124   6.860  -7.376  1.00  0.00    -0.545 OA
ENDBRANCH   4   5
ENDBRANCH   2   3
ENDBRANCH   1   2
BRANCH   1   8
ATOM      8  C   UNL     1      -3.584   5.826  -0.771  1.00  0.00     0.000 C 
BRANCH   8   9
ATOM      9  C   UNL     1      -2.245   5.081  -0.914  1.00  0.00    -0.000 C 
BRANCH   9  10
ATOM     10  C   UNL     1      -1.112   5.983  -1.425  1.00  0.00    -0.003 C 
ATOM     11  C   UNL     1      -1.395   6.471  -2.844  1.00  0.00     0.004 C 
ENDBRANCH   9  10
ENDBRANCH   8   9
ENDBRANCH   1   8
TORSDOF 6
ENDMDL
