MODEL 1
REMARK VINA RESULT:    -4.874      0.000      0.000
REMARK INTER + INTRA:         -10.271
REMARK INTER:                  -9.148
REMARK INTRA:                  -1.123
REMARK UNBOUND:                -1.123
REMARK SMILES O=C([O-])CCCCCCCCCCCCCCC(=O)[O-]
REMARK SMILES IDX 10 1 9 2 8 3 7 4 6 5 5 6 4 7 2 8 1 9 3 10 11 11 12 12 13 13
REMARK SMILES IDX 14 14 15 15 16 16 17 17 18 18 19 19 20 20
REMARK H PARENT
REMARK Flexibility Score: inf
ROOT
ATOM      1  C   UNL     1      17.595  66.585  36.740  1.00  0.00     0.000 C 
ENDROOT
BRANCH   1   2
ATOM      2  C   UNL     1      17.549  65.445  37.774  1.00  0.00     0.000 C 
BRANCH   2   3
ATOM      3  C   UNL     1      17.619  65.961  39.221  1.00  0.00     0.000 C 
BRANCH   3   4
ATOM      4  C   UNL     1      18.683  65.228  40.056  1.00  0.00     0.000 C 
BRANCH   4   5
ATOM      5  C   UNL     1      20.056  65.924  40.022  1.00  0.00     0.000 C 
BRANCH   5   6
ATOM      6  C   UNL     1      20.006  67.458  39.897  1.00  0.00     0.006 C 
BRANCH   6   7
ATOM      7  C   UNL     1      20.074  68.172  41.254  1.00  0.00     0.053 C 
BRANCH   7   8
ATOM      8  C   UNL     1      19.139  69.340  41.275  1.00  0.00     0.041 C 
ATOM      9  O   UNL     1      19.465  70.401  41.870  1.00  0.00    -0.550 OA
ATOM     10  O   UNL     1      17.930  69.276  40.595  1.00  0.00    -0.550 OA
ENDBRANCH   7   8
ENDBRANCH   6   7
ENDBRANCH   5   6
ENDBRANCH   4   5
ENDBRANCH   3   4
ENDBRANCH   2   3
ENDBRANCH   1   2
BRANCH   1  11
ATOM     11  C   UNL     1      16.234  66.832  36.070  1.00  0.00     0.000 C 
BRANCH  11  12
ATOM     12  C   UNL     1      16.171  66.277  34.636  1.00  0.00     0.000 C 
BRANCH  12  13
ATOM     13  C   UNL     1      14.885  66.686  33.900  1.00  0.00     0.000 C 
BRANCH  13  14
ATOM     14  C   UNL     1      15.079  66.787  32.379  1.00  0.00     0.000 C 
BRANCH  14  15
ATOM     15  C   UNL     1      14.867  68.226  31.893  1.00  0.00     0.000 C 
BRANCH  15  16
ATOM     16  C   UNL     1      15.322  69.238  32.955  1.00  0.00     0.006 C 
BRANCH  16  17
ATOM     17  C   UNL     1      16.792  69.641  32.780  1.00  0.00     0.053 C 
BRANCH  17  18
ATOM     18  C   UNL     1      17.362  70.229  34.035  1.00  0.00     0.041 C 
ATOM     19  O   UNL     1      17.985  69.499  34.851  1.00  0.00    -0.550 OA
ATOM     20  O   UNL     1      17.176  71.575  34.321  1.00  0.00    -0.550 OA
ENDBRANCH  17  18
ENDBRANCH  16  17
ENDBRANCH  15  16
ENDBRANCH  14  15
ENDBRANCH  13  14
ENDBRANCH  12  13
ENDBRANCH  11  12
ENDBRANCH   1  11
TORSDOF 15
ENDMDL
MODEL 2
REMARK VINA RESULT:    -4.833      4.461      6.496
REMARK INTER + INTRA:         -10.194
REMARK INTER:                  -9.150
REMARK INTRA:                  -1.044
REMARK UNBOUND:                -1.123
REMARK SMILES O=C([O-])CCCCCCCCCCCCCCC(=O)[O-]
REMARK SMILES IDX 10 1 9 2 8 3 7 4 6 5 5 6 4 7 2 8 1 9 3 10 11 11 12 12 13 13
REMARK SMILES IDX 14 14 15 15 16 16 17 17 18 18 19 19 20 20
REMARK H PARENT
REMARK Flexibility Score: inf
ROOT
ATOM      1  C   UNL     1      14.896  67.690  32.203  1.00  0.00     0.000 C 
ENDROOT
BRANCH   1   2
ATOM      2  C   UNL     1      15.563  69.000  32.663  1.00  0.00     0.000 C 
BRANCH   2   3
ATOM      3  C   UNL     1      16.266  68.856  34.022  1.00  0.00     0.000 C 
BRANCH   3   4
ATOM      4  C   UNL     1      17.403  69.876  34.208  1.00  0.00     0.000 C 
BRANCH   4   5
ATOM      5  C   UNL     1      18.199  69.655  35.507  1.00  0.00     0.000 C 
BRANCH   5   6
ATOM      6  C   UNL     1      17.888  68.341  36.247  1.00  0.00     0.006 C 
BRANCH   6   7
ATOM      7  C   UNL     1      18.117  68.437  37.761  1.00  0.00     0.053 C 
BRANCH   7   8
ATOM      8  C   UNL     1      18.859  67.235  38.254  1.00  0.00     0.041 C 
ATOM      9  O   UNL     1      18.410  66.567  39.222  1.00  0.00    -0.550 OA
ATOM     10  O   UNL     1      20.019  66.822  37.612  1.00  0.00    -0.550 OA
ENDBRANCH   7   8
ENDBRANCH   6   7
ENDBRANCH   5   6
ENDBRANCH   4   5
ENDBRANCH   3   4
ENDBRANCH   2   3
ENDBRANCH   1   2
BRANCH   1  11
ATOM     11  C   UNL     1      15.233  66.502  33.118  1.00  0.00     0.000 C 
BRANCH  11  12
ATOM     12  C   UNL     1      14.342  65.277  32.850  1.00  0.00     0.000 C 
BRANCH  12  13
ATOM     13  C   UNL     1      15.157  63.997  32.601  1.00  0.00     0.000 C 
BRANCH  13  14
ATOM     14  C   UNL     1      15.038  63.490  31.156  1.00  0.00     0.000 C 
BRANCH  14  15
ATOM     15  C   UNL     1      14.467  62.067  31.118  1.00  0.00     0.000 C 
BRANCH  15  16
ATOM     16  C   UNL     1      13.226  61.996  30.215  1.00  0.00     0.006 C 
BRANCH  16  17
ATOM     17  C   UNL     1      12.145  63.001  30.634  1.00  0.00     0.053 C 
BRANCH  17  18
ATOM     18  C   UNL     1      11.405  62.549  31.855  1.00  0.00     0.041 C 
ATOM     19  O   UNL     1      11.539  63.168  32.943  1.00  0.00    -0.550 OA
ATOM     20  O   UNL     1      10.595  61.422  31.801  1.00  0.00    -0.550 OA
ENDBRANCH  17  18
ENDBRANCH  16  17
ENDBRANCH  15  16
ENDBRANCH  14  15
ENDBRANCH  13  14
ENDBRANCH  12  13
ENDBRANCH  11  12
ENDBRANCH   1  11
TORSDOF 15
ENDMDL
MODEL 3
REMARK VINA RESULT:    -4.782      7.344      9.947
REMARK INTER + INTRA:         -10.098
REMARK INTER:                  -9.154
REMARK INTRA:                  -0.944
REMARK UNBOUND:                -1.123
REMARK SMILES O=C([O-])CCCCCCCCCCCCCCC(=O)[O-]
REMARK SMILES IDX 10 1 9 2 8 3 7 4 6 5 5 6 4 7 2 8 1 9 3 10 11 11 12 12 13 13
REMARK SMILES IDX 14 14 15 15 16 16 17 17 18 18 19 19 20 20
REMARK H PARENT
REMARK Flexibility Score: inf
ROOT
ATOM      1  C   UNL     1      13.217  62.802  31.052  1.00  0.00     0.000 C 
ENDROOT
BRANCH   1   2
ATOM      2  C   UNL     1      14.493  63.497  31.563  1.00  0.00     0.000 C 
BRANCH   2   3
ATOM      3  C   UNL     1      14.217  64.433  32.751  1.00  0.00     0.000 C 
BRANCH   3   4
ATOM      4  C   UNL     1      14.863  65.818  32.572  1.00  0.00     0.000 C 
BRANCH   4   5
ATOM      5  C   UNL     1      15.739  66.229  33.770  1.00  0.00     0.000 C 
BRANCH   5   6
ATOM      6  C   UNL     1      15.619  67.706  34.190  1.00  0.00     0.006 C 
BRANCH   6   7
ATOM      7  C   UNL     1      16.968  68.434  34.212  1.00  0.00     0.053 C 
BRANCH   7   8
ATOM      8  C   UNL     1      16.868  69.740  33.488  1.00  0.00     0.041 C 
ATOM      9  O   UNL     1      16.530  69.767  32.275  1.00  0.00    -0.550 OA
ATOM     10  O   UNL     1      17.099  70.930  34.165  1.00  0.00    -0.550 OA
ENDBRANCH   7   8
ENDBRANCH   6   7
ENDBRANCH   5   6
ENDBRANCH   4   5
ENDBRANCH   3   4
ENDBRANCH   2   3
ENDBRANCH   1   2
BRANCH   1  11
ATOM     11  C   UNL     1      11.934  63.432  31.617  1.00  0.00     0.000 C 
BRANCH  11  12
ATOM     12  C   UNL     1      11.065  62.420  32.383  1.00  0.00     0.000 C 
BRANCH  12  13
ATOM     13  C   UNL     1      11.901  61.432  33.212  1.00  0.00     0.000 C 
BRANCH  13  14
ATOM     14  C   UNL     1      11.431  59.978  33.053  1.00  0.00     0.000 C 
BRANCH  14  15
ATOM     15  C   UNL     1      10.541  59.821  31.814  1.00  0.00     0.000 C 
BRANCH  15  16
ATOM     16  C   UNL     1       9.317  58.946  32.124  1.00  0.00     0.006 C 
BRANCH  16  17
ATOM     17  C   UNL     1       8.000  59.632  31.734  1.00  0.00     0.053 C 
BRANCH  17  18
ATOM     18  C   UNL     1       6.907  59.338  32.716  1.00  0.00     0.041 C 
ATOM     19  O   UNL     1       5.982  60.172  32.903  1.00  0.00    -0.550 OA
ATOM     20  O   UNL     1       6.928  58.159  33.450  1.00  0.00    -0.550 OA
ENDBRANCH  17  18
ENDBRANCH  16  17
ENDBRANCH  15  16
ENDBRANCH  14  15
ENDBRANCH  13  14
ENDBRANCH  12  13
ENDBRANCH  11  12
ENDBRANCH   1  11
TORSDOF 15
ENDMDL
MODEL 4
REMARK VINA RESULT:    -4.761      3.841      5.854
REMARK INTER + INTRA:         -10.059
REMARK INTER:                  -8.460
REMARK INTRA:                  -1.599
REMARK UNBOUND:                -1.123
REMARK SMILES O=C([O-])CCCCCCCCCCCCCCC(=O)[O-]
REMARK SMILES IDX 10 1 9 2 8 3 7 4 6 5 5 6 4 7 2 8 1 9 3 10 11 11 12 12 13 13
REMARK SMILES IDX 14 14 15 15 16 16 17 17 18 18 19 19 20 20
REMARK H PARENT
REMARK Flexibility Score: inf
ROOT
ATOM      1  C   UNL     1      17.234  65.303  36.081  1.00  0.00     0.000 C 
ENDROOT
BRANCH   1   2
ATOM      2  C   UNL     1      16.871  66.040  37.383  1.00  0.00     0.000 C 
BRANCH   2   3
ATOM      3  C   UNL     1      18.109  66.573  38.122  1.00  0.00     0.000 C 
BRANCH   3   4
ATOM      4  C   UNL     1      18.146  68.111  38.174  1.00  0.00     0.000 C 
BRANCH   4   5
ATOM      5  C   UNL     1      19.379  68.704  37.468  1.00  0.00     0.000 C 
BRANCH   5   6
ATOM      6  C   UNL     1      19.130  69.207  36.034  1.00  0.00     0.006 C 
BRANCH   6   7
ATOM      7  C   UNL     1      17.663  69.572  35.773  1.00  0.00     0.053 C 
BRANCH   7   8
ATOM      8  C   UNL     1      17.508  70.168  34.410  1.00  0.00     0.041 C 
ATOM      9  O   UNL     1      17.621  69.445  33.386  1.00  0.00    -0.550 OA
ATOM     10  O   UNL     1      17.189  71.513  34.271  1.00  0.00    -0.550 OA
ENDBRANCH   7   8
ENDBRANCH   6   7
ENDBRANCH   5   6
ENDBRANCH   4   5
ENDBRANCH   3   4
ENDBRANCH   2   3
ENDBRANCH   1   2
BRANCH   1  11
ATOM     11  C   UNL     1      17.065  66.186  34.834  1.00  0.00     0.000 C 
BRANCH  11  12
ATOM     12  C   UNL     1      15.617  66.665  34.639  1.00  0.00     0.000 C 
BRANCH  12  13
ATOM     13  C   UNL     1      15.237  66.812  33.157  1.00  0.00     0.000 C 
BRANCH  13  14
ATOM     14  C   UNL     1      14.392  65.637  32.641  1.00  0.00     0.000 C 
BRANCH  14  15
ATOM     15  C   UNL     1      15.280  64.558  32.010  1.00  0.00     0.000 C 
BRANCH  15  16
ATOM     16  C   UNL     1      14.739  63.153  32.314  1.00  0.00     0.006 C 
BRANCH  16  17
ATOM     17  C   UNL     1      13.213  63.077  32.178  1.00  0.00     0.053 C 
BRANCH  17  18
ATOM     18  C   UNL     1      12.793  62.749  30.778  1.00  0.00     0.041 C 
ATOM     19  O   UNL     1      11.665  63.112  30.353  1.00  0.00    -0.550 OA
ATOM     20  O   UNL     1      13.634  62.013  29.953  1.00  0.00    -0.550 OA
ENDBRANCH  17  18
ENDBRANCH  16  17
ENDBRANCH  15  16
ENDBRANCH  14  15
ENDBRANCH  13  14
ENDBRANCH  12  13
ENDBRANCH  11  12
ENDBRANCH   1  11
TORSDOF 15
ENDMDL
MODEL 5
REMARK VINA RESULT:    -4.753      5.864      8.883
REMARK INTER + INTRA:         -10.043
REMARK INTER:                  -7.961
REMARK INTRA:                  -2.081
REMARK UNBOUND:                -1.123
REMARK SMILES O=C([O-])CCCCCCCCCCCCCCC(=O)[O-]
REMARK SMILES IDX 10 1 9 2 8 3 7 4 6 5 5 6 4 7 2 8 1 9 3 10 11 11 12 12 13 13
REMARK SMILES IDX 14 14 15 15 16 16 17 17 18 18 19 19 20 20
REMARK H PARENT
REMARK Flexibility Score: inf
ROOT
ATOM      1  C   UNL     1      14.500  63.203  30.899  1.00  0.00     0.000 C 
ENDROOT
BRANCH   1   2
ATOM      2  C   UNL     1      15.528  62.240  31.521  1.00  0.00     0.000 C 
BRANCH   2   3
ATOM      3  C   UNL     1      16.297  62.876  32.690  1.00  0.00     0.000 C 
BRANCH   3   4
ATOM      4  C   UNL     1      16.340  64.412  32.599  1.00  0.00     0.000 C 
BRANCH   4   5
ATOM      5  C   UNL     1      15.467  65.099  33.666  1.00  0.00     0.000 C 
BRANCH   5   6
ATOM      6  C   UNL     1      14.894  66.469  33.256  1.00  0.00     0.006 C 
BRANCH   6   7
ATOM      7  C   UNL     1      15.578  67.642  33.970  1.00  0.00     0.053 C 
BRANCH   7   8
ATOM      8  C   UNL     1      15.844  68.755  33.006  1.00  0.00     0.041 C 
ATOM      9  O   UNL     1      16.893  69.443  33.107  1.00  0.00    -0.550 OA
ATOM     10  O   UNL     1      14.958  69.000  31.965  1.00  0.00    -0.550 OA
ENDBRANCH   7   8
ENDBRANCH   6   7
ENDBRANCH   5   6
ENDBRANCH   4   5
ENDBRANCH   3   4
ENDBRANCH   2   3
ENDBRANCH   1   2
BRANCH   1  11
ATOM     11  C   UNL     1      13.343  62.466  30.205  1.00  0.00     0.000 C 
BRANCH  11  12
ATOM     12  C   UNL     1      11.962  62.956  30.675  1.00  0.00     0.000 C 
BRANCH  12  13
ATOM     13  C   UNL     1      12.043  63.821  31.944  1.00  0.00     0.000 C 
BRANCH  13  14
ATOM     14  C   UNL     1      11.522  63.091  33.192  1.00  0.00     0.000 C 
BRANCH  14  15
ATOM     15  C   UNL     1      12.619  62.222  33.818  1.00  0.00     0.000 C 
BRANCH  15  16
ATOM     16  C   UNL     1      12.170  60.757  33.919  1.00  0.00     0.006 C 
BRANCH  16  17
ATOM     17  C   UNL     1      12.886  59.858  32.902  1.00  0.00     0.053 C 
BRANCH  17  18
ATOM     18  C   UNL     1      11.968  59.421  31.802  1.00  0.00     0.041 C 
ATOM     19  O   UNL     1      10.723  59.402  31.985  1.00  0.00    -0.550 OA
ATOM     20  O   UNL     1      12.489  59.000  30.585  1.00  0.00    -0.550 OA
ENDBRANCH  17  18
ENDBRANCH  16  17
ENDBRANCH  15  16
ENDBRANCH  14  15
ENDBRANCH  13  14
ENDBRANCH  12  13
ENDBRANCH  11  12
ENDBRANCH   1  11
TORSDOF 15
ENDMDL
MODEL 6
REMARK VINA RESULT:    -4.733      3.640      8.115
REMARK INTER + INTRA:         -10.005
REMARK INTER:                  -8.732
REMARK INTRA:                  -1.273
REMARK UNBOUND:                -1.123
REMARK SMILES O=C([O-])CCCCCCCCCCCCCCC(=O)[O-]
REMARK SMILES IDX 10 1 9 2 8 3 7 4 6 5 5 6 4 7 2 8 1 9 3 10 11 11 12 12 13 13
REMARK SMILES IDX 14 14 15 15 16 16 17 17 18 18 19 19 20 20
REMARK H PARENT
REMARK Flexibility Score: inf
ROOT
ATOM      1  C   UNL     1      16.024  69.344  32.990  1.00  0.00     0.000 C 
ENDROOT
BRANCH   1   2
ATOM      2  C   UNL     1      15.251  68.037  32.734  1.00  0.00     0.000 C 
BRANCH   2   3
ATOM      3  C   UNL     1      15.253  67.105  33.956  1.00  0.00     0.000 C 
BRANCH   3   4
ATOM      4  C   UNL     1      15.376  65.621  33.564  1.00  0.00     0.000 C 
BRANCH   4   5
ATOM      5  C   UNL     1      14.444  65.229  32.403  1.00  0.00     0.000 C 
BRANCH   5   6
ATOM      6  C   UNL     1      14.429  63.729  32.057  1.00  0.00     0.006 C 
BRANCH   6   7
ATOM      7  C   UNL     1      13.025  63.202  31.733  1.00  0.00     0.053 C 
BRANCH   7   8
ATOM      8  C   UNL     1      12.368  62.674  32.969  1.00  0.00     0.041 C 
ATOM      9  O   UNL     1      12.355  61.436  33.199  1.00  0.00    -0.550 OA
ATOM     10  O   UNL     1      11.815  63.551  33.892  1.00  0.00    -0.550 OA
ENDBRANCH   7   8
ENDBRANCH   6   7
ENDBRANCH   5   6
ENDBRANCH   4   5
ENDBRANCH   3   4
ENDBRANCH   2   3
ENDBRANCH   1   2
BRANCH   1  11
ATOM     11  C   UNL     1      17.423  69.099  33.578  1.00  0.00     0.000 C 
BRANCH  11  12
ATOM     12  C   UNL     1      17.702  69.962  34.821  1.00  0.00     0.000 C 
BRANCH  12  13
ATOM     13  C   UNL     1      18.306  69.151  35.979  1.00  0.00     0.000 C 
BRANCH  13  14
ATOM     14  C   UNL     1      17.288  68.204  36.634  1.00  0.00     0.000 C 
BRANCH  14  15
ATOM     15  C   UNL     1      17.825  66.768  36.679  1.00  0.00     0.000 C 
BRANCH  15  16
ATOM     16  C   UNL     1      17.379  66.054  37.964  1.00  0.00     0.006 C 
BRANCH  16  17
ATOM     17  C   UNL     1      17.699  66.872  39.223  1.00  0.00     0.053 C 
BRANCH  17  18
ATOM     18  C   UNL     1      19.175  66.997  39.446  1.00  0.00     0.041 C 
ATOM     19  O   UNL     1      19.891  65.966  39.544  1.00  0.00    -0.550 OA
ATOM     20  O   UNL     1      19.755  68.252  39.581  1.00  0.00    -0.550 OA
ENDBRANCH  17  18
ENDBRANCH  16  17
ENDBRANCH  15  16
ENDBRANCH  14  15
ENDBRANCH  13  14
ENDBRANCH  12  13
ENDBRANCH  11  12
ENDBRANCH   1  11
TORSDOF 15
ENDMDL
MODEL 7
REMARK VINA RESULT:    -4.675      3.311      8.354
REMARK INTER + INTRA:          -9.898
REMARK INTER:                  -9.036
REMARK INTRA:                  -0.862
REMARK UNBOUND:                -1.123
REMARK SMILES O=C([O-])CCCCCCCCCCCCCCC(=O)[O-]
REMARK SMILES IDX 10 1 9 2 8 3 7 4 6 5 5 6 4 7 2 8 1 9 3 10 11 11 12 12 13 13
REMARK SMILES IDX 14 14 15 15 16 16 17 17 18 18 19 19 20 20
REMARK H PARENT
REMARK Flexibility Score: inf
ROOT
ATOM      1  C   UNL     1      17.580  69.165  33.559  1.00  0.00     0.000 C 
ENDROOT
BRANCH   1   2
ATOM      2  C   UNL     1      16.418  69.655  32.676  1.00  0.00     0.000 C 
BRANCH   2   3
ATOM      3  C   UNL     1      15.309  68.601  32.527  1.00  0.00     0.000 C 
BRANCH   3   4
ATOM      4  C   UNL     1      15.620  67.305  33.296  1.00  0.00     0.000 C 
BRANCH   4   5
ATOM      5  C   UNL     1      15.143  66.041  32.557  1.00  0.00     0.000 C 
BRANCH   5   6
ATOM      6  C   UNL     1      13.949  65.318  33.207  1.00  0.00     0.006 C 
BRANCH   6   7
ATOM      7  C   UNL     1      13.891  63.825  32.859  1.00  0.00     0.053 C 
BRANCH   7   8
ATOM      8  C   UNL     1      12.472  63.355  32.813  1.00  0.00     0.041 C 
ATOM      9  O   UNL     1      11.960  62.785  33.811  1.00  0.00    -0.550 OA
ATOM     10  O   UNL     1      11.698  63.591  31.684  1.00  0.00    -0.550 OA
ENDBRANCH   7   8
ENDBRANCH   6   7
ENDBRANCH   5   6
ENDBRANCH   4   5
ENDBRANCH   3   4
ENDBRANCH   2   3
ENDBRANCH   1   2
BRANCH   1  11
ATOM     11  C   UNL     1      17.757  70.014  34.828  1.00  0.00     0.000 C 
BRANCH  11  12
ATOM     12  C   UNL     1      18.297  69.199  36.015  1.00  0.00     0.000 C 
BRANCH  12  13
ATOM     13  C   UNL     1      17.466  67.935  36.291  1.00  0.00     0.000 C 
BRANCH  13  14
ATOM     14  C   UNL     1      17.628  67.420  37.729  1.00  0.00     0.000 C 
BRANCH  14  15
ATOM     15  C   UNL     1      19.087  67.531  38.191  1.00  0.00     0.000 C 
BRANCH  15  16
ATOM     16  C   UNL     1      19.218  67.196  39.684  1.00  0.00     0.006 C 
BRANCH  16  17
ATOM     17  C   UNL     1      20.013  68.263  40.450  1.00  0.00     0.053 C 
BRANCH  17  18
ATOM     18  C   UNL     1      19.122  69.124  41.291  1.00  0.00     0.041 C 
ATOM     19  O   UNL     1      17.974  69.440  40.881  1.00  0.00    -0.550 OA
ATOM     20  O   UNL     1      19.571  69.608  42.514  1.00  0.00    -0.550 OA
ENDBRANCH  17  18
ENDBRANCH  16  17
ENDBRANCH  15  16
ENDBRANCH  14  15
ENDBRANCH  13  14
ENDBRANCH  12  13
ENDBRANCH  11  12
ENDBRANCH   1  11
TORSDOF 15
ENDMDL
MODEL 8
REMARK VINA RESULT:    -4.654      4.146      6.337
REMARK INTER + INTRA:          -9.858
REMARK INTER:                  -8.555
REMARK INTRA:                  -1.303
REMARK UNBOUND:                -1.123
REMARK SMILES O=C([O-])CCCCCCCCCCCCCCC(=O)[O-]
REMARK SMILES IDX 10 1 9 2 8 3 7 4 6 5 5 6 4 7 2 8 1 9 3 10 11 11 12 12 13 13
REMARK SMILES IDX 14 14 15 15 16 16 17 17 18 18 19 19 20 20
REMARK H PARENT
REMARK Flexibility Score: inf
ROOT
ATOM      1  C   UNL     1      17.239  69.008  34.612  1.00  0.00     0.000 C 
ENDROOT
BRANCH   1   2
ATOM      2  C   UNL     1      18.305  69.842  35.347  1.00  0.00     0.000 C 
BRANCH   2   3
ATOM      3  C   UNL     1      18.736  69.202  36.677  1.00  0.00     0.000 C 
BRANCH   3   4
ATOM      4  C   UNL     1      17.686  68.220  37.226  1.00  0.00     0.000 C 
BRANCH   4   5
ATOM      5  C   UNL     1      18.245  66.801  37.435  1.00  0.00     0.000 C 
BRANCH   5   6
ATOM      6  C   UNL     1      17.253  65.660  37.143  1.00  0.00     0.006 C 
BRANCH   6   7
ATOM      7  C   UNL     1      17.135  65.337  35.648  1.00  0.00     0.053 C 
BRANCH   7   8
ATOM      8  C   UNL     1      17.677  63.971  35.365  1.00  0.00     0.041 C 
ATOM      9  O   UNL     1      16.905  63.046  35.000  1.00  0.00    -0.550 OA
ATOM     10  O   UNL     1      19.042  63.733  35.455  1.00  0.00    -0.550 OA
ENDBRANCH   7   8
ENDBRANCH   6   7
ENDBRANCH   5   6
ENDBRANCH   4   5
ENDBRANCH   3   4
ENDBRANCH   2   3
ENDBRANCH   1   2
BRANCH   1  11
ATOM     11  C   UNL     1      16.821  69.632  33.271  1.00  0.00     0.000 C 
BRANCH  11  12
ATOM     12  C   UNL     1      15.585  68.949  32.660  1.00  0.00     0.000 C 
BRANCH  12  13
ATOM     13  C   UNL     1      15.236  67.624  33.359  1.00  0.00     0.000 C 
BRANCH  13  14
ATOM     14  C   UNL     1      14.841  66.518  32.370  1.00  0.00     0.000 C 
BRANCH  14  15
ATOM     15  C   UNL     1      14.688  65.170  33.086  1.00  0.00     0.000 C 
BRANCH  15  16
ATOM     16  C   UNL     1      13.599  64.314  32.421  1.00  0.00     0.006 C 
BRANCH  16  17
ATOM     17  C   UNL     1      13.630  62.858  32.904  1.00  0.00     0.053 C 
BRANCH  17  18
ATOM     18  C   UNL     1      12.379  62.490  33.642  1.00  0.00     0.041 C 
ATOM     19  O   UNL     1      11.526  63.372  33.924  1.00  0.00    -0.550 OA
ATOM     20  O   UNL     1      12.171  61.178  34.050  1.00  0.00    -0.550 OA
ENDBRANCH  17  18
ENDBRANCH  16  17
ENDBRANCH  15  16
ENDBRANCH  14  15
ENDBRANCH  13  14
ENDBRANCH  12  13
ENDBRANCH  11  12
ENDBRANCH   1  11
TORSDOF 15
ENDMDL
MODEL 9
REMARK VINA RESULT:    -4.648      4.242      7.860
REMARK INTER + INTRA:          -9.846
REMARK INTER:                  -8.119
REMARK INTRA:                  -1.727
REMARK UNBOUND:                -1.123
REMARK SMILES O=C([O-])CCCCCCCCCCCCCCC(=O)[O-]
REMARK SMILES IDX 10 1 9 2 8 3 7 4 6 5 5 6 4 7 2 8 1 9 3 10 11 11 12 12 13 13
REMARK SMILES IDX 14 14 15 15 16 16 17 17 18 18 19 19 20 20
REMARK H PARENT
REMARK Flexibility Score: inf
ROOT
ATOM      1  C   UNL     1      16.668  65.597  34.099  1.00  0.00     0.000 C 
ENDROOT
BRANCH   1   2
ATOM      2  C   UNL     1      16.454  64.110  33.766  1.00  0.00     0.000 C 
BRANCH   2   3
ATOM      3  C   UNL     1      16.789  63.781  32.302  1.00  0.00     0.000 C 
BRANCH   3   4
ATOM      4  C   UNL     1      15.581  63.963  31.366  1.00  0.00     0.000 C 
BRANCH   4   5
ATOM      5  C   UNL     1      14.325  63.221  31.859  1.00  0.00     0.000 C 
BRANCH   5   6
ATOM      6  C   UNL     1      13.116  64.121  32.172  1.00  0.00     0.006 C 
BRANCH   6   7
ATOM      7  C   UNL     1      12.393  63.725  33.466  1.00  0.00     0.053 C 
BRANCH   7   8
ATOM      8  C   UNL     1      11.850  62.335  33.355  1.00  0.00     0.041 C 
ATOM      9  O   UNL     1      10.959  62.069  32.507  1.00  0.00    -0.550 OA
ATOM     10  O   UNL     1      12.363  61.322  34.154  1.00  0.00    -0.550 OA
ENDBRANCH   7   8
ENDBRANCH   6   7
ENDBRANCH   5   6
ENDBRANCH   4   5
ENDBRANCH   3   4
ENDBRANCH   2   3
ENDBRANCH   1   2
BRANCH   1  11
ATOM     11  C   UNL     1      15.349  66.381  34.185  1.00  0.00     0.000 C 
BRANCH  11  12
ATOM     12  C   UNL     1      15.268  67.520  33.154  1.00  0.00     0.000 C 
BRANCH  12  13
ATOM     13  C   UNL     1      16.405  68.543  33.314  1.00  0.00     0.000 C 
BRANCH  13  14
ATOM     14  C   UNL     1      16.513  69.090  34.746  1.00  0.00     0.000 C 
BRANCH  14  15
ATOM     15  C   UNL     1      17.850  69.810  34.959  1.00  0.00     0.000 C 
BRANCH  15  16
ATOM     16  C   UNL     1      18.619  69.204  36.142  1.00  0.00     0.006 C 
BRANCH  16  17
ATOM     17  C   UNL     1      17.754  68.238  36.963  1.00  0.00     0.053 C 
BRANCH  17  18
ATOM     18  C   UNL     1      18.504  66.995  37.332  1.00  0.00     0.041 C 
ATOM     19  O   UNL     1      19.737  67.048  37.579  1.00  0.00    -0.550 OA
ATOM     20  O   UNL     1      17.848  65.771  37.369  1.00  0.00    -0.550 OA
ENDBRANCH  17  18
ENDBRANCH  16  17
ENDBRANCH  15  16
ENDBRANCH  14  15
ENDBRANCH  13  14
ENDBRANCH  12  13
ENDBRANCH  11  12
ENDBRANCH   1  11
TORSDOF 15
ENDMDL
