MODEL 1
REMARK VINA RESULT:    -3.621      0.000      0.000
REMARK INTER + INTRA:          -6.756
REMARK INTER:                  -5.527
REMARK INTRA:                  -1.230
REMARK UNBOUND:                -1.230
REMARK SMILES CCCCCCCCCCC(=O)[O-]
REMARK SMILES IDX 7 1 8 2 9 3 10 4 11 5 12 6 13 7 6 8 5 9 4 10 3 11 2 12 1 13
REMARK H PARENT
REMARK Flexibility Score: inf
ROOT
ATOM      1  C   UNL     1      13.375  63.738   7.650  1.00  0.00     0.000 C 
ENDROOT
BRANCH   1   2
ATOM      2  C   UNL     1      13.420  64.912   6.660  1.00  0.00     0.000 C 
BRANCH   2   3
ATOM      3  C   UNL     1      12.612  64.590   5.393  1.00  0.00     0.006 C 
BRANCH   3   4
ATOM      4  C   UNL     1      11.581  65.680   5.069  1.00  0.00     0.053 C 
BRANCH   4   5
ATOM      5  C   UNL     1      11.299  65.759   3.600  1.00  0.00     0.041 C 
ATOM      6  O   UNL     1      12.249  65.797   2.774  1.00  0.00    -0.550 OA
ATOM      7  O   UNL     1       9.988  65.756   3.141  1.00  0.00    -0.550 OA
ENDBRANCH   4   5
ENDBRANCH   3   4
ENDBRANCH   2   3
ENDBRANCH   1   2
BRANCH   1   8
ATOM      8  C   UNL     1      12.636  62.514   7.084  1.00  0.00     0.000 C 
BRANCH   8   9
ATOM      9  C   UNL     1      11.541  61.995   8.027  1.00  0.00    -0.000 C 
BRANCH   9  10
ATOM     10  C   UNL     1      11.016  63.118   8.931  1.00  0.00    -0.000 C 
BRANCH  10  11
ATOM     11  C   UNL     1       9.654  63.627   8.443  1.00  0.00    -0.000 C 
BRANCH  11  12
ATOM     12  C   UNL     1       9.607  65.158   8.443  1.00  0.00    -0.003 C 
ATOM     13  C   UNL     1      10.768  65.746   9.238  1.00  0.00     0.004 C 
ENDBRANCH  11  12
ENDBRANCH  10  11
ENDBRANCH   9  10
ENDBRANCH   8   9
ENDBRANCH   1   8
TORSDOF 9
ENDMDL
MODEL 2
REMARK VINA RESULT:    -3.489      2.859      4.684
REMARK INTER + INTRA:          -6.555
REMARK INTER:                  -5.578
REMARK INTRA:                  -0.977
REMARK UNBOUND:                -1.230
REMARK SMILES CCCCCCCCCCC(=O)[O-]
REMARK SMILES IDX 7 1 8 2 9 3 10 4 11 5 12 6 13 7 6 8 5 9 4 10 3 11 2 12 1 13
REMARK H PARENT
REMARK Flexibility Score: inf
ROOT
ATOM      1  C   UNL     1      11.731  62.053   7.696  1.00  0.00     0.000 C 
ENDROOT
BRANCH   1   2
ATOM      2  C   UNL     1      11.202  62.998   8.786  1.00  0.00     0.000 C 
BRANCH   2   3
ATOM      3  C   UNL     1       9.762  63.436   8.478  1.00  0.00     0.006 C 
BRANCH   3   4
ATOM      4  C   UNL     1       9.637  64.958   8.329  1.00  0.00     0.053 C 
BRANCH   4   5
ATOM      5  C   UNL     1       8.381  65.478   8.958  1.00  0.00     0.041 C 
ATOM      6  O   UNL     1       7.298  64.847   8.824  1.00  0.00    -0.550 OA
ATOM      7  O   UNL     1       8.411  66.639   9.719  1.00  0.00    -0.550 OA
ENDBRANCH   4   5
ENDBRANCH   3   4
ENDBRANCH   2   3
ENDBRANCH   1   2
BRANCH   1   8
ATOM      8  C   UNL     1      12.813  62.707   6.821  1.00  0.00     0.000 C 
BRANCH   8   9
ATOM      9  C   UNL     1      13.431  63.951   7.474  1.00  0.00    -0.000 C 
BRANCH   9  10
ATOM     10  C   UNL     1      13.324  65.168   6.547  1.00  0.00    -0.000 C 
BRANCH  10  11
ATOM     11  C   UNL     1      12.420  64.868   5.345  1.00  0.00    -0.000 C 
BRANCH  11  12
ATOM     12  C   UNL     1      11.377  65.973   5.151  1.00  0.00    -0.003 C 
ATOM     13  C   UNL     1      10.807  65.952   3.736  1.00  0.00     0.004 C 
ENDBRANCH  11  12
ENDBRANCH  10  11
ENDBRANCH   9  10
ENDBRANCH   8   9
ENDBRANCH   1   8
TORSDOF 9
ENDMDL
MODEL 3
REMARK VINA RESULT:    -3.482      2.408      4.767
REMARK INTER + INTRA:          -6.543
REMARK INTER:                  -5.630
REMARK INTRA:                  -0.913
REMARK UNBOUND:                -1.230
REMARK SMILES CCCCCCCCCCC(=O)[O-]
REMARK SMILES IDX 7 1 8 2 9 3 10 4 11 5 12 6 13 7 6 8 5 9 4 10 3 11 2 12 1 13
REMARK H PARENT
REMARK Flexibility Score: inf
ROOT
ATOM      1  C   UNL     1      13.398  63.854   7.874  1.00  0.00     0.000 C 
ENDROOT
BRANCH   1   2
ATOM      2  C   UNL     1      12.755  62.606   7.249  1.00  0.00     0.000 C 
BRANCH   2   3
ATOM      3  C   UNL     1      11.456  62.236   7.980  1.00  0.00     0.006 C 
BRANCH   3   4
ATOM      4  C   UNL     1      11.025  63.316   8.983  1.00  0.00     0.053 C 
BRANCH   4   5
ATOM      5  C   UNL     1       9.681  63.883   8.646  1.00  0.00     0.041 C 
ATOM      6  O   UNL     1       8.660  63.145   8.662  1.00  0.00    -0.550 OA
ATOM      7  O   UNL     1       9.549  65.234   8.347  1.00  0.00    -0.550 OA
ENDBRANCH   4   5
ENDBRANCH   3   4
ENDBRANCH   2   3
ENDBRANCH   1   2
BRANCH   1   8
ATOM      8  C   UNL     1      13.714  64.941   6.833  1.00  0.00     0.000 C 
BRANCH   8   9
ATOM      9  C   UNL     1      12.634  66.030   6.768  1.00  0.00    -0.000 C 
BRANCH   9  10
ATOM     10  C   UNL     1      11.625  65.738   5.651  1.00  0.00    -0.000 C 
BRANCH  10  11
ATOM     11  C   UNL     1      12.291  64.992   4.488  1.00  0.00    -0.000 C 
BRANCH  11  12
ATOM     12  C   UNL     1      11.911  65.620   3.143  1.00  0.00    -0.003 C 
ATOM     13  C   UNL     1      10.408  65.865   3.052  1.00  0.00     0.004 C 
ENDBRANCH  11  12
ENDBRANCH  10  11
ENDBRANCH   9  10
ENDBRANCH   8   9
ENDBRANCH   1   8
TORSDOF 9
ENDMDL
MODEL 4
REMARK VINA RESULT:    -3.365      0.896      1.517
REMARK INTER + INTRA:          -6.365
REMARK INTER:                  -5.361
REMARK INTRA:                  -1.004
REMARK UNBOUND:                -1.230
REMARK SMILES CCCCCCCCCCC(=O)[O-]
REMARK SMILES IDX 7 1 8 2 9 3 10 4 11 5 12 6 13 7 6 8 5 9 4 10 3 11 2 12 1 13
REMARK H PARENT
REMARK Flexibility Score: inf
ROOT
ATOM      1  C   UNL     1      13.605  64.698   6.538  1.00  0.00     0.000 C 
ENDROOT
BRANCH   1   2
ATOM      2  C   UNL     1      12.588  64.596   5.391  1.00  0.00     0.000 C 
BRANCH   2   3
ATOM      3  C   UNL     1      12.006  65.976   5.051  1.00  0.00     0.006 C 
BRANCH   3   4
ATOM      4  C   UNL     1      11.091  65.934   3.820  1.00  0.00     0.053 C 
BRANCH   4   5
ATOM      5  C   UNL     1      11.692  66.662   2.656  1.00  0.00     0.041 C 
ATOM      6  O   UNL     1      12.737  66.224   2.107  1.00  0.00    -0.550 OA
ATOM      7  O   UNL     1      11.078  67.804   2.156  1.00  0.00    -0.550 OA
ENDBRANCH   4   5
ENDBRANCH   3   4
ENDBRANCH   2   3
ENDBRANCH   1   2
BRANCH   1   8
ATOM      8  C   UNL     1      13.324  63.694   7.668  1.00  0.00     0.000 C 
BRANCH   8   9
ATOM      9  C   UNL     1      12.565  62.451   7.183  1.00  0.00    -0.000 C 
BRANCH   9  10
ATOM     10  C   UNL     1      11.416  62.101   8.137  1.00  0.00    -0.000 C 
BRANCH  10  11
ATOM     11  C   UNL     1      11.008  63.318   8.977  1.00  0.00    -0.000 C 
BRANCH  11  12
ATOM     12  C   UNL     1       9.711  63.939   8.449  1.00  0.00    -0.003 C 
ATOM     13  C   UNL     1       9.917  65.400   8.060  1.00  0.00     0.004 C 
ENDBRANCH  11  12
ENDBRANCH  10  11
ENDBRANCH   9  10
ENDBRANCH   8   9
ENDBRANCH   1   8
TORSDOF 9
ENDMDL
MODEL 5
REMARK VINA RESULT:    -3.351      3.139      4.790
REMARK INTER + INTRA:          -6.343
REMARK INTER:                  -4.953
REMARK INTRA:                  -1.390
REMARK UNBOUND:                -1.230
REMARK SMILES CCCCCCCCCCC(=O)[O-]
REMARK SMILES IDX 7 1 8 2 9 3 10 4 11 5 12 6 13 7 6 8 5 9 4 10 3 11 2 12 1 13
REMARK H PARENT
REMARK Flexibility Score: inf
ROOT
ATOM      1  C   UNL     1       9.764  63.594   8.560  1.00  0.00     0.000 C 
ENDROOT
BRANCH   1   2
ATOM      2  C   UNL     1       9.953  65.105   8.352  1.00  0.00     0.000 C 
BRANCH   2   3
ATOM      3  C   UNL     1      10.672  65.737   9.552  1.00  0.00     0.006 C 
BRANCH   3   4
ATOM      4  C   UNL     1      11.706  66.787   9.123  1.00  0.00     0.053 C 
BRANCH   4   5
ATOM      5  C   UNL     1      12.988  66.649   9.886  1.00  0.00     0.041 C 
ATOM      6  O   UNL     1      13.867  67.549   9.815  1.00  0.00    -0.550 OA
ATOM      7  O   UNL     1      13.199  65.545  10.702  1.00  0.00    -0.550 OA
ENDBRANCH   4   5
ENDBRANCH   3   4
ENDBRANCH   2   3
ENDBRANCH   1   2
BRANCH   1   8
ATOM      8  C   UNL     1      11.080  62.874   8.894  1.00  0.00     0.000 C 
BRANCH   8   9
ATOM      9  C   UNL     1      11.520  61.901   7.791  1.00  0.00    -0.000 C 
BRANCH   9  10
ATOM     10  C   UNL     1      12.640  62.508   6.937  1.00  0.00    -0.000 C 
BRANCH  10  11
ATOM     11  C   UNL     1      13.364  63.629   7.693  1.00  0.00    -0.000 C 
BRANCH  11  12
ATOM     12  C   UNL     1      13.719  64.786   6.754  1.00  0.00    -0.003 C 
ATOM     13  C   UNL     1      12.619  65.017   5.722  1.00  0.00     0.004 C 
ENDBRANCH  11  12
ENDBRANCH  10  11
ENDBRANCH   9  10
ENDBRANCH   8   9
ENDBRANCH   1   8
TORSDOF 9
ENDMDL
MODEL 6
REMARK VINA RESULT:    -3.285      1.148      2.207
REMARK INTER + INTRA:          -6.244
REMARK INTER:                  -4.993
REMARK INTRA:                  -1.251
REMARK UNBOUND:                -1.230
REMARK SMILES CCCCCCCCCCC(=O)[O-]
REMARK SMILES IDX 7 1 8 2 9 3 10 4 11 5 12 6 13 7 6 8 5 9 4 10 3 11 2 12 1 13
REMARK H PARENT
REMARK Flexibility Score: inf
ROOT
ATOM      1  C   UNL     1      11.543  62.110   7.897  1.00  0.00     0.000 C 
ENDROOT
BRANCH   1   2
ATOM      2  C   UNL     1      12.887  62.805   7.632  1.00  0.00     0.000 C 
BRANCH   2   3
ATOM      3  C   UNL     1      12.969  63.303   6.181  1.00  0.00     0.006 C 
BRANCH   3   4
ATOM      4  C   UNL     1      13.001  64.835   6.094  1.00  0.00     0.053 C 
BRANCH   4   5
ATOM      5  C   UNL     1      12.139  65.346   4.980  1.00  0.00     0.041 C 
ATOM      6  O   UNL     1      12.256  64.869   3.820  1.00  0.00    -0.550 OA
ATOM      7  O   UNL     1      11.184  66.324   5.229  1.00  0.00    -0.550 OA
ENDBRANCH   4   5
ENDBRANCH   3   4
ENDBRANCH   2   3
ENDBRANCH   1   2
BRANCH   1   8
ATOM      8  C   UNL     1      10.818  62.673   9.131  1.00  0.00     0.000 C 
BRANCH   8   9
ATOM      9  C   UNL     1       9.542  63.446   8.768  1.00  0.00    -0.000 C 
BRANCH   9  10
ATOM     10  C   UNL     1       9.882  64.814   8.163  1.00  0.00    -0.000 C 
BRANCH  10  11
ATOM     11  C   UNL     1      10.177  65.844   9.259  1.00  0.00    -0.000 C 
BRANCH  11  12
ATOM     12  C   UNL     1      11.547  66.497   9.047  1.00  0.00    -0.003 C 
ATOM     13  C   UNL     1      12.631  65.778   9.845  1.00  0.00     0.004 C 
ENDBRANCH  11  12
ENDBRANCH  10  11
ENDBRANCH   9  10
ENDBRANCH   8   9
ENDBRANCH   1   8
TORSDOF 9
ENDMDL
MODEL 7
REMARK VINA RESULT:    -3.234      1.247      1.662
REMARK INTER + INTRA:          -6.165
REMARK INTER:                  -4.908
REMARK INTRA:                  -1.257
REMARK UNBOUND:                -1.230
REMARK SMILES CCCCCCCCCCC(=O)[O-]
REMARK SMILES IDX 7 1 8 2 9 3 10 4 11 5 12 6 13 7 6 8 5 9 4 10 3 11 2 12 1 13
REMARK H PARENT
REMARK Flexibility Score: inf
ROOT
ATOM      1  C   UNL     1      12.954  63.171   6.426  1.00  0.00     0.000 C 
ENDROOT
BRANCH   1   2
ATOM      2  C   UNL     1      13.830  64.354   6.865  1.00  0.00     0.000 C 
BRANCH   2   3
ATOM      3  C   UNL     1      13.272  65.679   6.324  1.00  0.00     0.006 C 
BRANCH   3   4
ATOM      4  C   UNL     1      11.896  65.505   5.666  1.00  0.00     0.053 C 
BRANCH   4   5
ATOM      5  C   UNL     1      11.925  65.868   4.213  1.00  0.00     0.041 C 
ATOM      6  O   UNL     1      12.183  64.990   3.347  1.00  0.00    -0.550 OA
ATOM      7  O   UNL     1      11.633  67.165   3.812  1.00  0.00    -0.550 OA
ENDBRANCH   4   5
ENDBRANCH   3   4
ENDBRANCH   2   3
ENDBRANCH   1   2
BRANCH   1   8
ATOM      8  C   UNL     1      12.427  62.350   7.614  1.00  0.00     0.000 C 
BRANCH   8   9
ATOM      9  C   UNL     1      11.020  62.780   8.053  1.00  0.00    -0.000 C 
BRANCH   9  10
ATOM     10  C   UNL     1      11.031  63.305   9.494  1.00  0.00    -0.000 C 
BRANCH  10  11
ATOM     11  C   UNL     1      11.178  64.831   9.524  1.00  0.00    -0.000 C 
BRANCH  11  12
ATOM     12  C   UNL     1      12.491  65.243  10.198  1.00  0.00    -0.003 C 
ATOM     13  C   UNL     1      12.820  66.706   9.916  1.00  0.00     0.004 C 
ENDBRANCH  11  12
ENDBRANCH  10  11
ENDBRANCH   9  10
ENDBRANCH   8   9
ENDBRANCH   1   8
TORSDOF 9
ENDMDL
MODEL 8
REMARK VINA RESULT:    -3.184      1.994      3.104
REMARK INTER + INTRA:          -6.090
REMARK INTER:                  -5.456
REMARK INTRA:                  -0.634
REMARK UNBOUND:                -1.230
REMARK SMILES CCCCCCCCCCC(=O)[O-]
REMARK SMILES IDX 7 1 8 2 9 3 10 4 11 5 12 6 13 7 6 8 5 9 4 10 3 11 2 12 1 13
REMARK H PARENT
REMARK Flexibility Score: inf
ROOT
ATOM      1  C   UNL     1      11.448  62.215   8.006  1.00  0.00     0.000 C 
ENDROOT
BRANCH   1   2
ATOM      2  C   UNL     1      12.651  62.589   7.128  1.00  0.00     0.000 C 
BRANCH   2   3
ATOM      3  C   UNL     1      13.333  63.864   7.648  1.00  0.00     0.006 C 
BRANCH   3   4
ATOM      4  C   UNL     1      13.644  64.858   6.521  1.00  0.00     0.053 C 
BRANCH   4   5
ATOM      5  C   UNL     1      12.423  65.193   5.722  1.00  0.00     0.041 C 
ATOM      6  O   UNL     1      11.468  65.817   6.257  1.00  0.00    -0.550 OA
ATOM      7  O   UNL     1      12.352  64.849   4.378  1.00  0.00    -0.550 OA
ENDBRANCH   4   5
ENDBRANCH   3   4
ENDBRANCH   2   3
ENDBRANCH   1   2
BRANCH   1   8
ATOM      8  C   UNL     1      10.879  63.419   8.775  1.00  0.00     0.000 C 
BRANCH   8   9
ATOM      9  C   UNL     1       9.349  63.509   8.688  1.00  0.00    -0.000 C 
BRANCH   9  10
ATOM     10  C   UNL     1       8.895  64.960   8.488  1.00  0.00    -0.000 C 
BRANCH  10  11
ATOM     11  C   UNL     1       7.559  65.222   9.193  1.00  0.00    -0.000 C 
BRANCH  11  12
ATOM     12  C   UNL     1       6.399  65.221   8.193  1.00  0.00    -0.003 C 
ATOM     13  C   UNL     1       5.255  64.333   8.674  1.00  0.00     0.004 C 
ENDBRANCH  11  12
ENDBRANCH  10  11
ENDBRANCH   9  10
ENDBRANCH   8   9
ENDBRANCH   1   8
TORSDOF 9
ENDMDL
MODEL 9
REMARK VINA RESULT:    -3.160      0.965      2.994
REMARK INTER + INTRA:          -6.052
REMARK INTER:                  -5.103
REMARK INTRA:                  -0.949
REMARK UNBOUND:                -1.230
REMARK SMILES CCCCCCCCCCC(=O)[O-]
REMARK SMILES IDX 7 1 8 2 9 3 10 4 11 5 12 6 13 7 6 8 5 9 4 10 3 11 2 12 1 13
REMARK H PARENT
REMARK Flexibility Score: inf
ROOT
ATOM      1  C   UNL     1      10.455  65.722   8.029  1.00  0.00     0.000 C 
ENDROOT
BRANCH   1   2
ATOM      2  C   UNL     1       9.893  66.936   7.274  1.00  0.00     0.000 C 
BRANCH   2   3
ATOM      3  C   UNL     1      10.610  67.124   5.929  1.00  0.00     0.006 C 
BRANCH   3   4
ATOM      4  C   UNL     1      11.146  65.800   5.366  1.00  0.00     0.053 C 
BRANCH   4   5
ATOM      5  C   UNL     1      11.145  65.791   3.869  1.00  0.00     0.041 C 
ATOM      6  O   UNL     1      10.147  66.223   3.234  1.00  0.00    -0.550 OA
ATOM      7  O   UNL     1      12.260  65.339   3.173  1.00  0.00    -0.550 OA
ENDBRANCH   4   5
ENDBRANCH   3   4
ENDBRANCH   2   3
ENDBRANCH   1   2
BRANCH   1   8
ATOM      8  C   UNL     1       9.355  64.755   8.497  1.00  0.00     0.000 C 
BRANCH   8   9
ATOM      9  C   UNL     1       9.867  63.319   8.679  1.00  0.00    -0.000 C 
BRANCH   9  10
ATOM     10  C   UNL     1      11.399  63.272   8.634  1.00  0.00    -0.000 C 
BRANCH  10  11
ATOM     11  C   UNL     1      11.890  62.187   7.668  1.00  0.00    -0.000 C 
BRANCH  11  12
ATOM     12  C   UNL     1      12.954  62.740   6.714  1.00  0.00    -0.003 C 
ATOM     13  C   UNL     1      13.625  63.981   7.295  1.00  0.00     0.004 C 
ENDBRANCH  11  12
ENDBRANCH  10  11
ENDBRANCH   9  10
ENDBRANCH   8   9
ENDBRANCH   1   8
TORSDOF 9
ENDMDL
