MODEL 1
REMARK VINA RESULT:    -5.145      0.000      0.000
REMARK INTER + INTRA:         -10.068
REMARK INTER:                  -8.905
REMARK INTRA:                  -1.163
REMARK UNBOUND:                -1.163
REMARK SMILES CCCCCCCCCCCCCCO
REMARK SMILES IDX 8 1 7 2 6 3 5 4 4 5 3 6 2 7 1 8 9 9 10 10 11 11 12 12 13 13
REMARK SMILES IDX 14 14 15 15
REMARK H PARENT 15 16
REMARK Flexibility Score: inf
ROOT
ATOM      1  C   UNL     1      13.295  13.124  30.379  1.00  0.00     0.000 C 
ENDROOT
BRANCH   1   2
ATOM      2  C   UNL     1      13.967  13.237  28.996  1.00  0.00    -0.000 C 
BRANCH   2   3
ATOM      3  C   UNL     1      13.858  14.622  28.328  1.00  0.00    -0.000 C 
BRANCH   3   4
ATOM      4  C   UNL     1      12.632  14.823  27.412  1.00  0.00    -0.000 C 
BRANCH   4   5
ATOM      5  C   UNL     1      12.481  16.243  26.833  1.00  0.00    -0.000 C 
BRANCH   5   6
ATOM      6  C   UNL     1      12.148  16.265  25.323  1.00  0.00    -0.000 C 
BRANCH   6   7
ATOM      7  C   UNL     1      12.192  17.673  24.708  1.00  0.00    -0.003 C 
ATOM      8  C   UNL     1      11.104  17.896  23.658  1.00  0.00     0.004 C 
ENDBRANCH   6   7
ENDBRANCH   5   6
ENDBRANCH   4   5
ENDBRANCH   3   4
ENDBRANCH   2   3
ENDBRANCH   1   2
BRANCH   1   9
ATOM      9  C   UNL     1      13.906  14.024  31.471  1.00  0.00     0.000 C 
BRANCH   9  10
ATOM     10  C   UNL     1      12.949  14.401  32.620  1.00  0.00     0.000 C 
BRANCH  10  11
ATOM     11  C   UNL     1      12.480  15.867  32.628  1.00  0.00     0.000 C 
BRANCH  11  12
ATOM     12  C   UNL     1      12.867  16.625  31.348  1.00  0.00     0.002 C 
BRANCH  12  13
ATOM     13  C   UNL     1      11.667  16.859  30.413  1.00  0.00     0.028 C 
BRANCH  13  14
ATOM     14  C   UNL     1      10.419  16.052  30.797  1.00  0.00     0.156 C 
BRANCH  14  15
ATOM     15  O   UNL     1      10.245  14.954  29.942  1.00  0.00    -0.396 OA
ATOM     16  H   UNL     1       9.724  14.278  30.450  1.00  0.00     0.210 HD
ENDBRANCH  14  15
ENDBRANCH  13  14
ENDBRANCH  12  13
ENDBRANCH  11  12
ENDBRANCH  10  11
ENDBRANCH   9  10
ENDBRANCH   1   9
TORSDOF 13
ENDMDL
MODEL 2
REMARK VINA RESULT:    -5.137      2.767      6.566
REMARK INTER + INTRA:         -10.053
REMARK INTER:                  -9.004
REMARK INTRA:                  -1.049
REMARK UNBOUND:                -1.163
REMARK SMILES CCCCCCCCCCCCCCO
REMARK SMILES IDX 8 1 7 2 6 3 5 4 4 5 3 6 2 7 1 8 9 9 10 10 11 11 12 12 13 13
REMARK SMILES IDX 14 14 15 15
REMARK H PARENT 15 16
REMARK Flexibility Score: inf
ROOT
ATOM      1  C   UNL     1      12.465  15.856  28.167  1.00  0.00     0.000 C 
ENDROOT
BRANCH   1   2
ATOM      2  C   UNL     1      13.862  16.265  28.673  1.00  0.00    -0.000 C 
BRANCH   2   3
ATOM      3  C   UNL     1      13.917  16.714  30.147  1.00  0.00    -0.000 C 
BRANCH   3   4
ATOM      4  C   UNL     1      12.752  16.226  31.034  1.00  0.00    -0.000 C 
BRANCH   4   5
ATOM      5  C   UNL     1      13.164  15.288  32.186  1.00  0.00    -0.000 C 
BRANCH   5   6
ATOM      6  C   UNL     1      13.895  14.010  31.714  1.00  0.00    -0.000 C 
BRANCH   6   7
ATOM      7  C   UNL     1      13.104  13.202  30.672  1.00  0.00    -0.003 C 
ATOM      8  C   UNL     1      13.959  12.775  29.480  1.00  0.00     0.004 C 
ENDBRANCH   6   7
ENDBRANCH   5   6
ENDBRANCH   4   5
ENDBRANCH   3   4
ENDBRANCH   2   3
ENDBRANCH   1   2
BRANCH   1   9
ATOM      9  C   UNL     1      12.468  14.828  27.018  1.00  0.00     0.000 C 
BRANCH   9  10
ATOM     10  C   UNL     1      11.717  15.268  25.745  1.00  0.00     0.000 C 
BRANCH  10  11
ATOM     11  C   UNL     1      11.744  16.780  25.457  1.00  0.00     0.000 C 
BRANCH  11  12
ATOM     12  C   UNL     1      12.408  17.121  24.112  1.00  0.00     0.002 C 
BRANCH  12  13
ATOM     13  C   UNL     1      13.199  18.439  24.161  1.00  0.00     0.028 C 
BRANCH  13  14
ATOM     14  C   UNL     1      13.349  19.120  22.792  1.00  0.00     0.156 C 
BRANCH  14  15
ATOM     15  O   UNL     1      14.417  20.029  22.795  1.00  0.00    -0.396 OA
ATOM     16  H   UNL     1      14.018  20.936  22.855  1.00  0.00     0.210 HD
ENDBRANCH  14  15
ENDBRANCH  13  14
ENDBRANCH  12  13
ENDBRANCH  11  12
ENDBRANCH  10  11
ENDBRANCH   9  10
ENDBRANCH   1   9
TORSDOF 13
ENDMDL
MODEL 3
REMARK VINA RESULT:    -5.103      2.127      5.509
REMARK INTER + INTRA:          -9.995
REMARK INTER:                  -8.608
REMARK INTRA:                  -1.388
REMARK UNBOUND:                -1.163
REMARK SMILES CCCCCCCCCCCCCCO
REMARK SMILES IDX 8 1 7 2 6 3 5 4 4 5 3 6 2 7 1 8 9 9 10 10 11 11 12 12 13 13
REMARK SMILES IDX 14 14 15 15
REMARK H PARENT 15 16
REMARK Flexibility Score: inf
ROOT
ATOM      1  C   UNL     1      13.802  13.565  28.839  1.00  0.00     0.000 C 
ENDROOT
BRANCH   1   2
ATOM      2  C   UNL     1      13.160  13.219  30.197  1.00  0.00    -0.000 C 
BRANCH   2   3
ATOM      3  C   UNL     1      13.728  13.992  31.404  1.00  0.00    -0.000 C 
BRANCH   3   4
ATOM      4  C   UNL     1      13.244  15.450  31.546  1.00  0.00    -0.000 C 
BRANCH   4   5
ATOM      5  C   UNL     1      12.118  15.662  32.577  1.00  0.00    -0.000 C 
BRANCH   5   6
ATOM      6  C   UNL     1      10.703  15.393  32.014  1.00  0.00    -0.000 C 
BRANCH   6   7
ATOM      7  C   UNL     1      10.539  15.814  30.544  1.00  0.00    -0.003 C 
ATOM      8  C   UNL     1       9.738  14.804  29.724  1.00  0.00     0.004 C 
ENDBRANCH   6   7
ENDBRANCH   5   6
ENDBRANCH   4   5
ENDBRANCH   3   4
ENDBRANCH   2   3
ENDBRANCH   1   2
BRANCH   1   9
ATOM      9  C   UNL     1      12.915  14.407  27.900  1.00  0.00     0.000 C 
BRANCH   9  10
ATOM     10  C   UNL     1      13.177  15.926  27.941  1.00  0.00     0.000 C 
BRANCH  10  11
ATOM     11  C   UNL     1      12.545  16.731  26.791  1.00  0.00     0.000 C 
BRANCH  11  12
ATOM     12  C   UNL     1      12.146  15.852  25.594  1.00  0.00     0.002 C 
BRANCH  12  13
ATOM     13  C   UNL     1      12.204  16.611  24.257  1.00  0.00     0.028 C 
BRANCH  13  14
ATOM     14  C   UNL     1      10.825  16.860  23.629  1.00  0.00     0.156 C 
BRANCH  14  15
ATOM     15  O   UNL     1      10.672  18.205  23.264  1.00  0.00    -0.396 OA
ATOM     16  H   UNL     1      10.407  18.694  24.086  1.00  0.00     0.210 HD
ENDBRANCH  14  15
ENDBRANCH  13  14
ENDBRANCH  12  13
ENDBRANCH  11  12
ENDBRANCH  10  11
ENDBRANCH   9  10
ENDBRANCH   1   9
TORSDOF 13
ENDMDL
MODEL 4
REMARK VINA RESULT:    -5.089      1.723      2.884
REMARK INTER + INTRA:          -9.970
REMARK INTER:                  -9.313
REMARK INTRA:                  -0.657
REMARK UNBOUND:                -1.163
REMARK SMILES CCCCCCCCCCCCCCO
REMARK SMILES IDX 8 1 7 2 6 3 5 4 4 5 3 6 2 7 1 8 9 9 10 10 11 11 12 12 13 13
REMARK SMILES IDX 14 14 15 15
REMARK H PARENT 15 16
REMARK Flexibility Score: inf
ROOT
ATOM      1  C   UNL     1      12.498  14.607  27.997  1.00  0.00     0.000 C 
ENDROOT
BRANCH   1   2
ATOM      2  C   UNL     1      12.519  14.340  26.479  1.00  0.00    -0.000 C 
BRANCH   2   3
ATOM      3  C   UNL     1      12.156  15.551  25.597  1.00  0.00    -0.000 C 
BRANCH   3   4
ATOM      4  C   UNL     1      12.450  16.934  26.215  1.00  0.00    -0.000 C 
BRANCH   4   5
ATOM      5  C   UNL     1      12.136  18.133  25.299  1.00  0.00    -0.000 C 
BRANCH   5   6
ATOM      6  C   UNL     1      13.291  18.500  24.339  1.00  0.00    -0.000 C 
BRANCH   6   7
ATOM      7  C   UNL     1      12.881  18.494  22.857  1.00  0.00    -0.003 C 
ATOM      8  C   UNL     1      13.660  19.509  22.023  1.00  0.00     0.004 C 
ENDBRANCH   6   7
ENDBRANCH   5   6
ENDBRANCH   4   5
ENDBRANCH   3   4
ENDBRANCH   2   3
ENDBRANCH   1   2
BRANCH   1   9
ATOM      9  C   UNL     1      13.688  14.013  28.776  1.00  0.00     0.000 C 
BRANCH   9  10
ATOM     10  C   UNL     1      13.310  13.220  30.043  1.00  0.00     0.000 C 
BRANCH  10  11
ATOM     11  C   UNL     1      13.665  13.904  31.375  1.00  0.00     0.000 C 
BRANCH  11  12
ATOM     12  C   UNL     1      12.465  14.623  32.016  1.00  0.00     0.002 C 
BRANCH  12  13
ATOM     13  C   UNL     1      12.724  16.123  32.237  1.00  0.00     0.028 C 
BRANCH  13  14
ATOM     14  C   UNL     1      12.876  16.922  30.935  1.00  0.00     0.156 C 
BRANCH  14  15
ATOM     15  O   UNL     1      14.228  17.118  30.618  1.00  0.00    -0.396 OA
ATOM     16  H   UNL     1      14.291  18.004  30.173  1.00  0.00     0.210 HD
ENDBRANCH  14  15
ENDBRANCH  13  14
ENDBRANCH  12  13
ENDBRANCH  11  12
ENDBRANCH  10  11
ENDBRANCH   9  10
ENDBRANCH   1   9
TORSDOF 13
ENDMDL
MODEL 5
REMARK VINA RESULT:    -5.041      2.861      6.925
REMARK INTER + INTRA:          -9.887
REMARK INTER:                  -9.015
REMARK INTRA:                  -0.872
REMARK UNBOUND:                -1.163
REMARK SMILES CCCCCCCCCCCCCCO
REMARK SMILES IDX 8 1 7 2 6 3 5 4 4 5 3 6 2 7 1 8 9 9 10 10 11 11 12 12 13 13
REMARK SMILES IDX 14 14 15 15
REMARK H PARENT 15 16
REMARK Flexibility Score: inf
ROOT
ATOM      1  C   UNL     1      12.503  14.313  26.130  1.00  0.00     0.000 C 
ENDROOT
BRANCH   1   2
ATOM      2  C   UNL     1      12.090  15.329  27.213  1.00  0.00    -0.000 C 
BRANCH   2   3
ATOM      3  C   UNL     1      13.187  15.668  28.243  1.00  0.00    -0.000 C 
BRANCH   3   4
ATOM      4  C   UNL     1      14.226  14.555  28.496  1.00  0.00    -0.000 C 
BRANCH   4   5
ATOM      5  C   UNL     1      13.685  13.323  29.247  1.00  0.00    -0.000 C 
BRANCH   5   6
ATOM      6  C   UNL     1      12.878  13.675  30.517  1.00  0.00    -0.000 C 
BRANCH   6   7
ATOM      7  C   UNL     1      13.746  14.218  31.663  1.00  0.00    -0.003 C 
ATOM      8  C   UNL     1      13.424  15.670  32.015  1.00  0.00     0.004 C 
ENDBRANCH   6   7
ENDBRANCH   5   6
ENDBRANCH   4   5
ENDBRANCH   3   4
ENDBRANCH   2   3
ENDBRANCH   1   2
BRANCH   1   9
ATOM      9  C   UNL     1      11.985  14.631  24.713  1.00  0.00     0.000 C 
BRANCH   9  10
ATOM     10  C   UNL     1      10.673  15.438  24.662  1.00  0.00     0.000 C 
BRANCH  10  11
ATOM     11  C   UNL     1      10.799  16.859  24.083  1.00  0.00     0.000 C 
BRANCH  11  12
ATOM     12  C   UNL     1      12.059  17.043  23.221  1.00  0.00     0.002 C 
BRANCH  12  13
ATOM     13  C   UNL     1      12.927  18.226  23.685  1.00  0.00     0.028 C 
BRANCH  13  14
ATOM     14  C   UNL     1      13.402  19.131  22.539  1.00  0.00     0.156 C 
BRANCH  14  15
ATOM     15  O   UNL     1      14.437  19.977  22.961  1.00  0.00    -0.396 OA
ATOM     16  H   UNL     1      14.862  19.539  23.745  1.00  0.00     0.210 HD
ENDBRANCH  14  15
ENDBRANCH  13  14
ENDBRANCH  12  13
ENDBRANCH  11  12
ENDBRANCH  10  11
ENDBRANCH   9  10
ENDBRANCH   1   9
TORSDOF 13
ENDMDL
MODEL 6
REMARK VINA RESULT:    -5.008      1.373      1.943
REMARK INTER + INTRA:          -9.830
REMARK INTER:                  -9.000
REMARK INTRA:                  -0.831
REMARK UNBOUND:                -1.163
REMARK SMILES CCCCCCCCCCCCCCO
REMARK SMILES IDX 8 1 7 2 6 3 5 4 4 5 3 6 2 7 1 8 9 9 10 10 11 11 12 12 13 13
REMARK SMILES IDX 14 14 15 15
REMARK H PARENT 15 16
REMARK Flexibility Score: inf
ROOT
ATOM      1  C   UNL     1      13.776  13.303  28.935  1.00  0.00     0.000 C 
ENDROOT
BRANCH   1   2
ATOM      2  C   UNL     1      13.617  14.737  28.391  1.00  0.00    -0.000 C 
BRANCH   2   3
ATOM      3  C   UNL     1      12.278  15.023  27.683  1.00  0.00    -0.000 C 
BRANCH   3   4
ATOM      4  C   UNL     1      12.329  15.023  26.141  1.00  0.00    -0.000 C 
BRANCH   4   5
ATOM      5  C   UNL     1      11.062  15.563  25.450  1.00  0.00    -0.000 C 
BRANCH   5   6
ATOM      6  C   UNL     1      11.246  16.964  24.822  1.00  0.00    -0.000 C 
BRANCH   6   7
ATOM      7  C   UNL     1      12.447  17.736  25.391  1.00  0.00    -0.003 C 
ATOM      8  C   UNL     1      13.264  18.442  24.311  1.00  0.00     0.004 C 
ENDBRANCH   6   7
ENDBRANCH   5   6
ENDBRANCH   4   5
ENDBRANCH   3   4
ENDBRANCH   2   3
ENDBRANCH   1   2
BRANCH   1   9
ATOM      9  C   UNL     1      13.284  13.101  30.382  1.00  0.00     0.000 C 
BRANCH   9  10
ATOM     10  C   UNL     1      13.875  14.081  31.416  1.00  0.00     0.000 C 
BRANCH  10  11
ATOM     11  C   UNL     1      13.020  14.297  32.677  1.00  0.00     0.000 C 
BRANCH  11  12
ATOM     12  C   UNL     1      12.318  15.665  32.697  1.00  0.00     0.002 C 
BRANCH  12  13
ATOM     13  C   UNL     1      11.661  16.012  31.350  1.00  0.00     0.028 C 
BRANCH  13  14
ATOM     14  C   UNL     1      12.218  17.288  30.701  1.00  0.00     0.156 C 
BRANCH  14  15
ATOM     15  O   UNL     1      13.615  17.342  30.814  1.00  0.00    -0.396 OA
ATOM     16  H   UNL     1      13.963  17.588  29.916  1.00  0.00     0.210 HD
ENDBRANCH  14  15
ENDBRANCH  13  14
ENDBRANCH  12  13
ENDBRANCH  11  12
ENDBRANCH  10  11
ENDBRANCH   9  10
ENDBRANCH   1   9
TORSDOF 13
ENDMDL
MODEL 7
REMARK VINA RESULT:    -4.994      2.007      4.647
REMARK INTER + INTRA:          -9.806
REMARK INTER:                  -8.467
REMARK INTRA:                  -1.339
REMARK UNBOUND:                -1.163
REMARK SMILES CCCCCCCCCCCCCCO
REMARK SMILES IDX 8 1 7 2 6 3 5 4 4 5 3 6 2 7 1 8 9 9 10 10 11 11 12 12 13 13
REMARK SMILES IDX 14 14 15 15
REMARK H PARENT 15 16
REMARK Flexibility Score: inf
ROOT
ATOM      1  C   UNL     1      13.735  14.270  31.313  1.00  0.00     0.000 C 
ENDROOT
BRANCH   1   2
ATOM      2  C   UNL     1      12.829  14.504  32.539  1.00  0.00    -0.000 C 
BRANCH   2   3
ATOM      3  C   UNL     1      12.025  15.820  32.516  1.00  0.00    -0.000 C 
BRANCH   3   4
ATOM      4  C   UNL     1      11.442  16.218  31.143  1.00  0.00    -0.000 C 
BRANCH   4   5
ATOM      5  C   UNL     1       9.942  15.914  30.964  1.00  0.00    -0.000 C 
BRANCH   5   6
ATOM      6  C   UNL     1       9.656  14.753  29.984  1.00  0.00    -0.000 C 
BRANCH   6   7
ATOM      7  C   UNL     1       8.183  14.665  29.552  1.00  0.00    -0.003 C 
ATOM      8  C   UNL     1       8.001  14.775  28.039  1.00  0.00     0.004 C 
ENDBRANCH   6   7
ENDBRANCH   5   6
ENDBRANCH   4   5
ENDBRANCH   3   4
ENDBRANCH   2   3
ENDBRANCH   1   2
BRANCH   1   9
ATOM      9  C   UNL     1      13.299  13.109  30.399  1.00  0.00     0.000 C 
BRANCH   9  10
ATOM     10  C   UNL     1      14.004  13.055  29.029  1.00  0.00     0.000 C 
BRANCH  10  11
ATOM     11  C   UNL     1      13.942  14.356  28.208  1.00  0.00     0.000 C 
BRANCH  11  12
ATOM     12  C   UNL     1      12.506  14.757  27.831  1.00  0.00     0.002 C 
BRANCH  12  13
ATOM     13  C   UNL     1      12.381  16.249  27.478  1.00  0.00     0.028 C 
BRANCH  13  14
ATOM     14  C   UNL     1      12.259  16.518  25.971  1.00  0.00     0.156 C 
BRANCH  14  15
ATOM     15  O   UNL     1      12.341  17.891  25.695  1.00  0.00    -0.396 OA
ATOM     16  H   UNL     1      12.822  17.979  24.831  1.00  0.00     0.210 HD
ENDBRANCH  14  15
ENDBRANCH  13  14
ENDBRANCH  12  13
ENDBRANCH  11  12
ENDBRANCH  10  11
ENDBRANCH   9  10
ENDBRANCH   1   9
TORSDOF 13
ENDMDL
MODEL 8
REMARK VINA RESULT:    -4.986      1.523      3.065
REMARK INTER + INTRA:          -9.792
REMARK INTER:                  -8.598
REMARK INTRA:                  -1.194
REMARK UNBOUND:                -1.163
REMARK SMILES CCCCCCCCCCCCCCO
REMARK SMILES IDX 8 1 7 2 6 3 5 4 4 5 3 6 2 7 1 8 9 9 10 10 11 11 12 12 13 13
REMARK SMILES IDX 14 14 15 15
REMARK H PARENT 15 16
REMARK Flexibility Score: inf
ROOT
ATOM      1  C   UNL     1      12.841  15.763  27.840  1.00  0.00     0.000 C 
ENDROOT
BRANCH   1   2
ATOM      2  C   UNL     1      11.876  14.899  27.004  1.00  0.00    -0.000 C 
BRANCH   2   3
ATOM      3  C   UNL     1      12.407  14.481  25.618  1.00  0.00    -0.000 C 
BRANCH   3   4
ATOM      4  C   UNL     1      11.341  14.363  24.508  1.00  0.00    -0.000 C 
BRANCH   4   5
ATOM      5  C   UNL     1      10.390  15.570  24.392  1.00  0.00    -0.000 C 
BRANCH   5   6
ATOM      6  C   UNL     1      11.031  16.803  23.712  1.00  0.00    -0.000 C 
BRANCH   6   7
ATOM      7  C   UNL     1      11.365  17.938  24.694  1.00  0.00    -0.003 C 
ATOM      8  C   UNL     1      12.868  18.138  24.879  1.00  0.00     0.004 C 
ENDBRANCH   6   7
ENDBRANCH   5   6
ENDBRANCH   4   5
ENDBRANCH   3   4
ENDBRANCH   2   3
ENDBRANCH   1   2
BRANCH   1   9
ATOM      9  C   UNL     1      14.075  15.015  28.383  1.00  0.00     0.000 C 
BRANCH   9  10
ATOM     10  C   UNL     1      13.797  13.595  28.916  1.00  0.00     0.000 C 
BRANCH  10  11
ATOM     11  C   UNL     1      12.955  13.531  30.203  1.00  0.00     0.000 C 
BRANCH  11  12
ATOM     12  C   UNL     1      13.720  14.026  31.442  1.00  0.00     0.002 C 
BRANCH  12  13
ATOM     13  C   UNL     1      12.792  14.639  32.505  1.00  0.00     0.028 C 
BRANCH  13  14
ATOM     14  C   UNL     1      12.392  16.092  32.212  1.00  0.00     0.156 C 
BRANCH  14  15
ATOM     15  O   UNL     1      13.350  16.726  31.408  1.00  0.00    -0.396 OA
ATOM     16  H   UNL     1      13.469  17.641  31.776  1.00  0.00     0.210 HD
ENDBRANCH  14  15
ENDBRANCH  13  14
ENDBRANCH  12  13
ENDBRANCH  11  12
ENDBRANCH  10  11
ENDBRANCH   9  10
ENDBRANCH   1   9
TORSDOF 13
ENDMDL
MODEL 9
REMARK VINA RESULT:    -4.913      6.793      9.319
REMARK INTER + INTRA:          -9.667
REMARK INTER:                  -8.946
REMARK INTRA:                  -0.721
REMARK UNBOUND:                -1.163
REMARK SMILES CCCCCCCCCCCCCCO
REMARK SMILES IDX 8 1 7 2 6 3 5 4 4 5 3 6 2 7 1 8 9 9 10 10 11 11 12 12 13 13
REMARK SMILES IDX 14 14 15 15
REMARK H PARENT 15 16
REMARK Flexibility Score: inf
ROOT
ATOM      1  C   UNL     1      14.948  13.259  20.890  1.00  0.00     0.000 C 
ENDROOT
BRANCH   1   2
ATOM      2  C   UNL     1      16.255  13.045  20.101  1.00  0.00    -0.000 C 
BRANCH   2   3
ATOM      3  C   UNL     1      17.239  14.232  20.134  1.00  0.00    -0.000 C 
BRANCH   3   4
ATOM      4  C   UNL     1      18.496  14.027  21.005  1.00  0.00    -0.000 C 
BRANCH   4   5
ATOM      5  C   UNL     1      18.231  13.393  22.385  1.00  0.00    -0.000 C 
BRANCH   5   6
ATOM      6  C   UNL     1      19.363  12.455  22.864  1.00  0.00    -0.000 C 
BRANCH   6   7
ATOM      7  C   UNL     1      19.660  12.573  24.368  1.00  0.00    -0.003 C 
ATOM      8  C   UNL     1      20.003  13.999  24.795  1.00  0.00     0.004 C 
ENDBRANCH   6   7
ENDBRANCH   5   6
ENDBRANCH   4   5
ENDBRANCH   3   4
ENDBRANCH   2   3
ENDBRANCH   1   2
BRANCH   1   9
ATOM      9  C   UNL     1      14.005  14.328  20.305  1.00  0.00     0.000 C 
BRANCH   9  10
ATOM     10  C   UNL     1      12.909  14.831  21.265  1.00  0.00     0.000 C 
BRANCH  10  11
ATOM     11  C   UNL     1      13.158  14.536  22.756  1.00  0.00     0.000 C 
BRANCH  11  12
ATOM     12  C   UNL     1      11.925  13.949  23.463  1.00  0.00     0.002 C 
BRANCH  12  13
ATOM     13  C   UNL     1      11.802  12.428  23.272  1.00  0.00     0.028 C 
BRANCH  13  14
ATOM     14  C   UNL     1      10.680  12.015  22.308  1.00  0.00     0.156 C 
BRANCH  14  15
ATOM     15  O   UNL     1      10.467  10.630  22.345  1.00  0.00    -0.396 OA
ATOM     16  H   UNL     1      11.352  10.210  22.506  1.00  0.00     0.210 HD
ENDBRANCH  14  15
ENDBRANCH  13  14
ENDBRANCH  12  13
ENDBRANCH  11  12
ENDBRANCH  10  11
ENDBRANCH   9  10
ENDBRANCH   1   9
TORSDOF 13
ENDMDL
