MODEL 1
REMARK VINA RESULT:    -7.918      0.000      0.000
REMARK INTER + INTRA:         -11.225
REMARK INTER:                 -10.001
REMARK INTRA:                  -1.224
REMARK UNBOUND:                -1.224
REMARK SMILES CC(C)[C@H](C)C=C[C@@H](C)[C@H]1CC[C@@H]2C3=CC=C4C[C@@H](O)CC[C@@]4(C)[C@H]3CC[C@]21C
REMARK SMILES IDX 8 1 9 2 7 3 6 4 4 5 5 6 2 7 1 8 3 9 10 10 11 11 28 12 12 13
REMARK SMILES IDX 13 14 27 15 29 16 14 17 26 18 25 19 15 20 23 21 16 22 17 23
REMARK SMILES IDX 22 24 24 25 18 26 21 27 19 28 20 29
REMARK H PARENT 20 30
REMARK Flexibility Score: inf
ROOT
ATOM      1  C   UNL     1     112.890 116.680 126.360  1.00  0.00     0.012 C 
ATOM      2  C   UNL     1     112.378 115.615 125.364  1.00  0.00     0.012 C 
ENDROOT
BRANCH   1   3
ATOM      3  C   UNL     1     112.937 116.038 127.736  1.00  0.00    -0.028 C 
ATOM      4  C   UNL     1     113.923 116.286 128.615  1.00  0.00    -0.028 C 
BRANCH   4   5
ATOM      5  C   UNL     1     113.949 115.633 129.979  1.00  0.00     0.011 C 
ATOM      6  C   UNL     1     115.276 114.883 130.174  1.00  0.00     0.012 C 
BRANCH   5   7
ATOM      7  C   UNL     1     113.648 116.673 131.102  1.00  0.00    -0.011 C 
ATOM      8  C   UNL     1     114.589 117.885 131.031  1.00  0.00     0.008 C 
ATOM      9  C   UNL     1     112.181 117.135 131.125  1.00  0.00     0.008 C 
ENDBRANCH   5   7
ENDBRANCH   4   5
ENDBRANCH   1   3
BRANCH   1  10
ATOM     10  C   UNL     1     112.027 117.998 126.357  1.00  0.00     0.002 C 
ATOM     11  C   UNL     1     111.721 118.513 127.801  1.00  0.00     0.005 C 
ATOM     12  C   UNL     1     112.644 119.257 125.656  1.00  0.00    -0.023 C 
ATOM     13  C   UNL     1     112.425 119.862 127.979  1.00  0.00     0.009 C 
ATOM     14  C   UNL     1     113.387 119.936 126.805  1.00  0.00     0.021 C 
ATOM     15  C   UNL     1     113.677 119.036 124.534  1.00  0.00     0.008 C 
ATOM     16  C   UNL     1     111.458 120.114 125.104  1.00  0.00     0.012 C 
ATOM     17  C   UNL     1     113.966 121.280 126.426  1.00  0.00    -0.063 C 
ATOM     18  C   UNL     1     114.251 120.360 123.982  1.00  0.00     0.009 C 
ATOM     19  C   UNL     1     114.444 121.546 125.001  1.00  0.00     0.025 C 
ATOM     20  C   UNL     1     114.219 122.201 127.365  1.00  0.00    -0.000 C 
ATOM     21  C   UNL     1     115.868 122.220 124.970  1.00  0.00    -0.005 C 
ATOM     22  C   UNL     1     115.139 123.317 127.105  1.00  0.00    -0.000 C 
ATOM     23  C   UNL     1     115.952 123.321 126.033  1.00  0.00    -0.061 C 
ATOM     24  C   UNL     1     117.008 121.210 125.293  1.00  0.00     0.014 C 
ATOM     25  C   UNL     1     116.072 122.849 123.561  1.00  0.00     0.017 C 
ATOM     26  C   UNL     1     117.258 124.071 126.144  1.00  0.00     0.063 C 
ATOM     27  C   UNL     1     118.390 121.888 125.459  1.00  0.00     0.033 C 
ATOM     28  C   UNL     1     118.377 123.064 126.464  1.00  0.00     0.118 C 
BRANCH  28  29
ATOM     29  O   UNL     1     118.206 122.578 127.772  1.00  0.00    -0.393 OA
ATOM     30  H   UNL     1     117.360 122.971 128.115  1.00  0.00     0.210 HD
ENDBRANCH  28  29
ENDBRANCH   1  10
TORSDOF 5
ENDMDL
MODEL 2
REMARK VINA RESULT:    -7.641      1.286      1.486
REMARK INTER + INTRA:         -10.875
REMARK INTER:                  -8.829
REMARK INTRA:                  -2.047
REMARK UNBOUND:                -1.224
REMARK SMILES CC(C)[C@H](C)C=C[C@@H](C)[C@H]1CC[C@@H]2C3=CC=C4C[C@@H](O)CC[C@@]4(C)[C@H]3CC[C@]21C
REMARK SMILES IDX 8 1 9 2 7 3 6 4 4 5 5 6 2 7 1 8 3 9 10 10 11 11 28 12 12 13
REMARK SMILES IDX 13 14 27 15 29 16 14 17 26 18 25 19 15 20 23 21 16 22 17 23
REMARK SMILES IDX 22 24 24 25 18 26 21 27 19 28 20 29
REMARK H PARENT 20 30
REMARK Flexibility Score: inf
ROOT
ATOM      1  C   UNL     1     113.156 116.510 125.600  1.00  0.00     0.012 C 
ATOM      2  C   UNL     1     112.420 115.242 125.112  1.00  0.00     0.012 C 
ENDROOT
BRANCH   1   3
ATOM      3  C   UNL     1     114.016 116.116 126.788  1.00  0.00    -0.028 C 
ATOM      4  C   UNL     1     115.266 116.578 126.959  1.00  0.00    -0.028 C 
BRANCH   4   5
ATOM      5  C   UNL     1     116.104 116.169 128.150  1.00  0.00     0.011 C 
ATOM      6  C   UNL     1     117.456 115.615 127.672  1.00  0.00     0.012 C 
BRANCH   5   7
ATOM      7  C   UNL     1     116.235 117.341 129.170  1.00  0.00    -0.011 C 
ATOM      8  C   UNL     1     116.479 118.687 128.472  1.00  0.00     0.008 C 
ATOM      9  C   UNL     1     115.039 117.447 130.131  1.00  0.00     0.008 C 
ENDBRANCH   5   7
ENDBRANCH   4   5
ENDBRANCH   1   3
BRANCH   1  10
ATOM     10  C   UNL     1     112.180 117.697 125.950  1.00  0.00     0.002 C 
ATOM     11  C   UNL     1     111.973 117.863 127.491  1.00  0.00     0.005 C 
ATOM     12  C   UNL     1     112.608 119.135 125.494  1.00  0.00    -0.023 C 
ATOM     13  C   UNL     1     112.566 119.214 127.903  1.00  0.00     0.009 C 
ATOM     14  C   UNL     1     113.397 119.637 126.702  1.00  0.00     0.021 C 
ATOM     15  C   UNL     1     113.541 119.268 124.275  1.00  0.00     0.008 C 
ATOM     16  C   UNL     1     111.301 119.953 125.235  1.00  0.00     0.012 C 
ATOM     17  C   UNL     1     113.811 121.085 126.582  1.00  0.00    -0.063 C 
ATOM     18  C   UNL     1     113.935 120.733 123.981  1.00  0.00     0.009 C 
ATOM     19  C   UNL     1     114.120 121.693 125.217  1.00  0.00     0.025 C 
ATOM     20  C   UNL     1     114.071 121.812 127.676  1.00  0.00    -0.000 C 
ATOM     21  C   UNL     1     115.466 122.512 125.223  1.00  0.00    -0.005 C 
ATOM     22  C   UNL     1     114.855 123.052 127.595  1.00  0.00    -0.000 C 
ATOM     23  C   UNL     1     115.555 123.370 126.490  1.00  0.00    -0.061 C 
ATOM     24  C   UNL     1     116.720 121.588 125.229  1.00  0.00     0.014 C 
ATOM     25  C   UNL     1     115.472 123.439 123.973  1.00  0.00     0.017 C 
ATOM     26  C   UNL     1     116.792 124.218 126.661  1.00  0.00     0.063 C 
ATOM     27  C   UNL     1     118.044 122.364 125.431  1.00  0.00     0.033 C 
ATOM     28  C   UNL     1     118.024 123.296 126.667  1.00  0.00     0.118 C 
BRANCH  28  29
ATOM     29  O   UNL     1     118.027 122.532 127.846  1.00  0.00    -0.393 OA
ATOM     30  H   UNL     1     117.519 123.050 128.525  1.00  0.00     0.210 HD
ENDBRANCH  28  29
ENDBRANCH   1  10
TORSDOF 5
ENDMDL
MODEL 3
REMARK VINA RESULT:    -7.346      2.398      6.897
REMARK INTER + INTRA:         -10.502
REMARK INTER:                  -8.303
REMARK INTRA:                  -2.199
REMARK UNBOUND:                -1.224
REMARK SMILES CC(C)[C@H](C)C=C[C@@H](C)[C@H]1CC[C@@H]2C3=CC=C4C[C@@H](O)CC[C@@]4(C)[C@H]3CC[C@]21C
REMARK SMILES IDX 8 1 9 2 7 3 6 4 4 5 5 6 2 7 1 8 3 9 10 10 11 11 28 12 12 13
REMARK SMILES IDX 13 14 27 15 29 16 14 17 26 18 25 19 15 20 23 21 16 22 17 23
REMARK SMILES IDX 22 24 24 25 18 26 21 27 19 28 20 29
REMARK H PARENT 20 30
REMARK Flexibility Score: inf
ROOT
ATOM      1  C   UNL     1     117.755 123.248 126.303  1.00  0.00     0.012 C 
ATOM      2  C   UNL     1     118.671 124.465 126.565  1.00  0.00     0.012 C 
ENDROOT
BRANCH   1   3
ATOM      3  C   UNL     1     118.528 122.266 125.440  1.00  0.00    -0.028 C 
ATOM      4  C   UNL     1     118.522 120.942 125.670  1.00  0.00    -0.028 C 
BRANCH   4   5
ATOM      5  C   UNL     1     119.303 119.985 124.797  1.00  0.00     0.011 C 
ATOM      6  C   UNL     1     120.169 119.066 125.674  1.00  0.00     0.012 C 
BRANCH   5   7
ATOM      7  C   UNL     1     118.354 119.212 123.829  1.00  0.00    -0.011 C 
ATOM      8  C   UNL     1     117.085 118.718 124.540  1.00  0.00     0.008 C 
ATOM      9  C   UNL     1     117.984 120.016 122.572  1.00  0.00     0.008 C 
ENDBRANCH   5   7
ENDBRANCH   4   5
ENDBRANCH   1   3
BRANCH   1  10
ATOM     10  C   UNL     1     116.374 123.640 125.653  1.00  0.00     0.002 C 
ATOM     11  C   UNL     1     116.393 123.518 124.094  1.00  0.00     0.005 C 
ATOM     12  C   UNL     1     115.123 122.786 126.059  1.00  0.00    -0.023 C 
ATOM     13  C   UNL     1     115.418 122.405 123.697  1.00  0.00     0.009 C 
ATOM     14  C   UNL     1     115.126 121.683 125.002  1.00  0.00     0.021 C 
ATOM     15  C   UNL     1     115.132 122.083 127.429  1.00  0.00     0.008 C 
ATOM     16  C   UNL     1     113.871 123.718 125.965  1.00  0.00     0.012 C 
ATOM     17  C   UNL     1     113.914 120.784 125.077  1.00  0.00    -0.063 C 
ATOM     18  C   UNL     1     113.869 121.224 127.667  1.00  0.00     0.009 C 
ATOM     19  C   UNL     1     113.243 120.497 126.417  1.00  0.00     0.025 C 
ATOM     20  C   UNL     1     113.507 120.098 124.001  1.00  0.00    -0.000 C 
ATOM     21  C   UNL     1     112.957 118.960 126.620  1.00  0.00    -0.005 C 
ATOM     22  C   UNL     1     112.623 118.933 124.134  1.00  0.00    -0.000 C 
ATOM     23  C   UNL     1     112.398 118.354 125.329  1.00  0.00    -0.061 C 
ATOM     24  C   UNL     1     114.249 118.158 126.958  1.00  0.00     0.014 C 
ATOM     25  C   UNL     1     111.904 118.811 127.756  1.00  0.00     0.017 C 
ATOM     26  C   UNL     1     112.073 116.880 125.346  1.00  0.00     0.063 C 
ATOM     27  C   UNL     1     114.027 116.626 126.969  1.00  0.00     0.033 C 
ATOM     28  C   UNL     1     113.356 116.097 125.679  1.00  0.00     0.118 C 
BRANCH  28  29
ATOM     29  O   UNL     1     114.250 116.188 124.598  1.00  0.00    -0.393 OA
ATOM     30  H   UNL     1     114.062 115.413 124.005  1.00  0.00     0.210 HD
ENDBRANCH  28  29
ENDBRANCH   1  10
TORSDOF 5
ENDMDL
MODEL 4
REMARK VINA RESULT:    -7.214      2.610      4.436
REMARK INTER + INTRA:         -10.336
REMARK INTER:                  -9.404
REMARK INTRA:                  -0.932
REMARK UNBOUND:                -1.224
REMARK SMILES CC(C)[C@H](C)C=C[C@@H](C)[C@H]1CC[C@@H]2C3=CC=C4C[C@@H](O)CC[C@@]4(C)[C@H]3CC[C@]21C
REMARK SMILES IDX 8 1 9 2 7 3 6 4 4 5 5 6 2 7 1 8 3 9 10 10 11 11 28 12 12 13
REMARK SMILES IDX 13 14 27 15 29 16 14 17 26 18 25 19 15 20 23 21 16 22 17 23
REMARK SMILES IDX 22 24 24 25 18 26 21 27 19 28 20 29
REMARK H PARENT 20 30
REMARK Flexibility Score: inf
ROOT
ATOM      1  C   UNL     1     112.758 116.633 123.528  1.00  0.00     0.012 C 
ATOM      2  C   UNL     1     111.620 116.527 122.487  1.00  0.00     0.012 C 
ENDROOT
BRANCH   1   3
ATOM      3  C   UNL     1     113.417 115.269 123.630  1.00  0.00    -0.028 C 
ATOM      4  C   UNL     1     114.718 115.073 123.358  1.00  0.00    -0.028 C 
BRANCH   4   5
ATOM      5  C   UNL     1     115.351 113.703 123.466  1.00  0.00     0.011 C 
ATOM      6  C   UNL     1     114.258 112.634 123.625  1.00  0.00     0.012 C 
BRANCH   5   7
ATOM      7  C   UNL     1     116.315 113.438 122.268  1.00  0.00    -0.011 C 
ATOM      8  C   UNL     1     115.613 112.703 121.117  1.00  0.00     0.008 C 
ATOM      9  C   UNL     1     117.004 114.710 121.750  1.00  0.00     0.008 C 
ENDBRANCH   5   7
ENDBRANCH   4   5
ENDBRANCH   1   3
BRANCH   1  10
ATOM     10  C   UNL     1     112.268 117.155 124.931  1.00  0.00     0.002 C 
ATOM     11  C   UNL     1     113.075 116.528 126.115  1.00  0.00     0.005 C 
ATOM     12  C   UNL     1     112.381 118.695 125.203  1.00  0.00    -0.023 C 
ATOM     13  C   UNL     1     113.855 117.654 126.802  1.00  0.00     0.009 C 
ATOM     14  C   UNL     1     113.773 118.814 125.823  1.00  0.00     0.021 C 
ATOM     15  C   UNL     1     112.354 119.653 123.997  1.00  0.00     0.008 C 
ATOM     16  C   UNL     1     111.236 119.080 126.195  1.00  0.00     0.012 C 
ATOM     17  C   UNL     1     114.085 120.205 126.321  1.00  0.00    -0.063 C 
ATOM     18  C   UNL     1     112.543 121.132 124.405  1.00  0.00     0.009 C 
ATOM     19  C   UNL     1     113.500 121.430 125.621  1.00  0.00     0.025 C 
ATOM     20  C   UNL     1     115.002 120.396 127.277  1.00  0.00    -0.000 C 
ATOM     21  C   UNL     1     114.590 122.534 125.349  1.00  0.00    -0.005 C 
ATOM     22  C   UNL     1     115.618 121.714 127.486  1.00  0.00    -0.000 C 
ATOM     23  C   UNL     1     115.488 122.701 126.580  1.00  0.00    -0.061 C 
ATOM     24  C   UNL     1     115.532 122.157 124.167  1.00  0.00     0.014 C 
ATOM     25  C   UNL     1     113.856 123.876 125.063  1.00  0.00     0.017 C 
ATOM     26  C   UNL     1     116.598 123.721 126.489  1.00  0.00     0.063 C 
ATOM     27  C   UNL     1     116.726 123.130 124.009  1.00  0.00     0.033 C 
ATOM     28  C   UNL     1     117.522 123.339 125.319  1.00  0.00     0.118 C 
BRANCH  28  29
ATOM     29  O   UNL     1     118.227 122.169 125.646  1.00  0.00    -0.393 OA
ATOM     30  H   UNL     1     118.478 121.735 124.788  1.00  0.00     0.210 HD
ENDBRANCH  28  29
ENDBRANCH   1  10
TORSDOF 5
ENDMDL
MODEL 5
REMARK VINA RESULT:    -7.170      2.311      4.459
REMARK INTER + INTRA:         -10.280
REMARK INTER:                  -8.378
REMARK INTRA:                  -1.902
REMARK UNBOUND:                -1.224
REMARK SMILES CC(C)[C@H](C)C=C[C@@H](C)[C@H]1CC[C@@H]2C3=CC=C4C[C@@H](O)CC[C@@]4(C)[C@H]3CC[C@]21C
REMARK SMILES IDX 8 1 9 2 7 3 6 4 4 5 5 6 2 7 1 8 3 9 10 10 11 11 28 12 12 13
REMARK SMILES IDX 13 14 27 15 29 16 14 17 26 18 25 19 15 20 23 21 16 22 17 23
REMARK SMILES IDX 22 24 24 25 18 26 21 27 19 28 20 29
REMARK H PARENT 20 30
REMARK Flexibility Score: inf
ROOT
ATOM      1  C   UNL     1     116.437 116.439 128.128  1.00  0.00     0.012 C 
ATOM      2  C   UNL     1     117.082 115.340 129.001  1.00  0.00     0.012 C 
ENDROOT
BRANCH   1   3
ATOM      3  C   UNL     1     115.022 115.995 127.799  1.00  0.00    -0.028 C 
ATOM      4  C   UNL     1     113.958 116.802 127.949  1.00  0.00    -0.028 C 
BRANCH   4   5
ATOM      5  C   UNL     1     112.558 116.334 127.616  1.00  0.00     0.011 C 
ATOM      6  C   UNL     1     111.603 116.687 128.767  1.00  0.00     0.012 C 
BRANCH   5   7
ATOM      7  C   UNL     1     112.099 116.887 126.232  1.00  0.00    -0.011 C 
ATOM      8  C   UNL     1     112.652 118.295 125.963  1.00  0.00     0.008 C 
ATOM      9  C   UNL     1     112.435 115.949 125.061  1.00  0.00     0.008 C 
ENDBRANCH   5   7
ENDBRANCH   4   5
ENDBRANCH   1   3
BRANCH   1  10
ATOM     10  C   UNL     1     117.266 116.766 126.828  1.00  0.00     0.002 C 
ATOM     11  C   UNL     1     116.547 116.284 125.526  1.00  0.00     0.005 C 
ATOM     12  C   UNL     1     117.564 118.276 126.529  1.00  0.00    -0.023 C 
ATOM     13  C   UNL     1     116.181 117.524 124.704  1.00  0.00     0.009 C 
ATOM     14  C   UNL     1     116.365 118.681 125.674  1.00  0.00     0.021 C 
ATOM     15  C   UNL     1     117.610 119.261 127.714  1.00  0.00     0.008 C 
ATOM     16  C   UNL     1     118.919 118.341 125.752  1.00  0.00     0.012 C 
ATOM     17  C   UNL     1     116.476 120.081 125.118  1.00  0.00    -0.063 C 
ATOM     18  C   UNL     1     117.844 120.721 127.268  1.00  0.00     0.009 C 
ATOM     19  C   UNL     1     117.203 121.171 125.900  1.00  0.00     0.025 C 
ATOM     20  C   UNL     1     115.804 120.431 124.013  1.00  0.00    -0.000 C 
ATOM     21  C   UNL     1     116.372 122.508 125.967  1.00  0.00    -0.005 C 
ATOM     22  C   UNL     1     115.558 121.842 123.689  1.00  0.00    -0.000 C 
ATOM     23  C   UNL     1     115.760 122.816 124.596  1.00  0.00    -0.061 C 
ATOM     24  C   UNL     1     115.182 122.415 126.968  1.00  0.00     0.014 C 
ATOM     25  C   UNL     1     117.340 123.658 126.369  1.00  0.00     0.017 C 
ATOM     26  C   UNL     1     114.921 124.067 124.483  1.00  0.00     0.063 C 
ATOM     27  C   UNL     1     114.240 123.642 126.906  1.00  0.00     0.033 C 
ATOM     28  C   UNL     1     113.748 123.964 125.475  1.00  0.00     0.118 C 
BRANCH  28  29
ATOM     29  O   UNL     1     112.855 122.971 125.037  1.00  0.00    -0.393 OA
ATOM     30  H   UNL     1     112.937 122.211 125.672  1.00  0.00     0.210 HD
ENDBRANCH  28  29
ENDBRANCH   1  10
TORSDOF 5
ENDMDL
MODEL 6
REMARK VINA RESULT:    -7.141      3.453      5.670
REMARK INTER + INTRA:         -10.244
REMARK INTER:                  -8.053
REMARK INTRA:                  -2.191
REMARK UNBOUND:                -1.224
REMARK SMILES CC(C)[C@H](C)C=C[C@@H](C)[C@H]1CC[C@@H]2C3=CC=C4C[C@@H](O)CC[C@@]4(C)[C@H]3CC[C@]21C
REMARK SMILES IDX 8 1 9 2 7 3 6 4 4 5 5 6 2 7 1 8 3 9 10 10 11 11 28 12 12 13
REMARK SMILES IDX 13 14 27 15 29 16 14 17 26 18 25 19 15 20 23 21 16 22 17 23
REMARK SMILES IDX 22 24 24 25 18 26 21 27 19 28 20 29
REMARK H PARENT 20 30
REMARK Flexibility Score: inf
ROOT
ATOM      1  C   UNL     1     112.858 116.824 129.792  1.00  0.00     0.012 C 
ATOM      2  C   UNL     1     112.063 117.180 131.069  1.00  0.00     0.012 C 
ENDROOT
BRANCH   1   3
ATOM      3  C   UNL     1     114.300 116.578 130.200  1.00  0.00    -0.028 C 
ATOM      4  C   UNL     1     115.015 115.539 129.737  1.00  0.00    -0.028 C 
BRANCH   4   5
ATOM      5  C   UNL     1     116.450 115.314 130.161  1.00  0.00     0.011 C 
ATOM      6  C   UNL     1     116.658 113.839 130.536  1.00  0.00     0.012 C 
BRANCH   5   7
ATOM      7  C   UNL     1     117.440 115.828 129.071  1.00  0.00    -0.011 C 
ATOM      8  C   UNL     1     117.039 115.364 127.663  1.00  0.00     0.008 C 
ATOM      9  C   UNL     1     117.634 117.353 129.096  1.00  0.00     0.008 C 
ENDBRANCH   5   7
ENDBRANCH   4   5
ENDBRANCH   1   3
BRANCH   1  10
ATOM     10  C   UNL     1     112.747 117.921 128.666  1.00  0.00     0.002 C 
ATOM     11  C   UNL     1     113.889 118.985 128.755  1.00  0.00     0.005 C 
ATOM     12  C   UNL     1     112.834 117.433 127.179  1.00  0.00    -0.023 C 
ATOM     13  C   UNL     1     114.756 118.851 127.499  1.00  0.00     0.009 C 
ATOM     14  C   UNL     1     114.332 117.522 126.895  1.00  0.00     0.021 C 
ATOM     15  C   UNL     1     112.411 115.986 126.858  1.00  0.00     0.008 C 
ATOM     16  C   UNL     1     111.988 118.421 126.311  1.00  0.00     0.012 C 
ATOM     17  C   UNL     1     114.682 117.238 125.453  1.00  0.00    -0.063 C 
ATOM     18  C   UNL     1     112.613 115.620 125.371  1.00  0.00     0.009 C 
ATOM     19  C   UNL     1     113.850 116.257 124.631  1.00  0.00     0.025 C 
ATOM     20  C   UNL     1     115.816 117.712 124.921  1.00  0.00    -0.000 C 
ATOM     21  C   UNL     1     114.750 115.231 123.844  1.00  0.00    -0.005 C 
ATOM     22  C   UNL     1     116.381 117.131 123.696  1.00  0.00    -0.000 C 
ATOM     23  C   UNL     1     115.943 115.955 123.210  1.00  0.00    -0.061 C 
ATOM     24  C   UNL     1     115.347 114.133 124.773  1.00  0.00     0.014 C 
ATOM     25  C   UNL     1     113.883 114.590 122.722  1.00  0.00     0.017 C 
ATOM     26  C   UNL     1     116.916 115.115 122.419  1.00  0.00     0.063 C 
ATOM     27  C   UNL     1     116.386 113.233 124.060  1.00  0.00     0.033 C 
ATOM     28  C   UNL     1     117.501 114.035 123.346  1.00  0.00     0.118 C 
BRANCH  28  29
ATOM     29  O   UNL     1     118.341 114.642 124.295  1.00  0.00    -0.393 OA
ATOM     30  H   UNL     1     118.868 113.914 124.719  1.00  0.00     0.210 HD
ENDBRANCH  28  29
ENDBRANCH   1  10
TORSDOF 5
ENDMDL
MODEL 7
REMARK VINA RESULT:    -7.126      2.013      3.794
REMARK INTER + INTRA:         -10.225
REMARK INTER:                  -8.360
REMARK INTRA:                  -1.865
REMARK UNBOUND:                -1.224
REMARK SMILES CC(C)[C@H](C)C=C[C@@H](C)[C@H]1CC[C@@H]2C3=CC=C4C[C@@H](O)CC[C@@]4(C)[C@H]3CC[C@]21C
REMARK SMILES IDX 8 1 9 2 7 3 6 4 4 5 5 6 2 7 1 8 3 9 10 10 11 11 28 12 12 13
REMARK SMILES IDX 13 14 27 15 29 16 14 17 26 18 25 19 15 20 23 21 16 22 17 23
REMARK SMILES IDX 22 24 24 25 18 26 21 27 19 28 20 29
REMARK H PARENT 20 30
REMARK Flexibility Score: inf
ROOT
ATOM      1  C   UNL     1     113.217 116.353 124.432  1.00  0.00     0.012 C 
ATOM      2  C   UNL     1     113.526 114.854 124.650  1.00  0.00     0.012 C 
ENDROOT
BRANCH   1   3
ATOM      3  C   UNL     1     114.528 117.053 124.123  1.00  0.00    -0.028 C 
ATOM      4  C   UNL     1     115.717 116.569 124.521  1.00  0.00    -0.028 C 
BRANCH   4   5
ATOM      5  C   UNL     1     117.010 117.287 124.202  1.00  0.00     0.011 C 
ATOM      6  C   UNL     1     117.552 116.810 122.845  1.00  0.00     0.012 C 
BRANCH   5   7
ATOM      7  C   UNL     1     116.826 118.834 124.292  1.00  0.00    -0.011 C 
ATOM      8  C   UNL     1     117.138 119.369 125.698  1.00  0.00     0.008 C 
ATOM      9  C   UNL     1     117.633 119.604 123.235  1.00  0.00     0.008 C 
ENDBRANCH   5   7
ENDBRANCH   4   5
ENDBRANCH   1   3
BRANCH   1  10
ATOM     10  C   UNL     1     112.470 117.017 125.650  1.00  0.00     0.002 C 
ATOM     11  C   UNL     1     113.171 116.715 127.015  1.00  0.00     0.005 C 
ATOM     12  C   UNL     1     112.350 118.580 125.652  1.00  0.00    -0.023 C 
ATOM     13  C   UNL     1     113.698 118.039 127.576  1.00  0.00     0.009 C 
ATOM     14  C   UNL     1     113.613 119.001 126.402  1.00  0.00     0.021 C 
ATOM     15  C   UNL     1     112.377 119.316 124.299  1.00  0.00     0.008 C 
ATOM     16  C   UNL     1     111.036 118.948 126.414  1.00  0.00     0.012 C 
ATOM     17  C   UNL     1     113.675 120.486 126.676  1.00  0.00    -0.063 C 
ATOM     18  C   UNL     1     112.320 120.853 124.455  1.00  0.00     0.009 C 
ATOM     19  C   UNL     1     113.049 121.481 125.703  1.00  0.00     0.025 C 
ATOM     20  C   UNL     1     114.415 120.962 127.685  1.00  0.00    -0.000 C 
ATOM     21  C   UNL     1     114.021 122.675 125.369  1.00  0.00    -0.005 C 
ATOM     22  C   UNL     1     114.826 122.371 127.725  1.00  0.00    -0.000 C 
ATOM     23  C   UNL     1     114.705 123.170 126.648  1.00  0.00    -0.061 C 
ATOM     24  C   UNL     1     115.161 122.255 124.395  1.00  0.00     0.014 C 
ATOM     25  C   UNL     1     113.174 123.830 124.760  1.00  0.00     0.017 C 
ATOM     26  C   UNL     1     115.681 124.314 126.508  1.00  0.00     0.063 C 
ATOM     27  C   UNL     1     116.235 123.355 124.208  1.00  0.00     0.033 C 
ATOM     28  C   UNL     1     116.803 123.888 125.545  1.00  0.00     0.118 C 
BRANCH  28  29
ATOM     29  O   UNL     1     117.594 122.902 126.159  1.00  0.00    -0.393 OA
ATOM     30  H   UNL     1     117.735 123.192 127.099  1.00  0.00     0.210 HD
ENDBRANCH  28  29
ENDBRANCH   1  10
TORSDOF 5
ENDMDL
MODEL 8
REMARK VINA RESULT:    -6.982      2.411      6.166
REMARK INTER + INTRA:         -10.043
REMARK INTER:                  -8.183
REMARK INTRA:                  -1.860
REMARK UNBOUND:                -1.224
REMARK SMILES CC(C)[C@H](C)C=C[C@@H](C)[C@H]1CC[C@@H]2C3=CC=C4C[C@@H](O)CC[C@@]4(C)[C@H]3CC[C@]21C
REMARK SMILES IDX 8 1 9 2 7 3 6 4 4 5 5 6 2 7 1 8 3 9 10 10 11 11 28 12 12 13
REMARK SMILES IDX 13 14 27 15 29 16 14 17 26 18 25 19 15 20 23 21 16 22 17 23
REMARK SMILES IDX 22 24 24 25 18 26 21 27 19 28 20 29
REMARK H PARENT 20 30
REMARK Flexibility Score: inf
ROOT
ATOM      1  C   UNL     1     112.120 119.741 124.898  1.00  0.00     0.012 C 
ATOM      2  C   UNL     1     110.879 120.229 124.117  1.00  0.00     0.012 C 
ENDROOT
BRANCH   1   3
ATOM      3  C   UNL     1     113.347 120.061 124.061  1.00  0.00    -0.028 C 
ATOM      4  C   UNL     1     114.303 120.909 124.476  1.00  0.00    -0.028 C 
BRANCH   4   5
ATOM      5  C   UNL     1     115.515 121.213 123.623  1.00  0.00     0.011 C 
ATOM      6  C   UNL     1     115.988 122.653 123.882  1.00  0.00     0.012 C 
BRANCH   5   7
ATOM      7  C   UNL     1     116.629 120.142 123.834  1.00  0.00    -0.011 C 
ATOM      8  C   UNL     1     117.959 120.561 123.190  1.00  0.00     0.008 C 
ATOM      9  C   UNL     1     116.842 119.770 125.310  1.00  0.00     0.008 C 
ENDBRANCH   5   7
ENDBRANCH   4   5
ENDBRANCH   1   3
BRANCH   1  10
ATOM     10  C   UNL     1     112.053 118.213 125.279  1.00  0.00     0.002 C 
ATOM     11  C   UNL     1     112.711 117.299 124.195  1.00  0.00     0.005 C 
ATOM     12  C   UNL     1     112.774 117.772 126.599  1.00  0.00    -0.023 C 
ATOM     13  C   UNL     1     113.941 116.636 124.823  1.00  0.00     0.009 C 
ATOM     14  C   UNL     1     114.176 117.422 126.102  1.00  0.00     0.021 C 
ATOM     15  C   UNL     1     112.953 118.815 127.719  1.00  0.00     0.008 C 
ATOM     16  C   UNL     1     112.000 116.536 127.165  1.00  0.00     0.012 C 
ATOM     17  C   UNL     1     115.053 116.817 127.173  1.00  0.00    -0.063 C 
ATOM     18  C   UNL     1     113.738 118.263 128.930  1.00  0.00     0.009 C 
ATOM     19  C   UNL     1     114.888 117.227 128.634  1.00  0.00     0.025 C 
ATOM     20  C   UNL     1     116.092 116.039 126.844  1.00  0.00    -0.000 C 
ATOM     21  C   UNL     1     116.268 117.558 129.317  1.00  0.00    -0.005 C 
ATOM     22  C   UNL     1     117.181 115.784 127.796  1.00  0.00    -0.000 C 
ATOM     23  C   UNL     1     117.316 116.512 128.920  1.00  0.00    -0.061 C 
ATOM     24  C   UNL     1     116.834 118.938 128.868  1.00  0.00     0.014 C 
ATOM     25  C   UNL     1     116.065 117.522 130.859  1.00  0.00     0.017 C 
ATOM     26  C   UNL     1     118.706 116.683 129.484  1.00  0.00     0.063 C 
ATOM     27  C   UNL     1     118.275 119.197 129.372  1.00  0.00     0.033 C 
ATOM     28  C   UNL     1     119.256 118.049 129.034  1.00  0.00     0.118 C 
BRANCH  28  29
ATOM     29  O   UNL     1     119.502 118.018 127.651  1.00  0.00    -0.393 OA
ATOM     30  H   UNL     1     118.666 117.701 127.217  1.00  0.00     0.210 HD
ENDBRANCH  28  29
ENDBRANCH   1  10
TORSDOF 5
ENDMDL
MODEL 9
REMARK VINA RESULT:    -6.935      2.117      4.593
REMARK INTER + INTRA:          -9.983
REMARK INTER:                  -8.261
REMARK INTRA:                  -1.722
REMARK UNBOUND:                -1.224
REMARK SMILES CC(C)[C@H](C)C=C[C@@H](C)[C@H]1CC[C@@H]2C3=CC=C4C[C@@H](O)CC[C@@]4(C)[C@H]3CC[C@]21C
REMARK SMILES IDX 8 1 9 2 7 3 6 4 4 5 5 6 2 7 1 8 3 9 10 10 11 11 28 12 12 13
REMARK SMILES IDX 13 14 27 15 29 16 14 17 26 18 25 19 15 20 23 21 16 22 17 23
REMARK SMILES IDX 22 24 24 25 18 26 21 27 19 28 20 29
REMARK H PARENT 20 30
REMARK Flexibility Score: inf
ROOT
ATOM      1  C   UNL     1     112.395 117.106 127.580  1.00  0.00     0.012 C 
ATOM      2  C   UNL     1     111.259 116.593 128.493  1.00  0.00     0.012 C 
ENDROOT
BRANCH   1   3
ATOM      3  C   UNL     1     112.364 116.287 126.301  1.00  0.00    -0.028 C 
ATOM      4  C   UNL     1     112.424 116.850 125.082  1.00  0.00    -0.028 C 
BRANCH   4   5
ATOM      5  C   UNL     1     112.388 116.013 123.823  1.00  0.00     0.011 C 
ATOM      6  C   UNL     1     111.781 116.829 122.670  1.00  0.00     0.012 C 
BRANCH   5   7
ATOM      7  C   UNL     1     113.798 115.429 123.500  1.00  0.00    -0.011 C 
ATOM      8  C   UNL     1     114.907 116.480 123.662  1.00  0.00     0.008 C 
ATOM      9  C   UNL     1     114.134 114.168 124.313  1.00  0.00     0.008 C 
ENDBRANCH   5   7
ENDBRANCH   4   5
ENDBRANCH   1   3
BRANCH   1  10
ATOM     10  C   UNL     1     113.812 117.063 128.269  1.00  0.00     0.002 C 
ATOM     11  C   UNL     1     114.734 115.953 127.667  1.00  0.00     0.005 C 
ATOM     12  C   UNL     1     114.698 118.352 128.165  1.00  0.00    -0.023 C 
ATOM     13  C   UNL     1     115.915 116.643 126.978  1.00  0.00     0.009 C 
ATOM     14  C   UNL     1     115.490 118.100 126.883  1.00  0.00     0.021 C 
ATOM     15  C   UNL     1     113.994 119.711 127.986  1.00  0.00     0.008 C 
ATOM     16  C   UNL     1     115.601 118.403 129.441  1.00  0.00     0.012 C 
ATOM     17  C   UNL     1     116.547 119.147 126.621  1.00  0.00    -0.063 C 
ATOM     18  C   UNL     1     114.989 120.883 127.830  1.00  0.00     0.009 C 
ATOM     19  C   UNL     1     116.335 120.592 127.065  1.00  0.00     0.025 C 
ATOM     20  C   UNL     1     117.611 118.865 125.858  1.00  0.00    -0.000 C 
ATOM     21  C   UNL     1     116.682 121.619 125.922  1.00  0.00    -0.005 C 
ATOM     22  C   UNL     1     118.416 119.934 125.253  1.00  0.00    -0.000 C 
ATOM     23  C   UNL     1     117.981 121.208 125.220  1.00  0.00    -0.061 C 
ATOM     24  C   UNL     1     115.584 121.669 124.818  1.00  0.00     0.014 C 
ATOM     25  C   UNL     1     116.871 123.020 126.573  1.00  0.00     0.017 C 
ATOM     26  C   UNL     1     118.459 122.085 124.088  1.00  0.00     0.063 C 
ATOM     27  C   UNL     1     115.993 122.523 123.593  1.00  0.00     0.033 C 
ATOM     28  C   UNL     1     117.368 122.126 123.003  1.00  0.00     0.118 C 
BRANCH  28  29
ATOM     29  O   UNL     1     117.281 120.868 122.383  1.00  0.00    -0.393 OA
ATOM     30  H   UNL     1     117.989 120.300 122.786  1.00  0.00     0.210 HD
ENDBRANCH  28  29
ENDBRANCH   1  10
TORSDOF 5
ENDMDL
