MODEL 1
REMARK VINA RESULT:    -0.702      0.000      0.000
REMARK INTER + INTRA:          -0.157
REMARK INTER:                  -1.359
REMARK INTRA:                   1.202
REMARK UNBOUND:                 1.202
REMARK SMILES CCCCCCCCCCCCCCCCCC(=O)[O-]
REMARK SMILES IDX 10 1 11 2 12 3 13 4 14 5 15 6 16 7 17 8 18 9 19 10 20 11
REMARK SMILES IDX 9 12 8 13 7 14 6 15 5 16 4 17 3 18 2 19 1 20
REMARK H PARENT
REMARK Flexibility Score: inf
ROOT
ATOM      1  C   UNL     1      -5.814  15.454 -14.276  1.00  0.00     0.000 C 
ENDROOT
BRANCH   1   2
ATOM      2  C   UNL     1      -5.657  16.893 -14.798  1.00  0.00     0.000 C 
BRANCH   2   3
ATOM      3  C   UNL     1      -4.879  17.788 -13.811  1.00  0.00     0.000 C 
BRANCH   3   4
ATOM      4  C   UNL     1      -5.405  19.232 -13.744  1.00  0.00     0.000 C 
BRANCH   4   5
ATOM      5  C   UNL     1      -5.782  19.797 -15.120  1.00  0.00     0.000 C 
BRANCH   5   6
ATOM      6  C   UNL     1      -6.841  20.897 -14.990  1.00  0.00     0.000 C 
BRANCH   6   7
ATOM      7  C   UNL     1      -8.211  20.304 -14.644  1.00  0.00     0.006 C 
BRANCH   7   8
ATOM      8  C   UNL     1      -8.305  19.969 -13.152  1.00  0.00     0.053 C 
BRANCH   8   9
ATOM      9  C   UNL     1      -8.534  18.504 -12.954  1.00  0.00     0.041 C 
ATOM     10  O   UNL     1      -8.726  18.044 -11.797  1.00  0.00    -0.550 OA
ATOM     11  O   UNL     1      -8.569  17.648 -14.049  1.00  0.00    -0.550 OA
ENDBRANCH   8   9
ENDBRANCH   7   8
ENDBRANCH   6   7
ENDBRANCH   5   6
ENDBRANCH   4   5
ENDBRANCH   3   4
ENDBRANCH   2   3
ENDBRANCH   1   2
BRANCH   1  12
ATOM     12  C   UNL     1      -4.976  14.440 -15.067  1.00  0.00     0.000 C 
BRANCH  12  13
ATOM     13  C   UNL     1      -4.959  13.048 -14.417  1.00  0.00    -0.000 C 
BRANCH  13  14
ATOM     14  C   UNL     1      -6.206  12.245 -14.808  1.00  0.00    -0.000 C 
BRANCH  14  15
ATOM     15  C   UNL     1      -7.448  12.761 -14.065  1.00  0.00    -0.000 C 
BRANCH  15  16
ATOM     16  C   UNL     1      -8.500  13.360 -15.013  1.00  0.00    -0.000 C 
BRANCH  16  17
ATOM     17  C   UNL     1      -9.280  14.525 -14.376  1.00  0.00    -0.000 C 
BRANCH  17  18
ATOM     18  C   UNL     1      -9.099  14.577 -12.844  1.00  0.00    -0.000 C 
BRANCH  18  19
ATOM     19  C   UNL     1      -7.765  15.200 -12.404  1.00  0.00    -0.003 C 
ATOM     20  C   UNL     1      -7.347  14.784 -10.995  1.00  0.00     0.004 C 
ENDBRANCH  18  19
ENDBRANCH  17  18
ENDBRANCH  16  17
ENDBRANCH  15  16
ENDBRANCH  14  15
ENDBRANCH  13  14
ENDBRANCH  12  13
ENDBRANCH   1  12
TORSDOF 16
ENDMDL
MODEL 2
REMARK VINA RESULT:    -0.272      1.303      5.256
REMARK INTER + INTRA:           0.675
REMARK INTER:                  -2.566
REMARK INTRA:                   3.241
REMARK UNBOUND:                 1.202
REMARK SMILES CCCCCCCCCCCCCCCCCC(=O)[O-]
REMARK SMILES IDX 10 1 11 2 12 3 13 4 14 5 15 6 16 7 17 8 18 9 19 10 20 11
REMARK SMILES IDX 9 12 8 13 7 14 6 15 5 16 4 17 3 18 2 19 1 20
REMARK H PARENT
REMARK Flexibility Score: inf
ROOT
ATOM      1  C   UNL     1      -7.351  15.242 -15.124  1.00  0.00     0.000 C 
ENDROOT
BRANCH   1   2
ATOM      2  C   UNL     1      -8.354  14.389 -14.327  1.00  0.00     0.000 C 
BRANCH   2   3
ATOM      3  C   UNL     1      -8.011  12.886 -14.383  1.00  0.00     0.000 C 
BRANCH   3   4
ATOM      4  C   UNL     1      -6.697  12.527 -13.668  1.00  0.00     0.000 C 
BRANCH   4   5
ATOM      5  C   UNL     1      -6.306  13.545 -12.588  1.00  0.00     0.000 C 
BRANCH   5   6
ATOM      6  C   UNL     1      -7.491  13.847 -11.663  1.00  0.00     0.000 C 
BRANCH   6   7
ATOM      7  C   UNL     1      -7.474  15.312 -11.211  1.00  0.00     0.006 C 
BRANCH   7   8
ATOM      8  C   UNL     1      -8.895  15.878 -11.127  1.00  0.00     0.053 C 
BRANCH   8   9
ATOM      9  C   UNL     1      -9.205  16.706 -12.334  1.00  0.00     0.041 C 
ATOM     10  O   UNL     1      -8.452  17.663 -12.655  1.00  0.00    -0.550 OA
ATOM     11  O   UNL     1     -10.307  16.403 -13.125  1.00  0.00    -0.550 OA
ENDBRANCH   8   9
ENDBRANCH   7   8
ENDBRANCH   6   7
ENDBRANCH   5   6
ENDBRANCH   4   5
ENDBRANCH   3   4
ENDBRANCH   2   3
ENDBRANCH   1   2
BRANCH   1  12
ATOM     12  C   UNL     1      -5.897  14.791 -14.926  1.00  0.00     0.000 C 
BRANCH  12  13
ATOM     13  C   UNL     1      -4.915  15.970 -14.844  1.00  0.00    -0.000 C 
BRANCH  13  14
ATOM     14  C   UNL     1      -5.633  17.300 -15.103  1.00  0.00    -0.000 C 
BRANCH  14  15
ATOM     15  C   UNL     1      -5.201  18.365 -14.084  1.00  0.00    -0.000 C 
BRANCH  15  16
ATOM     16  C   UNL     1      -4.875  19.717 -14.740  1.00  0.00    -0.000 C 
BRANCH  16  17
ATOM     17  C   UNL     1      -5.904  20.810 -14.395  1.00  0.00    -0.000 C 
BRANCH  17  18
ATOM     18  C   UNL     1      -6.862  20.370 -13.267  1.00  0.00    -0.000 C 
BRANCH  18  19
ATOM     19  C   UNL     1      -8.292  20.082 -13.754  1.00  0.00    -0.003 C 
ATOM     20  C   UNL     1      -8.331  19.271 -15.047  1.00  0.00     0.004 C 
ENDBRANCH  18  19
ENDBRANCH  17  18
ENDBRANCH  16  17
ENDBRANCH  15  16
ENDBRANCH  14  15
ENDBRANCH  13  14
ENDBRANCH  12  13
ENDBRANCH   1  12
TORSDOF 16
ENDMDL
MODEL 3
REMARK VINA RESULT:     0.025      1.593      5.625
REMARK INTER + INTRA:           1.250
REMARK INTER:                   0.366
REMARK INTRA:                   0.884
REMARK UNBOUND:                 1.202
REMARK SMILES CCCCCCCCCCCCCCCCCC(=O)[O-]
REMARK SMILES IDX 10 1 11 2 12 3 13 4 14 5 15 6 16 7 17 8 18 9 19 10 20 11
REMARK SMILES IDX 9 12 8 13 7 14 6 15 5 16 4 17 3 18 2 19 1 20
REMARK H PARENT
REMARK Flexibility Score: inf
ROOT
ATOM      1  C   UNL     1      -5.968  16.957 -14.045  1.00  0.00     0.000 C 
ENDROOT
BRANCH   1   2
ATOM      2  C   UNL     1      -5.404  15.526 -14.053  1.00  0.00     0.000 C 
BRANCH   2   3
ATOM      3  C   UNL     1      -6.075  14.642 -15.125  1.00  0.00     0.000 C 
BRANCH   3   4
ATOM      4  C   UNL     1      -7.611  14.724 -15.116  1.00  0.00     0.000 C 
BRANCH   4   5
ATOM      5  C   UNL     1      -8.278  13.417 -14.669  1.00  0.00     0.000 C 
BRANCH   5   6
ATOM      6  C   UNL     1      -7.229  12.369 -14.281  1.00  0.00     0.000 C 
BRANCH   6   7
ATOM      7  C   UNL     1      -6.573  12.719 -12.940  1.00  0.00     0.006 C 
BRANCH   7   8
ATOM      8  C   UNL     1      -7.620  13.162 -11.914  1.00  0.00     0.053 C 
BRANCH   8   9
ATOM      9  C   UNL     1      -7.185  14.417 -11.224  1.00  0.00     0.041 C 
ATOM     10  O   UNL     1      -6.811  15.413 -11.899  1.00  0.00    -0.550 OA
ATOM     11  O   UNL     1      -7.223  14.500  -9.838  1.00  0.00    -0.550 OA
ENDBRANCH   8   9
ENDBRANCH   7   8
ENDBRANCH   6   7
ENDBRANCH   5   6
ENDBRANCH   4   5
ENDBRANCH   3   4
ENDBRANCH   2   3
ENDBRANCH   1   2
BRANCH   1  12
ATOM     12  C   UNL     1      -4.972  17.992 -14.589  1.00  0.00     0.000 C 
BRANCH  12  13
ATOM     13  C   UNL     1      -4.875  19.244 -13.705  1.00  0.00    -0.000 C 
BRANCH  13  14
ATOM     14  C   UNL     1      -5.230  20.507 -14.500  1.00  0.00    -0.000 C 
BRANCH  14  15
ATOM     15  C   UNL     1      -6.716  20.860 -14.337  1.00  0.00    -0.000 C 
BRANCH  15  16
ATOM     16  C   UNL     1      -7.646  19.839 -15.011  1.00  0.00    -0.000 C 
BRANCH  16  17
ATOM     17  C   UNL     1      -8.734  19.305 -14.061  1.00  0.00    -0.000 C 
BRANCH  17  18
ATOM     18  C   UNL     1      -8.174  18.984 -12.659  1.00  0.00    -0.000 C 
BRANCH  18  19
ATOM     19  C   UNL     1      -8.866  17.791 -11.979  1.00  0.00    -0.003 C 
ATOM     20  C   UNL     1      -9.501  16.822 -12.974  1.00  0.00     0.004 C 
ENDBRANCH  18  19
ENDBRANCH  17  18
ENDBRANCH  16  17
ENDBRANCH  15  16
ENDBRANCH  14  15
ENDBRANCH  13  14
ENDBRANCH  12  13
ENDBRANCH   1  12
TORSDOF 16
ENDMDL
MODEL 4
REMARK VINA RESULT:     0.407      2.547      6.734
REMARK INTER + INTRA:           1.990
REMARK INTER:                  -0.059
REMARK INTRA:                   2.049
REMARK UNBOUND:                 1.202
REMARK SMILES CCCCCCCCCCCCCCCCCC(=O)[O-]
REMARK SMILES IDX 10 1 11 2 12 3 13 4 14 5 15 6 16 7 17 8 18 9 19 10 20 11
REMARK SMILES IDX 9 12 8 13 7 14 6 15 5 16 4 17 3 18 2 19 1 20
REMARK H PARENT
REMARK Flexibility Score: inf
ROOT
ATOM      1  C   UNL     1      -8.573  17.731 -11.386  1.00  0.00     0.000 C 
ENDROOT
BRANCH   1   2
ATOM      2  C   UNL     1      -8.488  16.197 -11.467  1.00  0.00     0.000 C 
BRANCH   2   3
ATOM      3  C   UNL     1      -8.835  15.669 -12.874  1.00  0.00     0.000 C 
BRANCH   3   4
ATOM      4  C   UNL     1      -7.642  15.030 -13.604  1.00  0.00     0.000 C 
BRANCH   4   5
ATOM      5  C   UNL     1      -7.135  13.753 -12.919  1.00  0.00     0.000 C 
BRANCH   5   6
ATOM      6  C   UNL     1      -7.524  12.507 -13.722  1.00  0.00     0.000 C 
BRANCH   6   7
ATOM      7  C   UNL     1      -6.707  12.409 -15.015  1.00  0.00     0.006 C 
BRANCH   7   8
ATOM      8  C   UNL     1      -5.327  11.798 -14.749  1.00  0.00     0.053 C 
BRANCH   8   9
ATOM      9  C   UNL     1      -5.129  11.562 -13.284  1.00  0.00     0.041 C 
ATOM     10  O   UNL     1      -5.013  10.388 -12.842  1.00  0.00    -0.550 OA
ATOM     11  O   UNL     1      -5.038  12.638 -12.410  1.00  0.00    -0.550 OA
ENDBRANCH   8   9
ENDBRANCH   7   8
ENDBRANCH   6   7
ENDBRANCH   5   6
ENDBRANCH   4   5
ENDBRANCH   3   4
ENDBRANCH   2   3
ENDBRANCH   1   2
BRANCH   1  12
ATOM     12  C   UNL     1      -8.286  18.414 -12.731  1.00  0.00     0.000 C 
BRANCH  12  13
ATOM     13  C   UNL     1      -8.296  19.947 -12.633  1.00  0.00    -0.000 C 
BRANCH  13  14
ATOM     14  C   UNL     1      -6.875  20.514 -12.741  1.00  0.00    -0.000 C 
BRANCH  14  15
ATOM     15  C   UNL     1      -6.622  21.101 -14.137  1.00  0.00    -0.000 C 
BRANCH  15  16
ATOM     16  C   UNL     1      -5.954  20.097 -15.091  1.00  0.00    -0.000 C 
BRANCH  16  17
ATOM     17  C   UNL     1      -5.085  19.062 -14.353  1.00  0.00    -0.000 C 
BRANCH  17  18
ATOM     18  C   UNL     1      -5.112  17.682 -15.044  1.00  0.00    -0.000 C 
BRANCH  18  19
ATOM     19  C   UNL     1      -4.996  16.502 -14.066  1.00  0.00    -0.003 C 
ATOM     20  C   UNL     1      -4.942  15.147 -14.768  1.00  0.00     0.004 C 
ENDBRANCH  18  19
ENDBRANCH  17  18
ENDBRANCH  16  17
ENDBRANCH  15  16
ENDBRANCH  14  15
ENDBRANCH  13  14
ENDBRANCH  12  13
ENDBRANCH   1  12
TORSDOF 16
ENDMDL
MODEL 5
REMARK VINA RESULT:     0.578      1.261      1.944
REMARK INTER + INTRA:           2.320
REMARK INTER:                   0.703
REMARK INTRA:                   1.617
REMARK UNBOUND:                 1.202
REMARK SMILES CCCCCCCCCCCCCCCCCC(=O)[O-]
REMARK SMILES IDX 10 1 11 2 12 3 13 4 14 5 15 6 16 7 17 8 18 9 19 10 20 11
REMARK SMILES IDX 9 12 8 13 7 14 6 15 5 16 4 17 3 18 2 19 1 20
REMARK H PARENT
REMARK Flexibility Score: inf
ROOT
ATOM      1  C   UNL     1      -5.828  14.985 -14.927  1.00  0.00     0.000 C 
ENDROOT
BRANCH   1   2
ATOM      2  C   UNL     1      -4.875  16.177 -15.123  1.00  0.00     0.000 C 
BRANCH   2   3
ATOM      3  C   UNL     1      -5.007  17.219 -13.992  1.00  0.00     0.000 C 
BRANCH   3   4
ATOM      4  C   UNL     1      -5.774  18.485 -14.409  1.00  0.00     0.000 C 
BRANCH   4   5
ATOM      5  C   UNL     1      -4.877  19.536 -15.078  1.00  0.00     0.000 C 
BRANCH   5   6
ATOM      6  C   UNL     1      -4.876  20.845 -14.282  1.00  0.00     0.000 C 
BRANCH   6   7
ATOM      7  C   UNL     1      -6.151  20.979 -13.442  1.00  0.00     0.006 C 
BRANCH   7   8
ATOM      8  C   UNL     1      -7.379  20.507 -14.227  1.00  0.00     0.053 C 
BRANCH   8   9
ATOM      9  C   UNL     1      -8.166  19.516 -13.430  1.00  0.00     0.041 C 
ATOM     10  O   UNL     1      -8.065  19.489 -12.175  1.00  0.00    -0.550 OA
ATOM     11  O   UNL     1      -9.038  18.641 -14.068  1.00  0.00    -0.550 OA
ENDBRANCH   8   9
ENDBRANCH   7   8
ENDBRANCH   6   7
ENDBRANCH   5   6
ENDBRANCH   4   5
ENDBRANCH   3   4
ENDBRANCH   2   3
ENDBRANCH   1   2
BRANCH   1  12
ATOM     12  C   UNL     1      -5.113  13.630 -15.029  1.00  0.00     0.000 C 
BRANCH  12  13
ATOM     13  C   UNL     1      -5.442  12.695 -13.854  1.00  0.00    -0.000 C 
BRANCH  13  14
ATOM     14  C   UNL     1      -6.955  12.468 -13.740  1.00  0.00    -0.000 C 
BRANCH  14  15
ATOM     15  C   UNL     1      -7.452  12.779 -12.321  1.00  0.00    -0.000 C 
BRANCH  15  16
ATOM     16  C   UNL     1      -6.797  14.035 -11.723  1.00  0.00    -0.000 C 
BRANCH  16  17
ATOM     17  C   UNL     1      -7.401  15.340 -12.274  1.00  0.00    -0.000 C 
BRANCH  17  18
ATOM     18  C   UNL     1      -8.325  16.031 -11.249  1.00  0.00    -0.000 C 
BRANCH  18  19
ATOM     19  C   UNL     1      -9.688  16.442 -11.830  1.00  0.00    -0.003 C 
ATOM     20  C   UNL     1      -9.794  16.202 -13.334  1.00  0.00     0.004 C 
ENDBRANCH  18  19
ENDBRANCH  17  18
ENDBRANCH  16  17
ENDBRANCH  15  16
ENDBRANCH  14  15
ENDBRANCH  13  14
ENDBRANCH  12  13
ENDBRANCH   1  12
TORSDOF 16
ENDMDL
