MODEL 1
REMARK VINA RESULT:    55.430      0.000      0.000
REMARK INTER + INTRA:          62.401
REMARK INTER:                  61.911
REMARK INTRA:                   0.490
REMARK UNBOUND:                 0.490
REMARK SMILES C=C(C)[C@@H]1CC[C@]2(C(=O)[O-])CC[C@]3(C)[C@@H](CC[C@@H]4[C@@]5(C)CCC(=O)C(C)(C)[C@H]5CC[C@@]43C)[C@H]12
REMARK SMILES IDX 7 1 6 2 33 3 11 4 5 5 15 6 4 7 12 8 16 9 13 10 17 11 31 12
REMARK SMILES IDX 14 13 18 14 30 15 32 16 19 17 29 18 21 19 20 20 28 21 22 22
REMARK SMILES IDX 25 23 23 24 26 25 27 26 24 27 8 28 9 29 10 30 2 31 3 32 1 33
REMARK H PARENT
REMARK Flexibility Score: inf
ROOT
ATOM      1  C   UNL     1      11.454  32.707 -20.464  1.00  0.00     0.014 C 
ATOM      2  C   UNL     1      11.707  31.567 -21.470  1.00  0.00     0.014 C 
ATOM      3  C   UNL     1      12.846  33.386 -20.226  1.00  0.00     0.012 C 
ATOM      4  C   UNL     1      10.433  33.717 -21.016  1.00  0.00     0.014 C 
ATOM      5  C   UNL     1      13.136  31.123 -21.216  1.00  0.00     0.009 C 
ATOM      6  C   UNL     1      13.009  34.924 -20.638  1.00  0.00     0.000 C 
ATOM      7  C   UNL     1      13.907  32.391 -20.824  1.00  0.00     0.018 C 
ATOM      8  C   UNL     1      10.482  35.004 -20.182  1.00  0.00     0.008 C 
ATOM      9  C   UNL     1      14.279  35.528 -20.013  1.00  0.00     0.005 C 
ATOM     10  C   UNL     1      11.745  35.887 -20.452  1.00  0.00    -0.024 C 
ATOM     11  C   UNL     1      14.116  35.766 -18.521  1.00  0.00     0.005 C 
ATOM     12  C   UNL     1      11.936  37.084 -19.324  1.00  0.00    -0.024 C 
ATOM     13  C   UNL     1      11.457  36.553 -21.853  1.00  0.00     0.012 C 
ATOM     14  C   UNL     1      12.995  36.769 -18.152  1.00  0.00     0.002 C 
ATOM     15  C   UNL     1      10.545  37.498 -18.694  1.00  0.00     0.008 C 
ATOM     16  C   UNL     1      12.456  38.409 -20.016  1.00  0.00     0.012 C 
ATOM     17  C   UNL     1      12.415  36.576 -16.692  1.00  0.00    -0.025 C 
ATOM     18  C   UNL     1      10.633  38.381 -17.446  1.00  0.00     0.006 C 
ATOM     19  C   UNL     1      13.534  36.327 -15.624  1.00  0.00     0.015 C 
ATOM     20  C   UNL     1      11.527  35.288 -16.612  1.00  0.00     0.012 C 
ATOM     21  C   UNL     1      11.563  37.862 -16.288  1.00  0.00     0.008 C 
ATOM     22  C   UNL     1      14.414  37.528 -15.356  1.00  0.00     0.077 C 
ATOM     23  C   UNL     1      12.317  39.072 -15.526  1.00  0.00     0.027 C 
ATOM     24  C   UNL     1      13.576  38.624 -14.799  1.00  0.00     0.138 C 
ATOM     25  C   UNL     1      11.331  39.659 -14.478  1.00  0.00     0.020 C 
ATOM     26  C   UNL     1      12.779  40.256 -16.427  1.00  0.00     0.020 C 
ATOM     27  O   UNL     1      14.015  39.272 -13.850  1.00  0.00    -0.299 OA
ENDROOT
BRANCH   1  28
ATOM     28  C   UNL     1      10.919  32.075 -19.175  1.00  0.00     0.048 C 
ATOM     29  O   UNL     1      11.452  31.032 -18.703  1.00  0.00    -0.550 OA
ATOM     30  O   UNL     1       9.792  32.585 -18.536  1.00  0.00    -0.550 OA
ENDBRANCH   1  28
BRANCH   7  31
ATOM     31  C   UNL     1      14.763  32.876 -21.999  1.00  0.00    -0.077 C 
ATOM     32  C   UNL     1      16.003  33.713 -21.781  1.00  0.00     0.039 C 
ATOM     33  C   UNL     1      14.330  32.709 -23.254  1.00  0.00     0.008 C 
ENDBRANCH   7  31
TORSDOF 2
ENDMDL
MODEL 2
REMARK VINA RESULT:    55.461      1.811      7.295
REMARK INTER + INTRA:          62.436
REMARK INTER:                  62.394
REMARK INTRA:                   0.041
REMARK UNBOUND:                 0.490
REMARK SMILES C=C(C)[C@@H]1CC[C@]2(C(=O)[O-])CC[C@]3(C)[C@@H](CC[C@@H]4[C@@]5(C)CCC(=O)C(C)(C)[C@H]5CC[C@@]43C)[C@H]12
REMARK SMILES IDX 7 1 6 2 33 3 11 4 5 5 15 6 4 7 12 8 16 9 13 10 17 11 31 12
REMARK SMILES IDX 14 13 18 14 30 15 32 16 19 17 29 18 21 19 20 20 28 21 22 22
REMARK SMILES IDX 25 23 23 24 26 25 27 26 24 27 8 28 9 29 10 30 2 31 3 32 1 33
REMARK H PARENT
REMARK Flexibility Score: inf
ROOT
ATOM      1  C   UNL     1      12.990  36.511 -16.313  1.00  0.00     0.014 C 
ATOM      2  C   UNL     1      13.005  37.752 -15.399  1.00  0.00     0.014 C 
ATOM      3  C   UNL     1      12.078  36.886 -17.531  1.00  0.00     0.012 C 
ATOM      4  C   UNL     1      14.410  36.147 -16.777  1.00  0.00     0.014 C 
ATOM      5  C   UNL     1      11.663  38.427 -15.623  1.00  0.00     0.009 C 
ATOM      6  C   UNL     1      12.742  36.903 -18.986  1.00  0.00     0.000 C 
ATOM      7  C   UNL     1      11.316  38.192 -17.099  1.00  0.00     0.018 C 
ATOM      8  C   UNL     1      14.331  35.166 -17.955  1.00  0.00     0.008 C 
ATOM      9  C   UNL     1      11.662  36.921 -20.083  1.00  0.00     0.005 C 
ATOM     10  C   UNL     1      13.884  35.828 -19.301  1.00  0.00    -0.024 C 
ATOM     11  C   UNL     1      10.978  35.572 -20.224  1.00  0.00     0.005 C 
ATOM     12  C   UNL     1      13.495  34.711 -20.460  1.00  0.00    -0.024 C 
ATOM     13  C   UNL     1      15.159  36.628 -19.777  1.00  0.00     0.012 C 
ATOM     14  C   UNL     1      11.922  34.415 -20.636  1.00  0.00     0.002 C 
ATOM     15  C   UNL     1      14.274  33.354 -20.224  1.00  0.00     0.008 C 
ATOM     16  C   UNL     1      13.994  35.200 -21.880  1.00  0.00     0.012 C 
ATOM     17  C   UNL     1      11.407  32.981 -20.207  1.00  0.00    -0.025 C 
ATOM     18  C   UNL     1      13.778  32.167 -21.055  1.00  0.00     0.006 C 
ATOM     19  C   UNL     1       9.876  32.784 -20.469  1.00  0.00     0.015 C 
ATOM     20  C   UNL     1      11.553  32.778 -18.660  1.00  0.00     0.012 C 
ATOM     21  C   UNL     1      12.235  31.867 -20.991  1.00  0.00     0.008 C 
ATOM     22  C   UNL     1       9.499  32.726 -21.933  1.00  0.00     0.077 C 
ATOM     23  C   UNL     1      11.660  31.341 -22.408  1.00  0.00     0.027 C 
ATOM     24  C   UNL     1      10.159  31.545 -22.553  1.00  0.00     0.138 C 
ATOM     25  C   UNL     1      11.957  29.818 -22.504  1.00  0.00     0.020 C 
ATOM     26  C   UNL     1      12.275  32.003 -23.677  1.00  0.00     0.020 C 
ATOM     27  O   UNL     1       9.504  30.847 -23.325  1.00  0.00    -0.299 OA
ENDROOT
BRANCH   1  28
ATOM     28  C   UNL     1      12.391  35.352 -15.508  1.00  0.00     0.048 C 
ATOM     29  O   UNL     1      11.254  34.889 -15.802  1.00  0.00    -0.550 OA
ATOM     30  O   UNL     1      13.046  34.834 -14.395  1.00  0.00    -0.550 OA
ENDBRANCH   1  28
BRANCH   7  31
ATOM     31  C   UNL     1      11.564  39.468 -17.911  1.00  0.00    -0.077 C 
ATOM     32  C   UNL     1      12.311  40.644 -17.326  1.00  0.00     0.039 C 
ATOM     33  C   UNL     1      10.971  39.628 -19.100  1.00  0.00     0.008 C 
ENDBRANCH   7  31
TORSDOF 2
ENDMDL
