MODEL 1
REMARK VINA RESULT:    -3.264      0.000      0.000
REMARK INTER + INTRA:          -5.387
REMARK INTER:                  -4.600
REMARK INTRA:                  -0.786
REMARK UNBOUND:                -0.786
REMARK SMILES CCCCCCCCC(=O)[O-]
REMARK SMILES IDX 6 1 7 2 8 3 9 4 10 5 11 6 5 7 4 8 3 9 2 10 1 11
REMARK H PARENT
REMARK Flexibility Score: inf
ROOT
ATOM      1  C   UNL     1     154.744 151.588 157.546  1.00  0.00     0.000 C 
ENDROOT
BRANCH   1   2
ATOM      2  C   UNL     1     154.775 153.066 157.132  1.00  0.00     0.006 C 
BRANCH   2   3
ATOM      3  C   UNL     1     155.263 153.947 158.286  1.00  0.00     0.053 C 
BRANCH   3   4
ATOM      4  C   UNL     1     155.056 155.394 157.965  1.00  0.00     0.041 C 
ATOM      5  O   UNL     1     155.227 155.813 156.790  1.00  0.00    -0.550 OA
ATOM      6  O   UNL     1     154.722 156.290 158.973  1.00  0.00    -0.550 OA
ENDBRANCH   3   4
ENDBRANCH   2   3
ENDBRANCH   1   2
BRANCH   1   7
ATOM      7  C   UNL     1     153.343 151.123 157.977  1.00  0.00     0.000 C 
BRANCH   7   8
ATOM      8  C   UNL     1     153.188 151.047 159.504  1.00  0.00    -0.000 C 
BRANCH   8   9
ATOM      9  C   UNL     1     152.452 152.285 160.041  1.00  0.00    -0.000 C 
BRANCH   9  10
ATOM     10  C   UNL     1     151.474 152.881 159.017  1.00  0.00    -0.003 C 
ATOM     11  C   UNL     1     151.567 154.404 158.928  1.00  0.00     0.004 C 
ENDBRANCH   9  10
ENDBRANCH   8   9
ENDBRANCH   7   8
ENDBRANCH   1   7
TORSDOF 7
ENDMDL
MODEL 2
REMARK VINA RESULT:    -3.254      1.028      1.582
REMARK INTER + INTRA:          -5.371
REMARK INTER:                  -4.625
REMARK INTRA:                  -0.746
REMARK UNBOUND:                -0.786
REMARK SMILES CCCCCCCCC(=O)[O-]
REMARK SMILES IDX 6 1 7 2 8 3 9 4 10 5 11 6 5 7 4 8 3 9 2 10 1 11
REMARK H PARENT
REMARK Flexibility Score: inf
ROOT
ATOM      1  C   UNL     1     155.446 152.314 157.703  1.00  0.00     0.000 C 
ENDROOT
BRANCH   1   2
ATOM      2  C   UNL     1     154.736 153.642 157.401  1.00  0.00     0.006 C 
BRANCH   2   3
ATOM      3  C   UNL     1     154.916 154.632 158.556  1.00  0.00     0.053 C 
BRANCH   3   4
ATOM      4  C   UNL     1     156.006 155.610 158.244  1.00  0.00     0.041 C 
ATOM      5  O   UNL     1     157.097 155.564 158.872  1.00  0.00    -0.550 OA
ATOM      6  O   UNL     1     155.799 156.602 157.294  1.00  0.00    -0.550 OA
ENDBRANCH   3   4
ENDBRANCH   2   3
ENDBRANCH   1   2
BRANCH   1   7
ATOM      7  C   UNL     1     154.537 151.094 157.479  1.00  0.00     0.000 C 
BRANCH   7   8
ATOM      8  C   UNL     1     153.141 151.274 158.095  1.00  0.00    -0.000 C 
BRANCH   8   9
ATOM      9  C   UNL     1     153.162 150.963 159.600  1.00  0.00    -0.000 C 
BRANCH   9  10
ATOM     10  C   UNL     1     152.611 152.117 160.450  1.00  0.00    -0.003 C 
ATOM     11  C   UNL     1     151.724 153.071 159.648  1.00  0.00     0.004 C 
ENDBRANCH   9  10
ENDBRANCH   8   9
ENDBRANCH   7   8
ENDBRANCH   1   7
TORSDOF 7
ENDMDL
MODEL 3
REMARK VINA RESULT:    -3.201      1.365      2.663
REMARK INTER + INTRA:          -5.297
REMARK INTER:                  -4.509
REMARK INTRA:                  -0.789
REMARK UNBOUND:                -0.786
REMARK SMILES CCCCCCCCC(=O)[O-]
REMARK SMILES IDX 6 1 7 2 8 3 9 4 10 5 11 6 5 7 4 8 3 9 2 10 1 11
REMARK H PARENT
REMARK Flexibility Score: inf
ROOT
ATOM      1  C   UNL     1     153.122 151.623 159.393  1.00  0.00     0.000 C 
ENDROOT
BRANCH   1   2
ATOM      2  C   UNL     1     153.500 151.256 157.950  1.00  0.00     0.006 C 
BRANCH   2   3
ATOM      3  C   UNL     1     154.940 151.677 157.639  1.00  0.00     0.053 C 
BRANCH   3   4
ATOM      4  C   UNL     1     155.045 153.169 157.562  1.00  0.00     0.041 C 
ATOM      5  O   UNL     1     155.532 153.820 158.523  1.00  0.00    -0.550 OA
ATOM      6  O   UNL     1     154.559 153.843 156.449  1.00  0.00    -0.550 OA
ENDBRANCH   3   4
ENDBRANCH   2   3
ENDBRANCH   1   2
BRANCH   1   7
ATOM      7  C   UNL     1     151.930 152.592 159.464  1.00  0.00     0.000 C 
BRANCH   7   8
ATOM      8  C   UNL     1     151.246 152.790 158.103  1.00  0.00    -0.000 C 
BRANCH   8   9
ATOM      9  C   UNL     1     151.239 154.274 157.705  1.00  0.00    -0.000 C 
BRANCH   9  10
ATOM     10  C   UNL     1     151.658 155.197 158.860  1.00  0.00    -0.003 C 
ATOM     11  C   UNL     1     152.809 156.131 158.483  1.00  0.00     0.004 C 
ENDBRANCH   9  10
ENDBRANCH   8   9
ENDBRANCH   7   8
ENDBRANCH   1   7
TORSDOF 7
ENDMDL
MODEL 4
REMARK VINA RESULT:    -3.126     10.847     11.757
REMARK INTER + INTRA:          -5.191
REMARK INTER:                  -4.456
REMARK INTRA:                  -0.735
REMARK UNBOUND:                -0.786
REMARK SMILES CCCCCCCCC(=O)[O-]
REMARK SMILES IDX 6 1 7 2 8 3 9 4 10 5 11 6 5 7 4 8 3 9 2 10 1 11
REMARK H PARENT
REMARK Flexibility Score: inf
ROOT
ATOM      1  C   UNL     1     150.303 155.359 146.192  1.00  0.00     0.000 C 
ENDROOT
BRANCH   1   2
ATOM      2  C   UNL     1     151.508 155.176 147.126  1.00  0.00     0.006 C 
BRANCH   2   3
ATOM      3  C   UNL     1     151.166 155.617 148.552  1.00  0.00     0.053 C 
BRANCH   3   4
ATOM      4  C   UNL     1     151.682 156.998 148.811  1.00  0.00     0.041 C 
ATOM      5  O   UNL     1     150.952 157.999 148.586  1.00  0.00    -0.550 OA
ATOM      6  O   UNL     1     152.985 157.181 149.256  1.00  0.00    -0.550 OA
ENDBRANCH   3   4
ENDBRANCH   2   3
ENDBRANCH   1   2
BRANCH   1   7
ATOM      7  C   UNL     1     148.963 155.083 146.894  1.00  0.00     0.000 C 
BRANCH   7   8
ATOM      8  C   UNL     1     148.236 153.856 146.322  1.00  0.00    -0.000 C 
BRANCH   8   9
ATOM      9  C   UNL     1     148.419 152.636 147.238  1.00  0.00    -0.000 C 
BRANCH   9  10
ATOM     10  C   UNL     1     149.434 151.626 146.682  1.00  0.00    -0.003 C 
ATOM     11  C   UNL     1     150.734 151.590 147.486  1.00  0.00     0.004 C 
ENDBRANCH   9  10
ENDBRANCH   8   9
ENDBRANCH   7   8
ENDBRANCH   1   7
TORSDOF 7
ENDMDL
MODEL 5
REMARK VINA RESULT:    -3.083      1.868      3.666
REMARK INTER + INTRA:          -5.131
REMARK INTER:                  -4.298
REMARK INTRA:                  -0.833
REMARK UNBOUND:                -0.786
REMARK SMILES CCCCCCCCC(=O)[O-]
REMARK SMILES IDX 6 1 7 2 8 3 9 4 10 5 11 6 5 7 4 8 3 9 2 10 1 11
REMARK H PARENT
REMARK Flexibility Score: inf
ROOT
ATOM      1  C   UNL     1     153.050 152.081 159.732  1.00  0.00     0.000 C 
ENDROOT
BRANCH   1   2
ATOM      2  C   UNL     1     151.674 152.763 159.743  1.00  0.00     0.006 C 
BRANCH   2   3
ATOM      3  C   UNL     1     151.175 153.010 158.316  1.00  0.00     0.053 C 
BRANCH   3   4
ATOM      4  C   UNL     1     151.201 154.472 157.997  1.00  0.00     0.041 C 
ATOM      5  O   UNL     1     151.497 155.310 158.890  1.00  0.00    -0.550 OA
ATOM      6  O   UNL     1     150.849 154.914 156.728  1.00  0.00    -0.550 OA
ENDBRANCH   3   4
ENDBRANCH   2   3
ENDBRANCH   1   2
BRANCH   1   7
ATOM      7  C   UNL     1     153.425 151.527 158.347  1.00  0.00     0.000 C 
BRANCH   7   8
ATOM      8  C   UNL     1     154.680 152.193 157.763  1.00  0.00    -0.000 C 
BRANCH   8   9
ATOM      9  C   UNL     1     155.072 153.434 158.580  1.00  0.00    -0.000 C 
BRANCH   9  10
ATOM     10  C   UNL     1     154.878 154.741 157.798  1.00  0.00    -0.003 C 
ATOM     11  C   UNL     1     154.571 154.506 156.319  1.00  0.00     0.004 C 
ENDBRANCH   9  10
ENDBRANCH   8   9
ENDBRANCH   7   8
ENDBRANCH   1   7
TORSDOF 7
ENDMDL
MODEL 6
REMARK VINA RESULT:    -3.077     10.832     11.730
REMARK INTER + INTRA:          -5.123
REMARK INTER:                  -4.491
REMARK INTRA:                  -0.631
REMARK UNBOUND:                -0.786
REMARK SMILES CCCCCCCCC(=O)[O-]
REMARK SMILES IDX 6 1 7 2 8 3 9 4 10 5 11 6 5 7 4 8 3 9 2 10 1 11
REMARK H PARENT
REMARK Flexibility Score: inf
ROOT
ATOM      1  C   UNL     1     148.826 155.343 146.979  1.00  0.00     0.000 C 
ENDROOT
BRANCH   1   2
ATOM      2  C   UNL     1     149.625 155.125 148.273  1.00  0.00     0.006 C 
BRANCH   2   3
ATOM      3  C   UNL     1     151.117 155.383 148.043  1.00  0.00     0.053 C 
BRANCH   3   4
ATOM      4  C   UNL     1     151.552 156.621 148.762  1.00  0.00     0.041 C 
ATOM      5  O   UNL     1     152.432 156.556 149.660  1.00  0.00    -0.550 OA
ATOM      6  O   UNL     1     150.951 157.840 148.474  1.00  0.00    -0.550 OA
ENDBRANCH   3   4
ENDBRANCH   2   3
ENDBRANCH   1   2
BRANCH   1   7
ATOM      7  C   UNL     1     148.223 154.039 146.430  1.00  0.00     0.000 C 
BRANCH   7   8
ATOM      8  C   UNL     1     148.322 152.874 147.427  1.00  0.00    -0.000 C 
BRANCH   8   9
ATOM      9  C   UNL     1     148.547 151.543 146.693  1.00  0.00    -0.000 C 
BRANCH   9  10
ATOM     10  C   UNL     1     150.033 151.259 146.427  1.00  0.00    -0.003 C 
ATOM     11  C   UNL     1     150.937 151.717 147.572  1.00  0.00     0.004 C 
ENDBRANCH   9  10
ENDBRANCH   8   9
ENDBRANCH   7   8
ENDBRANCH   1   7
TORSDOF 7
ENDMDL
MODEL 7
REMARK VINA RESULT:    -3.059      1.188      2.960
REMARK INTER + INTRA:          -5.097
REMARK INTER:                  -4.215
REMARK INTRA:                  -0.882
REMARK UNBOUND:                -0.786
REMARK SMILES CCCCCCCCC(=O)[O-]
REMARK SMILES IDX 6 1 7 2 8 3 9 4 10 5 11 6 5 7 4 8 3 9 2 10 1 11
REMARK H PARENT
REMARK Flexibility Score: inf
ROOT
ATOM      1  C   UNL     1     150.887 154.544 158.604  1.00  0.00     0.000 C 
ENDROOT
BRANCH   1   2
ATOM      2  C   UNL     1     152.136 155.421 158.432  1.00  0.00     0.006 C 
BRANCH   2   3
ATOM      3  C   UNL     1     152.831 155.125 157.099  1.00  0.00     0.053 C 
BRANCH   3   4
ATOM      4  C   UNL     1     154.253 154.718 157.330  1.00  0.00     0.041 C 
ATOM      5  O   UNL     1     154.989 154.407 156.356  1.00  0.00    -0.550 OA
ATOM      6  O   UNL     1     154.752 154.637 158.624  1.00  0.00    -0.550 OA
ENDBRANCH   3   4
ENDBRANCH   2   3
ENDBRANCH   1   2
BRANCH   1   7
ATOM      7  C   UNL     1     151.221 153.044 158.664  1.00  0.00     0.000 C 
BRANCH   7   8
ATOM      8  C   UNL     1     152.050 152.671 159.902  1.00  0.00    -0.000 C 
BRANCH   8   9
ATOM      9  C   UNL     1     153.104 151.608 159.554  1.00  0.00    -0.000 C 
BRANCH   9  10
ATOM     10  C   UNL     1     153.115 151.254 158.059  1.00  0.00    -0.003 C 
ATOM     11  C   UNL     1     154.526 151.048 157.509  1.00  0.00     0.004 C 
ENDBRANCH   9  10
ENDBRANCH   8   9
ENDBRANCH   7   8
ENDBRANCH   1   7
TORSDOF 7
ENDMDL
MODEL 8
REMARK VINA RESULT:    -3.050     10.470     11.357
REMARK INTER + INTRA:          -5.085
REMARK INTER:                  -4.414
REMARK INTRA:                  -0.671
REMARK UNBOUND:                -0.786
REMARK SMILES CCCCCCCCC(=O)[O-]
REMARK SMILES IDX 6 1 7 2 8 3 9 4 10 5 11 6 5 7 4 8 3 9 2 10 1 11
REMARK H PARENT
REMARK Flexibility Score: inf
ROOT
ATOM      1  C   UNL     1     151.271 154.472 147.562  1.00  0.00     0.000 C 
ENDROOT
BRANCH   1   2
ATOM      2  C   UNL     1     150.352 155.685 147.767  1.00  0.00     0.006 C 
BRANCH   2   3
ATOM      3  C   UNL     1     149.353 155.429 148.900  1.00  0.00     0.053 C 
BRANCH   3   4
ATOM      4  C   UNL     1     149.800 156.108 150.157  1.00  0.00     0.041 C 
ATOM      5  O   UNL     1     150.821 156.844 150.150  1.00  0.00    -0.550 OA
ATOM      6  O   UNL     1     149.117 155.888 151.346  1.00  0.00    -0.550 OA
ENDBRANCH   3   4
ENDBRANCH   2   3
ENDBRANCH   1   2
BRANCH   1   7
ATOM      7  C   UNL     1     151.358 154.037 146.090  1.00  0.00     0.000 C 
BRANCH   7   8
ATOM      8  C   UNL     1     150.925 152.578 145.877  1.00  0.00    -0.000 C 
BRANCH   8   9
ATOM      9  C   UNL     1     150.664 151.883 147.222  1.00  0.00    -0.000 C 
BRANCH   9  10
ATOM     10  C   UNL     1     149.225 151.358 147.346  1.00  0.00    -0.003 C 
ATOM     11  C   UNL     1     148.177 152.416 146.997  1.00  0.00     0.004 C 
ENDBRANCH   9  10
ENDBRANCH   8   9
ENDBRANCH   7   8
ENDBRANCH   1   7
TORSDOF 7
ENDMDL
MODEL 9
REMARK VINA RESULT:    -3.043      1.340      2.070
REMARK INTER + INTRA:          -5.074
REMARK INTER:                  -4.265
REMARK INTRA:                  -0.809
REMARK UNBOUND:                -0.786
REMARK SMILES CCCCCCCCC(=O)[O-]
REMARK SMILES IDX 6 1 7 2 8 3 9 4 10 5 11 6 5 7 4 8 3 9 2 10 1 11
REMARK H PARENT
REMARK Flexibility Score: inf
ROOT
ATOM      1  C   UNL     1     155.363 152.950 158.155  1.00  0.00     0.000 C 
ENDROOT
BRANCH   1   2
ATOM      2  C   UNL     1     155.098 154.365 158.690  1.00  0.00     0.006 C 
BRANCH   2   3
ATOM      3  C   UNL     1     154.397 155.226 157.635  1.00  0.00     0.053 C 
BRANCH   3   4
ATOM      4  C   UNL     1     153.597 156.309 158.289  1.00  0.00     0.041 C 
ATOM      5  O   UNL     1     152.449 156.062 158.744  1.00  0.00    -0.550 OA
ATOM      6  O   UNL     1     154.099 157.602 158.354  1.00  0.00    -0.550 OA
ENDBRANCH   3   4
ENDBRANCH   2   3
ENDBRANCH   1   2
BRANCH   1   7
ATOM      7  C   UNL     1     154.230 152.439 157.249  1.00  0.00     0.000 C 
BRANCH   7   8
ATOM      8  C   UNL     1     153.201 151.589 158.010  1.00  0.00    -0.000 C 
BRANCH   8   9
ATOM      9  C   UNL     1     151.950 152.415 158.345  1.00  0.00    -0.000 C 
BRANCH   9  10
ATOM     10  C   UNL     1     151.869 152.790 159.833  1.00  0.00    -0.003 C 
ATOM     11  C   UNL     1     152.776 151.926 160.710  1.00  0.00     0.004 C 
ENDBRANCH   9  10
ENDBRANCH   8   9
ENDBRANCH   7   8
ENDBRANCH   1   7
TORSDOF 7
ENDMDL
