MODEL 1
REMARK VINA RESULT:    -5.366      0.000      0.000
REMARK INTER + INTRA:          -6.098
REMARK INTER:                  -5.680
REMARK INTRA:                  -0.418
REMARK UNBOUND:                -0.418
REMARK SMILES CC1=CC[C@@]23[C@@H]([C@H](C(C)C)CC[C@@H]2C)[C@H]13
REMARK SMILES IDX 14 1 13 2 12 3 11 4 7 5 6 6 5 7 15 8 2 9 3 10 4 11 1 12 8 13
REMARK SMILES IDX 9 14 10 15
REMARK H PARENT
REMARK Flexibility Score: inf
ROOT
ATOM      1  C   UNL     1     138.718 141.641 136.848  1.00  0.00     0.008 C 
ATOM      2  C   UNL     1     138.031 141.015 135.623  1.00  0.00    -0.007 C 
ATOM      3  C   UNL     1     138.030 142.015 134.454  1.00  0.00     0.004 C 
ATOM      4  C   UNL     1     137.224 141.491 133.267  1.00  0.00     0.004 C 
ATOM      5  C   UNL     1     137.404 139.980 132.915  1.00  0.00    -0.004 C 
ATOM      6  C   UNL     1     138.294 139.099 133.837  1.00  0.00     0.007 C 
ATOM      7  C   UNL     1     138.626 139.635 135.233  1.00  0.00    -0.013 C 
ATOM      8  C   UNL     1     139.722 139.548 134.165  1.00  0.00     0.025 C 
ATOM      9  C   UNL     1     140.623 138.469 134.661  1.00  0.00    -0.073 C 
ATOM     10  C   UNL     1     140.218 137.948 135.816  1.00  0.00    -0.027 C 
ATOM     11  C   UNL     1     138.948 138.564 136.294  1.00  0.00     0.035 C 
ATOM     12  C   UNL     1     141.856 138.033 133.931  1.00  0.00     0.039 C 
ENDROOT
BRANCH   5  13
ATOM     13  C   UNL     1     137.704 139.765 131.399  1.00  0.00    -0.014 C 
ATOM     14  C   UNL     1     138.704 140.783 130.832  1.00  0.00     0.007 C 
ATOM     15  C   UNL     1     138.159 138.327 131.101  1.00  0.00     0.007 C 
ENDBRANCH   5  13
TORSDOF 1
ENDMDL
MODEL 2
REMARK VINA RESULT:    -5.366      3.115      4.657
REMARK INTER + INTRA:          -6.098
REMARK INTER:                  -5.679
REMARK INTRA:                  -0.418
REMARK UNBOUND:                -0.418
REMARK SMILES CC1=CC[C@@]23[C@@H]([C@H](C(C)C)CC[C@@H]2C)[C@H]13
REMARK SMILES IDX 14 1 13 2 12 3 11 4 7 5 6 6 5 7 15 8 2 9 3 10 4 11 1 12 8 13
REMARK SMILES IDX 9 14 10 15
REMARK H PARENT
REMARK Flexibility Score: inf
ROOT
ATOM      1  C   UNL     1     141.886 143.384 136.864  1.00  0.00     0.008 C 
ATOM      2  C   UNL     1     141.286 144.098 135.641  1.00  0.00    -0.007 C 
ATOM      3  C   UNL     1     142.225 143.948 134.433  1.00  0.00     0.004 C 
ATOM      4  C   UNL     1     141.741 144.769 133.240  1.00  0.00     0.004 C 
ATOM      5  C   UNL     1     140.204 144.750 132.958  1.00  0.00    -0.004 C 
ATOM      6  C   UNL     1     139.273 143.996 133.949  1.00  0.00     0.007 C 
ATOM      7  C   UNL     1     139.832 143.650 135.332  1.00  0.00    -0.013 C 
ATOM      8  C   UNL     1     139.574 142.537 134.310  1.00  0.00     0.025 C 
ATOM      9  C   UNL     1     138.425 141.781 134.885  1.00  0.00    -0.073 C 
ATOM     10  C   UNL     1     138.006 142.279 136.044  1.00  0.00    -0.027 C 
ATOM     11  C   UNL     1     138.781 143.487 136.448  1.00  0.00     0.035 C 
ATOM     12  C   UNL     1     137.821 140.582 134.220  1.00  0.00     0.039 C 
ENDROOT
BRANCH   5  13
ATOM     13  C   UNL     1     139.888 144.427 131.464  1.00  0.00    -0.014 C 
ATOM     14  C   UNL     1     140.755 143.295 130.896  1.00  0.00     0.007 C 
ATOM     15  C   UNL     1     138.395 144.136 131.243  1.00  0.00     0.007 C 
ENDBRANCH   5  13
TORSDOF 1
ENDMDL
MODEL 3
REMARK VINA RESULT:    -5.344      4.708      6.412
REMARK INTER + INTRA:          -6.075
REMARK INTER:                  -5.658
REMARK INTRA:                  -0.417
REMARK UNBOUND:                -0.418
REMARK SMILES CC1=CC[C@@]23[C@@H]([C@H](C(C)C)CC[C@@H]2C)[C@H]13
REMARK SMILES IDX 14 1 13 2 12 3 11 4 7 5 6 6 5 7 15 8 2 9 3 10 4 11 1 12 8 13
REMARK SMILES IDX 9 14 10 15
REMARK H PARENT
REMARK Flexibility Score: inf
ROOT
ATOM      1  C   UNL     1     143.319 140.522 136.823  1.00  0.00     0.008 C 
ATOM      2  C   UNL     1     144.051 141.132 135.615  1.00  0.00    -0.007 C 
ATOM      3  C   UNL     1     143.997 140.160 134.424  1.00  0.00     0.004 C 
ATOM      4  C   UNL     1     144.840 140.661 133.253  1.00  0.00     0.004 C 
ATOM      5  C   UNL     1     144.757 142.188 132.935  1.00  0.00    -0.004 C 
ATOM      6  C   UNL     1     143.918 143.101 133.874  1.00  0.00     0.007 C 
ATOM      7  C   UNL     1     143.545 142.555 135.255  1.00  0.00    -0.013 C 
ATOM      8  C   UNL     1     142.462 142.734 134.184  1.00  0.00     0.025 C 
ATOM      9  C   UNL     1     141.628 143.855 134.702  1.00  0.00    -0.073 C 
ATOM     10  C   UNL     1     142.057 144.324 135.870  1.00  0.00    -0.027 C 
ATOM     11  C   UNL     1     143.285 143.619 136.340  1.00  0.00     0.035 C 
ATOM     12  C   UNL     1     140.428 144.384 133.977  1.00  0.00     0.039 C 
ENDROOT
BRANCH   5  13
ATOM     13  C   UNL     1     144.479 142.456 131.423  1.00  0.00    -0.014 C 
ATOM     14  C   UNL     1     143.448 141.492 130.820  1.00  0.00     0.007 C 
ATOM     15  C   UNL     1     144.079 143.917 131.162  1.00  0.00     0.007 C 
ENDBRANCH   5  13
TORSDOF 1
ENDMDL
MODEL 4
REMARK VINA RESULT:    -5.335      4.665      6.595
REMARK INTER + INTRA:          -6.065
REMARK INTER:                  -5.849
REMARK INTRA:                  -0.216
REMARK UNBOUND:                -0.418
REMARK SMILES CC1=CC[C@@]23[C@@H]([C@H](C(C)C)CC[C@@H]2C)[C@H]13
REMARK SMILES IDX 14 1 13 2 12 3 11 4 7 5 6 6 5 7 15 8 2 9 3 10 4 11 1 12 8 13
REMARK SMILES IDX 9 14 10 15
REMARK H PARENT
REMARK Flexibility Score: inf
ROOT
ATOM      1  C   UNL     1     140.856 143.320 130.333  1.00  0.00     0.008 C 
ATOM      2  C   UNL     1     141.156 143.982 131.688  1.00  0.00    -0.007 C 
ATOM      3  C   UNL     1     140.083 143.583 132.716  1.00  0.00     0.004 C 
ATOM      4  C   UNL     1     140.257 144.338 134.032  1.00  0.00     0.004 C 
ATOM      5  C   UNL     1     141.721 144.502 134.553  1.00  0.00    -0.004 C 
ATOM      6  C   UNL     1     142.891 143.987 133.668  1.00  0.00     0.007 C 
ATOM      7  C   UNL     1     142.600 143.710 132.190  1.00  0.00    -0.013 C 
ATOM      8  C   UNL     1     142.870 142.545 133.149  1.00  0.00     0.025 C 
ATOM      9  C   UNL     1     144.191 142.016 132.708  1.00  0.00    -0.073 C 
ATOM     10  C   UNL     1     144.696 142.681 131.674  1.00  0.00    -0.027 C 
ATOM     11  C   UNL     1     143.815 143.805 131.247  1.00  0.00     0.035 C 
ATOM     12  C   UNL     1     144.865 140.850 133.365  1.00  0.00     0.039 C 
ENDROOT
BRANCH   5  13
ATOM     13  C   UNL     1     141.860 144.077 136.048  1.00  0.00    -0.014 C 
ATOM     14  C   UNL     1     143.262 143.561 136.400  1.00  0.00     0.007 C 
ATOM     15  C   UNL     1     141.433 145.199 137.008  1.00  0.00     0.007 C 
ENDBRANCH   5  13
TORSDOF 1
ENDMDL
MODEL 5
REMARK VINA RESULT:    -5.270      3.109      4.652
REMARK INTER + INTRA:          -5.996
REMARK INTER:                  -5.578
REMARK INTRA:                  -0.418
REMARK UNBOUND:                -0.418
REMARK SMILES CC1=CC[C@@]23[C@@H]([C@H](C(C)C)CC[C@@H]2C)[C@H]13
REMARK SMILES IDX 14 1 13 2 12 3 11 4 7 5 6 6 5 7 15 8 2 9 3 10 4 11 1 12 8 13
REMARK SMILES IDX 9 14 10 15
REMARK H PARENT
REMARK Flexibility Score: inf
ROOT
ATOM      1  C   UNL     1     140.753 138.804 136.807  1.00  0.00     0.008 C 
ATOM      2  C   UNL     1     141.378 138.119 135.581  1.00  0.00    -0.007 C 
ATOM      3  C   UNL     1     140.356 138.067 134.432  1.00  0.00     0.004 C 
ATOM      4  C   UNL     1     140.884 137.260 133.248  1.00  0.00     0.004 C 
ATOM      5  C   UNL     1     142.382 137.483 132.864  1.00  0.00    -0.004 C 
ATOM      6  C   UNL     1     143.250 138.416 133.755  1.00  0.00     0.007 C 
ATOM      7  C   UNL     1     142.730 138.752 135.155  1.00  0.00    -0.013 C 
ATOM      8  C   UNL     1     142.761 139.834 134.069  1.00  0.00     0.025 C 
ATOM      9  C   UNL     1     143.818 140.777 134.531  1.00  0.00    -0.073 C 
ATOM     10  C   UNL     1     144.374 140.408 135.681  1.00  0.00    -0.027 C 
ATOM     11  C   UNL     1     143.810 139.125 136.190  1.00  0.00     0.035 C 
ATOM     12  C   UNL     1     144.200 142.012 133.774  1.00  0.00     0.039 C 
ENDROOT
BRANCH   5  13
ATOM     13  C   UNL     1     142.558 137.766 131.339  1.00  0.00    -0.014 C 
ATOM     14  C   UNL     1     141.481 138.701 130.771  1.00  0.00     0.007 C 
ATOM     15  C   UNL     1     143.965 138.290 131.010  1.00  0.00     0.007 C 
ENDBRANCH   5  13
TORSDOF 1
ENDMDL
MODEL 6
REMARK VINA RESULT:    -5.267      2.098      5.225
REMARK INTER + INTRA:          -5.994
REMARK INTER:                  -5.647
REMARK INTRA:                  -0.347
REMARK UNBOUND:                -0.418
REMARK SMILES CC1=CC[C@@]23[C@@H]([C@H](C(C)C)CC[C@@H]2C)[C@H]13
REMARK SMILES IDX 14 1 13 2 12 3 11 4 7 5 6 6 5 7 15 8 2 9 3 10 4 11 1 12 8 13
REMARK SMILES IDX 9 14 10 15
REMARK H PARENT
REMARK Flexibility Score: inf
ROOT
ATOM      1  C   UNL     1     139.213 141.095 129.892  1.00  0.00     0.008 C 
ATOM      2  C   UNL     1     138.364 141.093 131.174  1.00  0.00    -0.007 C 
ATOM      3  C   UNL     1     138.751 139.895 132.057  1.00  0.00     0.004 C 
ATOM      4  C   UNL     1     137.828 139.770 133.268  1.00  0.00     0.004 C 
ATOM      5  C   UNL     1     137.443 141.099 133.993  1.00  0.00    -0.004 C 
ATOM      6  C   UNL     1     137.931 142.447 133.389  1.00  0.00     0.007 C 
ATOM      7  C   UNL     1     138.414 142.445 131.936  1.00  0.00    -0.013 C 
ATOM      8  C   UNL     1     139.418 142.643 133.077  1.00  0.00     0.025 C 
ATOM      9  C   UNL     1     139.849 144.063 132.934  1.00  0.00    -0.073 C 
ATOM     10  C   UNL     1     139.262 144.681 131.914  1.00  0.00    -0.027 C 
ATOM     11  C   UNL     1     138.300 143.794 131.199  1.00  0.00     0.035 C 
ATOM     12  C   UNL     1     140.847 144.710 133.845  1.00  0.00     0.039 C 
ENDROOT
BRANCH   5  13
ATOM     13  C   UNL     1     137.668 141.010 135.535  1.00  0.00    -0.014 C 
ATOM     14  C   UNL     1     138.755 140.000 135.928  1.00  0.00     0.007 C 
ATOM     15  C   UNL     1     137.952 142.388 136.155  1.00  0.00     0.007 C 
ENDBRANCH   5  13
TORSDOF 1
ENDMDL
MODEL 7
REMARK VINA RESULT:    -5.264      2.833      5.766
REMARK INTER + INTRA:          -5.990
REMARK INTER:                  -5.574
REMARK INTRA:                  -0.416
REMARK UNBOUND:                -0.418
REMARK SMILES CC1=CC[C@@]23[C@@H]([C@H](C(C)C)CC[C@@H]2C)[C@H]13
REMARK SMILES IDX 14 1 13 2 12 3 11 4 7 5 6 6 5 7 15 8 2 9 3 10 4 11 1 12 8 13
REMARK SMILES IDX 9 14 10 15
REMARK H PARENT
REMARK Flexibility Score: inf
ROOT
ATOM      1  C   UNL     1     142.724 137.629 131.225  1.00  0.00     0.008 C 
ATOM      2  C   UNL     1     143.335 138.284 132.475  1.00  0.00    -0.007 C 
ATOM      3  C   UNL     1     144.028 139.602 132.090  1.00  0.00     0.004 C 
ATOM      4  C   UNL     1     144.778 140.208 133.274  1.00  0.00     0.004 C 
ATOM      5  C   UNL     1     144.055 140.157 134.658  1.00  0.00    -0.004 C 
ATOM      6  C   UNL     1     142.691 139.418 134.761  1.00  0.00     0.007 C 
ATOM      7  C   UNL     1     142.313 138.456 133.631  1.00  0.00    -0.013 C 
ATOM      8  C   UNL     1     141.558 139.780 133.794  1.00  0.00     0.025 C 
ATOM      9  C   UNL     1     140.197 139.365 134.236  1.00  0.00    -0.073 C 
ATOM     10  C   UNL     1     140.067 138.046 134.343  1.00  0.00    -0.027 C 
ATOM     11  C   UNL     1     141.334 137.330 134.019  1.00  0.00     0.035 C 
ATOM     12  C   UNL     1     139.096 140.341 134.519  1.00  0.00     0.039 C 
ENDROOT
BRANCH   5  13
ATOM     13  C   UNL     1     144.044 141.550 135.363  1.00  0.00    -0.014 C 
ATOM     14  C   UNL     1     143.806 142.715 134.392  1.00  0.00     0.007 C 
ATOM     15  C   UNL     1     143.043 141.596 136.528  1.00  0.00     0.007 C 
ENDBRANCH   5  13
TORSDOF 1
ENDMDL
MODEL 8
REMARK VINA RESULT:    -5.262      4.190      6.432
REMARK INTER + INTRA:          -5.988
REMARK INTER:                  -5.672
REMARK INTRA:                  -0.315
REMARK UNBOUND:                -0.418
REMARK SMILES CC1=CC[C@@]23[C@@H]([C@H](C(C)C)CC[C@@H]2C)[C@H]13
REMARK SMILES IDX 14 1 13 2 12 3 11 4 7 5 6 6 5 7 15 8 2 9 3 10 4 11 1 12 8 13
REMARK SMILES IDX 9 14 10 15
REMARK H PARENT
REMARK Flexibility Score: inf
ROOT
ATOM      1  C   UNL     1     143.153 141.324 129.934  1.00  0.00     0.008 C 
ATOM      2  C   UNL     1     143.958 141.278 131.243  1.00  0.00    -0.007 C 
ATOM      3  C   UNL     1     143.514 142.422 132.171  1.00  0.00     0.004 C 
ATOM      4  C   UNL     1     144.392 142.506 133.418  1.00  0.00     0.004 C 
ATOM      5  C   UNL     1     144.781 141.150 134.090  1.00  0.00    -0.004 C 
ATOM      6  C   UNL     1     144.344 139.825 133.403  1.00  0.00     0.007 C 
ATOM      7  C   UNL     1     143.911 139.890 131.936  1.00  0.00    -0.013 C 
ATOM      8  C   UNL     1     142.873 139.614 133.030  1.00  0.00     0.025 C 
ATOM      9  C   UNL     1     142.479 138.195 132.801  1.00  0.00    -0.073 C 
ATOM     10  C   UNL     1     143.114 137.640 131.773  1.00  0.00    -0.027 C 
ATOM     11  C   UNL     1     144.080 138.581 131.138  1.00  0.00     0.035 C 
ATOM     12  C   UNL     1     141.465 137.483 133.643  1.00  0.00     0.039 C 
ENDROOT
BRANCH   5  13
ATOM     13  C   UNL     1     144.501 141.157 135.625  1.00  0.00    -0.014 C 
ATOM     14  C   UNL     1     143.445 142.191 136.041  1.00  0.00     0.007 C 
ATOM     15  C   UNL     1     144.135 139.759 136.150  1.00  0.00     0.007 C 
ENDBRANCH   5  13
TORSDOF 1
ENDMDL
MODEL 9
REMARK VINA RESULT:    -5.246      4.076      5.694
REMARK INTER + INTRA:          -5.971
REMARK INTER:                  -5.555
REMARK INTRA:                  -0.416
REMARK UNBOUND:                -0.418
REMARK SMILES CC1=CC[C@@]23[C@@H]([C@H](C(C)C)CC[C@@H]2C)[C@H]13
REMARK SMILES IDX 14 1 13 2 12 3 11 4 7 5 6 6 5 7 15 8 2 9 3 10 4 11 1 12 8 13
REMARK SMILES IDX 9 14 10 15
REMARK H PARENT
REMARK Flexibility Score: inf
ROOT
ATOM      1  C   UNL     1     144.768 142.720 131.428  1.00  0.00     0.008 C 
ATOM      2  C   UNL     1     143.979 143.333 132.597  1.00  0.00    -0.007 C 
ATOM      3  C   UNL     1     142.718 144.037 132.066  1.00  0.00     0.004 C 
ATOM      4  C   UNL     1     141.986 144.788 133.176  1.00  0.00     0.004 C 
ATOM      5  C   UNL     1     141.872 144.060 134.554  1.00  0.00    -0.004 C 
ATOM      6  C   UNL     1     142.585 142.690 134.735  1.00  0.00     0.007 C 
ATOM      7  C   UNL     1     143.667 142.308 133.721  1.00  0.00    -0.013 C 
ATOM      8  C   UNL     1     142.327 141.563 133.728  1.00  0.00     0.025 C 
ATOM      9  C   UNL     1     142.678 140.197 134.210  1.00  0.00    -0.073 C 
ATOM     10  C   UNL     1     143.975 140.057 134.466  1.00  0.00    -0.027 C 
ATOM     11  C   UNL     1     144.733 141.319 134.232  1.00  0.00     0.035 C 
ATOM     12  C   UNL     1     141.668 139.104 134.374  1.00  0.00     0.039 C 
ENDROOT
BRANCH   5  13
ATOM     13  C   UNL     1     140.408 144.058 135.094  1.00  0.00    -0.014 C 
ATOM     14  C   UNL     1     139.360 143.829 133.995  1.00  0.00     0.007 C 
ATOM     15  C   UNL     1     140.222 143.055 136.245  1.00  0.00     0.007 C 
ENDBRANCH   5  13
TORSDOF 1
ENDMDL
