MODEL 1
REMARK VINA RESULT:    -4.602      0.000      0.000
REMARK INTER + INTRA:          -9.714
REMARK INTER:                  -8.368
REMARK INTRA:                  -1.346
REMARK UNBOUND:                -1.346
REMARK SMILES CCCCCCCCCCCCCC[C@@H](C)C(=O)[O-]
REMARK SMILES IDX 9 1 10 2 11 3 12 4 13 5 14 6 15 7 16 8 17 9 18 10 19 11 8 12
REMARK SMILES IDX 7 13 6 14 5 15 4 16 3 17 2 18 1 19
REMARK H PARENT
REMARK Flexibility Score: inf
ROOT
ATOM      1  C   UNL     1      -7.927   5.320 -13.989  1.00  0.00     0.000 C 
ENDROOT
BRANCH   1   2
ATOM      2  C   UNL     1      -8.669   4.489 -12.930  1.00  0.00     0.000 C 
BRANCH   2   3
ATOM      3  C   UNL     1      -8.270   4.863 -11.493  1.00  0.00     0.000 C 
BRANCH   3   4
ATOM      4  C   UNL     1      -9.486   5.160 -10.600  1.00  0.00     0.000 C 
BRANCH   4   5
ATOM      5  C   UNL     1      -9.353   4.544  -9.197  1.00  0.00     0.001 C 
BRANCH   5   6
ATOM      6  C   UNL     1      -9.075   5.597  -8.108  1.00  0.00     0.009 C 
BRANCH   6   7
ATOM      7  C   UNL     1      -7.729   5.367  -7.389  1.00  0.00     0.032 C 
ATOM      8  C   UNL     1      -6.616   6.269  -7.940  1.00  0.00     0.014 C 
BRANCH   7   9
ATOM      9  C   UNL     1      -7.891   5.612  -5.914  1.00  0.00     0.044 C 
ATOM     10  O   UNL     1      -8.956   5.278  -5.331  1.00  0.00    -0.550 OA
ATOM     11  O   UNL     1      -6.870   6.210  -5.186  1.00  0.00    -0.550 OA
ENDBRANCH   7   9
ENDBRANCH   6   7
ENDBRANCH   5   6
ENDBRANCH   4   5
ENDBRANCH   3   4
ENDBRANCH   2   3
ENDBRANCH   1   2
BRANCH   1  12
ATOM     12  C   UNL     1      -6.419   5.033 -13.951  1.00  0.00     0.000 C 
BRANCH  12  13
ATOM     13  C   UNL     1      -6.058   3.675 -14.575  1.00  0.00    -0.000 C 
BRANCH  13  14
ATOM     14  C   UNL     1      -4.836   3.755 -15.504  1.00  0.00    -0.000 C 
BRANCH  14  15
ATOM     15  C   UNL     1      -4.899   5.012 -16.384  1.00  0.00    -0.000 C 
BRANCH  15  16
ATOM     16  C   UNL     1      -5.751   4.813 -17.649  1.00  0.00    -0.000 C 
BRANCH  16  17
ATOM     17  C   UNL     1      -7.070   5.609 -17.673  1.00  0.00    -0.000 C 
BRANCH  17  18
ATOM     18  C   UNL     1      -6.932   7.059 -17.165  1.00  0.00    -0.003 C 
ATOM     19  C   UNL     1      -8.274   7.669 -16.760  1.00  0.00     0.004 C 
ENDBRANCH  17  18
ENDBRANCH  16  17
ENDBRANCH  15  16
ENDBRANCH  14  15
ENDBRANCH  13  14
ENDBRANCH  12  13
ENDBRANCH   1  12
TORSDOF 14
ENDMDL
MODEL 2
REMARK VINA RESULT:    -4.550      1.957      5.233
REMARK INTER + INTRA:          -9.620
REMARK INTER:                  -8.468
REMARK INTRA:                  -1.152
REMARK UNBOUND:                -1.346
REMARK SMILES CCCCCCCCCCCCCC[C@@H](C)C(=O)[O-]
REMARK SMILES IDX 9 1 10 2 11 3 12 4 13 5 14 6 15 7 16 8 17 9 18 10 19 11 8 12
REMARK SMILES IDX 7 13 6 14 5 15 4 16 3 17 2 18 1 19
REMARK H PARENT
REMARK Flexibility Score: inf
ROOT
ATOM      1  C   UNL     1      -7.772   5.568  -7.350  1.00  0.00     0.000 C 
ENDROOT
BRANCH   1   2
ATOM      2  C   UNL     1      -6.628   6.141  -8.203  1.00  0.00     0.000 C 
BRANCH   2   3
ATOM      3  C   UNL     1      -5.643   6.991  -7.383  1.00  0.00     0.000 C 
BRANCH   3   4
ATOM      4  C   UNL     1      -6.137   7.248  -5.950  1.00  0.00     0.000 C 
BRANCH   4   5
ATOM      5  C   UNL     1      -5.063   6.942  -4.893  1.00  0.00     0.001 C 
BRANCH   5   6
ATOM      6  C   UNL     1      -5.640   6.255  -3.641  1.00  0.00     0.009 C 
BRANCH   6   7
ATOM      7  C   UNL     1      -6.633   5.125  -3.987  1.00  0.00     0.032 C 
ATOM      8  C   UNL     1      -6.128   3.749  -3.531  1.00  0.00     0.014 C 
BRANCH   7   9
ATOM      9  C   UNL     1      -7.966   5.407  -3.352  1.00  0.00     0.044 C 
ATOM     10  O   UNL     1      -8.955   5.722  -4.067  1.00  0.00    -0.550 OA
ATOM     11  O   UNL     1      -8.118   5.326  -1.973  1.00  0.00    -0.550 OA
ENDBRANCH   7   9
ENDBRANCH   6   7
ENDBRANCH   5   6
ENDBRANCH   4   5
ENDBRANCH   3   4
ENDBRANCH   2   3
ENDBRANCH   1   2
BRANCH   1  12
ATOM     12  C   UNL     1      -9.093   5.571  -8.132  1.00  0.00     0.000 C 
BRANCH  12  13
ATOM     13  C   UNL     1      -9.099   4.562  -9.291  1.00  0.00    -0.000 C 
BRANCH  13  14
ATOM     14  C   UNL     1      -9.493   5.200 -10.633  1.00  0.00    -0.000 C 
BRANCH  14  15
ATOM     15  C   UNL     1      -8.706   4.569 -11.790  1.00  0.00    -0.000 C 
BRANCH  15  16
ATOM     16  C   UNL     1      -7.823   5.585 -12.535  1.00  0.00    -0.000 C 
BRANCH  16  17
ATOM     17  C   UNL     1      -6.357   5.152 -12.726  1.00  0.00    -0.000 C 
BRANCH  17  18
ATOM     18  C   UNL     1      -6.076   4.493 -14.093  1.00  0.00    -0.003 C 
ATOM     19  C   UNL     1      -6.318   5.446 -15.263  1.00  0.00     0.004 C 
ENDBRANCH  17  18
ENDBRANCH  16  17
ENDBRANCH  15  16
ENDBRANCH  14  15
ENDBRANCH  13  14
ENDBRANCH  12  13
ENDBRANCH   1  12
TORSDOF 14
ENDMDL
MODEL 3
REMARK VINA RESULT:    -4.537      1.625      2.253
REMARK INTER + INTRA:          -9.596
REMARK INTER:                  -8.807
REMARK INTRA:                  -0.789
REMARK UNBOUND:                -1.346
REMARK SMILES CCCCCCCCCCCCCC[C@@H](C)C(=O)[O-]
REMARK SMILES IDX 9 1 10 2 11 3 12 4 13 5 14 6 15 7 16 8 17 9 18 10 19 11 8 12
REMARK SMILES IDX 7 13 6 14 5 15 4 16 3 17 2 18 1 19
REMARK H PARENT
REMARK Flexibility Score: inf
ROOT
ATOM      1  C   UNL     1      -8.703   4.794 -14.118  1.00  0.00     0.000 C 
ENDROOT
BRANCH   1   2
ATOM      2  C   UNL     1      -8.311   4.208 -12.752  1.00  0.00     0.000 C 
BRANCH   2   3
ATOM      3  C   UNL     1      -8.316   5.260 -11.630  1.00  0.00     0.000 C 
BRANCH   3   4
ATOM      4  C   UNL     1      -9.526   5.117 -10.692  1.00  0.00     0.000 C 
BRANCH   4   5
ATOM      5  C   UNL     1      -9.141   4.553  -9.314  1.00  0.00     0.001 C 
BRANCH   5   6
ATOM      6  C   UNL     1      -9.048   5.643  -8.230  1.00  0.00     0.009 C 
BRANCH   6   7
ATOM      7  C   UNL     1      -7.856   5.428  -7.273  1.00  0.00     0.032 C 
ATOM      8  C   UNL     1      -6.773   6.501  -7.446  1.00  0.00     0.014 C 
BRANCH   7   9
ATOM      9  C   UNL     1      -8.341   5.427  -5.849  1.00  0.00     0.044 C 
ATOM     10  O   UNL     1      -9.538   5.720  -5.588  1.00  0.00    -0.550 OA
ATOM     11  O   UNL     1      -7.473   5.107  -4.812  1.00  0.00    -0.550 OA
ENDBRANCH   7   9
ENDBRANCH   6   7
ENDBRANCH   5   6
ENDBRANCH   4   5
ENDBRANCH   3   4
ENDBRANCH   2   3
ENDBRANCH   1   2
BRANCH   1  12
ATOM     12  C   UNL     1      -7.720   5.893 -14.545  1.00  0.00     0.000 C 
BRANCH  12  13
ATOM     13  C   UNL     1      -7.983   6.402 -15.972  1.00  0.00    -0.000 C 
BRANCH  13  14
ATOM     14  C   UNL     1      -6.852   6.042 -16.948  1.00  0.00    -0.000 C 
BRANCH  14  15
ATOM     15  C   UNL     1      -7.384   5.931 -18.384  1.00  0.00    -0.000 C 
BRANCH  15  16
ATOM     16  C   UNL     1      -8.892   5.635 -18.441  1.00  0.00    -0.000 C 
BRANCH  16  17
ATOM     17  C   UNL     1      -9.533   5.799 -19.832  1.00  0.00    -0.000 C 
BRANCH  17  18
ATOM     18  C   UNL     1     -10.649   6.864 -19.882  1.00  0.00    -0.003 C 
ATOM     19  C   UNL     1     -10.185   8.223 -19.358  1.00  0.00     0.004 C 
ENDBRANCH  17  18
ENDBRANCH  16  17
ENDBRANCH  15  16
ENDBRANCH  14  15
ENDBRANCH  13  14
ENDBRANCH  12  13
ENDBRANCH   1  12
TORSDOF 14
ENDMDL
MODEL 4
REMARK VINA RESULT:    -4.471      1.885      4.471
REMARK INTER + INTRA:          -9.476
REMARK INTER:                  -8.250
REMARK INTRA:                  -1.226
REMARK UNBOUND:                -1.346
REMARK SMILES CCCCCCCCCCCCCC[C@@H](C)C(=O)[O-]
REMARK SMILES IDX 9 1 10 2 11 3 12 4 13 5 14 6 15 7 16 8 17 9 18 10 19 11 8 12
REMARK SMILES IDX 7 13 6 14 5 15 4 16 3 17 2 18 1 19
REMARK H PARENT
REMARK Flexibility Score: inf
ROOT
ATOM      1  C   UNL     1      -8.963   5.530  -8.170  1.00  0.00     0.000 C 
ENDROOT
BRANCH   1   2
ATOM      2  C   UNL     1      -7.522   5.267  -7.702  1.00  0.00     0.000 C 
BRANCH   2   3
ATOM      3  C   UNL     1      -6.549   6.382  -8.118  1.00  0.00     0.000 C 
BRANCH   3   4
ATOM      4  C   UNL     1      -5.908   7.087  -6.911  1.00  0.00     0.000 C 
BRANCH   4   5
ATOM      5  C   UNL     1      -6.637   6.779  -5.593  1.00  0.00     0.001 C 
BRANCH   5   6
ATOM      6  C   UNL     1      -7.730   7.813  -5.261  1.00  0.00     0.009 C 
BRANCH   6   7
ATOM      7  C   UNL     1      -8.918   7.196  -4.493  1.00  0.00     0.032 C 
ATOM      8  C   UNL     1      -8.807   5.669  -4.385  1.00  0.00     0.014 C 
BRANCH   7   9
ATOM      9  C   UNL     1      -8.997   7.793  -3.115  1.00  0.00     0.044 C 
ATOM     10  O   UNL     1     -10.029   7.627  -2.411  1.00  0.00    -0.550 OA
ATOM     11  O   UNL     1      -7.936   8.533  -2.608  1.00  0.00    -0.550 OA
ENDBRANCH   7   9
ENDBRANCH   6   7
ENDBRANCH   5   6
ENDBRANCH   4   5
ENDBRANCH   3   4
ENDBRANCH   2   3
ENDBRANCH   1   2
BRANCH   1  12
ATOM     12  C   UNL     1      -9.374   4.532  -9.263  1.00  0.00     0.000 C 
BRANCH  12  13
ATOM     13  C   UNL     1      -9.534   5.194 -10.640  1.00  0.00    -0.000 C 
BRANCH  13  14
ATOM     14  C   UNL     1      -8.664   4.533 -11.721  1.00  0.00    -0.000 C 
BRANCH  14  15
ATOM     15  C   UNL     1      -7.621   5.521 -12.264  1.00  0.00    -0.000 C 
BRANCH  15  16
ATOM     16  C   UNL     1      -6.513   4.832 -13.078  1.00  0.00    -0.000 C 
BRANCH  16  17
ATOM     17  C   UNL     1      -6.743   4.816 -14.601  1.00  0.00    -0.000 C 
BRANCH  17  18
ATOM     18  C   UNL     1      -7.822   5.809 -15.079  1.00  0.00    -0.003 C 
ATOM     19  C   UNL     1      -7.409   6.559 -16.346  1.00  0.00     0.004 C 
ENDBRANCH  17  18
ENDBRANCH  16  17
ENDBRANCH  15  16
ENDBRANCH  14  15
ENDBRANCH  13  14
ENDBRANCH  12  13
ENDBRANCH   1  12
TORSDOF 14
ENDMDL
MODEL 5
REMARK VINA RESULT:    -4.449      6.482     11.051
REMARK INTER + INTRA:          -9.436
REMARK INTER:                  -7.376
REMARK INTRA:                  -2.060
REMARK UNBOUND:                -1.346
REMARK SMILES CCCCCCCCCCCCCC[C@@H](C)C(=O)[O-]
REMARK SMILES IDX 9 1 10 2 11 3 12 4 13 5 14 6 15 7 16 8 17 9 18 10 19 11 8 12
REMARK SMILES IDX 7 13 6 14 5 15 4 16 3 17 2 18 1 19
REMARK H PARENT
REMARK Flexibility Score: inf
ROOT
ATOM      1  C   UNL     1      -9.112   5.251  -1.788  1.00  0.00     0.000 C 
ENDROOT
BRANCH   1   2
ATOM      2  C   UNL     1      -7.579   5.257  -1.668  1.00  0.00     0.000 C 
BRANCH   2   3
ATOM      3  C   UNL     1      -6.921   4.081  -2.408  1.00  0.00     0.000 C 
BRANCH   3   4
ATOM      4  C   UNL     1      -6.747   4.352  -3.911  1.00  0.00     0.000 C 
BRANCH   4   5
ATOM      5  C   UNL     1      -6.311   5.798  -4.203  1.00  0.00     0.001 C 
BRANCH   5   6
ATOM      6  C   UNL     1      -7.236   6.506  -5.211  1.00  0.00     0.009 C 
BRANCH   6   7
ATOM      7  C   UNL     1      -8.112   5.518  -6.010  1.00  0.00     0.032 C 
ATOM      8  C   UNL     1      -9.610   5.807  -5.845  1.00  0.00     0.014 C 
BRANCH   7   9
ATOM      9  C   UNL     1      -7.746   5.577  -7.467  1.00  0.00     0.044 C 
ATOM     10  O   UNL     1      -6.682   6.145  -7.831  1.00  0.00    -0.550 OA
ATOM     11  O   UNL     1      -8.578   5.007  -8.423  1.00  0.00    -0.550 OA
ENDBRANCH   7   9
ENDBRANCH   6   7
ENDBRANCH   5   6
ENDBRANCH   4   5
ENDBRANCH   3   4
ENDBRANCH   2   3
ENDBRANCH   1   2
BRANCH   1  12
ATOM     12  C   UNL     1      -9.689   6.643  -1.490  1.00  0.00     0.000 C 
BRANCH  12  13
ATOM     13  C   UNL     1      -8.686   7.773  -1.769  1.00  0.00    -0.000 C 
BRANCH  13  14
ATOM     14  C   UNL     1      -9.275   8.887  -2.649  1.00  0.00    -0.000 C 
BRANCH  14  15
ATOM     15  C   UNL     1     -10.437   8.355  -3.500  1.00  0.00    -0.000 C 
BRANCH  15  16
ATOM     16  C   UNL     1     -11.657   9.292  -3.496  1.00  0.00    -0.000 C 
BRANCH  16  17
ATOM     17  C   UNL     1     -11.860  10.086  -2.192  1.00  0.00    -0.000 C 
BRANCH  17  18
ATOM     18  C   UNL     1     -13.178  10.887  -2.149  1.00  0.00    -0.003 C 
ATOM     19  C   UNL     1     -13.887  10.922  -3.504  1.00  0.00     0.004 C 
ENDBRANCH  17  18
ENDBRANCH  16  17
ENDBRANCH  15  16
ENDBRANCH  14  15
ENDBRANCH  13  14
ENDBRANCH  12  13
ENDBRANCH   1  12
TORSDOF 14
ENDMDL
MODEL 6
REMARK VINA RESULT:    -4.397      1.363      2.468
REMARK INTER + INTRA:          -9.342
REMARK INTER:                  -8.351
REMARK INTRA:                  -0.991
REMARK UNBOUND:                -1.346
REMARK SMILES CCCCCCCCCCCCCC[C@@H](C)C(=O)[O-]
REMARK SMILES IDX 9 1 10 2 11 3 12 4 13 5 14 6 15 7 16 8 17 9 18 10 19 11 8 12
REMARK SMILES IDX 7 13 6 14 5 15 4 16 3 17 2 18 1 19
REMARK H PARENT
REMARK Flexibility Score: inf
ROOT
ATOM      1  C   UNL     1      -8.537   4.729 -11.883  1.00  0.00     0.000 C 
ENDROOT
BRANCH   1   2
ATOM      2  C   UNL     1      -9.519   5.116 -10.766  1.00  0.00     0.000 C 
BRANCH   2   3
ATOM      3  C   UNL     1      -9.184   4.449  -9.422  1.00  0.00     0.000 C 
BRANCH   3   4
ATOM      4  C   UNL     1      -9.061   5.463  -8.273  1.00  0.00     0.000 C 
BRANCH   4   5
ATOM      5  C   UNL     1      -7.642   5.513  -7.680  1.00  0.00     0.001 C 
BRANCH   5   6
ATOM      6  C   UNL     1      -7.642   5.622  -6.144  1.00  0.00     0.009 C 
BRANCH   6   7
ATOM      7  C   UNL     1      -8.091   7.013  -5.648  1.00  0.00     0.032 C 
ATOM      8  C   UNL     1      -9.327   6.934  -4.741  1.00  0.00     0.014 C 
BRANCH   7   9
ATOM      9  C   UNL     1      -6.964   7.677  -4.905  1.00  0.00     0.044 C 
ATOM     10  O   UNL     1      -6.857   8.932  -4.908  1.00  0.00    -0.550 OA
ATOM     11  O   UNL     1      -6.033   6.912  -4.214  1.00  0.00    -0.550 OA
ENDBRANCH   7   9
ENDBRANCH   6   7
ENDBRANCH   5   6
ENDBRANCH   4   5
ENDBRANCH   3   4
ENDBRANCH   2   3
ENDBRANCH   1   2
BRANCH   1  12
ATOM     12  C   UNL     1      -7.283   5.614 -11.841  1.00  0.00     0.000 C 
BRANCH  12  13
ATOM     13  C   UNL     1      -6.234   5.208 -12.889  1.00  0.00    -0.000 C 
BRANCH  13  14
ATOM     14  C   UNL     1      -6.719   4.072 -13.804  1.00  0.00    -0.000 C 
BRANCH  14  15
ATOM     15  C   UNL     1      -6.099   4.195 -15.203  1.00  0.00    -0.000 C 
BRANCH  15  16
ATOM     16  C   UNL     1      -5.384   5.539 -15.423  1.00  0.00    -0.000 C 
BRANCH  16  17
ATOM     17  C   UNL     1      -6.094   6.498 -16.399  1.00  0.00    -0.000 C 
BRANCH  17  18
ATOM     18  C   UNL     1      -7.634   6.439 -16.321  1.00  0.00    -0.003 C 
ATOM     19  C   UNL     1      -8.305   7.525 -17.161  1.00  0.00     0.004 C 
ENDBRANCH  17  18
ENDBRANCH  16  17
ENDBRANCH  15  16
ENDBRANCH  14  15
ENDBRANCH  13  14
ENDBRANCH  12  13
ENDBRANCH   1  12
TORSDOF 14
ENDMDL
MODEL 7
REMARK VINA RESULT:    -4.390      1.995      3.936
REMARK INTER + INTRA:          -9.329
REMARK INTER:                  -8.462
REMARK INTRA:                  -0.867
REMARK UNBOUND:                -1.346
REMARK SMILES CCCCCCCCCCCCCC[C@@H](C)C(=O)[O-]
REMARK SMILES IDX 9 1 10 2 11 3 12 4 13 5 14 6 15 7 16 8 17 9 18 10 19 11 8 12
REMARK SMILES IDX 7 13 6 14 5 15 4 16 3 17 2 18 1 19
REMARK H PARENT
REMARK Flexibility Score: inf
ROOT
ATOM      1  C   UNL     1      -9.136   4.472  -9.261  1.00  0.00     0.000 C 
ENDROOT
BRANCH   1   2
ATOM      2  C   UNL     1      -8.995   5.675  -8.314  1.00  0.00     0.000 C 
BRANCH   2   3
ATOM      3  C   UNL     1      -7.703   5.629  -7.482  1.00  0.00     0.000 C 
BRANCH   3   4
ATOM      4  C   UNL     1      -7.963   5.293  -6.004  1.00  0.00     0.000 C 
BRANCH   4   5
ATOM      5  C   UNL     1      -9.372   5.706  -5.545  1.00  0.00     0.001 C 
BRANCH   5   6
ATOM      6  C   UNL     1      -9.376   7.029  -4.755  1.00  0.00     0.009 C 
BRANCH   6   7
ATOM      7  C   UNL     1      -8.231   7.107  -3.723  1.00  0.00     0.032 C 
ATOM      8  C   UNL     1      -8.011   8.537  -3.210  1.00  0.00     0.014 C 
BRANCH   7   9
ATOM      9  C   UNL     1      -8.528   6.197  -2.563  1.00  0.00     0.044 C 
ATOM     10  O   UNL     1      -9.503   6.438  -1.802  1.00  0.00    -0.550 OA
ATOM     11  O   UNL     1      -7.730   5.086  -2.321  1.00  0.00    -0.550 OA
ENDBRANCH   7   9
ENDBRANCH   6   7
ENDBRANCH   5   6
ENDBRANCH   4   5
ENDBRANCH   3   4
ENDBRANCH   2   3
ENDBRANCH   1   2
BRANCH   1  12
ATOM     12  C   UNL     1      -9.528   4.930 -10.673  1.00  0.00     0.000 C 
BRANCH  12  13
ATOM     13  C   UNL     1      -8.329   4.987 -11.633  1.00  0.00    -0.000 C 
BRANCH  13  14
ATOM     14  C   UNL     1      -8.680   4.510 -13.051  1.00  0.00    -0.000 C 
BRANCH  14  15
ATOM     15  C   UNL     1      -7.416   4.093 -13.817  1.00  0.00    -0.000 C 
BRANCH  15  16
ATOM     16  C   UNL     1      -6.437   5.260 -14.031  1.00  0.00    -0.000 C 
BRANCH  16  17
ATOM     17  C   UNL     1      -6.343   5.769 -15.482  1.00  0.00    -0.000 C 
BRANCH  17  18
ATOM     18  C   UNL     1      -7.663   6.355 -16.024  1.00  0.00    -0.003 C 
ATOM     19  C   UNL     1      -7.905   5.998 -17.490  1.00  0.00     0.004 C 
ENDBRANCH  17  18
ENDBRANCH  16  17
ENDBRANCH  15  16
ENDBRANCH  14  15
ENDBRANCH  13  14
ENDBRANCH  12  13
ENDBRANCH   1  12
TORSDOF 14
ENDMDL
MODEL 8
REMARK VINA RESULT:    -4.341      4.199      9.883
REMARK INTER + INTRA:          -9.240
REMARK INTER:                  -8.577
REMARK INTRA:                  -0.663
REMARK UNBOUND:                -1.346
REMARK SMILES CCCCCCCCCCCCCC[C@@H](C)C(=O)[O-]
REMARK SMILES IDX 9 1 10 2 11 3 12 4 13 5 14 6 15 7 16 8 17 9 18 10 19 11 8 12
REMARK SMILES IDX 7 13 6 14 5 15 4 16 3 17 2 18 1 19
REMARK H PARENT
REMARK Flexibility Score: inf
ROOT
ATOM      1  C   UNL     1      -9.248   4.466  -9.335  1.00  0.00     0.000 C 
ENDROOT
BRANCH   1   2
ATOM      2  C   UNL     1      -9.474   5.205 -10.664  1.00  0.00     0.000 C 
BRANCH   2   3
ATOM      3  C   UNL     1      -8.802   4.503 -11.856  1.00  0.00     0.000 C 
BRANCH   3   4
ATOM      4  C   UNL     1      -7.591   5.283 -12.394  1.00  0.00     0.000 C 
BRANCH   4   5
ATOM      5  C   UNL     1      -7.727   5.627 -13.887  1.00  0.00     0.001 C 
BRANCH   5   6
ATOM      6  C   UNL     1      -6.429   5.376 -14.677  1.00  0.00     0.009 C 
BRANCH   6   7
ATOM      7  C   UNL     1      -6.513   5.880 -16.133  1.00  0.00     0.032 C 
ATOM      8  C   UNL     1      -7.860   6.549 -16.438  1.00  0.00     0.014 C 
BRANCH   7   9
ATOM      9  C   UNL     1      -5.397   6.852 -16.400  1.00  0.00     0.044 C 
ATOM     10  O   UNL     1      -4.389   6.882 -15.646  1.00  0.00    -0.550 OA
ATOM     11  O   UNL     1      -5.470   7.726 -17.478  1.00  0.00    -0.550 OA
ENDBRANCH   7   9
ENDBRANCH   6   7
ENDBRANCH   5   6
ENDBRANCH   4   5
ENDBRANCH   3   4
ENDBRANCH   2   3
ENDBRANCH   1   2
BRANCH   1  12
ATOM     12  C   UNL     1      -9.103   5.460  -8.173  1.00  0.00     0.000 C 
BRANCH  12  13
ATOM     13  C   UNL     1      -7.673   5.511  -7.612  1.00  0.00    -0.000 C 
BRANCH  13  14
ATOM     14  C   UNL     1      -7.639   5.765  -6.096  1.00  0.00    -0.000 C 
BRANCH  14  15
ATOM     15  C   UNL     1      -9.055   5.733  -5.504  1.00  0.00    -0.000 C 
BRANCH  15  16
ATOM     16  C   UNL     1      -9.446   7.053  -4.820  1.00  0.00    -0.000 C 
BRANCH  16  17
ATOM     17  C   UNL     1      -8.960   7.198  -3.365  1.00  0.00    -0.000 C 
BRANCH  17  18
ATOM     18  C   UNL     1      -8.818   5.855  -2.619  1.00  0.00    -0.003 C 
ATOM     19  C   UNL     1      -9.561   5.845  -1.284  1.00  0.00     0.004 C 
ENDBRANCH  17  18
ENDBRANCH  16  17
ENDBRANCH  15  16
ENDBRANCH  14  15
ENDBRANCH  13  14
ENDBRANCH  12  13
ENDBRANCH   1  12
TORSDOF 14
ENDMDL
MODEL 9
REMARK VINA RESULT:    -4.325      4.638      8.953
REMARK INTER + INTRA:          -9.211
REMARK INTER:                  -7.950
REMARK INTRA:                  -1.261
REMARK UNBOUND:                -1.346
REMARK SMILES CCCCCCCCCCCCCC[C@@H](C)C(=O)[O-]
REMARK SMILES IDX 9 1 10 2 11 3 12 4 13 5 14 6 15 7 16 8 17 9 18 10 19 11 8 12
REMARK SMILES IDX 7 13 6 14 5 15 4 16 3 17 2 18 1 19
REMARK H PARENT
REMARK Flexibility Score: inf
ROOT
ATOM      1  C   UNL     1      -7.974   5.170 -13.350  1.00  0.00     0.000 C 
ENDROOT
BRANCH   1   2
ATOM      2  C   UNL     1      -6.530   5.492 -12.931  1.00  0.00     0.000 C 
BRANCH   2   3
ATOM      3  C   UNL     1      -5.520   5.287 -14.072  1.00  0.00     0.000 C 
BRANCH   3   4
ATOM      4  C   UNL     1      -5.773   3.990 -14.859  1.00  0.00     0.000 C 
BRANCH   4   5
ATOM      5  C   UNL     1      -5.797   4.218 -16.380  1.00  0.00     0.001 C 
BRANCH   5   6
ATOM      6  C   UNL     1      -6.064   5.688 -16.757  1.00  0.00     0.009 C 
BRANCH   6   7
ATOM      7  C   UNL     1      -7.556   5.967 -17.039  1.00  0.00     0.032 C 
ATOM      8  C   UNL     1      -8.024   7.292 -16.421  1.00  0.00     0.014 C 
BRANCH   7   9
ATOM      9  C   UNL     1      -7.798   5.991 -18.523  1.00  0.00     0.044 C 
ATOM     10  O   UNL     1      -7.933   7.089 -19.125  1.00  0.00    -0.550 OA
ATOM     11  O   UNL     1      -7.876   4.803 -19.240  1.00  0.00    -0.550 OA
ENDBRANCH   7   9
ENDBRANCH   6   7
ENDBRANCH   5   6
ENDBRANCH   4   5
ENDBRANCH   3   4
ENDBRANCH   2   3
ENDBRANCH   1   2
BRANCH   1  12
ATOM     12  C   UNL     1      -8.744   4.510 -12.198  1.00  0.00     0.000 C 
BRANCH  12  13
ATOM     13  C   UNL     1      -8.515   5.214 -10.851  1.00  0.00    -0.000 C 
BRANCH  13  14
ATOM     14  C   UNL     1      -9.787   5.276  -9.990  1.00  0.00    -0.000 C 
BRANCH  14  15
ATOM     15  C   UNL     1      -9.434   5.307  -8.495  1.00  0.00    -0.000 C 
BRANCH  15  16
ATOM     16  C   UNL     1      -7.918   5.270  -8.239  1.00  0.00    -0.000 C 
BRANCH  16  17
ATOM     17  C   UNL     1      -7.446   6.094  -7.026  1.00  0.00    -0.000 C 
BRANCH  17  18
ATOM     18  C   UNL     1      -6.221   6.986  -7.317  1.00  0.00    -0.003 C 
ATOM     19  C   UNL     1      -5.545   7.487  -6.041  1.00  0.00     0.004 C 
ENDBRANCH  17  18
ENDBRANCH  16  17
ENDBRANCH  15  16
ENDBRANCH  14  15
ENDBRANCH  13  14
ENDBRANCH  12  13
ENDBRANCH   1  12
TORSDOF 14
ENDMDL
