MODEL 1
REMARK VINA RESULT:    -3.965      0.000      0.000
REMARK INTER + INTRA:          -6.149
REMARK INTER:                  -6.051
REMARK INTRA:                  -0.098
REMARK UNBOUND:                -0.098
REMARK SMILES CC1=CCC[C@H](C)C(=O)C[C@@H](C(C)C)C(=O)C1
REMARK SMILES IDX 8 1 9 2 6 3 7 4 5 5 4 6 3 7 2 8 1 9 10 11 11 12 15 13 16 14
REMARK SMILES IDX 17 15 12 17 13 18 14 19
REMARK H PARENT
REMARK Flexibility Score: 70.00
ROOT
ATOM      1  C   UNL     1     -11.728 -18.030  30.722  1.00  0.00     0.136 C 
ATOM      2  O   UNL     1     -10.525 -17.888  30.575  1.00  0.00    -0.299 OA
ENDROOT
BRANCH   1   3
ATOM      3  C   UNL     1     -12.298 -19.421  30.475  1.00  0.00     0.053 C 
ATOM      4  C   UNL     1     -12.125 -20.427  31.625  1.00  0.00     0.016 C 
BRANCH   3   5
ATOM      5  C   UNL     1     -13.711 -19.372  29.838  1.00  0.00     0.015 C 
BRANCH   5   6
ATOM      6  C   UNL     1     -13.866 -19.147  28.313  1.00  0.00     0.028 C 
BRANCH   6   7
ATOM      7  C   UNL     1     -12.641 -18.801  27.502  1.00  0.00    -0.028 C 
ATOM      8  C   UNL     1     -12.190 -17.559  27.223  1.00  0.00    -0.070 CG0
ATOM      9  C   UNL     1     -10.809 -17.437  26.622  1.00  0.00     0.039 C 
ATOM     10  G   UNL     1     -12.972 -16.306  27.550  1.00  0.00     0.000 G0
ENDBRANCH   6   7
ENDBRANCH   5   6
ENDBRANCH   3   5
ENDBRANCH   1   3
BRANCH   1  11
ATOM     11  C   UNL     1     -12.539 -16.867  31.257  1.00  0.00     0.087 C 
BRANCH  11  12
ATOM     12  C   UNL     1     -13.278 -15.985  30.202  1.00  0.00     0.066 C 
BRANCH  12  13
ATOM     13  C   UNL     1     -12.538 -15.735  28.890  1.00  0.00     0.140 C 
ATOM     14  O   UNL     1     -11.553 -15.010  28.914  1.00  0.00    -0.299 OA
BRANCH  13  15
ATOM     15  C   UNL     1     -12.966 -16.295  27.554  1.00  0.00     0.106 CG0
ATOM     16  G   UNL     1     -12.195 -17.550  27.204  1.00  0.00     0.000 G0
ENDBRANCH  13  15
ENDBRANCH  12  13
BRANCH  12  17
ATOM     17  C   UNL     1     -13.915 -14.684  30.808  1.00  0.00    -0.006 C 
ATOM     18  C   UNL     1     -14.765 -15.003  32.049  1.00  0.00     0.008 C 
ATOM     19  C   UNL     1     -14.764 -13.872  29.806  1.00  0.00     0.008 C 
ENDBRANCH  12  17
ENDBRANCH  11  12
ENDBRANCH   1  11
TORSDOF 1
ENDMDL
MODEL 2
REMARK VINA RESULT:    -3.771      1.783      3.679
REMARK INTER + INTRA:          -5.853
REMARK INTER:                  -5.725
REMARK INTRA:                  -0.129
REMARK UNBOUND:                -0.098
REMARK SMILES CC1=CCC[C@H](C)C(=O)C[C@@H](C(C)C)C(=O)C1
REMARK SMILES IDX 8 1 9 2 6 3 7 4 5 5 4 6 3 7 2 8 1 9 10 11 11 12 15 13 16 14
REMARK SMILES IDX 17 15 12 17 13 18 14 19
REMARK H PARENT
REMARK Flexibility Score: 70.00
ROOT
ATOM      1  C   UNL     1     -11.069 -16.883  28.019  1.00  0.00     0.136 C 
ATOM      2  O   UNL     1     -10.194 -17.733  28.051  1.00  0.00    -0.299 OA
ENDROOT
BRANCH   1   3
ATOM      3  C   UNL     1     -12.211 -17.098  27.035  1.00  0.00     0.053 C 
ATOM      4  C   UNL     1     -11.914 -16.721  25.574  1.00  0.00     0.016 C 
BRANCH   3   5
ATOM      5  C   UNL     1     -12.915 -18.464  27.242  1.00  0.00     0.015 C 
BRANCH   5   6
ATOM      6  C   UNL     1     -13.678 -18.751  28.560  1.00  0.00     0.028 C 
BRANCH   6   7
ATOM      7  C   UNL     1     -13.100 -19.754  29.529  1.00  0.00    -0.028 C 
ATOM      8  C   UNL     1     -12.805 -19.535  30.828  1.00  0.00    -0.070 CG0
ATOM      9  C   UNL     1     -12.483 -20.737  31.683  1.00  0.00     0.039 C 
ATOM     10  G   UNL     1     -12.853 -18.162  31.463  1.00  0.00     0.000 G0
ENDBRANCH   6   7
ENDBRANCH   5   6
ENDBRANCH   3   5
ENDBRANCH   1   3
BRANCH   1  11
ATOM     11  C   UNL     1     -11.028 -15.757  29.033  1.00  0.00     0.087 C 
BRANCH  11  12
ATOM     12  C   UNL     1     -11.875 -15.953  30.330  1.00  0.00     0.066 C 
BRANCH  12  13
ATOM     13  C   UNL     1     -11.709 -17.288  31.053  1.00  0.00     0.140 C 
ATOM     14  O   UNL     1     -10.573 -17.685  31.273  1.00  0.00    -0.299 OA
BRANCH  13  15
ATOM     15  C   UNL     1     -12.858 -18.169  31.482  1.00  0.00     0.106 CG0
ATOM     16  G   UNL     1     -12.793 -19.528  30.821  1.00  0.00     0.000 G0
ENDBRANCH  13  15
ENDBRANCH  12  13
BRANCH  12  17
ATOM     17  C   UNL     1     -13.377 -15.522  30.168  1.00  0.00    -0.006 C 
ATOM     18  C   UNL     1     -13.550 -14.516  29.019  1.00  0.00     0.008 C 
ATOM     19  C   UNL     1     -14.006 -14.938  31.452  1.00  0.00     0.008 C 
ENDBRANCH  12  17
ENDBRANCH  11  12
ENDBRANCH   1  11
TORSDOF 1
ENDMDL
MODEL 3
REMARK VINA RESULT:    -3.609      1.832      4.714
REMARK INTER + INTRA:          -5.606
REMARK INTER:                  -5.567
REMARK INTRA:                  -0.040
REMARK UNBOUND:                -0.098
REMARK SMILES CC1=CCC[C@H](C)C(=O)C[C@@H](C(C)C)C(=O)C1
REMARK SMILES IDX 8 1 9 2 6 3 7 4 5 5 4 6 3 7 2 8 1 9 10 11 11 12 15 13 16 14
REMARK SMILES IDX 17 15 12 17 13 18 14 19
REMARK H PARENT
REMARK Flexibility Score: 70.00
ROOT
ATOM      1  C   UNL     1     -11.053 -16.846  28.437  1.00  0.00     0.136 C 
ATOM      2  O   UNL     1     -10.009 -16.238  28.612  1.00  0.00    -0.299 OA
ENDROOT
BRANCH   1   3
ATOM      3  C   UNL     1     -11.921 -16.411  27.264  1.00  0.00     0.053 C 
ATOM      4  C   UNL     1     -11.993 -17.396  26.085  1.00  0.00     0.016 C 
BRANCH   3   5
ATOM      5  C   UNL     1     -13.279 -15.821  27.725  1.00  0.00     0.015 C 
BRANCH   5   6
ATOM      6  C   UNL     1     -13.313 -14.530  28.582  1.00  0.00     0.028 C 
BRANCH   6   7
ATOM      7  C   UNL     1     -14.227 -14.479  29.782  1.00  0.00    -0.028 C 
ATOM      8  C   UNL     1     -13.986 -15.018  30.996  1.00  0.00    -0.070 CG0
ATOM      9  C   UNL     1     -14.909 -14.630  32.127  1.00  0.00     0.039 C 
ATOM     10  G   UNL     1     -12.805 -15.922  31.276  1.00  0.00     0.000 G0
ENDBRANCH   6   7
ENDBRANCH   5   6
ENDBRANCH   3   5
ENDBRANCH   1   3
BRANCH   1  11
ATOM     11  C   UNL     1     -11.346 -18.054  29.303  1.00  0.00     0.087 C 
BRANCH  11  12
ATOM     12  C   UNL     1     -12.806 -18.195  29.837  1.00  0.00     0.066 C 
BRANCH  12  13
ATOM     13  C   UNL     1     -13.148 -17.399  31.095  1.00  0.00     0.140 C 
ATOM     14  O   UNL     1     -13.762 -17.970  31.986  1.00  0.00    -0.299 OA
BRANCH  13  15
ATOM     15  C   UNL     1     -12.810 -15.941  31.295  1.00  0.00     0.106 CG0
ATOM     16  G   UNL     1     -13.994 -15.050  30.989  1.00  0.00     0.000 G0
ENDBRANCH  13  15
ENDBRANCH  12  13
BRANCH  12  17
ATOM     17  C   UNL     1     -13.314 -19.681  29.889  1.00  0.00    -0.006 C 
ATOM     18  C   UNL     1     -12.206 -20.634  30.362  1.00  0.00     0.008 C 
ATOM     19  C   UNL     1     -13.891 -20.196  28.553  1.00  0.00     0.008 C 
ENDBRANCH  12  17
ENDBRANCH  11  12
ENDBRANCH   1  11
TORSDOF 1
ENDMDL
MODEL 4
REMARK VINA RESULT:    -3.481      1.739      3.818
REMARK INTER + INTRA:          -5.411
REMARK INTER:                  -6.158
REMARK INTRA:                   0.747
REMARK UNBOUND:                -0.098
REMARK SMILES CC1=CCC[C@H](C)C(=O)C[C@@H](C(C)C)C(=O)C1
REMARK SMILES IDX 8 1 9 2 6 3 7 4 5 5 4 6 3 7 2 8 1 9 10 11 11 12 15 13 16 14
REMARK SMILES IDX 17 15 12 17 13 18 14 19
REMARK H PARENT
REMARK Flexibility Score: 70.00
ROOT
ATOM      1  C   UNL     1     -10.366 -17.382  30.979  1.00  0.00     0.136 C 
ATOM      2  O   UNL     1      -9.876 -17.720  32.045  1.00  0.00    -0.299 OA
ENDROOT
BRANCH   1   3
ATOM      3  C   UNL     1     -10.715 -15.910  30.811  1.00  0.00     0.053 C 
ATOM      4  C   UNL     1      -9.875 -15.138  29.780  1.00  0.00     0.016 C 
BRANCH   3   5
ATOM      5  C   UNL     1     -12.246 -15.674  30.736  1.00  0.00     0.015 C 
BRANCH   5   6
ATOM      6  C   UNL     1     -12.913 -15.329  29.381  1.00  0.00     0.028 C 
BRANCH   6   7
ATOM      7  C   UNL     1     -12.377 -15.972  28.124  1.00  0.00    -0.028 C 
ATOM      8  C   UNL     1     -12.667 -17.210  27.672  1.00  0.00    -0.070 CG0
ATOM      9  C   UNL     1     -12.233 -17.560  26.268  1.00  0.00     0.039 C 
ATOM     10  G   UNL     1     -13.457 -18.217  28.479  1.00  0.00     0.000 G0
ENDBRANCH   6   7
ENDBRANCH   5   6
ENDBRANCH   3   5
ENDBRANCH   1   3
BRANCH   1  11
ATOM     11  C   UNL     1     -10.472 -18.408  29.869  1.00  0.00     0.087 C 
BRANCH  11  12
ATOM     12  C   UNL     1     -11.628 -19.451  29.988  1.00  0.00     0.066 C 
BRANCH  12  13
ATOM     13  C   UNL     1     -12.681 -19.426  28.882  1.00  0.00     0.140 C 
ATOM     14  O   UNL     1     -12.877 -20.455  28.252  1.00  0.00    -0.299 OA
BRANCH  13  15
ATOM     15  C   UNL     1     -13.469 -18.199  28.489  1.00  0.00     0.106 CG0
ATOM     16  G   UNL     1     -12.625 -17.227  27.693  1.00  0.00     0.000 G0
ENDBRANCH  13  15
ENDBRANCH  12  13
BRANCH  12  17
ATOM     17  C   UNL     1     -12.249 -19.537  31.429  1.00  0.00    -0.006 C 
ATOM     18  C   UNL     1     -12.383 -20.996  31.893  1.00  0.00     0.008 C 
ATOM     19  C   UNL     1     -13.615 -18.832  31.569  1.00  0.00     0.008 C 
ENDBRANCH  12  17
ENDBRANCH  11  12
ENDBRANCH   1  11
TORSDOF 1
ENDMDL
MODEL 5
REMARK VINA RESULT:    -3.272      1.865      4.162
REMARK INTER + INTRA:          -5.092
REMARK INTER:                  -5.691
REMARK INTRA:                   0.599
REMARK UNBOUND:                -0.098
REMARK SMILES CC1=CCC[C@H](C)C(=O)C[C@@H](C(C)C)C(=O)C1
REMARK SMILES IDX 8 1 9 2 6 3 7 4 5 5 4 6 3 7 2 8 1 9 10 11 11 12 15 13 16 14
REMARK SMILES IDX 17 15 12 17 13 18 14 19
REMARK H PARENT
REMARK Flexibility Score: 70.00
ROOT
ATOM      1  C   UNL     1     -13.079 -15.417  30.264  1.00  0.00     0.136 C 
ATOM      2  O   UNL     1     -14.033 -14.695  30.506  1.00  0.00    -0.299 OA
ENDROOT
BRANCH   1   3
ATOM      3  C   UNL     1     -12.372 -15.212  28.931  1.00  0.00     0.053 C 
ATOM      4  C   UNL     1     -10.847 -15.034  29.003  1.00  0.00     0.016 C 
BRANCH   3   5
ATOM      5  C   UNL     1     -12.880 -16.191  27.841  1.00  0.00     0.015 C 
BRANCH   5   6
ATOM      6  C   UNL     1     -12.204 -17.574  27.665  1.00  0.00     0.028 C 
BRANCH   6   7
ATOM      7  C   UNL     1     -13.070 -18.811  27.677  1.00  0.00    -0.028 C 
ATOM      8  C   UNL     1     -13.043 -19.798  28.598  1.00  0.00    -0.070 CG0
ATOM      9  C   UNL     1     -14.164 -20.809  28.569  1.00  0.00     0.039 C 
ATOM     10  G   UNL     1     -11.990 -19.886  29.681  1.00  0.00     0.000 G0
ENDBRANCH   6   7
ENDBRANCH   5   6
ENDBRANCH   3   5
ENDBRANCH   1   3
BRANCH   1  11
ATOM     11  C   UNL     1     -12.590 -16.362  31.343  1.00  0.00     0.087 C 
BRANCH  11  12
ATOM     12  C   UNL     1     -11.649 -17.520  30.884  1.00  0.00     0.066 C 
BRANCH  12  13
ATOM     13  C   UNL     1     -12.275 -18.911  30.801  1.00  0.00     0.140 C 
ATOM     14  O   UNL     1     -13.018 -19.261  31.707  1.00  0.00    -0.299 OA
BRANCH  13  15
ATOM     15  C   UNL     1     -12.005 -19.898  29.690  1.00  0.00     0.106 CG0
ATOM     16  G   UNL     1     -13.045 -19.801  28.596  1.00  0.00     0.000 G0
ENDBRANCH  13  15
ENDBRANCH  12  13
BRANCH  12  17
ATOM     17  C   UNL     1     -10.252 -17.514  31.603  1.00  0.00    -0.006 C 
ATOM     18  C   UNL     1     -10.097 -18.727  32.534  1.00  0.00     0.008 C 
ATOM     19  C   UNL     1      -9.957 -16.223  32.396  1.00  0.00     0.008 C 
ENDBRANCH  12  17
ENDBRANCH  11  12
ENDBRANCH   1  11
TORSDOF 1
ENDMDL
MODEL 6
REMARK VINA RESULT:    -3.221      1.823      3.812
REMARK INTER + INTRA:          -5.014
REMARK INTER:                  -5.254
REMARK INTRA:                   0.240
REMARK UNBOUND:                -0.098
REMARK SMILES CC1=CCC[C@H](C)C(=O)C[C@@H](C(C)C)C(=O)C1
REMARK SMILES IDX 8 1 9 2 6 3 7 4 5 5 4 6 3 7 2 8 1 9 10 11 11 12 15 13 16 14
REMARK SMILES IDX 17 15 12 17 13 18 14 19
REMARK H PARENT
REMARK Flexibility Score: 70.00
ROOT
ATOM      1  C   UNL     1     -12.827 -16.221  31.085  1.00  0.00     0.136 C 
ATOM      2  O   UNL     1     -13.705 -15.383  31.219  1.00  0.00    -0.299 OA
ENDROOT
BRANCH   1   3
ATOM      3  C   UNL     1     -11.391 -15.762  31.298  1.00  0.00     0.053 C 
ATOM      4  C   UNL     1     -10.577 -16.568  32.323  1.00  0.00     0.016 C 
BRANCH   3   5
ATOM      5  C   UNL     1     -10.668 -15.458  29.960  1.00  0.00     0.015 C 
BRANCH   5   6
ATOM      6  C   UNL     1     -11.455 -15.495  28.627  1.00  0.00     0.028 C 
BRANCH   6   7
ATOM      7  C   UNL     1     -10.967 -16.401  27.521  1.00  0.00    -0.028 C 
ATOM      8  C   UNL     1     -11.688 -17.351  26.888  1.00  0.00    -0.070 CG0
ATOM      9  C   UNL     1     -11.093 -17.962  25.641  1.00  0.00     0.039 C 
ATOM     10  G   UNL     1     -13.073 -17.767  27.332  1.00  0.00     0.000 G0
ENDBRANCH   6   7
ENDBRANCH   5   6
ENDBRANCH   3   5
ENDBRANCH   1   3
BRANCH   1  11
ATOM     11  C   UNL     1     -13.227 -17.663  30.849  1.00  0.00     0.087 C 
BRANCH  11  12
ATOM     12  C   UNL     1     -12.372 -18.466  29.819  1.00  0.00     0.066 C 
BRANCH  12  13
ATOM     13  C   UNL     1     -13.032 -18.763  28.474  1.00  0.00     0.140 C 
ATOM     14  O   UNL     1     -13.511 -19.875  28.302  1.00  0.00    -0.299 OA
BRANCH  13  15
ATOM     15  C   UNL     1     -13.096 -17.783  27.326  1.00  0.00     0.106 CG0
ATOM     16  G   UNL     1     -11.714 -17.349  26.888  1.00  0.00     0.000 G0
ENDBRANCH  13  15
ENDBRANCH  12  13
BRANCH  12  17
ATOM     17  C   UNL     1     -11.651 -19.716  30.442  1.00  0.00    -0.006 C 
ATOM     18  C   UNL     1     -12.417 -20.253  31.662  1.00  0.00     0.008 C 
ATOM     19  C   UNL     1     -10.180 -19.463  30.837  1.00  0.00     0.008 C 
ENDBRANCH  12  17
ENDBRANCH  11  12
ENDBRANCH   1  11
TORSDOF 1
ENDMDL
MODEL 7
REMARK VINA RESULT:    -3.169      1.939      3.376
REMARK INTER + INTRA:          -4.935
REMARK INTER:                  -5.821
REMARK INTRA:                   0.886
REMARK UNBOUND:                -0.098
REMARK SMILES CC1=CCC[C@H](C)C(=O)C[C@@H](C(C)C)C(=O)C1
REMARK SMILES IDX 8 1 9 2 6 3 7 4 5 5 4 6 3 7 2 8 1 9 10 11 11 12 15 13 16 14
REMARK SMILES IDX 17 15 12 17 13 18 14 19
REMARK H PARENT
REMARK Flexibility Score: 70.00
ROOT
ATOM      1  C   UNL     1     -11.292 -15.849  30.839  1.00  0.00     0.136 C 
ATOM      2  O   UNL     1     -12.270 -15.684  31.549  1.00  0.00    -0.299 OA
ENDROOT
BRANCH   1   3
ATOM      3  C   UNL     1     -10.108 -16.589  31.448  1.00  0.00     0.053 C 
ATOM      4  C   UNL     1      -9.876 -16.355  32.950  1.00  0.00     0.016 C 
BRANCH   3   5
ATOM      5  C   UNL     1     -10.037 -18.067  30.984  1.00  0.00     0.015 C 
BRANCH   5   6
ATOM      6  C   UNL     1     -11.081 -19.091  31.494  1.00  0.00     0.028 C 
BRANCH   6   7
ATOM      7  C   UNL     1     -12.386 -19.231  30.749  1.00  0.00    -0.028 C 
ATOM      8  C   UNL     1     -12.556 -19.161  29.411  1.00  0.00    -0.070 CG0
ATOM      9  C   UNL     1     -13.894 -19.585  28.854  1.00  0.00     0.039 C 
ATOM     10  G   UNL     1     -11.452 -18.749  28.461  1.00  0.00     0.000 G0
ENDBRANCH   6   7
ENDBRANCH   5   6
ENDBRANCH   3   5
ENDBRANCH   1   3
BRANCH   1  11
ATOM     11  C   UNL     1     -11.368 -15.430  29.385  1.00  0.00     0.087 C 
BRANCH  11  12
ATOM     12  C   UNL     1     -12.364 -16.221  28.480  1.00  0.00     0.066 C 
BRANCH  12  13
ATOM     13  C   UNL     1     -11.800 -17.442  27.757  1.00  0.00     0.140 C 
ATOM     14  O   UNL     1     -11.634 -17.368  26.547  1.00  0.00    -0.299 OA
BRANCH  13  15
ATOM     15  C   UNL     1     -11.469 -18.751  28.434  1.00  0.00     0.106 CG0
ATOM     16  G   UNL     1     -12.563 -19.174  29.390  1.00  0.00     0.000 G0
ENDBRANCH  13  15
ENDBRANCH  12  13
BRANCH  12  17
ATOM     17  C   UNL     1     -13.234 -15.300  27.550  1.00  0.00    -0.006 C 
ATOM     18  C   UNL     1     -14.042 -14.282  28.369  1.00  0.00     0.008 C 
ATOM     19  C   UNL     1     -14.189 -16.072  26.615  1.00  0.00     0.008 C 
ENDBRANCH  12  17
ENDBRANCH  11  12
ENDBRANCH   1  11
TORSDOF 1
ENDMDL
MODEL 8
REMARK VINA RESULT:    -3.066      2.165      4.552
REMARK INTER + INTRA:          -4.778
REMARK INTER:                  -5.463
REMARK INTRA:                   0.685
REMARK UNBOUND:                -0.098
REMARK SMILES CC1=CCC[C@H](C)C(=O)C[C@@H](C(C)C)C(=O)C1
REMARK SMILES IDX 8 1 9 2 6 3 7 4 5 5 4 6 3 7 2 8 1 9 10 11 11 12 15 13 16 14
REMARK SMILES IDX 17 15 12 17 13 18 14 19
REMARK H PARENT
REMARK Flexibility Score: 70.00
ROOT
ATOM      1  C   UNL     1     -10.369 -15.795  29.685  1.00  0.00     0.136 C 
ATOM      2  O   UNL     1      -9.915 -14.772  29.196  1.00  0.00    -0.299 OA
ENDROOT
BRANCH   1   3
ATOM      3  C   UNL     1     -10.778 -15.741  31.151  1.00  0.00     0.053 C 
ATOM      4  C   UNL     1     -12.271 -15.491  31.419  1.00  0.00     0.016 C 
BRANCH   3   5
ATOM      5  C   UNL     1     -10.132 -16.879  31.983  1.00  0.00     0.015 C 
BRANCH   5   6
ATOM      6  C   UNL     1      -9.876 -18.264  31.336  1.00  0.00     0.028 C 
BRANCH   6   7
ATOM      7  C   UNL     1     -10.669 -19.451  31.826  1.00  0.00    -0.028 C 
ATOM      8  C   UNL     1     -11.951 -19.741  31.517  1.00  0.00    -0.070 CG0
ATOM      9  C   UNL     1     -12.469 -21.107  31.901  1.00  0.00     0.039 C 
ATOM     10  G   UNL     1     -12.848 -18.793  30.751  1.00  0.00     0.000 G0
ENDBRANCH   6   7
ENDBRANCH   5   6
ENDBRANCH   3   5
ENDBRANCH   1   3
BRANCH   1  11
ATOM     11  C   UNL     1     -10.612 -16.987  28.782  1.00  0.00     0.087 C 
BRANCH  11  12
ATOM     12  C   UNL     1     -12.097 -17.427  28.589  1.00  0.00     0.066 C 
BRANCH  12  13
ATOM     13  C   UNL     1     -12.518 -18.721  29.283  1.00  0.00     0.140 C 
ATOM     14  O   UNL     1     -12.603 -19.735  28.605  1.00  0.00    -0.299 OA
BRANCH  13  15
ATOM     15  C   UNL     1     -12.873 -18.821  30.748  1.00  0.00     0.106 CG0
ATOM     16  G   UNL     1     -11.925 -19.740  31.488  1.00  0.00     0.000 G0
ENDBRANCH  13  15
ENDBRANCH  12  13
BRANCH  12  17
ATOM     17  C   UNL     1     -12.589 -17.338  27.100  1.00  0.00    -0.006 C 
ATOM     18  C   UNL     1     -11.420 -17.061  26.140  1.00  0.00     0.008 C 
ATOM     19  C   UNL     1     -13.698 -16.290  26.863  1.00  0.00     0.008 C 
ENDBRANCH  12  17
ENDBRANCH  11  12
ENDBRANCH   1  11
TORSDOF 1
ENDMDL
MODEL 9
REMARK VINA RESULT:    -2.755      1.248      2.054
REMARK INTER + INTRA:          -4.303
REMARK INTER:                  -5.182
REMARK INTRA:                   0.880
REMARK UNBOUND:                -0.098
REMARK SMILES CC1=CCC[C@H](C)C(=O)C[C@@H](C(C)C)C(=O)C1
REMARK SMILES IDX 8 1 9 2 6 3 7 4 5 5 4 6 3 7 2 8 1 9 10 11 11 12 15 13 16 14
REMARK SMILES IDX 17 15 12 17 13 18 14 19
REMARK H PARENT
REMARK Flexibility Score: 70.00
ROOT
ATOM      1  C   UNL     1     -12.493 -18.593  30.901  1.00  0.00     0.136 C 
ATOM      2  O   UNL     1     -11.663 -19.012  31.692  1.00  0.00    -0.299 OA
ENDROOT
BRANCH   1   3
ATOM      3  C   UNL     1     -12.535 -19.248  29.527  1.00  0.00     0.053 C 
ATOM      4  C   UNL     1     -13.929 -19.371  28.888  1.00  0.00     0.016 C 
BRANCH   3   5
ATOM      5  C   UNL     1     -11.415 -18.723  28.591  1.00  0.00     0.015 C 
BRANCH   5   6
ATOM      6  C   UNL     1     -11.783 -18.017  27.262  1.00  0.00     0.028 C 
BRANCH   6   7
ATOM      7  C   UNL     1     -12.890 -16.990  27.267  1.00  0.00    -0.028 C 
ATOM      8  C   UNL     1     -12.853 -15.776  27.856  1.00  0.00    -0.070 CG0
ATOM      9  C   UNL     1     -13.961 -14.805  27.522  1.00  0.00     0.039 C 
ATOM     10  G   UNL     1     -11.726 -15.334  28.764  1.00  0.00     0.000 G0
ENDBRANCH   6   7
ENDBRANCH   5   6
ENDBRANCH   3   5
ENDBRANCH   1   3
BRANCH   1  11
ATOM     11  C   UNL     1     -13.493 -17.557  31.374  1.00  0.00     0.087 C 
BRANCH  11  12
ATOM     12  C   UNL     1     -13.369 -16.130  30.754  1.00  0.00     0.066 C 
BRANCH  12  13
ATOM     13  C   UNL     1     -11.993 -15.741  30.217  1.00  0.00     0.140 C 
ATOM     14  O   UNL     1     -11.054 -15.725  31.000  1.00  0.00    -0.299 OA
BRANCH  13  15
ATOM     15  C   UNL     1     -11.725 -15.337  28.786  1.00  0.00     0.106 CG0
ATOM     16  G   UNL     1     -12.852 -15.758  27.869  1.00  0.00     0.000 G0
ENDBRANCH  13  15
ENDBRANCH  12  13
BRANCH  12  17
ATOM     17  C   UNL     1     -14.030 -15.006  31.631  1.00  0.00    -0.006 C 
ATOM     18  C   UNL     1     -15.011 -15.599  32.654  1.00  0.00     0.008 C 
ATOM     19  C   UNL     1     -14.748 -13.910  30.814  1.00  0.00     0.008 C 
ENDBRANCH  12  17
ENDBRANCH  11  12
ENDBRANCH   1  11
TORSDOF 1
ENDMDL
