MODEL 1
REMARK VINA RESULT:    -5.134      0.000      0.000
REMARK INTER + INTRA:          -9.280
REMARK INTER:                  -7.986
REMARK INTRA:                  -1.294
REMARK UNBOUND:                -1.294
REMARK SMILES COc1cc(CNC(=O)CCCCC=CC(C)C)ccc1O
REMARK SMILES IDX 11 1 12 2 13 3 14 4 15 5 16 6 17 7 18 8 10 9 8 10 9 11 7 12
REMARK SMILES IDX 6 14 5 15 4 16 19 17 3 18 20 19 21 20 2 21 1 22 22 23
REMARK H PARENT 7 13 22 24
REMARK Flexibility Score: inf
ROOT
ATOM      1  C   UNL     1      70.787  53.535  20.416  1.00  0.00     0.010 C 
ENDROOT
BRANCH   1   2
ATOM      2  C   UNL     1      70.953  53.548  18.886  1.00  0.00     0.005 C 
BRANCH   2   3
ATOM      3  C   UNL     1      70.268  52.344  18.224  1.00  0.00     0.027 C 
BRANCH   3   4
ATOM      4  C   UNL     1      69.122  52.767  17.338  1.00  0.00    -0.031 C 
ATOM      5  C   UNL     1      67.819  52.637  17.657  1.00  0.00    -0.028 C 
BRANCH   5   6
ATOM      6  C   UNL     1      67.305  52.134  18.990  1.00  0.00     0.005 C 
ATOM      7  C   UNL     1      66.054  51.275  18.781  1.00  0.00     0.012 C 
ATOM      8  C   UNL     1      66.993  53.318  19.910  1.00  0.00     0.012 C 
ENDBRANCH   5   6
ENDBRANCH   3   4
ENDBRANCH   2   3
ENDBRANCH   1   2
BRANCH   1   9
ATOM      9  C   UNL     1      70.344  52.163  20.943  1.00  0.00     0.100 C 
BRANCH   9  10
ATOM     10  C   UNL     1      70.474  52.070  22.436  1.00  0.00     0.220 C 
ATOM     11  O   UNL     1      70.338  50.952  23.002  1.00  0.00    -0.275 OA
ATOM     12  N   UNL     1      70.787  53.241  23.205  1.00  0.00    -0.352 N 
ATOM     13  H   UNL     1      70.916  54.154  22.713  1.00  0.00     0.163 HD
BRANCH  12  14
ATOM     14  C   UNL     1      70.995  53.199  24.652  1.00  0.00     0.151 C 
BRANCH  14  15
ATOM     15  C   UNL     1      70.023  54.114  25.351  1.00  0.00    -0.025 A 
ATOM     16  C   UNL     1      69.029  54.777  24.615  1.00  0.00     0.056 A 
ATOM     17  C   UNL     1      70.092  54.297  26.739  1.00  0.00     0.009 A 
ATOM     18  C   UNL     1      68.103  55.622  25.259  1.00  0.00     0.160 A 
ATOM     19  C   UNL     1      69.180  55.134  27.384  1.00  0.00     0.050 A 
ATOM     20  C   UNL     1      68.188  55.796  26.654  1.00  0.00     0.157 A 
BRANCH  18  21
ATOM     21  O   UNL     1      67.096  56.299  24.552  1.00  0.00    -0.493 OA
ATOM     22  C   UNL     1      67.316  57.434  23.719  1.00  0.00     0.278 C 
ENDBRANCH  18  21
BRANCH  20  23
ATOM     23  O   UNL     1      67.292  56.623  27.333  1.00  0.00    -0.504 OA
ATOM     24  H   UNL     1      67.327  57.633  27.262  1.00  0.00     0.293 HD
ENDBRANCH  20  23
ENDBRANCH  14  15
ENDBRANCH  12  14
ENDBRANCH   9  10
ENDBRANCH   1   9
TORSDOF 10
ENDMDL
MODEL 2
REMARK VINA RESULT:    -5.082      3.814      6.305
REMARK INTER + INTRA:          -9.199
REMARK INTER:                  -7.527
REMARK INTRA:                  -1.672
REMARK UNBOUND:                -1.294
REMARK SMILES COc1cc(CNC(=O)CCCCC=CC(C)C)ccc1O
REMARK SMILES IDX 11 1 12 2 13 3 14 4 15 5 16 6 17 7 18 8 10 9 8 10 9 11 7 12
REMARK SMILES IDX 6 14 5 15 4 16 19 17 3 18 20 19 21 20 2 21 1 22 22 23
REMARK H PARENT 7 13 22 24
REMARK Flexibility Score: inf
ROOT
ATOM      1  C   UNL     1      69.894  51.620  23.188  1.00  0.00     0.010 C 
ENDROOT
BRANCH   1   2
ATOM      2  C   UNL     1      69.727  50.633  22.020  1.00  0.00     0.005 C 
BRANCH   2   3
ATOM      3  C   UNL     1      69.553  51.358  20.677  1.00  0.00     0.027 C 
BRANCH   3   4
ATOM      4  C   UNL     1      68.568  52.497  20.778  1.00  0.00    -0.031 C 
ATOM      5  C   UNL     1      67.582  52.739  19.891  1.00  0.00    -0.028 C 
BRANCH   5   6
ATOM      6  C   UNL     1      67.251  51.851  18.709  1.00  0.00     0.005 C 
ATOM      7  C   UNL     1      67.866  52.427  17.430  1.00  0.00     0.012 C 
ATOM      8  C   UNL     1      65.732  51.722  18.562  1.00  0.00     0.012 C 
ENDBRANCH   5   6
ENDBRANCH   3   4
ENDBRANCH   2   3
ENDBRANCH   1   2
BRANCH   1   9
ATOM      9  C   UNL     1      71.333  51.657  23.721  1.00  0.00     0.100 C 
BRANCH   9  10
ATOM     10  C   UNL     1      72.148  52.729  23.054  1.00  0.00     0.220 C 
ATOM     11  O   UNL     1      73.373  52.530  22.834  1.00  0.00    -0.275 OA
ATOM     12  N   UNL     1      71.524  53.954  22.642  1.00  0.00    -0.352 N 
ATOM     13  H   UNL     1      70.503  54.090  22.816  1.00  0.00     0.163 HD
BRANCH  12  14
ATOM     14  C   UNL     1      72.249  55.003  21.927  1.00  0.00     0.151 C 
BRANCH  14  15
ATOM     15  C   UNL     1      72.279  54.711  20.449  1.00  0.00    -0.025 A 
ATOM     16  C   UNL     1      73.506  54.519  19.795  1.00  0.00     0.056 A 
ATOM     17  C   UNL     1      71.086  54.614  19.720  1.00  0.00     0.009 A 
ATOM     18  C   UNL     1      73.546  54.230  18.417  1.00  0.00     0.160 A 
ATOM     19  C   UNL     1      71.118  54.329  18.354  1.00  0.00     0.050 A 
ATOM     20  C   UNL     1      72.338  54.136  17.699  1.00  0.00     0.157 A 
BRANCH  18  21
ATOM     21  O   UNL     1      74.758  54.031  17.733  1.00  0.00    -0.493 OA
ATOM     22  C   UNL     1      75.734  55.043  17.508  1.00  0.00     0.278 C 
ENDBRANCH  18  21
BRANCH  20  23
ATOM     23  O   UNL     1      72.332  53.851  16.333  1.00  0.00    -0.504 OA
ATOM     24  H   UNL     1      71.503  53.961  15.761  1.00  0.00     0.293 HD
ENDBRANCH  20  23
ENDBRANCH  14  15
ENDBRANCH  12  14
ENDBRANCH   9  10
ENDBRANCH   1   9
TORSDOF 10
ENDMDL
MODEL 3
REMARK VINA RESULT:    -5.001      4.190      6.678
REMARK INTER + INTRA:          -9.073
REMARK INTER:                  -8.343
REMARK INTRA:                  -0.730
REMARK UNBOUND:                -1.294
REMARK SMILES COc1cc(CNC(=O)CCCCC=CC(C)C)ccc1O
REMARK SMILES IDX 11 1 12 2 13 3 14 4 15 5 16 6 17 7 18 8 10 9 8 10 9 11 7 12
REMARK SMILES IDX 6 14 5 15 4 16 19 17 3 18 20 19 21 20 2 21 1 22 22 23
REMARK H PARENT 7 13 22 24
REMARK Flexibility Score: inf
ROOT
ATOM      1  C   UNL     1      71.665  54.199  16.628  1.00  0.00     0.010 C 
ENDROOT
BRANCH   1   2
ATOM      2  C   UNL     1      72.132  55.558  16.077  1.00  0.00     0.005 C 
BRANCH   2   3
ATOM      3  C   UNL     1      71.219  56.065  14.951  1.00  0.00     0.027 C 
BRANCH   3   4
ATOM      4  C   UNL     1      71.493  55.358  13.646  1.00  0.00    -0.031 C 
ATOM      5  C   UNL     1      71.369  55.922  12.428  1.00  0.00    -0.028 C 
BRANCH   5   6
ATOM      6  C   UNL     1      71.028  57.378  12.185  1.00  0.00     0.005 C 
ATOM      7  C   UNL     1      69.823  57.486  11.246  1.00  0.00     0.012 C 
ATOM      8  C   UNL     1      72.237  58.106  11.589  1.00  0.00     0.012 C 
ENDBRANCH   5   6
ENDBRANCH   3   4
ENDBRANCH   2   3
ENDBRANCH   1   2
BRANCH   1   9
ATOM      9  C   UNL     1      70.135  54.100  16.719  1.00  0.00     0.100 C 
BRANCH   9  10
ATOM     10  C   UNL     1      69.652  54.210  18.136  1.00  0.00     0.220 C 
ATOM     11  O   UNL     1      69.975  55.214  18.826  1.00  0.00    -0.275 OA
ATOM     12  N   UNL     1      68.800  53.194  18.686  1.00  0.00    -0.352 N 
ATOM     13  H   UNL     1      68.528  52.379  18.090  1.00  0.00     0.163 HD
BRANCH  12  14
ATOM     14  C   UNL     1      68.243  53.280  20.035  1.00  0.00     0.151 C 
BRANCH  14  15
ATOM     15  C   UNL     1      68.839  52.218  20.921  1.00  0.00    -0.025 A 
ATOM     16  C   UNL     1      69.806  52.563  21.878  1.00  0.00     0.056 A 
ATOM     17  C   UNL     1      68.425  50.884  20.809  1.00  0.00     0.009 A 
ATOM     18  C   UNL     1      70.360  51.581  22.724  1.00  0.00     0.160 A 
ATOM     19  C   UNL     1      68.969  49.905  21.642  1.00  0.00     0.050 A 
ATOM     20  C   UNL     1      69.933  50.245  22.597  1.00  0.00     0.157 A 
BRANCH  18  21
ATOM     21  O   UNL     1      71.328  51.893  23.693  1.00  0.00    -0.493 OA
ATOM     22  C   UNL     1      72.665  52.290  23.401  1.00  0.00     0.278 C 
ENDBRANCH  18  21
BRANCH  20  23
ATOM     23  O   UNL     1      70.454  49.241  23.414  1.00  0.00    -0.504 OA
ATOM     24  H   UNL     1      71.357  49.324  23.866  1.00  0.00     0.293 HD
ENDBRANCH  20  23
ENDBRANCH  14  15
ENDBRANCH  12  14
ENDBRANCH   9  10
ENDBRANCH   1   9
TORSDOF 10
ENDMDL
MODEL 4
REMARK VINA RESULT:    -4.922      2.627      4.350
REMARK INTER + INTRA:          -8.949
REMARK INTER:                  -7.151
REMARK INTRA:                  -1.798
REMARK UNBOUND:                -1.294
REMARK SMILES COc1cc(CNC(=O)CCCCC=CC(C)C)ccc1O
REMARK SMILES IDX 11 1 12 2 13 3 14 4 15 5 16 6 17 7 18 8 10 9 8 10 9 11 7 12
REMARK SMILES IDX 6 14 5 15 4 16 19 17 3 18 20 19 21 20 2 21 1 22 22 23
REMARK H PARENT 7 13 22 24
REMARK Flexibility Score: inf
ROOT
ATOM      1  C   UNL     1      71.373  54.134  16.673  1.00  0.00     0.010 C 
ENDROOT
BRANCH   1   2
ATOM      2  C   UNL     1      71.590  53.140  17.827  1.00  0.00     0.005 C 
BRANCH   2   3
ATOM      3  C   UNL     1      70.294  52.409  18.207  1.00  0.00     0.027 C 
BRANCH   3   4
ATOM      4  C   UNL     1      69.138  52.825  17.331  1.00  0.00    -0.031 C 
ATOM      5  C   UNL     1      67.838  52.669  17.653  1.00  0.00    -0.028 C 
BRANCH   5   6
ATOM      6  C   UNL     1      67.338  52.141  18.981  1.00  0.00     0.005 C 
ATOM      7  C   UNL     1      66.087  51.283  18.768  1.00  0.00     0.012 C 
ATOM      8  C   UNL     1      67.033  53.306  19.926  1.00  0.00     0.012 C 
ENDBRANCH   5   6
ENDBRANCH   3   4
ENDBRANCH   2   3
ENDBRANCH   1   2
BRANCH   1   9
ATOM      9  C   UNL     1      71.801  55.562  17.042  1.00  0.00     0.100 C 
BRANCH   9  10
ATOM     10  C   UNL     1      70.806  56.225  17.951  1.00  0.00     0.220 C 
ATOM     11  O   UNL     1      69.747  56.706  17.465  1.00  0.00    -0.275 OA
ATOM     12  N   UNL     1      71.046  56.278  19.364  1.00  0.00    -0.352 N 
ATOM     13  H   UNL     1      71.922  55.856  19.748  1.00  0.00     0.163 HD
BRANCH  12  14
ATOM     14  C   UNL     1      70.083  56.848  20.305  1.00  0.00     0.151 C 
BRANCH  14  15
ATOM     15  C   UNL     1      69.680  55.823  21.333  1.00  0.00    -0.025 A 
ATOM     16  C   UNL     1      70.228  54.531  21.290  1.00  0.00     0.056 A 
ATOM     17  C   UNL     1      68.768  56.151  22.346  1.00  0.00     0.009 A 
ATOM     18  C   UNL     1      69.871  53.568  22.255  1.00  0.00     0.160 A 
ATOM     19  C   UNL     1      68.409  55.203  23.304  1.00  0.00     0.050 A 
ATOM     20  C   UNL     1      68.953  53.915  23.265  1.00  0.00     0.157 A 
BRANCH  18  21
ATOM     21  O   UNL     1      70.403  52.268  22.241  1.00  0.00    -0.493 OA
ATOM     22  C   UNL     1      69.776  51.145  21.628  1.00  0.00     0.278 C 
ENDBRANCH  18  21
BRANCH  20  23
ATOM     23  O   UNL     1      68.572  52.993  24.241  1.00  0.00    -0.504 OA
ATOM     24  H   UNL     1      68.302  53.275  25.175  1.00  0.00     0.293 HD
ENDBRANCH  20  23
ENDBRANCH  14  15
ENDBRANCH  12  14
ENDBRANCH   9  10
ENDBRANCH   1   9
TORSDOF 10
ENDMDL
MODEL 5
REMARK VINA RESULT:    -4.866      2.389      6.412
REMARK INTER + INTRA:          -8.863
REMARK INTER:                  -6.813
REMARK INTRA:                  -2.050
REMARK UNBOUND:                -1.294
REMARK SMILES COc1cc(CNC(=O)CCCCC=CC(C)C)ccc1O
REMARK SMILES IDX 11 1 12 2 13 3 14 4 15 5 16 6 17 7 18 8 10 9 8 10 9 11 7 12
REMARK SMILES IDX 6 14 5 15 4 16 19 17 3 18 20 19 21 20 2 21 1 22 22 23
REMARK H PARENT 7 13 22 24
REMARK Flexibility Score: inf
ROOT
ATOM      1  C   UNL     1      68.903  56.420  25.035  1.00  0.00     0.010 C 
ENDROOT
BRANCH   1   2
ATOM      2  C   UNL     1      67.758  57.444  24.945  1.00  0.00     0.005 C 
BRANCH   2   3
ATOM      3  C   UNL     1      66.414  56.776  24.617  1.00  0.00     0.027 C 
BRANCH   3   4
ATOM      4  C   UNL     1      65.822  57.307  23.334  1.00  0.00    -0.031 C 
ATOM      5  C   UNL     1      66.020  56.765  22.117  1.00  0.00    -0.028 C 
BRANCH   5   6
ATOM      6  C   UNL     1      66.787  55.485  21.860  1.00  0.00     0.005 C 
ATOM      7  C   UNL     1      68.191  55.809  21.340  1.00  0.00     0.012 C 
ATOM      8  C   UNL     1      66.031  54.615  20.851  1.00  0.00     0.012 C 
ENDBRANCH   5   6
ENDBRANCH   3   4
ENDBRANCH   2   3
ENDBRANCH   1   2
BRANCH   1   9
ATOM      9  C   UNL     1      68.392  54.996  25.301  1.00  0.00     0.100 C 
BRANCH   9  10
ATOM     10  C   UNL     1      69.244  53.962  24.622  1.00  0.00     0.220 C 
ATOM     11  O   UNL     1      70.463  53.866  24.927  1.00  0.00    -0.275 OA
ATOM     12  N   UNL     1      68.663  53.070  23.660  1.00  0.00    -0.352 N 
ATOM     13  H   UNL     1      67.645  53.155  23.437  1.00  0.00     0.163 HD
BRANCH  12  14
ATOM     14  C   UNL     1      69.424  52.000  23.019  1.00  0.00     0.151 C 
BRANCH  14  15
ATOM     15  C   UNL     1      69.512  52.232  21.532  1.00  0.00    -0.025 A 
ATOM     16  C   UNL     1      68.463  51.823  20.694  1.00  0.00     0.056 A 
ATOM     17  C   UNL     1      70.630  52.869  20.977  1.00  0.00     0.009 A 
ATOM     18  C   UNL     1      68.525  52.049  19.305  1.00  0.00     0.160 A 
ATOM     19  C   UNL     1      70.700  53.095  19.602  1.00  0.00     0.050 A 
ATOM     20  C   UNL     1      69.656  52.690  18.763  1.00  0.00     0.157 A 
BRANCH  18  21
ATOM     21  O   UNL     1      67.492  51.654  18.439  1.00  0.00    -0.493 OA
ATOM     22  C   UNL     1      66.154  51.386  18.847  1.00  0.00     0.278 C 
ENDBRANCH  18  21
BRANCH  20  23
ATOM     23  O   UNL     1      69.760  52.934  17.393  1.00  0.00    -0.504 OA
ATOM     24  H   UNL     1      70.362  52.387  16.790  1.00  0.00     0.293 HD
ENDBRANCH  20  23
ENDBRANCH  14  15
ENDBRANCH  12  14
ENDBRANCH   9  10
ENDBRANCH   1   9
TORSDOF 10
ENDMDL
MODEL 6
REMARK VINA RESULT:    -4.825      2.184      3.631
REMARK INTER + INTRA:          -8.799
REMARK INTER:                  -6.432
REMARK INTRA:                  -2.367
REMARK UNBOUND:                -1.294
REMARK SMILES COc1cc(CNC(=O)CCCCC=CC(C)C)ccc1O
REMARK SMILES IDX 11 1 12 2 13 3 14 4 15 5 16 6 17 7 18 8 10 9 8 10 9 11 7 12
REMARK SMILES IDX 6 14 5 15 4 16 19 17 3 18 20 19 21 20 2 21 1 22 22 23
REMARK H PARENT 7 13 22 24
REMARK Flexibility Score: inf
ROOT
ATOM      1  C   UNL     1      69.485  52.293  17.736  1.00  0.00     0.010 C 
ENDROOT
BRANCH   1   2
ATOM      2  C   UNL     1      67.996  52.412  17.365  1.00  0.00     0.005 C 
BRANCH   2   3
ATOM      3  C   UNL     1      67.080  52.023  18.535  1.00  0.00     0.027 C 
BRANCH   3   4
ATOM      4  C   UNL     1      67.773  52.181  19.867  1.00  0.00    -0.031 C 
ATOM      5  C   UNL     1      67.762  53.306  20.608  1.00  0.00    -0.028 C 
BRANCH   5   6
ATOM      6  C   UNL     1      66.973  54.554  20.266  1.00  0.00     0.005 C 
ATOM      7  C   UNL     1      67.909  55.630  19.705  1.00  0.00     0.012 C 
ATOM      8  C   UNL     1      66.248  55.072  21.512  1.00  0.00     0.012 C 
ENDBRANCH   5   6
ENDBRANCH   3   4
ENDBRANCH   2   3
ENDBRANCH   1   2
BRANCH   1   9
ATOM      9  C   UNL     1      70.297  53.516  17.289  1.00  0.00     0.100 C 
BRANCH   9  10
ATOM     10  C   UNL     1      71.015  54.160  18.440  1.00  0.00     0.220 C 
ATOM     11  O   UNL     1      71.294  55.388  18.387  1.00  0.00    -0.275 OA
ATOM     12  N   UNL     1      71.348  53.389  19.603  1.00  0.00    -0.352 N 
ATOM     13  H   UNL     1      71.089  52.376  19.634  1.00  0.00     0.163 HD
BRANCH  12  14
ATOM     14  C   UNL     1      71.983  53.976  20.782  1.00  0.00     0.151 C 
BRANCH  14  15
ATOM     15  C   UNL     1      71.031  53.974  21.950  1.00  0.00    -0.025 A 
ATOM     16  C   UNL     1      70.455  55.176  22.389  1.00  0.00     0.056 A 
ATOM     17  C   UNL     1      70.701  52.775  22.596  1.00  0.00     0.009 A 
ATOM     18  C   UNL     1      69.551  55.186  23.470  1.00  0.00     0.160 A 
ATOM     19  C   UNL     1      69.808  52.776  23.668  1.00  0.00     0.050 A 
ATOM     20  C   UNL     1      69.232  53.972  24.109  1.00  0.00     0.157 A 
BRANCH  18  21
ATOM     21  O   UNL     1      68.956  56.371  23.933  1.00  0.00    -0.493 OA
ATOM     22  C   UNL     1      68.573  57.462  23.100  1.00  0.00     0.278 C 
ENDBRANCH  18  21
BRANCH  20  23
ATOM     23  O   UNL     1      68.341  53.935  25.183  1.00  0.00    -0.504 OA
ATOM     24  H   UNL     1      68.531  53.404  26.025  1.00  0.00     0.293 HD
ENDBRANCH  20  23
ENDBRANCH  14  15
ENDBRANCH  12  14
ENDBRANCH   9  10
ENDBRANCH   1   9
TORSDOF 10
ENDMDL
MODEL 7
REMARK VINA RESULT:    -4.806      2.815      6.606
REMARK INTER + INTRA:          -8.770
REMARK INTER:                  -6.692
REMARK INTRA:                  -2.078
REMARK UNBOUND:                -1.294
REMARK SMILES COc1cc(CNC(=O)CCCCC=CC(C)C)ccc1O
REMARK SMILES IDX 11 1 12 2 13 3 14 4 15 5 16 6 17 7 18 8 10 9 8 10 9 11 7 12
REMARK SMILES IDX 6 14 5 15 4 16 19 17 3 18 20 19 21 20 2 21 1 22 22 23
REMARK H PARENT 7 13 22 24
REMARK Flexibility Score: inf
ROOT
ATOM      1  C   UNL     1      65.982  57.426  20.796  1.00  0.00     0.010 C 
ENDROOT
BRANCH   1   2
ATOM      2  C   UNL     1      65.833  57.992  22.219  1.00  0.00     0.005 C 
BRANCH   2   3
ATOM      3  C   UNL     1      65.609  56.882  23.257  1.00  0.00     0.027 C 
BRANCH   3   4
ATOM      4  C   UNL     1      66.517  57.041  24.452  1.00  0.00    -0.031 C 
ATOM      5  C   UNL     1      67.667  56.362  24.636  1.00  0.00    -0.028 C 
BRANCH   5   6
ATOM      6  C   UNL     1      68.274  55.409  23.628  1.00  0.00     0.005 C 
ATOM      7  C   UNL     1      68.633  54.084  24.308  1.00  0.00     0.012 C 
ATOM      8  C   UNL     1      69.517  56.040  22.994  1.00  0.00     0.012 C 
ENDBRANCH   5   6
ENDBRANCH   3   4
ENDBRANCH   2   3
ENDBRANCH   1   2
BRANCH   1   9
ATOM      9  C   UNL     1      65.881  55.894  20.763  1.00  0.00     0.100 C 
BRANCH   9  10
ATOM     10  C   UNL     1      67.084  55.270  20.117  1.00  0.00     0.220 C 
ATOM     11  O   UNL     1      68.106  55.974  19.896  1.00  0.00    -0.275 OA
ATOM     12  N   UNL     1      67.080  53.873  19.787  1.00  0.00    -0.352 N 
ATOM     13  H   UNL     1      66.229  53.303  19.997  1.00  0.00     0.163 HD
BRANCH  12  14
ATOM     14  C   UNL     1      68.245  53.195  19.221  1.00  0.00     0.151 C 
BRANCH  14  15
ATOM     15  C   UNL     1      69.163  52.721  20.318  1.00  0.00    -0.025 A 
ATOM     16  C   UNL     1      68.807  51.614  21.104  1.00  0.00     0.056 A 
ATOM     17  C   UNL     1      70.383  53.370  20.553  1.00  0.00     0.009 A 
ATOM     18  C   UNL     1      69.664  51.152  22.122  1.00  0.00     0.160 A 
ATOM     19  C   UNL     1      71.237  52.919  21.561  1.00  0.00     0.050 A 
ATOM     20  C   UNL     1      70.886  51.816  22.345  1.00  0.00     0.157 A 
BRANCH  18  21
ATOM     21  O   UNL     1      69.338  50.046  22.925  1.00  0.00    -0.493 OA
ATOM     22  C   UNL     1      68.676  48.875  22.457  1.00  0.00     0.278 C 
ENDBRANCH  18  21
BRANCH  20  23
ATOM     23  O   UNL     1      71.765  51.392  23.343  1.00  0.00    -0.504 OA
ATOM     24  H   UNL     1      72.693  51.785  23.449  1.00  0.00     0.293 HD
ENDBRANCH  20  23
ENDBRANCH  14  15
ENDBRANCH  12  14
ENDBRANCH   9  10
ENDBRANCH   1   9
TORSDOF 10
ENDMDL
MODEL 8
REMARK VINA RESULT:    -4.794      2.701      4.448
REMARK INTER + INTRA:          -8.750
REMARK INTER:                  -6.618
REMARK INTRA:                  -2.132
REMARK UNBOUND:                -1.294
REMARK SMILES COc1cc(CNC(=O)CCCCC=CC(C)C)ccc1O
REMARK SMILES IDX 11 1 12 2 13 3 14 4 15 5 16 6 17 7 18 8 10 9 8 10 9 11 7 12
REMARK SMILES IDX 6 14 5 15 4 16 19 17 3 18 20 19 21 20 2 21 1 22 22 23
REMARK H PARENT 7 13 22 24
REMARK Flexibility Score: inf
ROOT
ATOM      1  C   UNL     1      69.156  53.110  17.400  1.00  0.00     0.010 C 
ENDROOT
BRANCH   1   2
ATOM      2  C   UNL     1      70.482  52.871  18.142  1.00  0.00     0.005 C 
BRANCH   2   3
ATOM      3  C   UNL     1      70.745  53.944  19.209  1.00  0.00     0.027 C 
BRANCH   3   4
ATOM      4  C   UNL     1      71.568  53.407  20.355  1.00  0.00    -0.031 C 
ATOM      5  C   UNL     1      71.061  52.771  21.429  1.00  0.00    -0.028 C 
BRANCH   5   6
ATOM      6  C   UNL     1      69.600  52.413  21.607  1.00  0.00     0.005 C 
ATOM      7  C   UNL     1      69.127  52.814  23.008  1.00  0.00     0.012 C 
ATOM      8  C   UNL     1      69.399  50.911  21.384  1.00  0.00     0.012 C 
ENDBRANCH   5   6
ENDBRANCH   3   4
ENDBRANCH   2   3
ENDBRANCH   1   2
BRANCH   1   9
ATOM      9  C   UNL     1      68.133  51.995  17.657  1.00  0.00     0.100 C 
BRANCH   9  10
ATOM     10  C   UNL     1      67.188  52.349  18.770  1.00  0.00     0.220 C 
ATOM     11  O   UNL     1      66.476  51.448  19.289  1.00  0.00    -0.275 OA
ATOM     12  N   UNL     1      67.126  53.697  19.259  1.00  0.00    -0.352 N 
ATOM     13  H   UNL     1      67.740  54.424  18.827  1.00  0.00     0.163 HD
BRANCH  12  14
ATOM     14  C   UNL     1      66.278  54.087  20.385  1.00  0.00     0.151 C 
BRANCH  14  15
ATOM     15  C   UNL     1      66.883  55.255  21.120  1.00  0.00    -0.025 A 
ATOM     16  C   UNL     1      66.169  55.879  22.155  1.00  0.00     0.056 A 
ATOM     17  C   UNL     1      68.164  55.717  20.790  1.00  0.00     0.009 A 
ATOM     18  C   UNL     1      66.730  56.962  22.861  1.00  0.00     0.160 A 
ATOM     19  C   UNL     1      68.725  56.790  21.483  1.00  0.00     0.050 A 
ATOM     20  C   UNL     1      68.018  57.414  22.515  1.00  0.00     0.157 A 
BRANCH  18  21
ATOM     21  O   UNL     1      66.042  57.608  23.902  1.00  0.00    -0.493 OA
ATOM     22  C   UNL     1      65.756  57.020  25.167  1.00  0.00     0.278 C 
ENDBRANCH  18  21
BRANCH  20  23
ATOM     23  O   UNL     1      68.612  58.483  23.188  1.00  0.00    -0.504 OA
ATOM     24  H   UNL     1      69.326  59.061  22.761  1.00  0.00     0.293 HD
ENDBRANCH  20  23
ENDBRANCH  14  15
ENDBRANCH  12  14
ENDBRANCH   9  10
ENDBRANCH   1   9
TORSDOF 10
ENDMDL
MODEL 9
REMARK VINA RESULT:    -4.777      2.398      6.464
REMARK INTER + INTRA:          -8.724
REMARK INTER:                  -6.631
REMARK INTRA:                  -2.093
REMARK UNBOUND:                -1.294
REMARK SMILES COc1cc(CNC(=O)CCCCC=CC(C)C)ccc1O
REMARK SMILES IDX 11 1 12 2 13 3 14 4 15 5 16 6 17 7 18 8 10 9 8 10 9 11 7 12
REMARK SMILES IDX 6 14 5 15 4 16 19 17 3 18 20 19 21 20 2 21 1 22 22 23
REMARK H PARENT 7 13 22 24
REMARK Flexibility Score: inf
ROOT
ATOM      1  C   UNL     1      69.381  55.868  25.239  1.00  0.00     0.010 C 
ENDROOT
BRANCH   1   2
ATOM      2  C   UNL     1      68.452  56.999  24.766  1.00  0.00     0.005 C 
BRANCH   2   3
ATOM      3  C   UNL     1      66.996  56.528  24.635  1.00  0.00     0.027 C 
BRANCH   3   4
ATOM      4  C   UNL     1      66.304  57.164  23.453  1.00  0.00    -0.031 C 
ATOM      5  C   UNL     1      66.277  56.645  22.210  1.00  0.00    -0.028 C 
BRANCH   5   6
ATOM      6  C   UNL     1      66.854  55.297  21.829  1.00  0.00     0.005 C 
ATOM      7  C   UNL     1      68.229  55.479  21.178  1.00  0.00     0.012 C 
ATOM      8  C   UNL     1      65.902  54.573  20.872  1.00  0.00     0.012 C 
ENDBRANCH   5   6
ENDBRANCH   3   4
ENDBRANCH   2   3
ENDBRANCH   1   2
BRANCH   1   9
ATOM      9  C   UNL     1      68.764  54.478  25.029  1.00  0.00     0.100 C 
BRANCH   9  10
ATOM     10  C   UNL     1      69.578  53.643  24.083  1.00  0.00     0.220 C 
ATOM     11  O   UNL     1      70.772  53.965  23.842  1.00  0.00    -0.275 OA
ATOM     12  N   UNL     1      69.008  52.468  23.488  1.00  0.00    -0.352 N 
ATOM     13  H   UNL     1      68.022  52.208  23.718  1.00  0.00     0.163 HD
BRANCH  12  14
ATOM     14  C   UNL     1      69.772  51.578  22.616  1.00  0.00     0.151 C 
BRANCH  14  15
ATOM     15  C   UNL     1      69.478  51.878  21.168  1.00  0.00    -0.025 A 
ATOM     16  C   UNL     1      70.490  52.377  20.335  1.00  0.00     0.056 A 
ATOM     17  C   UNL     1      68.200  51.648  20.640  1.00  0.00     0.009 A 
ATOM     18  C   UNL     1      70.232  52.647  18.975  1.00  0.00     0.160 A 
ATOM     19  C   UNL     1      67.936  51.914  19.296  1.00  0.00     0.050 A 
ATOM     20  C   UNL     1      68.943  52.411  18.462  1.00  0.00     0.157 A 
BRANCH  18  21
ATOM     21  O   UNL     1      71.224  53.146  18.114  1.00  0.00    -0.493 OA
ATOM     22  C   UNL     1      72.298  53.989  18.521  1.00  0.00     0.278 C 
ENDBRANCH  18  21
BRANCH  20  23
ATOM     23  O   UNL     1      68.643  52.663  17.122  1.00  0.00    -0.504 OA
ATOM     24  H   UNL     1      69.176  52.257  16.363  1.00  0.00     0.293 HD
ENDBRANCH  20  23
ENDBRANCH  14  15
ENDBRANCH  12  14
ENDBRANCH   9  10
ENDBRANCH   1   9
TORSDOF 10
ENDMDL
