MODEL 1
REMARK VINA RESULT:     1.780      0.000      0.000
REMARK INTER + INTRA:           4.420
REMARK INTER:                   2.613
REMARK INTRA:                   1.807
REMARK UNBOUND:                 1.807
REMARK SMILES C=C1CC=CC(C)(C)CC=C(C)CCC1
REMARK SMILES IDX 2 1 1 2 15 3 14 4 13 5 11 6 12 7 10 8 3 10 4 11 5 12 6 13
REMARK SMILES IDX 7 14 8 15 9 16
REMARK H PARENT
REMARK Flexibility Score: 60.00
ROOT
ATOM      1  C   UNL     1       6.257   4.981  13.563  1.00  0.00    -0.074 C 
ATOM      2  C   UNL     1       6.764   4.970  14.807  1.00  0.00     0.008 C 
ENDROOT
BRANCH   1   3
ATOM      3  C   UNL     1       7.203   4.875  12.374  1.00  0.00     0.031 C 
BRANCH   3   4
ATOM      4  C   UNL     1       7.866   6.216  12.000  1.00  0.00     0.009 C 
BRANCH   4   5
ATOM      5  C   UNL     1       8.634   6.882  13.153  1.00  0.00     0.030 C 
BRANCH   5   6
ATOM      6  C   UNL     1       7.939   8.121  13.685  1.00  0.00    -0.077 C 
ATOM      7  C   UNL     1       8.454   8.723  14.969  1.00  0.00     0.039 C 
ATOM      8  C   UNL     1       6.881   8.719  13.087  1.00  0.00    -0.027 CG0
ATOM      9  G   UNL     1       6.214   8.281  11.798  1.00  0.00     0.000 G0
ENDBRANCH   5   6
ENDBRANCH   4   5
ENDBRANCH   3   4
ENDBRANCH   1   3
BRANCH   1  10
ATOM     10  C   UNL     1       4.752   5.089  13.389  1.00  0.00     0.057 C 
BRANCH  10  11
ATOM     11  C   UNL     1       4.353   5.394  11.969  1.00  0.00    -0.026 C 
ATOM     12  C   UNL     1       4.326   6.592  11.344  1.00  0.00    -0.024 C 
BRANCH  12  13
ATOM     13  C   UNL     1       4.674   7.991  11.881  1.00  0.00    -0.014 C 
ATOM     14  C   UNL     1       3.979   9.010  10.940  1.00  0.00     0.016 C 
ATOM     15  C   UNL     1       4.060   8.215  13.284  1.00  0.00     0.016 C 
BRANCH  13  16
ATOM     16  C   UNL     1       6.211   8.286  11.796  1.00  0.00     0.038 CG0
ATOM     17  G   UNL     1       6.883   8.696  13.092  1.00  0.00     0.000 G0
ENDBRANCH  13  16
ENDBRANCH  12  13
ENDBRANCH  10  11
ENDBRANCH   1  10
TORSDOF 0
ENDMDL
MODEL 2
REMARK VINA RESULT:     4.265      0.954      3.545
REMARK INTER + INTRA:           8.067
REMARK INTER:                   5.436
REMARK INTRA:                   2.631
REMARK UNBOUND:                 1.807
REMARK SMILES C=C1CC=CC(C)(C)CC=C(C)CCC1
REMARK SMILES IDX 2 1 1 2 15 3 14 4 13 5 11 6 12 7 10 8 3 10 4 11 5 12 6 13
REMARK SMILES IDX 7 14 8 15 9 16
REMARK H PARENT
REMARK Flexibility Score: 60.00
ROOT
ATOM      1  C   UNL     1       6.017   4.976  13.225  1.00  0.00    -0.074 C 
ATOM      2  C   UNL     1       6.609   4.875  12.023  1.00  0.00     0.008 C 
ENDROOT
BRANCH   1   3
ATOM      3  C   UNL     1       4.500   4.875  13.316  1.00  0.00     0.031 C 
BRANCH   3   4
ATOM      4  C   UNL     1       3.765   5.847  12.371  1.00  0.00     0.009 C 
BRANCH   4   5
ATOM      5  C   UNL     1       4.687   6.851  11.659  1.00  0.00     0.030 C 
BRANCH   5   6
ATOM      6  C   UNL     1       4.690   8.217  12.319  1.00  0.00    -0.077 C 
ATOM      7  C   UNL     1       3.377   8.761  12.822  1.00  0.00     0.039 C 
ATOM      8  C   UNL     1       5.795   8.985  12.479  1.00  0.00    -0.027 CG0
ATOM      9  G   UNL     1       7.205   8.628  12.050  1.00  0.00     0.000 G0
ENDBRANCH   5   6
ENDBRANCH   4   5
ENDBRANCH   3   4
ENDBRANCH   1   3
BRANCH   1  10
ATOM     10  C   UNL     1       6.887   5.178  14.453  1.00  0.00     0.057 C 
BRANCH  10  11
ATOM     11  C   UNL     1       6.804   6.579  14.999  1.00  0.00    -0.026 C 
ATOM     12  C   UNL     1       7.288   7.720  14.459  1.00  0.00    -0.024 C 
BRANCH  12  13
ATOM     13  C   UNL     1       8.072   7.936  13.154  1.00  0.00    -0.014 C 
ATOM     14  C   UNL     1       9.229   8.912  13.491  1.00  0.00     0.016 C 
ATOM     15  C   UNL     1       8.742   6.622  12.686  1.00  0.00     0.016 C 
BRANCH  13  16
ATOM     16  C   UNL     1       7.202   8.642  12.057  1.00  0.00     0.038 CG0
ATOM     17  G   UNL     1       5.778   8.979  12.451  1.00  0.00     0.000 G0
ENDBRANCH  13  16
ENDBRANCH  12  13
ENDBRANCH  10  11
ENDBRANCH   1  10
TORSDOF 0
ENDMDL
