MODEL 1
REMARK VINA RESULT:    -3.746      0.000      0.000
REMARK INTER + INTRA:          -4.121
REMARK INTER:                  -3.965
REMARK INTRA:                  -0.156
REMARK UNBOUND:                -0.156
REMARK SMILES C=C(C)[C@H]1CC=C(C)CC1
REMARK SMILES IDX 8 1 7 2 6 3 5 4 4 5 10 6 9 7 2 8 1 9 3 10
REMARK H PARENT
REMARK Flexibility Score: inf
ROOT
ATOM      1  C   UNL     1      21.052  -2.344  29.064  1.00  0.00     0.039 C 
ATOM      2  C   UNL     1      19.929  -3.170  28.501  1.00  0.00    -0.077 C 
ATOM      3  C   UNL     1      20.150  -4.438  28.117  1.00  0.00    -0.027 C 
ATOM      4  C   UNL     1      19.003  -5.264  27.604  1.00  0.00     0.035 C 
ATOM      5  C   UNL     1      17.772  -5.103  28.530  1.00  0.00     0.018 C 
ATOM      6  C   UNL     1      17.505  -3.622  28.960  1.00  0.00     0.013 C 
ATOM      7  C   UNL     1      18.527  -2.617  28.395  1.00  0.00     0.031 C 
ENDROOT
BRANCH   5   8
ATOM      8  C   UNL     1      16.540  -5.744  27.905  1.00  0.00    -0.077 C 
ATOM      9  C   UNL     1      15.305  -5.391  28.298  1.00  0.00     0.008 C 
ATOM     10  C   UNL     1      16.688  -6.788  26.829  1.00  0.00     0.039 C 
ENDBRANCH   5   8
TORSDOF 1
ENDMDL
MODEL 2
REMARK VINA RESULT:    -3.670      9.888     11.494
REMARK INTER + INTRA:          -4.040
REMARK INTER:                  -3.877
REMARK INTRA:                  -0.163
REMARK UNBOUND:                -0.156
REMARK SMILES C=C(C)[C@H]1CC=C(C)CC1
REMARK SMILES IDX 8 1 7 2 6 3 5 4 4 5 10 6 9 7 2 8 1 9 3 10
REMARK H PARENT
REMARK Flexibility Score: inf
ROOT
ATOM      1  C   UNL     1      19.286   6.772  25.318  1.00  0.00     0.039 C 
ATOM      2  C   UNL     1      20.556   5.969  25.293  1.00  0.00    -0.077 C 
ATOM      3  C   UNL     1      20.519   4.651  25.036  1.00  0.00    -0.027 C 
ATOM      4  C   UNL     1      21.805   3.876  24.966  1.00  0.00     0.035 C 
ATOM      5  C   UNL     1      22.846   4.643  24.113  1.00  0.00     0.018 C 
ATOM      6  C   UNL     1      22.903   6.176  24.429  1.00  0.00     0.013 C 
ATOM      7  C   UNL     1      21.901   6.624  25.510  1.00  0.00     0.031 C 
ENDROOT
BRANCH   5   8
ATOM      8  C   UNL     1      24.218   3.991  24.222  1.00  0.00    -0.077 C 
ATOM      9  C   UNL     1      25.014   3.876  23.146  1.00  0.00     0.008 C 
ATOM     10  C   UNL     1      24.707   3.461  25.545  1.00  0.00     0.039 C 
ENDBRANCH   5   8
TORSDOF 1
ENDMDL
MODEL 3
REMARK VINA RESULT:    -3.563      3.704      7.176
REMARK INTER + INTRA:          -3.927
REMARK INTER:                  -3.771
REMARK INTRA:                  -0.156
REMARK UNBOUND:                -0.156
REMARK SMILES C=C(C)[C@H]1CC=C(C)CC1
REMARK SMILES IDX 8 1 7 2 6 3 5 4 4 5 10 6 9 7 2 8 1 9 3 10
REMARK H PARENT
REMARK Flexibility Score: inf
ROOT
ATOM      1  C   UNL     1      15.617 -11.020  22.249  1.00  0.00     0.039 C 
ATOM      2  C   UNL     1      16.162 -10.144  23.344  1.00  0.00    -0.077 C 
ATOM      3  C   UNL     1      15.610  -8.944  23.587  1.00  0.00    -0.027 C 
ATOM      4  C   UNL     1      16.136  -8.106  24.719  1.00  0.00     0.035 C 
ATOM      5  C   UNL     1      16.316  -8.974  25.989  1.00  0.00     0.018 C 
ATOM      6  C   UNL     1      16.978 -10.364  25.706  1.00  0.00     0.013 C 
ATOM      7  C   UNL     1      17.304 -10.605  24.219  1.00  0.00     0.031 C 
ENDROOT
BRANCH   5   8
ATOM      8  C   UNL     1      17.060  -8.201  27.070  1.00  0.00    -0.077 C 
ATOM      9  C   UNL     1      17.831  -8.838  27.966  1.00  0.00     0.008 C 
ATOM     10  C   UNL     1      16.944  -6.701  27.150  1.00  0.00     0.039 C 
ENDBRANCH   5   8
TORSDOF 1
ENDMDL
MODEL 4
REMARK VINA RESULT:    -3.553     10.072     12.390
REMARK INTER + INTRA:          -3.916
REMARK INTER:                  -3.752
REMARK INTRA:                  -0.164
REMARK UNBOUND:                -0.156
REMARK SMILES C=C(C)[C@H]1CC=C(C)CC1
REMARK SMILES IDX 8 1 7 2 6 3 5 4 4 5 10 6 9 7 2 8 1 9 3 10
REMARK H PARENT
REMARK Flexibility Score: inf
ROOT
ATOM      1  C   UNL     1      27.195   6.913  22.036  1.00  0.00     0.039 C 
ATOM      2  C   UNL     1      25.980   6.174  22.523  1.00  0.00    -0.077 C 
ATOM      3  C   UNL     1      25.816   4.874  22.226  1.00  0.00    -0.027 C 
ATOM      4  C   UNL     1      24.621   4.139  22.766  1.00  0.00     0.035 C 
ATOM      5  C   UNL     1      24.430   4.460  24.269  1.00  0.00     0.018 C 
ATOM      6  C   UNL     1      24.601   5.978  24.610  1.00  0.00     0.013 C 
ATOM      7  C   UNL     1      24.944   6.853  23.389  1.00  0.00     0.031 C 
ENDROOT
BRANCH   5   8
ATOM      8  C   UNL     1      23.100   3.913  24.772  1.00  0.00    -0.077 C 
ATOM      9  C   UNL     1      21.944   4.529  24.476  1.00  0.00     0.008 C 
ATOM     10  C   UNL     1      23.061   2.663  25.614  1.00  0.00     0.039 C 
ENDBRANCH   5   8
TORSDOF 1
ENDMDL
MODEL 5
REMARK VINA RESULT:    -3.548      3.925      6.650
REMARK INTER + INTRA:          -3.911
REMARK INTER:                  -3.757
REMARK INTRA:                  -0.154
REMARK UNBOUND:                -0.156
REMARK SMILES C=C(C)[C@H]1CC=C(C)CC1
REMARK SMILES IDX 8 1 7 2 6 3 5 4 4 5 10 6 9 7 2 8 1 9 3 10
REMARK H PARENT
REMARK Flexibility Score: inf
ROOT
ATOM      1  C   UNL     1      16.843  -6.826  27.469  1.00  0.00     0.039 C 
ATOM      2  C   UNL     1      16.472  -7.806  26.392  1.00  0.00    -0.077 C 
ATOM      3  C   UNL     1      16.284  -7.385  25.130  1.00  0.00    -0.027 C 
ATOM      4  C   UNL     1      15.963  -8.388  24.057  1.00  0.00     0.035 C 
ATOM      5  C   UNL     1      16.909  -9.609  24.167  1.00  0.00     0.018 C 
ATOM      6  C   UNL     1      17.110 -10.112  25.636  1.00  0.00     0.013 C 
ATOM      7  C   UNL     1      16.345  -9.283  26.686  1.00  0.00     0.031 C 
ENDROOT
BRANCH   5   8
ATOM      8  C   UNL     1      16.452 -10.730  23.243  1.00  0.00    -0.077 C 
ATOM      9  C   UNL     1      17.086 -11.914  23.227  1.00  0.00     0.008 C 
ATOM     10  C   UNL     1      15.273 -10.528  22.326  1.00  0.00     0.039 C 
ENDBRANCH   5   8
TORSDOF 1
ENDMDL
MODEL 6
REMARK VINA RESULT:    -3.539      7.650     10.244
REMARK INTER + INTRA:          -3.902
REMARK INTER:                  -3.738
REMARK INTRA:                  -0.164
REMARK UNBOUND:                -0.156
REMARK SMILES C=C(C)[C@H]1CC=C(C)CC1
REMARK SMILES IDX 8 1 7 2 6 3 5 4 4 5 10 6 9 7 2 8 1 9 3 10
REMARK H PARENT
REMARK Flexibility Score: inf
ROOT
ATOM      1  C   UNL     1      23.259   0.823  28.793  1.00  0.00     0.039 C 
ATOM      2  C   UNL     1      23.505   1.904  27.778  1.00  0.00    -0.077 C 
ATOM      3  C   UNL     1      24.760   2.271  27.471  1.00  0.00    -0.027 C 
ATOM      4  C   UNL     1      24.985   3.318  26.416  1.00  0.00     0.035 C 
ATOM      5  C   UNL     1      24.105   3.027  25.176  1.00  0.00     0.018 C 
ATOM      6  C   UNL     1      22.637   2.619  25.535  1.00  0.00     0.013 C 
ATOM      7  C   UNL     1      22.360   2.570  27.050  1.00  0.00     0.031 C 
ENDROOT
BRANCH   5   8
ATOM      8  C   UNL     1      24.147   4.195  24.199  1.00  0.00    -0.077 C 
ATOM      9  C   UNL     1      24.821   4.102  23.041  1.00  0.00     0.008 C 
ATOM     10  C   UNL     1      23.426   5.479  24.517  1.00  0.00     0.039 C 
ENDBRANCH   5   8
TORSDOF 1
ENDMDL
MODEL 7
REMARK VINA RESULT:    -3.538      2.968      6.010
REMARK INTER + INTRA:          -3.901
REMARK INTER:                  -3.735
REMARK INTRA:                  -0.167
REMARK UNBOUND:                -0.156
REMARK SMILES C=C(C)[C@H]1CC=C(C)CC1
REMARK SMILES IDX 8 1 7 2 6 3 5 4 4 5 10 6 9 7 2 8 1 9 3 10
REMARK H PARENT
REMARK Flexibility Score: inf
ROOT
ATOM      1  C   UNL     1      17.303 -10.676  23.542  1.00  0.00     0.039 C 
ATOM      2  C   UNL     1      16.710  -9.769  24.583  1.00  0.00    -0.077 C 
ATOM      3  C   UNL     1      16.941  -9.993  25.887  1.00  0.00    -0.027 C 
ATOM      4  C   UNL     1      16.381  -9.044  26.910  1.00  0.00     0.035 C 
ATOM      5  C   UNL     1      16.639  -7.579  26.479  1.00  0.00     0.018 C 
ATOM      6  C   UNL     1      16.350  -7.315  24.963  1.00  0.00     0.013 C 
ATOM      7  C   UNL     1      15.883  -8.565  24.193  1.00  0.00     0.031 C 
ENDROOT
BRANCH   5   8
ATOM      8  C   UNL     1      15.882  -6.611  27.378  1.00  0.00    -0.077 C 
ATOM      9  C   UNL     1      14.580  -6.798  27.652  1.00  0.00     0.008 C 
ATOM     10  C   UNL     1      16.585  -5.422  27.979  1.00  0.00     0.039 C 
ENDBRANCH   5   8
TORSDOF 1
ENDMDL
MODEL 8
REMARK VINA RESULT:    -3.439      0.966      4.355
REMARK INTER + INTRA:          -3.796
REMARK INTER:                  -3.638
REMARK INTRA:                  -0.159
REMARK UNBOUND:                -0.156
REMARK SMILES C=C(C)[C@H]1CC=C(C)CC1
REMARK SMILES IDX 8 1 7 2 6 3 5 4 4 5 10 6 9 7 2 8 1 9 3 10
REMARK H PARENT
REMARK Flexibility Score: inf
ROOT
ATOM      1  C   UNL     1      16.475  -6.405  27.197  1.00  0.00     0.039 C 
ATOM      2  C   UNL     1      17.482  -5.546  27.910  1.00  0.00    -0.077 C 
ATOM      3  C   UNL     1      18.769  -5.552  27.525  1.00  0.00    -0.027 C 
ATOM      4  C   UNL     1      19.750  -4.648  28.218  1.00  0.00     0.035 C 
ATOM      5  C   UNL     1      19.155  -3.226  28.365  1.00  0.00     0.018 C 
ATOM      6  C   UNL     1      17.661  -3.220  28.834  1.00  0.00     0.013 C 
ATOM      7  C   UNL     1      17.070  -4.628  29.038  1.00  0.00     0.031 C 
ENDROOT
BRANCH   5   8
ATOM      8  C   UNL     1      20.033  -2.364  29.263  1.00  0.00    -0.077 C 
ATOM      9  C   UNL     1      21.354  -2.258  29.039  1.00  0.00     0.008 C 
ATOM     10  C   UNL     1      19.432  -1.612  30.422  1.00  0.00     0.039 C 
ENDBRANCH   5   8
TORSDOF 1
ENDMDL
MODEL 9
REMARK VINA RESULT:    -3.431      2.598      5.968
REMARK INTER + INTRA:          -3.787
REMARK INTER:                  -3.622
REMARK INTRA:                  -0.165
REMARK UNBOUND:                -0.156
REMARK SMILES C=C(C)[C@H]1CC=C(C)CC1
REMARK SMILES IDX 8 1 7 2 6 3 5 4 4 5 10 6 9 7 2 8 1 9 3 10
REMARK H PARENT
REMARK Flexibility Score: inf
ROOT
ATOM      1  C   UNL     1      16.000 -10.883  24.360  1.00  0.00     0.039 C 
ATOM      2  C   UNL     1      16.380  -9.596  25.037  1.00  0.00    -0.077 C 
ATOM      3  C   UNL     1      16.068  -8.418  24.473  1.00  0.00    -0.027 C 
ATOM      4  C   UNL     1      16.412  -7.142  25.191  1.00  0.00     0.035 C 
ATOM      5  C   UNL     1      16.006  -7.241  26.682  1.00  0.00     0.018 C 
ATOM      6  C   UNL     1      16.389  -8.607  27.343  1.00  0.00     0.013 C 
ATOM      7  C   UNL     1      17.077  -9.592  26.378  1.00  0.00     0.031 C 
ENDROOT
BRANCH   5   8
ATOM      8  C   UNL     1      16.552  -6.057  27.469  1.00  0.00    -0.077 C 
ATOM      9  C   UNL     1      17.871  -5.919  27.680  1.00  0.00     0.008 C 
ATOM     10  C   UNL     1      15.616  -5.016  28.027  1.00  0.00     0.039 C 
ENDBRANCH   5   8
TORSDOF 1
ENDMDL
