MODEL 1
REMARK VINA RESULT:    -5.193      0.000      0.000
REMARK INTER + INTRA:          -6.327
REMARK INTER:                  -6.256
REMARK INTRA:                  -0.071
REMARK UNBOUND:                -0.071
REMARK SMILES CC[C@H](C)[C@H]([NH3+])C(=O)[O-]
REMARK SMILES IDX 3 1 4 2 5 3 6 4 7 8 8 9 9 10 2 11 1 12
REMARK H PARENT 6 5 6 6 6 7
REMARK Flexibility Score: inf
ROOT
ATOM      1  C   UNL     1      21.082  70.407   0.327  1.00  0.00     0.050 C 
ATOM      2  C   UNL     1      22.075  69.627  -0.557  1.00  0.00     0.014 C 
ENDROOT
BRANCH   1   3
ATOM      3  C   UNL     1      19.636  69.841   0.165  1.00  0.00     0.230 C 
BRANCH   3   4
ATOM      4  N   UNL     1      18.692  70.456   1.107  1.00  0.00    -0.350 N 
ATOM      5  H   UNL     1      17.759  70.581   0.649  1.00  0.00     0.345 HD
ATOM      6  H   UNL     1      19.023  71.406   1.388  1.00  0.00     0.345 HD
ATOM      7  H   UNL     1      18.572  69.856   1.956  1.00  0.00     0.345 HD
ENDBRANCH   3   4
BRANCH   3   8
ATOM      8  C   UNL     1      19.615  68.343   0.357  1.00  0.00     0.099 C 
ATOM      9  O   UNL     1      19.232  67.590  -0.575  1.00  0.00    -0.544 OA
ATOM     10  O   UNL     1      20.020  67.788   1.565  1.00  0.00    -0.544 OA
ENDBRANCH   3   8
ENDBRANCH   1   3
BRANCH   1  11
ATOM     11  C   UNL     1      21.170  71.924  -0.018  1.00  0.00     0.006 C 
ATOM     12  C   UNL     1      21.794  72.180  -1.392  1.00  0.00     0.004 C 
ENDBRANCH   1  11
TORSDOF 4
ENDMDL
MODEL 2
REMARK VINA RESULT:    -5.192      3.138      4.190
REMARK INTER + INTRA:          -6.325
REMARK INTER:                  -6.253
REMARK INTRA:                  -0.072
REMARK UNBOUND:                -0.071
REMARK SMILES CC[C@H](C)[C@H]([NH3+])C(=O)[O-]
REMARK SMILES IDX 3 1 4 2 5 3 6 4 7 8 8 9 9 10 2 11 1 12
REMARK H PARENT 6 5 6 6 6 7
REMARK Flexibility Score: inf
ROOT
ATOM      1  C   UNL     1      20.618  69.293  -0.145  1.00  0.00     0.050 C 
ATOM      2  C   UNL     1      19.720  68.294  -0.902  1.00  0.00     0.014 C 
ENDROOT
BRANCH   1   3
ATOM      3  C   UNL     1      21.531  70.077  -1.141  1.00  0.00     0.230 C 
BRANCH   3   4
ATOM      4  N   UNL     1      22.922  69.603  -1.107  1.00  0.00    -0.350 N 
ATOM      5  H   UNL     1      23.051  68.934  -0.313  1.00  0.00     0.345 HD
ATOM      6  H   UNL     1      23.576  70.401  -0.944  1.00  0.00     0.345 HD
ATOM      7  H   UNL     1      23.169  69.117  -2.001  1.00  0.00     0.345 HD
ENDBRANCH   3   4
BRANCH   3   8
ATOM      8  C   UNL     1      21.510  71.557  -0.846  1.00  0.00     0.099 C 
ATOM      9  O   UNL     1      21.078  71.978   0.258  1.00  0.00    -0.544 OA
ATOM     10  O   UNL     1      21.970  72.466  -1.793  1.00  0.00    -0.544 OA
ENDBRANCH   3   8
ENDBRANCH   1   3
BRANCH   1  11
ATOM     11  C   UNL     1      21.437  68.529   0.937  1.00  0.00     0.006 C 
ATOM     12  C   UNL     1      20.545  67.821   1.960  1.00  0.00     0.004 C 
ENDBRANCH   1  11
TORSDOF 4
ENDMDL
MODEL 3
REMARK VINA RESULT:    -5.000      2.748      4.027
REMARK INTER + INTRA:          -6.094
REMARK INTER:                  -6.039
REMARK INTRA:                  -0.055
REMARK UNBOUND:                -0.071
REMARK SMILES CC[C@H](C)[C@H]([NH3+])C(=O)[O-]
REMARK SMILES IDX 3 1 4 2 5 3 6 4 7 8 8 9 9 10 2 11 1 12
REMARK H PARENT 6 5 6 6 6 7
REMARK Flexibility Score: inf
ROOT
ATOM      1  C   UNL     1      20.726  69.013   1.163  1.00  0.00     0.050 C 
ATOM      2  C   UNL     1      19.326  69.143   0.531  1.00  0.00     0.014 C 
ENDROOT
BRANCH   1   3
ATOM      3  C   UNL     1      21.825  68.921   0.057  1.00  0.00     0.230 C 
BRANCH   3   4
ATOM      4  N   UNL     1      23.180  69.037   0.612  1.00  0.00    -0.350 N 
ATOM      5  H   UNL     1      23.882  69.083  -0.163  1.00  0.00     0.345 HD
ATOM      6  H   UNL     1      23.413  68.194   1.185  1.00  0.00     0.345 HD
ATOM      7  H   UNL     1      23.267  69.899   1.198  1.00  0.00     0.345 HD
ENDBRANCH   3   4
BRANCH   3   8
ATOM      8  C   UNL     1      21.631  69.991  -0.990  1.00  0.00     0.099 C 
ATOM      9  O   UNL     1      21.376  69.674  -2.181  1.00  0.00    -0.544 OA
ATOM     10  O   UNL     1      21.732  71.334  -0.645  1.00  0.00    -0.544 OA
ENDBRANCH   3   8
ENDBRANCH   1   3
BRANCH   1  11
ATOM     11  C   UNL     1      20.743  67.786   2.123  1.00  0.00     0.006 C 
ATOM     12  C   UNL     1      19.797  66.671   1.671  1.00  0.00     0.004 C 
ENDBRANCH   1  11
TORSDOF 4
ENDMDL
MODEL 4
REMARK VINA RESULT:    -4.975      1.730      1.831
REMARK INTER + INTRA:          -6.064
REMARK INTER:                  -5.911
REMARK INTRA:                  -0.153
REMARK UNBOUND:                -0.071
REMARK SMILES CC[C@H](C)[C@H]([NH3+])C(=O)[O-]
REMARK SMILES IDX 3 1 4 2 5 3 6 4 7 8 8 9 9 10 2 11 1 12
REMARK H PARENT 6 5 6 6 6 7
REMARK Flexibility Score: inf
ROOT
ATOM      1  C   UNL     1      21.585  69.667   0.291  1.00  0.00     0.050 C 
ATOM      2  C   UNL     1      22.931  68.937   0.477  1.00  0.00     0.014 C 
ENDROOT
BRANCH   1   3
ATOM      3  C   UNL     1      20.463  68.659  -0.117  1.00  0.00     0.230 C 
BRANCH   3   4
ATOM      4  N   UNL     1      20.265  68.613  -1.572  1.00  0.00    -0.350 N 
ATOM      5  H   UNL     1      20.522  67.667  -1.938  1.00  0.00     0.345 HD
ATOM      6  H   UNL     1      20.889  69.303  -2.048  1.00  0.00     0.345 HD
ATOM      7  H   UNL     1      19.267  68.809  -1.816  1.00  0.00     0.345 HD
ENDBRANCH   3   4
BRANCH   3   8
ATOM      8  C   UNL     1      19.153  69.009   0.545  1.00  0.00     0.099 C 
ATOM      9  O   UNL     1      18.065  68.648   0.027  1.00  0.00    -0.544 OA
ATOM     10  O   UNL     1      19.141  69.731   1.734  1.00  0.00    -0.544 OA
ENDBRANCH   3   8
ENDBRANCH   1   3
BRANCH   1  11
ATOM     11  C   UNL     1      21.763  70.814  -0.748  1.00  0.00     0.006 C 
ATOM     12  C   UNL     1      21.297  72.170  -0.214  1.00  0.00     0.004 C 
ENDBRANCH   1  11
TORSDOF 4
ENDMDL
MODEL 5
REMARK VINA RESULT:    -4.822      2.270      3.705
REMARK INTER + INTRA:          -5.879
REMARK INTER:                  -6.001
REMARK INTRA:                   0.122
REMARK UNBOUND:                -0.071
REMARK SMILES CC[C@H](C)[C@H]([NH3+])C(=O)[O-]
REMARK SMILES IDX 3 1 4 2 5 3 6 4 7 8 8 9 9 10 2 11 1 12
REMARK H PARENT 6 5 6 6 6 7
REMARK Flexibility Score: inf
ROOT
ATOM      1  C   UNL     1      20.325  69.703   1.308  1.00  0.00     0.050 C 
ATOM      2  C   UNL     1      19.015  70.375   0.851  1.00  0.00     0.014 C 
ENDROOT
BRANCH   1   3
ATOM      3  C   UNL     1      21.560  70.399   0.651  1.00  0.00     0.230 C 
BRANCH   3   4
ATOM      4  N   UNL     1      21.194  71.651  -0.025  1.00  0.00    -0.350 N 
ATOM      5  H   UNL     1      20.903  72.367   0.680  1.00  0.00     0.345 HD
ATOM      6  H   UNL     1      20.377  71.498  -0.660  1.00  0.00     0.345 HD
ATOM      7  H   UNL     1      22.003  72.026  -0.572  1.00  0.00     0.345 HD
ENDBRANCH   3   4
BRANCH   3   8
ATOM      8  C   UNL     1      22.235  69.484  -0.341  1.00  0.00     0.099 C 
ATOM      9  O   UNL     1      23.153  68.710   0.033  1.00  0.00    -0.544 OA
ATOM     10  O   UNL     1      21.844  69.490  -1.676  1.00  0.00    -0.544 OA
ENDBRANCH   3   8
ENDBRANCH   1   3
BRANCH   1  11
ATOM     11  C   UNL     1      20.260  68.180   0.987  1.00  0.00     0.006 C 
ATOM     12  C   UNL     1      20.580  67.307   2.202  1.00  0.00     0.004 C 
ENDBRANCH   1  11
TORSDOF 4
ENDMDL
MODEL 6
REMARK VINA RESULT:    -4.803      1.605      2.224
REMARK INTER + INTRA:          -5.856
REMARK INTER:                  -5.783
REMARK INTRA:                  -0.073
REMARK UNBOUND:                -0.071
REMARK SMILES CC[C@H](C)[C@H]([NH3+])C(=O)[O-]
REMARK SMILES IDX 3 1 4 2 5 3 6 4 7 8 8 9 9 10 2 11 1 12
REMARK H PARENT 6 5 6 6 6 7
REMARK Flexibility Score: inf
ROOT
ATOM      1  C   UNL     1      20.162  70.146   0.279  1.00  0.00     0.050 C 
ATOM      2  C   UNL     1      18.860  70.666   0.920  1.00  0.00     0.014 C 
ENDROOT
BRANCH   1   3
ATOM      3  C   UNL     1      20.687  68.887   1.041  1.00  0.00     0.230 C 
BRANCH   3   4
ATOM      4  N   UNL     1      22.092  68.594   0.724  1.00  0.00    -0.350 N 
ATOM      5  H   UNL     1      22.306  68.890  -0.256  1.00  0.00     0.345 HD
ATOM      6  H   UNL     1      22.272  67.566   0.778  1.00  0.00     0.345 HD
ATOM      7  H   UNL     1      22.732  69.101   1.377  1.00  0.00     0.345 HD
ENDBRANCH   3   4
BRANCH   3   8
ATOM      8  C   UNL     1      19.849  67.672   0.724  1.00  0.00     0.099 C 
ATOM      9  O   UNL     1      19.709  66.757   1.577  1.00  0.00    -0.544 OA
ATOM     10  O   UNL     1      19.224  67.557  -0.513  1.00  0.00    -0.544 OA
ENDBRANCH   3   8
ENDBRANCH   1   3
BRANCH   1  11
ATOM     11  C   UNL     1      21.211  71.297   0.241  1.00  0.00     0.006 C 
ATOM     12  C   UNL     1      21.683  71.616  -1.180  1.00  0.00     0.004 C 
ENDBRANCH   1  11
TORSDOF 4
ENDMDL
MODEL 7
REMARK VINA RESULT:    -4.790      2.326      3.448
REMARK INTER + INTRA:          -5.841
REMARK INTER:                  -5.688
REMARK INTRA:                  -0.152
REMARK UNBOUND:                -0.071
REMARK SMILES CC[C@H](C)[C@H]([NH3+])C(=O)[O-]
REMARK SMILES IDX 3 1 4 2 5 3 6 4 7 8 8 9 9 10 2 11 1 12
REMARK H PARENT 6 5 6 6 6 7
REMARK Flexibility Score: inf
ROOT
ATOM      1  C   UNL     1      20.479  68.494   0.702  1.00  0.00     0.050 C 
ATOM      2  C   UNL     1      20.527  67.644   1.988  1.00  0.00     0.014 C 
ENDROOT
BRANCH   1   3
ATOM      3  C   UNL     1      20.278  70.005   1.047  1.00  0.00     0.230 C 
BRANCH   3   4
ATOM      4  N   UNL     1      18.879  70.426   0.887  1.00  0.00    -0.350 N 
ATOM      5  H   UNL     1      18.272  69.592   0.718  1.00  0.00     0.345 HD
ATOM      6  H   UNL     1      18.779  71.051   0.054  1.00  0.00     0.345 HD
ATOM      7  H   UNL     1      18.541  70.921   1.744  1.00  0.00     0.345 HD
ENDBRANCH   3   4
BRANCH   3   8
ATOM      8  C   UNL     1      21.156  70.880   0.187  1.00  0.00     0.099 C 
ATOM      9  O   UNL     1      20.914  72.110   0.078  1.00  0.00    -0.544 OA
ATOM     10  O   UNL     1      22.240  70.332  -0.490  1.00  0.00    -0.544 OA
ENDBRANCH   3   8
ENDBRANCH   1   3
BRANCH   1  11
ATOM     11  C   UNL     1      19.364  67.944  -0.236  1.00  0.00     0.006 C 
ATOM     12  C   UNL     1      19.734  68.049  -1.717  1.00  0.00     0.004 C 
ENDBRANCH   1  11
TORSDOF 4
ENDMDL
MODEL 8
REMARK VINA RESULT:    -4.790      1.566      2.115
REMARK INTER + INTRA:          -5.841
REMARK INTER:                  -5.851
REMARK INTRA:                   0.011
REMARK UNBOUND:                -0.071
REMARK SMILES CC[C@H](C)[C@H]([NH3+])C(=O)[O-]
REMARK SMILES IDX 3 1 4 2 5 3 6 4 7 8 8 9 9 10 2 11 1 12
REMARK H PARENT 6 5 6 6 6 7
REMARK Flexibility Score: inf
ROOT
ATOM      1  C   UNL     1      20.858  69.249   1.261  1.00  0.00     0.050 C 
ATOM      2  C   UNL     1      20.493  67.878   1.866  1.00  0.00     0.014 C 
ENDROOT
BRANCH   1   3
ATOM      3  C   UNL     1      19.698  69.781   0.359  1.00  0.00     0.230 C 
BRANCH   3   4
ATOM      4  N   UNL     1      18.693  70.523   1.133  1.00  0.00    -0.350 N 
ATOM      5  H   UNL     1      17.857  69.919   1.304  1.00  0.00     0.345 HD
ATOM      6  H   UNL     1      18.363  71.357   0.596  1.00  0.00     0.345 HD
ATOM      7  H   UNL     1      19.085  70.826   2.054  1.00  0.00     0.345 HD
ENDBRANCH   3   4
BRANCH   3   8
ATOM      8  C   UNL     1      19.017  68.649  -0.372  1.00  0.00     0.099 C 
ATOM      9  O   UNL     1      17.838  68.324  -0.080  1.00  0.00    -0.544 OA
ATOM     10  O   UNL     1      19.691  67.959  -1.374  1.00  0.00    -0.544 OA
ENDBRANCH   3   8
ENDBRANCH   1   3
BRANCH   1  11
ATOM     11  C   UNL     1      22.205  69.126   0.487  1.00  0.00     0.006 C 
ATOM     12  C   UNL     1      22.365  70.199  -0.592  1.00  0.00     0.004 C 
ENDBRANCH   1  11
TORSDOF 4
ENDMDL
MODEL 9
REMARK VINA RESULT:    -4.766      2.481      3.648
REMARK INTER + INTRA:          -5.812
REMARK INTER:                  -5.842
REMARK INTRA:                   0.030
REMARK UNBOUND:                -0.071
REMARK SMILES CC[C@H](C)[C@H]([NH3+])C(=O)[O-]
REMARK SMILES IDX 3 1 4 2 5 3 6 4 7 8 8 9 9 10 2 11 1 12
REMARK H PARENT 6 5 6 6 6 7
REMARK Flexibility Score: inf
ROOT
ATOM      1  C   UNL     1      21.434  68.659   0.690  1.00  0.00     0.050 C 
ATOM      2  C   UNL     1      22.973  68.653   0.783  1.00  0.00     0.014 C 
ENDROOT
BRANCH   1   3
ATOM      3  C   UNL     1      20.901  70.112   0.475  1.00  0.00     0.230 C 
BRANCH   3   4
ATOM      4  N   UNL     1      19.433  70.173   0.512  1.00  0.00    -0.350 N 
ATOM      5  H   UNL     1      19.101  70.177   1.504  1.00  0.00     0.345 HD
ATOM      6  H   UNL     1      19.021  69.329   0.054  1.00  0.00     0.345 HD
ATOM      7  H   UNL     1      19.088  71.039   0.037  1.00  0.00     0.345 HD
ENDBRANCH   3   4
BRANCH   3   8
ATOM      8  C   UNL     1      21.383  70.678  -0.839  1.00  0.00     0.099 C 
ATOM      9  O   UNL     1      21.524  69.927  -1.839  1.00  0.00    -0.544 OA
ATOM     10  O   UNL     1      21.673  72.033  -0.953  1.00  0.00    -0.544 OA
ENDBRANCH   3   8
ENDBRANCH   1   3
BRANCH   1  11
ATOM     11  C   UNL     1      20.840  67.990   1.965  1.00  0.00     0.006 C 
ATOM     12  C   UNL     1      19.870  66.853   1.637  1.00  0.00     0.004 C 
ENDBRANCH   1  11
TORSDOF 4
ENDMDL
