MODEL 1
REMARK VINA RESULT:     6.443      0.000      0.000
REMARK INTER + INTRA:          14.474
REMARK INTER:                  13.977
REMARK INTRA:                   0.497
REMARK UNBOUND:                 0.497
REMARK SMILES CCCCCCCCCCCCCCCCCCCCCC(=O)[O-]
REMARK SMILES IDX 12 1 11 2 10 3 9 4 8 5 7 6 6 7 5 8 4 9 3 10 2 11 1 12 13 13
REMARK SMILES IDX 14 14 15 15 16 16 17 17 18 18 19 19 20 20 21 21 22 22 23 23
REMARK SMILES IDX 24 24
REMARK H PARENT
REMARK Flexibility Score: inf
ROOT
ATOM      1  C   UNL     1       7.759 -52.273   9.598  1.00  0.00     0.000 C 
ENDROOT
BRANCH   1   2
ATOM      2  C   UNL     1       7.208 -51.892  10.981  1.00  0.00     0.000 C 
BRANCH   2   3
ATOM      3  C   UNL     1       5.705 -52.181  11.123  1.00  0.00     0.000 C 
BRANCH   3   4
ATOM      4  C   UNL     1       4.838 -50.932  10.907  1.00  0.00    -0.000 C 
BRANCH   4   5
ATOM      5  C   UNL     1       3.444 -51.313  10.389  1.00  0.00    -0.000 C 
BRANCH   5   6
ATOM      6  C   UNL     1       2.858 -50.196   9.513  1.00  0.00    -0.000 C 
BRANCH   6   7
ATOM      7  C   UNL     1       2.230 -49.063  10.339  1.00  0.00    -0.000 C 
BRANCH   7   8
ATOM      8  C   UNL     1       0.839 -49.429  10.887  1.00  0.00    -0.000 C 
BRANCH   8   9
ATOM      9  C   UNL     1      -0.281 -49.230   9.851  1.00  0.00    -0.000 C 
BRANCH   9  10
ATOM     10  C   UNL     1      -0.875 -50.533   9.276  1.00  0.00    -0.000 C 
BRANCH  10  11
ATOM     11  C   UNL     1      -0.097 -51.813   9.628  1.00  0.00    -0.003 C 
ATOM     12  C   UNL     1      -0.908 -52.788  10.481  1.00  0.00     0.004 C 
ENDBRANCH  10  11
ENDBRANCH   9  10
ENDBRANCH   8   9
ENDBRANCH   7   8
ENDBRANCH   6   7
ENDBRANCH   5   6
ENDBRANCH   4   5
ENDBRANCH   3   4
ENDBRANCH   2   3
ENDBRANCH   1   2
BRANCH   1  13
ATOM     13  C   UNL     1       7.454 -53.731   9.213  1.00  0.00     0.000 C 
BRANCH  13  14
ATOM     14  C   UNL     1       6.374 -54.394  10.096  1.00  0.00     0.000 C 
BRANCH  14  15
ATOM     15  C   UNL     1       4.984 -54.356   9.436  1.00  0.00     0.000 C 
BRANCH  15  16
ATOM     16  C   UNL     1       3.887 -54.956  10.329  1.00  0.00     0.000 C 
BRANCH  16  17
ATOM     17  C   UNL     1       4.255 -56.348  10.863  1.00  0.00     0.000 C 
BRANCH  17  18
ATOM     18  C   UNL     1       3.159 -57.371  10.536  1.00  0.00     0.000 C 
BRANCH  18  19
ATOM     19  C   UNL     1       3.771 -58.702  10.076  1.00  0.00     0.000 C 
BRANCH  19  20
ATOM     20  C   UNL     1       2.974 -59.927  10.563  1.00  0.00     0.006 C 
BRANCH  20  21
ATOM     21  C   UNL     1       1.564 -59.600  11.082  1.00  0.00     0.053 C 
BRANCH  21  22
ATOM     22  C   UNL     1       0.507 -59.872  10.056  1.00  0.00     0.041 C 
ATOM     23  O   UNL     1      -0.660 -59.427  10.214  1.00  0.00    -0.550 OA
ATOM     24  O   UNL     1       0.821 -60.588   8.907  1.00  0.00    -0.550 OA
ENDBRANCH  21  22
ENDBRANCH  20  21
ENDBRANCH  19  20
ENDBRANCH  18  19
ENDBRANCH  17  18
ENDBRANCH  16  17
ENDBRANCH  15  16
ENDBRANCH  14  15
ENDBRANCH  13  14
ENDBRANCH   1  13
TORSDOF 20
ENDMDL
