MODEL 1
REMARK VINA RESULT:    -3.260      0.000      0.000
REMARK INTER + INTRA:          -5.224
REMARK INTER:                  -4.976
REMARK INTRA:                  -0.248
REMARK UNBOUND:                -0.248
REMARK SMILES CC1=CCC[C@H](C)C(=O)C[C@@H](C(C)C)C(=O)C1
REMARK SMILES IDX 8 1 9 2 6 3 7 4 5 5 4 6 3 7 2 8 1 9 10 11 11 12 15 13 16 14
REMARK SMILES IDX 17 15 12 17 13 18 14 19
REMARK H PARENT
REMARK Flexibility Score: 70.00
ROOT
ATOM      1  C   UNL     1     -15.211   3.985  28.688  1.00  0.00     0.136 C 
ATOM      2  O   UNL     1     -15.534   2.970  29.290  1.00  0.00    -0.299 OA
ENDROOT
BRANCH   1   3
ATOM      3  C   UNL     1     -14.426   3.889  27.391  1.00  0.00     0.053 C 
ATOM      4  C   UNL     1     -15.332   3.622  26.178  1.00  0.00     0.016 C 
BRANCH   3   5
ATOM      5  C   UNL     1     -13.540   5.132  27.176  1.00  0.00     0.015 C 
BRANCH   5   6
ATOM      6  C   UNL     1     -13.883   5.927  25.901  1.00  0.00     0.028 C 
BRANCH   6   7
ATOM      7  C   UNL     1     -13.938   7.405  26.189  1.00  0.00    -0.028 C 
ATOM      8  C   UNL     1     -15.056   8.080  26.548  1.00  0.00    -0.070 CG0
ATOM      9  C   UNL     1     -14.926   9.549  26.859  1.00  0.00     0.039 C 
ATOM     10  G   UNL     1     -16.428   7.427  26.631  1.00  0.00     0.000 G0
ENDBRANCH   6   7
ENDBRANCH   5   6
ENDBRANCH   3   5
ENDBRANCH   1   3
BRANCH   1  11
ATOM     11  C   UNL     1     -15.608   5.327  29.255  1.00  0.00     0.087 C 
BRANCH  11  12
ATOM     12  C   UNL     1     -16.965   5.823  28.688  1.00  0.00     0.066 C 
BRANCH  12  13
ATOM     13  C   UNL     1     -16.843   7.225  28.111  1.00  0.00     0.140 C 
ATOM     14  O   UNL     1     -17.151   8.192  28.792  1.00  0.00    -0.299 OA
BRANCH  13  15
ATOM     15  C   UNL     1     -16.426   7.437  26.675  1.00  0.00     0.106 CG0
ATOM     16  G   UNL     1     -15.053   8.080  26.557  1.00  0.00     0.000 G0
ENDBRANCH  13  15
ENDBRANCH  12  13
BRANCH  12  17
ATOM     17  C   UNL     1     -18.136   5.749  29.723  1.00  0.00    -0.006 C 
ATOM     18  C   UNL     1     -19.089   4.583  29.414  1.00  0.00     0.008 C 
ATOM     19  C   UNL     1     -17.672   5.669  31.189  1.00  0.00     0.008 C 
ENDBRANCH  12  17
ENDBRANCH  11  12
ENDBRANCH   1  11
TORSDOF 1
ENDMDL
MODEL 2
REMARK VINA RESULT:    -3.233      6.425      7.314
REMARK INTER + INTRA:          -5.181
REMARK INTER:                  -5.167
REMARK INTRA:                  -0.015
REMARK UNBOUND:                -0.248
REMARK SMILES CC1=CCC[C@H](C)C(=O)C[C@@H](C(C)C)C(=O)C1
REMARK SMILES IDX 8 1 9 2 6 3 7 4 5 5 4 6 3 7 2 8 1 9 10 11 11 12 15 13 16 14
REMARK SMILES IDX 17 15 12 17 13 18 14 19
REMARK H PARENT
REMARK Flexibility Score: 70.00
ROOT
ATOM      1  C   UNL     1     -15.266  -0.197  30.397  1.00  0.00     0.136 C 
ATOM      2  O   UNL     1     -15.009  -0.913  31.356  1.00  0.00    -0.299 OA
ENDROOT
BRANCH   1   3
ATOM      3  C   UNL     1     -14.217   0.055  29.328  1.00  0.00     0.053 C 
ATOM      4  C   UNL     1     -13.220  -1.108  29.201  1.00  0.00     0.016 C 
BRANCH   3   5
ATOM      5  C   UNL     1     -14.867   0.396  27.972  1.00  0.00     0.015 C 
BRANCH   5   6
ATOM      6  C   UNL     1     -15.319  -0.840  27.170  1.00  0.00     0.028 C 
BRANCH   6   7
ATOM      7  C   UNL     1     -16.432  -0.484  26.219  1.00  0.00    -0.028 C 
ATOM      8  C   UNL     1     -17.748  -0.704  26.454  1.00  0.00    -0.070 CG0
ATOM      9  C   UNL     1     -18.740  -0.232  25.421  1.00  0.00     0.039 C 
ATOM     10  G   UNL     1     -18.260  -1.416  27.697  1.00  0.00     0.000 G0
ENDBRANCH   6   7
ENDBRANCH   5   6
ENDBRANCH   3   5
ENDBRANCH   1   3
BRANCH   1  11
ATOM     11  C   UNL     1     -16.638   0.425  30.298  1.00  0.00     0.087 C 
BRANCH  11  12
ATOM     12  C   UNL     1     -17.756  -0.643  30.168  1.00  0.00     0.066 C 
BRANCH  12  13
ATOM     13  C   UNL     1     -18.526  -0.481  28.866  1.00  0.00     0.140 C 
ATOM     14  O   UNL     1     -19.400   0.369  28.778  1.00  0.00    -0.299 OA
BRANCH  13  15
ATOM     15  C   UNL     1     -18.285  -1.413  27.702  1.00  0.00     0.106 CG0
ATOM     16  G   UNL     1     -17.733  -0.690  26.482  1.00  0.00     0.000 G0
ENDBRANCH  13  15
ENDBRANCH  12  13
BRANCH  12  17
ATOM     17  C   UNL     1     -18.732  -0.674  31.389  1.00  0.00    -0.006 C 
ATOM     18  C   UNL     1     -19.729  -1.840  31.284  1.00  0.00     0.008 C 
ATOM     19  C   UNL     1     -18.025  -0.713  32.756  1.00  0.00     0.008 C 
ENDBRANCH  12  17
ENDBRANCH  11  12
ENDBRANCH   1  11
TORSDOF 1
ENDMDL
MODEL 3
REMARK VINA RESULT:    -3.192      6.399      8.701
REMARK INTER + INTRA:          -5.120
REMARK INTER:                  -4.898
REMARK INTRA:                  -0.222
REMARK UNBOUND:                -0.248
REMARK SMILES CC1=CCC[C@H](C)C(=O)C[C@@H](C(C)C)C(=O)C1
REMARK SMILES IDX 8 1 9 2 6 3 7 4 5 5 4 6 3 7 2 8 1 9 10 11 11 12 15 13 16 14
REMARK SMILES IDX 17 15 12 17 13 18 14 19
REMARK H PARENT
REMARK Flexibility Score: 70.00
ROOT
ATOM      1  C   UNL     1     -20.438   3.341  34.129  1.00  0.00     0.136 C 
ATOM      2  O   UNL     1     -20.577   4.513  33.807  1.00  0.00    -0.299 OA
ENDROOT
BRANCH   1   3
ATOM      3  C   UNL     1     -21.627   2.396  34.108  1.00  0.00     0.053 C 
ATOM      4  C   UNL     1     -22.739   2.832  35.076  1.00  0.00     0.016 C 
BRANCH   3   5
ATOM      5  C   UNL     1     -22.165   2.200  32.676  1.00  0.00     0.015 C 
BRANCH   5   6
ATOM      6  C   UNL     1     -21.067   1.918  31.633  1.00  0.00     0.028 C 
BRANCH   6   7
ATOM      7  C   UNL     1     -20.492   0.538  31.820  1.00  0.00    -0.028 C 
ATOM      8  C   UNL     1     -19.168   0.249  31.839  1.00  0.00    -0.070 CG0
ATOM      9  C   UNL     1     -18.759  -1.178  32.097  1.00  0.00     0.039 C 
ATOM     10  G   UNL     1     -18.089   1.294  31.596  1.00  0.00     0.000 G0
ENDBRANCH   6   7
ENDBRANCH   5   6
ENDBRANCH   3   5
ENDBRANCH   1   3
BRANCH   1  11
ATOM     11  C   UNL     1     -19.070   2.854  34.542  1.00  0.00     0.087 C 
BRANCH  11  12
ATOM     12  C   UNL     1     -17.999   3.128  33.452  1.00  0.00     0.066 C 
BRANCH  12  13
ATOM     13  C   UNL     1     -17.482   1.830  32.850  1.00  0.00     0.140 C 
ATOM     14  O   UNL     1     -16.532   1.257  33.362  1.00  0.00    -0.299 OA
BRANCH  13  15
ATOM     15  C   UNL     1     -18.072   1.281  31.573  1.00  0.00     0.106 CG0
ATOM     16  G   UNL     1     -19.177   0.268  31.831  1.00  0.00     0.000 G0
ENDBRANCH  13  15
ENDBRANCH  12  13
BRANCH  12  17
ATOM     17  C   UNL     1     -16.815   4.017  33.954  1.00  0.00    -0.006 C 
ATOM     18  C   UNL     1     -16.901   5.443  33.386  1.00  0.00     0.008 C 
ATOM     19  C   UNL     1     -16.677   4.073  35.486  1.00  0.00     0.008 C 
ENDBRANCH  12  17
ENDBRANCH  11  12
ENDBRANCH   1  11
TORSDOF 1
ENDMDL
MODEL 4
REMARK VINA RESULT:    -3.117      5.434      7.387
REMARK INTER + INTRA:          -5.005
REMARK INTER:                  -4.715
REMARK INTRA:                  -0.290
REMARK UNBOUND:                -0.248
REMARK SMILES CC1=CCC[C@H](C)C(=O)C[C@@H](C(C)C)C(=O)C1
REMARK SMILES IDX 8 1 9 2 6 3 7 4 5 5 4 6 3 7 2 8 1 9 10 11 11 12 15 13 16 14
REMARK SMILES IDX 17 15 12 17 13 18 14 19
REMARK H PARENT
REMARK Flexibility Score: 70.00
ROOT
ATOM      1  C   UNL     1     -17.023   2.796  30.009  1.00  0.00     0.136 C 
ATOM      2  O   UNL     1     -15.997   3.408  29.741  1.00  0.00    -0.299 OA
ENDROOT
BRANCH   1   3
ATOM      3  C   UNL     1     -17.363   1.513  29.271  1.00  0.00     0.053 C 
ATOM      4  C   UNL     1     -17.754   1.765  27.807  1.00  0.00     0.016 C 
BRANCH   3   5
ATOM      5  C   UNL     1     -16.223   0.480  29.385  1.00  0.00     0.015 C 
BRANCH   5   6
ATOM      6  C   UNL     1     -16.157  -0.225  30.753  1.00  0.00     0.028 C 
BRANCH   6   7
ATOM      7  C   UNL     1     -17.495  -0.813  31.118  1.00  0.00    -0.028 C 
ATOM      8  C   UNL     1     -18.209  -0.480  32.220  1.00  0.00    -0.070 CG0
ATOM      9  C   UNL     1     -19.561  -1.120  32.407  1.00  0.00     0.039 C 
ATOM     10  G   UNL     1     -17.700   0.490  33.276  1.00  0.00     0.000 G0
ENDBRANCH   6   7
ENDBRANCH   5   6
ENDBRANCH   3   5
ENDBRANCH   1   3
BRANCH   1  11
ATOM     11  C   UNL     1     -17.936   3.337  31.083  1.00  0.00     0.087 C 
BRANCH  11  12
ATOM     12  C   UNL     1     -17.431   2.989  32.509  1.00  0.00     0.066 C 
BRANCH  12  13
ATOM     13  C   UNL     1     -18.262   1.877  33.131  1.00  0.00     0.140 C 
ATOM     14  O   UNL     1     -19.374   2.124  33.576  1.00  0.00    -0.299 OA
BRANCH  13  15
ATOM     15  C   UNL     1     -17.699   0.484  33.288  1.00  0.00     0.106 CG0
ATOM     16  G   UNL     1     -18.195  -0.468  32.210  1.00  0.00     0.000 G0
ENDBRANCH  13  15
ENDBRANCH  12  13
BRANCH  12  17
ATOM     17  C   UNL     1     -17.358   4.226  33.462  1.00  0.00    -0.006 C 
ATOM     18  C   UNL     1     -16.483   3.938  34.693  1.00  0.00     0.008 C 
ATOM     19  C   UNL     1     -16.882   5.519  32.775  1.00  0.00     0.008 C 
ENDBRANCH  12  17
ENDBRANCH  11  12
ENDBRANCH   1  11
TORSDOF 1
ENDMDL
MODEL 5
REMARK VINA RESULT:    -3.086      6.810      8.109
REMARK INTER + INTRA:          -4.957
REMARK INTER:                  -4.897
REMARK INTRA:                  -0.060
REMARK UNBOUND:                -0.248
REMARK SMILES CC1=CCC[C@H](C)C(=O)C[C@@H](C(C)C)C(=O)C1
REMARK SMILES IDX 8 1 9 2 6 3 7 4 5 5 4 6 3 7 2 8 1 9 10 11 11 12 15 13 16 14
REMARK SMILES IDX 17 15 12 17 13 18 14 19
REMARK H PARENT
REMARK Flexibility Score: 70.00
ROOT
ATOM      1  C   UNL     1     -16.755   1.150  32.588  1.00  0.00     0.136 C 
ATOM      2  O   UNL     1     -15.991   0.702  33.433  1.00  0.00    -0.299 OA
ENDROOT
BRANCH   1   3
ATOM      3  C   UNL     1     -17.207   0.280  31.428  1.00  0.00     0.053 C 
ATOM      4  C   UNL     1     -16.076   0.010  30.423  1.00  0.00     0.016 C 
BRANCH   3   5
ATOM      5  C   UNL     1     -17.850  -1.031  31.925  1.00  0.00     0.015 C 
BRANCH   5   6
ATOM      6  C   UNL     1     -19.141  -0.820  32.739  1.00  0.00     0.028 C 
BRANCH   6   7
ATOM      7  C   UNL     1     -20.224  -0.220  31.881  1.00  0.00    -0.028 C 
ATOM      8  C   UNL     1     -20.892   0.923  32.169  1.00  0.00    -0.070 CG0
ATOM      9  C   UNL     1     -21.907   1.419  31.172  1.00  0.00     0.039 C 
ATOM     10  G   UNL     1     -20.673   1.709  33.453  1.00  0.00     0.000 G0
ENDBRANCH   6   7
ENDBRANCH   5   6
ENDBRANCH   3   5
ENDBRANCH   1   3
BRANCH   1  11
ATOM     11  C   UNL     1     -17.239   2.574  32.723  1.00  0.00     0.087 C 
BRANCH  11  12
ATOM     12  C   UNL     1     -18.283   2.731  33.860  1.00  0.00     0.066 C 
BRANCH  12  13
ATOM     13  C   UNL     1     -19.692   2.856  33.301  1.00  0.00     0.140 C 
ATOM     14  O   UNL     1     -20.051   3.903  32.782  1.00  0.00    -0.299 OA
BRANCH  13  15
ATOM     15  C   UNL     1     -20.688   1.732  33.455  1.00  0.00     0.106 CG0
ATOM     16  G   UNL     1     -20.880   0.944  32.167  1.00  0.00     0.000 G0
ENDBRANCH  13  15
ENDBRANCH  12  13
BRANCH  12  17
ATOM     17  C   UNL     1     -17.967   3.912  34.835  1.00  0.00    -0.006 C 
ATOM     18  C   UNL     1     -16.872   3.530  35.846  1.00  0.00     0.008 C 
ATOM     19  C   UNL     1     -17.588   5.226  34.128  1.00  0.00     0.008 C 
ENDBRANCH  12  17
ENDBRANCH  11  12
ENDBRANCH   1  11
TORSDOF 1
ENDMDL
MODEL 6
REMARK VINA RESULT:    -3.043      9.920     11.834
REMARK INTER + INTRA:          -4.891
REMARK INTER:                  -4.750
REMARK INTRA:                  -0.142
REMARK UNBOUND:                -0.248
REMARK SMILES CC1=CCC[C@H](C)C(=O)C[C@@H](C(C)C)C(=O)C1
REMARK SMILES IDX 8 1 9 2 6 3 7 4 5 5 4 6 3 7 2 8 1 9 10 11 11 12 15 13 16 14
REMARK SMILES IDX 17 15 12 17 13 18 14 19
REMARK H PARENT
REMARK Flexibility Score: 70.00
ROOT
ATOM      1  C   UNL     1     -19.627  -3.593  22.218  1.00  0.00     0.136 C 
ATOM      2  O   UNL     1     -19.377  -4.040  23.330  1.00  0.00    -0.299 OA
ENDROOT
BRANCH   1   3
ATOM      3  C   UNL     1     -20.412  -4.425  21.218  1.00  0.00     0.053 C 
ATOM      4  C   UNL     1     -19.959  -5.894  21.195  1.00  0.00     0.016 C 
BRANCH   3   5
ATOM      5  C   UNL     1     -21.931  -4.304  21.454  1.00  0.00     0.015 C 
BRANCH   5   6
ATOM      6  C   UNL     1     -22.706  -3.752  20.242  1.00  0.00     0.028 C 
BRANCH   6   7
ATOM      7  C   UNL     1     -23.441  -2.487  20.605  1.00  0.00    -0.028 C 
ATOM      8  C   UNL     1     -22.930  -1.238  20.487  1.00  0.00    -0.070 CG0
ATOM      9  C   UNL     1     -23.820  -0.074  20.839  1.00  0.00     0.039 C 
ATOM     10  G   UNL     1     -21.504  -0.965  20.034  1.00  0.00     0.000 G0
ENDBRANCH   6   7
ENDBRANCH   5   6
ENDBRANCH   3   5
ENDBRANCH   1   3
BRANCH   1  11
ATOM     11  C   UNL     1     -19.148  -2.206  21.863  1.00  0.00     0.087 C 
BRANCH  11  12
ATOM     12  C   UNL     1     -20.165  -1.111  22.282  1.00  0.00     0.066 C 
BRANCH  12  13
ATOM     13  C   UNL     1     -20.648  -0.317  21.078  1.00  0.00     0.140 C 
ATOM     14  O   UNL     1     -20.405   0.878  21.000  1.00  0.00    -0.299 OA
BRANCH  13  15
ATOM     15  C   UNL     1     -21.499  -0.967  20.013  1.00  0.00     0.106 CG0
ATOM     16  G   UNL     1     -22.922  -1.226  20.485  1.00  0.00     0.000 G0
ENDBRANCH  13  15
ENDBRANCH  12  13
BRANCH  12  17
ATOM     17  C   UNL     1     -19.626  -0.156  23.397  1.00  0.00    -0.006 C 
ATOM     18  C   UNL     1     -20.062  -0.620  24.796  1.00  0.00     0.008 C 
ATOM     19  C   UNL     1     -18.100   0.047  23.365  1.00  0.00     0.008 C 
ENDBRANCH  12  17
ENDBRANCH  11  12
ENDBRANCH   1  11
TORSDOF 1
ENDMDL
MODEL 7
REMARK VINA RESULT:    -3.014      6.584      8.343
REMARK INTER + INTRA:          -4.848
REMARK INTER:                  -4.549
REMARK INTRA:                  -0.300
REMARK UNBOUND:                -0.248
REMARK SMILES CC1=CCC[C@H](C)C(=O)C[C@@H](C(C)C)C(=O)C1
REMARK SMILES IDX 8 1 9 2 6 3 7 4 5 5 4 6 3 7 2 8 1 9 10 11 11 12 15 13 16 14
REMARK SMILES IDX 17 15 12 17 13 18 14 19
REMARK H PARENT
REMARK Flexibility Score: 70.00
ROOT
ATOM      1  C   UNL     1     -18.406   3.021  32.429  1.00  0.00     0.136 C 
ATOM      2  O   UNL     1     -18.510   4.047  33.088  1.00  0.00    -0.299 OA
ENDROOT
BRANCH   1   3
ATOM      3  C   UNL     1     -17.057   2.338  32.284  1.00  0.00     0.053 C 
ATOM      4  C   UNL     1     -16.708   1.466  33.501  1.00  0.00     0.016 C 
BRANCH   3   5
ATOM      5  C   UNL     1     -16.968   1.539  30.969  1.00  0.00     0.015 C 
BRANCH   5   6
ATOM      6  C   UNL     1     -16.778   0.024  31.174  1.00  0.00     0.028 C 
BRANCH   6   7
ATOM      7  C   UNL     1     -17.653  -0.759  30.229  1.00  0.00    -0.028 C 
ATOM      8  C   UNL     1     -18.901  -1.199  30.520  1.00  0.00    -0.070 CG0
ATOM      9  C   UNL     1     -19.667  -1.917  29.439  1.00  0.00     0.039 C 
ATOM     10  G   UNL     1     -19.548  -1.015  31.884  1.00  0.00     0.000 G0
ENDBRANCH   6   7
ENDBRANCH   5   6
ENDBRANCH   3   5
ENDBRANCH   1   3
BRANCH   1  11
ATOM     11  C   UNL     1     -19.638   2.449  31.770  1.00  0.00     0.087 C 
BRANCH  11  12
ATOM     12  C   UNL     1     -20.337   1.387  32.661  1.00  0.00     0.066 C 
BRANCH  12  13
ATOM     13  C   UNL     1     -20.593   0.102  31.889  1.00  0.00     0.140 C 
ATOM     14  O   UNL     1     -21.663  -0.065  31.322  1.00  0.00    -0.299 OA
BRANCH  13  15
ATOM     15  C   UNL     1     -19.575  -1.014  31.883  1.00  0.00     0.106 CG0
ATOM     16  G   UNL     1     -18.913  -1.189  30.524  1.00  0.00     0.000 G0
ENDBRANCH  13  15
ENDBRANCH  12  13
BRANCH  12  17
ATOM     17  C   UNL     1     -21.653   1.905  33.328  1.00  0.00    -0.006 C 
ATOM     18  C   UNL     1     -21.432   2.262  34.808  1.00  0.00     0.008 C 
ATOM     19  C   UNL     1     -22.302   3.094  32.596  1.00  0.00     0.008 C 
ENDBRANCH  12  17
ENDBRANCH  11  12
ENDBRANCH   1  11
TORSDOF 1
ENDMDL
MODEL 8
REMARK VINA RESULT:    -2.943      5.143      7.779
REMARK INTER + INTRA:          -4.739
REMARK INTER:                  -4.862
REMARK INTRA:                   0.122
REMARK UNBOUND:                -0.248
REMARK SMILES CC1=CCC[C@H](C)C(=O)C[C@@H](C(C)C)C(=O)C1
REMARK SMILES IDX 8 1 9 2 6 3 7 4 5 5 4 6 3 7 2 8 1 9 10 11 11 12 15 13 16 14
REMARK SMILES IDX 17 15 12 17 13 18 14 19
REMARK H PARENT
REMARK Flexibility Score: 70.00
ROOT
ATOM      1  C   UNL     1     -16.675   0.391  31.040  1.00  0.00     0.136 C 
ATOM      2  O   UNL     1     -17.098   1.537  31.104  1.00  0.00    -0.299 OA
ENDROOT
BRANCH   1   3
ATOM      3  C   UNL     1     -17.175  -0.665  32.011  1.00  0.00     0.053 C 
ATOM      4  C   UNL     1     -16.785  -0.354  33.466  1.00  0.00     0.016 C 
BRANCH   3   5
ATOM      5  C   UNL     1     -18.694  -0.889  31.866  1.00  0.00     0.015 C 
BRANCH   5   6
ATOM      6  C   UNL     1     -19.094  -1.610  30.564  1.00  0.00     0.028 C 
BRANCH   6   7
ATOM      7  C   UNL     1     -19.620  -0.630  29.548  1.00  0.00    -0.028 C 
ATOM      8  C   UNL     1     -18.987  -0.299  28.397  1.00  0.00    -0.070 CG0
ATOM      9  C   UNL     1     -19.679   0.656  27.458  1.00  0.00     0.039 C 
ATOM     10  G   UNL     1     -17.611  -0.832  28.024  1.00  0.00     0.000 G0
ENDBRANCH   6   7
ENDBRANCH   5   6
ENDBRANCH   3   5
ENDBRANCH   1   3
BRANCH   1  11
ATOM     11  C   UNL     1     -15.655   0.047  29.981  1.00  0.00     0.087 C 
BRANCH  11  12
ATOM     12  C   UNL     1     -15.796   0.944  28.722  1.00  0.00     0.066 C 
BRANCH  12  13
ATOM     13  C   UNL     1     -16.627   0.260  27.648  1.00  0.00     0.140 C 
ATOM     14  O   UNL     1     -16.560   0.644  26.489  1.00  0.00    -0.299 OA
BRANCH  13  15
ATOM     15  C   UNL     1     -17.603  -0.836  28.005  1.00  0.00     0.106 CG0
ATOM     16  G   UNL     1     -18.974  -0.293  28.382  1.00  0.00     0.000 G0
ENDBRANCH  13  15
ENDBRANCH  12  13
BRANCH  12  17
ATOM     17  C   UNL     1     -14.424   1.420  28.142  1.00  0.00    -0.006 C 
ATOM     18  C   UNL     1     -14.216   2.929  28.354  1.00  0.00     0.008 C 
ATOM     19  C   UNL     1     -13.210   0.645  28.686  1.00  0.00     0.008 C 
ENDBRANCH  12  17
ENDBRANCH  11  12
ENDBRANCH   1  11
TORSDOF 1
ENDMDL
MODEL 9
REMARK VINA RESULT:    -2.800      4.789      6.882
REMARK INTER + INTRA:          -4.522
REMARK INTER:                  -4.222
REMARK INTRA:                  -0.300
REMARK UNBOUND:                -0.248
REMARK SMILES CC1=CCC[C@H](C)C(=O)C[C@@H](C(C)C)C(=O)C1
REMARK SMILES IDX 8 1 9 2 6 3 7 4 5 5 4 6 3 7 2 8 1 9 10 11 11 12 15 13 16 14
REMARK SMILES IDX 17 15 12 17 13 18 14 19
REMARK H PARENT
REMARK Flexibility Score: 70.00
ROOT
ATOM      1  C   UNL     1     -16.588  -0.206  30.980  1.00  0.00     0.136 C 
ATOM      2  O   UNL     1     -15.476  -0.653  31.229  1.00  0.00    -0.299 OA
ENDROOT
BRANCH   1   3
ATOM      3  C   UNL     1     -17.476   0.304  32.102  1.00  0.00     0.053 C 
ATOM      4  C   UNL     1     -17.653  -0.731  33.225  1.00  0.00     0.016 C 
BRANCH   3   5
ATOM      5  C   UNL     1     -16.971   1.655  32.650  1.00  0.00     0.015 C 
BRANCH   5   6
ATOM      6  C   UNL     1     -17.659   2.879  32.014  1.00  0.00     0.028 C 
BRANCH   6   7
ATOM      7  C   UNL     1     -19.077   2.553  31.622  1.00  0.00    -0.028 C 
ATOM      8  C   UNL     1     -19.550   2.574  30.353  1.00  0.00    -0.070 CG0
ATOM      9  C   UNL     1     -20.982   2.163  30.125  1.00  0.00     0.039 C 
ATOM     10  G   UNL     1     -18.709   3.008  29.162  1.00  0.00     0.000 G0
ENDBRANCH   6   7
ENDBRANCH   5   6
ENDBRANCH   3   5
ENDBRANCH   1   3
BRANCH   1  11
ATOM     11  C   UNL     1     -17.055  -0.168  29.545  1.00  0.00     0.087 C 
BRANCH  11  12
ATOM     12  C   UNL     1     -16.799   1.213  28.883  1.00  0.00     0.066 C 
BRANCH  12  13
ATOM     13  C   UNL     1     -18.098   1.845  28.408  1.00  0.00     0.140 C 
ATOM     14  O   UNL     1     -18.621   1.457  27.373  1.00  0.00    -0.299 OA
BRANCH  13  15
ATOM     15  C   UNL     1     -18.709   3.010  29.149  1.00  0.00     0.106 CG0
ATOM     16  G   UNL     1     -19.543   2.566  30.342  1.00  0.00     0.000 G0
ENDBRANCH  13  15
ENDBRANCH  12  13
BRANCH  12  17
ATOM     17  C   UNL     1     -15.749   1.162  27.725  1.00  0.00    -0.006 C 
ATOM     18  C   UNL     1     -14.409   1.782  28.152  1.00  0.00     0.008 C 
ATOM     19  C   UNL     1     -15.514  -0.248  27.154  1.00  0.00     0.008 C 
ENDBRANCH  12  17
ENDBRANCH  11  12
ENDBRANCH   1  11
TORSDOF 1
ENDMDL
