MODEL 1
REMARK VINA RESULT:    -4.239      0.000      0.000
REMARK INTER + INTRA:          -5.132
REMARK INTER:                  -5.974
REMARK INTRA:                   0.843
REMARK UNBOUND:                 0.843
REMARK SMILES CC1=CCC(=C(C)C)C(=O)CC(C)=CCC1
REMARK SMILES IDX 12 1 14 2 13 3 15 4 16 5 2 6 1 7 3 8 11 10 9 11 10 12 5 13
REMARK SMILES IDX 6 14 7 15 8 16 4 17
REMARK H PARENT
REMARK Flexibility Score: 60.00
ROOT
ATOM      1  C   UNL     1      -2.836  28.570  30.943  1.00  0.00    -0.070 C 
ATOM      2  C   UNL     1      -1.541  28.216  30.772  1.00  0.00    -0.027 C 
ATOM      3  C   UNL     1      -3.130  29.856  31.672  1.00  0.00     0.039 C 
ENDROOT
BRANCH   2   4
ATOM      4  C   UNL     1      -1.072  26.902  30.202  1.00  0.00     0.032 C 
BRANCH   4   5
ATOM      5  C   UNL     1      -0.570  27.108  28.768  1.00  0.00     0.034 C 
BRANCH   5   6
ATOM      6  C   UNL     1      -1.618  26.758  27.731  1.00  0.00    -0.077 C 
ATOM      7  C   UNL     1      -1.625  25.365  27.152  1.00  0.00     0.039 C 
ATOM      8  C   UNL     1      -2.603  27.606  27.343  1.00  0.00    -0.023 CG0
ATOM      9  G   UNL     1      -2.773  29.063  27.735  1.00  0.00     0.000 G0
ENDBRANCH   5   6
ENDBRANCH   4   5
ENDBRANCH   2   4
BRANCH   1  10
ATOM     10  C   UNL     1      -4.000  27.750  30.422  1.00  0.00     0.111 C 
BRANCH  10  11
ATOM     11  C   UNL     1      -4.745  28.466  29.321  1.00  0.00     0.163 C 
ATOM     12  O   UNL     1      -5.977  28.220  29.208  1.00  0.00    -0.294 OA
BRANCH  11  13
ATOM     13  C   UNL     1      -4.108  29.452  28.387  1.00  0.00    -0.002 C 
ATOM     14  C   UNL     1      -4.622  30.714  28.252  1.00  0.00    -0.069 C 
ATOM     15  C   UNL     1      -3.884  31.805  27.508  1.00  0.00     0.039 C 
ATOM     16  C   UNL     1      -5.985  31.074  28.798  1.00  0.00     0.039 C 
BRANCH  13  17
ATOM     17  C   UNL     1      -2.780  29.069  27.743  1.00  0.00     0.066 CG0
ATOM     18  G   UNL     1      -2.613  27.610  27.356  1.00  0.00     0.000 G0
ENDBRANCH  13  17
ENDBRANCH  11  13
ENDBRANCH  10  11
ENDBRANCH   1  10
TORSDOF 0
ENDMDL
MODEL 2
REMARK VINA RESULT:    -3.817      1.575      4.500
REMARK INTER + INTRA:          -4.536
REMARK INTER:                  -5.875
REMARK INTRA:                   1.339
REMARK UNBOUND:                 0.843
REMARK SMILES CC1=CCC(=C(C)C)C(=O)CC(C)=CCC1
REMARK SMILES IDX 12 1 14 2 13 3 15 4 16 5 2 6 1 7 3 8 11 10 9 11 10 12 5 13
REMARK SMILES IDX 6 14 7 15 8 16 4 17
REMARK H PARENT
REMARK Flexibility Score: 60.00
ROOT
ATOM      1  C   UNL     1      -4.752  27.904  30.025  1.00  0.00    -0.070 C 
ATOM      2  C   UNL     1      -5.776  28.579  29.449  1.00  0.00    -0.027 C 
ATOM      3  C   UNL     1      -4.864  26.406  30.138  1.00  0.00     0.039 C 
ENDROOT
BRANCH   2   4
ATOM      4  C   UNL     1      -5.895  30.080  29.388  1.00  0.00     0.032 C 
BRANCH   4   5
ATOM      5  C   UNL     1      -5.649  30.562  27.954  1.00  0.00     0.034 C 
BRANCH   5   6
ATOM      6  C   UNL     1      -4.224  31.029  27.735  1.00  0.00    -0.077 C 
ATOM      7  C   UNL     1      -3.933  32.509  27.781  1.00  0.00     0.039 C 
ATOM      8  C   UNL     1      -3.174  30.186  27.573  1.00  0.00    -0.023 CG0
ATOM      9  G   UNL     1      -3.218  28.674  27.436  1.00  0.00     0.000 G0
ENDBRANCH   5   6
ENDBRANCH   4   5
ENDBRANCH   2   4
BRANCH   1  10
ATOM     10  C   UNL     1      -3.496  28.578  30.541  1.00  0.00     0.111 C 
BRANCH  10  11
ATOM     11  C   UNL     1      -2.266  28.123  29.793  1.00  0.00     0.163 C 
ATOM     12  O   UNL     1      -1.221  27.929  30.472  1.00  0.00    -0.294 OA
BRANCH  11  13
ATOM     13  C   UNL     1      -2.232  27.874  28.313  1.00  0.00    -0.002 C 
ATOM     14  C   UNL     1      -1.471  26.861  27.795  1.00  0.00    -0.069 C 
ATOM     15  C   UNL     1      -1.587  26.430  26.350  1.00  0.00     0.039 C 
ATOM     16  C   UNL     1      -0.431  26.149  28.630  1.00  0.00     0.039 C 
BRANCH  13  17
ATOM     17  C   UNL     1      -3.204  28.658  27.438  1.00  0.00     0.066 CG0
ATOM     18  G   UNL     1      -3.177  30.169  27.582  1.00  0.00     0.000 G0
ENDBRANCH  13  17
ENDBRANCH  11  13
ENDBRANCH  10  11
ENDBRANCH   1  10
TORSDOF 0
ENDMDL
MODEL 3
REMARK VINA RESULT:    -1.739      1.708      4.497
REMARK INTER + INTRA:          -1.608
REMARK INTER:                  -2.539
REMARK INTRA:                   0.931
REMARK UNBOUND:                 0.843
REMARK SMILES CC1=CCC(=C(C)C)C(=O)CC(C)=CCC1
REMARK SMILES IDX 12 1 14 2 13 3 15 4 16 5 2 6 1 7 3 8 11 10 9 11 10 12 5 13
REMARK SMILES IDX 6 14 7 15 8 16 4 17
REMARK H PARENT
REMARK Flexibility Score: 60.00
ROOT
ATOM      1  C   UNL     1      -4.504  29.377  28.419  1.00  0.00    -0.070 C 
ATOM      2  C   UNL     1      -4.882  28.882  29.622  1.00  0.00    -0.027 C 
ATOM      3  C   UNL     1      -4.878  30.799  28.088  1.00  0.00     0.039 C 
ENDROOT
BRANCH   2   4
ATOM      4  C   UNL     1      -4.722  27.448  30.054  1.00  0.00     0.032 C 
BRANCH   4   5
ATOM      5  C   UNL     1      -3.664  27.353  31.160  1.00  0.00     0.034 C 
BRANCH   5   6
ATOM      6  C   UNL     1      -2.730  28.546  31.172  1.00  0.00    -0.077 C 
ATOM      7  C   UNL     1      -3.120  29.761  31.978  1.00  0.00     0.039 C 
ATOM      8  C   UNL     1      -1.521  28.560  30.557  1.00  0.00    -0.023 CG0
ATOM      9  G   UNL     1      -0.936  27.493  29.649  1.00  0.00     0.000 G0
ENDBRANCH   5   6
ENDBRANCH   4   5
ENDBRANCH   2   4
BRANCH   1  10
ATOM     10  C   UNL     1      -3.711  28.581  27.402  1.00  0.00     0.111 C 
BRANCH  10  11
ATOM     11  C   UNL     1      -2.233  28.585  27.713  1.00  0.00     0.163 C 
ATOM     12  O   UNL     1      -1.610  29.664  27.517  1.00  0.00    -0.294 OA
BRANCH  11  13
ATOM     13  C   UNL     1      -1.491  27.398  28.253  1.00  0.00    -0.002 C 
ATOM     14  C   UNL     1      -1.201  26.333  27.444  1.00  0.00    -0.069 C 
ATOM     15  C   UNL     1      -0.261  25.230  27.878  1.00  0.00     0.039 C 
ATOM     16  C   UNL     1      -1.846  26.173  26.086  1.00  0.00     0.039 C 
BRANCH  13  17
ATOM     17  C   UNL     1      -0.917  27.498  29.661  1.00  0.00     0.066 CG0
ATOM     18  G   UNL     1      -1.516  28.564  30.562  1.00  0.00     0.000 G0
ENDBRANCH  13  17
ENDBRANCH  11  13
ENDBRANCH  10  11
ENDBRANCH   1  10
TORSDOF 0
ENDMDL
