MODEL 1
REMARK VINA RESULT:    -4.828      0.000      0.000
REMARK INTER + INTRA:          -5.904
REMARK INTER:                  -5.816
REMARK INTRA:                  -0.088
REMARK UNBOUND:                -0.088
REMARK SMILES NC(=O)C[C@@H]([NH3+])C(=O)[O-]
REMARK SMILES IDX 4 1 5 2 6 3 7 7 8 8 9 9 2 10 3 11 1 12
REMARK H PARENT 6 4 6 5 6 6 1 13 1 14
REMARK Flexibility Score: inf
ROOT
ATOM      1  C   UNL     1     -24.083   5.691 -14.392  1.00  0.00     0.171 C 
ENDROOT
BRANCH   1   2
ATOM      2  C   UNL     1     -25.226   6.436 -13.676  1.00  0.00     0.237 C 
BRANCH   2   3
ATOM      3  N   UNL     1     -25.056   6.403 -12.216  1.00  0.00    -0.350 N 
ATOM      4  H   UNL     1     -25.992   6.458 -11.750  1.00  0.00     0.345 HD
ATOM      5  H   UNL     1     -24.607   5.503 -11.929  1.00  0.00     0.345 HD
ATOM      6  H   UNL     1     -24.464   7.202 -11.894  1.00  0.00     0.345 HD
ENDBRANCH   2   3
BRANCH   2   7
ATOM      7  C   UNL     1     -25.281   7.861 -14.157  1.00  0.00     0.100 C 
ATOM      8  O   UNL     1     -24.222   8.464 -14.476  1.00  0.00    -0.544 OA
ATOM      9  O   UNL     1     -26.498   8.527 -14.237  1.00  0.00    -0.544 OA
ENDBRANCH   2   7
ENDBRANCH   1   2
BRANCH   1  10
ATOM     10  C   UNL     1     -24.586   4.500 -15.154  1.00  0.00     0.223 C 
ATOM     11  O   UNL     1     -25.706   4.551 -15.731  1.00  0.00    -0.275 OA
ATOM     12  N   UNL     1     -23.791   3.319 -15.256  1.00  0.00    -0.369 N 
ATOM     13  H   UNL     1     -22.856   3.266 -14.793  1.00  0.00     0.159 HD
ATOM     14  H   UNL     1     -24.136   2.496 -15.797  1.00  0.00     0.159 HD
ENDBRANCH   1  10
TORSDOF 4
ENDMDL
MODEL 2
REMARK VINA RESULT:    -4.794      1.754      1.808
REMARK INTER + INTRA:          -5.862
REMARK INTER:                  -5.590
REMARK INTRA:                  -0.272
REMARK UNBOUND:                -0.088
REMARK SMILES NC(=O)C[C@@H]([NH3+])C(=O)[O-]
REMARK SMILES IDX 4 1 5 2 6 3 7 7 8 8 9 9 2 10 3 11 1 12
REMARK H PARENT 6 4 6 5 6 6 1 13 1 14
REMARK Flexibility Score: inf
ROOT
ATOM      1  C   UNL     1     -24.654   5.000 -14.778  1.00  0.00     0.171 C 
ENDROOT
BRANCH   1   2
ATOM      2  C   UNL     1     -23.640   6.039 -14.259  1.00  0.00     0.237 C 
BRANCH   2   3
ATOM      3  N   UNL     1     -22.385   5.991 -15.022  1.00  0.00    -0.350 N 
ATOM      4  H   UNL     1     -22.586   5.745 -16.019  1.00  0.00     0.345 HD
ATOM      5  H   UNL     1     -21.923   6.930 -15.010  1.00  0.00     0.345 HD
ATOM      6  H   UNL     1     -21.732   5.281 -14.618  1.00  0.00     0.345 HD
ENDBRANCH   2   3
BRANCH   2   7
ATOM      7  C   UNL     1     -24.241   7.416 -14.338  1.00  0.00     0.100 C 
ATOM      8  O   UNL     1     -23.519   8.407 -14.625  1.00  0.00    -0.544 OA
ATOM      9  O   UNL     1     -25.593   7.607 -14.080  1.00  0.00    -0.544 OA
ENDBRANCH   2   7
ENDBRANCH   1   2
BRANCH   1  10
ATOM     10  C   UNL     1     -23.988   3.937 -15.602  1.00  0.00     0.223 C 
ATOM     11  O   UNL     1     -23.679   4.174 -16.801  1.00  0.00    -0.275 OA
ATOM     12  N   UNL     1     -23.674   2.669 -15.028  1.00  0.00    -0.369 N 
ATOM     13  H   UNL     1     -23.914   2.462 -14.032  1.00  0.00     0.159 HD
ATOM     14  H   UNL     1     -23.199   1.935 -15.598  1.00  0.00     0.159 HD
ENDBRANCH   1  10
TORSDOF 4
ENDMDL
MODEL 3
REMARK VINA RESULT:    -4.678      1.773      4.126
REMARK INTER + INTRA:          -5.723
REMARK INTER:                  -5.637
REMARK INTRA:                  -0.086
REMARK UNBOUND:                -0.088
REMARK SMILES NC(=O)C[C@@H]([NH3+])C(=O)[O-]
REMARK SMILES IDX 4 1 5 2 6 3 7 7 8 8 9 9 2 10 3 11 1 12
REMARK H PARENT 6 4 6 5 6 6 1 13 1 14
REMARK Flexibility Score: inf
ROOT
ATOM      1  C   UNL     1     -24.852   5.022 -14.825  1.00  0.00     0.171 C 
ENDROOT
BRANCH   1   2
ATOM      2  C   UNL     1     -23.773   4.186 -15.539  1.00  0.00     0.237 C 
BRANCH   2   3
ATOM      3  N   UNL     1     -23.770   2.795 -15.064  1.00  0.00    -0.350 N 
ATOM      4  H   UNL     1     -22.793   2.504 -14.827  1.00  0.00     0.345 HD
ATOM      5  H   UNL     1     -24.349   2.712 -14.198  1.00  0.00     0.345 HD
ATOM      6  H   UNL     1     -24.151   2.152 -15.797  1.00  0.00     0.345 HD
ENDBRANCH   2   3
BRANCH   2   7
ATOM      7  C   UNL     1     -24.005   4.223 -17.026  1.00  0.00     0.100 C 
ATOM      8  O   UNL     1     -23.031   4.336 -17.817  1.00  0.00    -0.544 OA
ATOM      9  O   UNL     1     -25.296   4.151 -17.536  1.00  0.00    -0.544 OA
ENDBRANCH   2   7
ENDBRANCH   1   2
BRANCH   1  10
ATOM     10  C   UNL     1     -24.251   6.150 -14.037  1.00  0.00     0.223 C 
ATOM     11  O   UNL     1     -23.221   6.737 -14.466  1.00  0.00    -0.275 OA
ATOM     12  N   UNL     1     -24.856   6.583 -12.819  1.00  0.00    -0.369 N 
ATOM     13  H   UNL     1     -25.716   6.114 -12.456  1.00  0.00     0.159 HD
ATOM     14  H   UNL     1     -24.445   7.376 -12.279  1.00  0.00     0.159 HD
ENDBRANCH   1  10
TORSDOF 4
ENDMDL
MODEL 4
REMARK VINA RESULT:    -4.633      2.181      3.297
REMARK INTER + INTRA:          -5.669
REMARK INTER:                  -5.594
REMARK INTRA:                  -0.075
REMARK UNBOUND:                -0.088
REMARK SMILES NC(=O)C[C@@H]([NH3+])C(=O)[O-]
REMARK SMILES IDX 4 1 5 2 6 3 7 7 8 8 9 9 2 10 3 11 1 12
REMARK H PARENT 6 4 6 5 6 6 1 13 1 14
REMARK Flexibility Score: inf
ROOT
ATOM      1  C   UNL     1     -24.324   7.526 -14.304  1.00  0.00     0.171 C 
ENDROOT
BRANCH   1   2
ATOM      2  C   UNL     1     -24.744   6.190 -13.661  1.00  0.00     0.237 C 
BRANCH   2   3
ATOM      3  N   UNL     1     -25.590   6.407 -12.479  1.00  0.00    -0.350 N 
ATOM      4  H   UNL     1     -24.988   6.572 -11.638  1.00  0.00     0.345 HD
ATOM      5  H   UNL     1     -26.188   7.254 -12.617  1.00  0.00     0.345 HD
ATOM      6  H   UNL     1     -26.203   5.578 -12.304  1.00  0.00     0.345 HD
ENDBRANCH   2   3
BRANCH   2   7
ATOM      7  C   UNL     1     -25.476   5.350 -14.672  1.00  0.00     0.100 C 
ATOM      8  O   UNL     1     -24.931   4.324 -15.158  1.00  0.00    -0.544 OA
ATOM      9  O   UNL     1     -26.752   5.709 -15.091  1.00  0.00    -0.544 OA
ENDBRANCH   2   7
ENDBRANCH   1   2
BRANCH   1  10
ATOM     10  C   UNL     1     -22.872   7.527 -14.687  1.00  0.00     0.223 C 
ATOM     11  O   UNL     1     -22.330   6.464 -15.094  1.00  0.00    -0.275 OA
ATOM     12  N   UNL     1     -22.109   8.731 -14.622  1.00  0.00    -0.369 N 
ATOM     13  H   UNL     1     -22.547   9.622 -14.298  1.00  0.00     0.159 HD
ATOM     14  H   UNL     1     -21.103   8.733 -14.902  1.00  0.00     0.159 HD
ENDBRANCH   1  10
TORSDOF 4
ENDMDL
MODEL 5
REMARK VINA RESULT:    -4.558      1.864      2.307
REMARK INTER + INTRA:          -5.578
REMARK INTER:                  -5.487
REMARK INTRA:                  -0.091
REMARK UNBOUND:                -0.088
REMARK SMILES NC(=O)C[C@@H]([NH3+])C(=O)[O-]
REMARK SMILES IDX 4 1 5 2 6 3 7 7 8 8 9 9 2 10 3 11 1 12
REMARK H PARENT 6 4 6 5 6 6 1 13 1 14
REMARK Flexibility Score: inf
ROOT
ATOM      1  C   UNL     1     -25.270   5.262 -14.670  1.00  0.00     0.171 C 
ENDROOT
BRANCH   1   2
ATOM      2  C   UNL     1     -25.186   6.608 -13.924  1.00  0.00     0.237 C 
BRANCH   2   3
ATOM      3  N   UNL     1     -25.098   6.411 -12.470  1.00  0.00    -0.350 N 
ATOM      4  H   UNL     1     -25.850   5.755 -12.156  1.00  0.00     0.345 HD
ATOM      5  H   UNL     1     -24.176   5.986 -12.222  1.00  0.00     0.345 HD
ATOM      6  H   UNL     1     -25.204   7.322 -11.966  1.00  0.00     0.345 HD
ENDBRANCH   2   3
BRANCH   2   7
ATOM      7  C   UNL     1     -23.993   7.384 -14.413  1.00  0.00     0.100 C 
ATOM      8  O   UNL     1     -24.058   8.637 -14.533  1.00  0.00    -0.544 OA
ATOM      9  O   UNL     1     -22.818   6.724 -14.753  1.00  0.00    -0.544 OA
ENDBRANCH   2   7
ENDBRANCH   1   2
BRANCH   1  10
ATOM     10  C   UNL     1     -26.487   5.186 -15.546  1.00  0.00     0.223 C 
ATOM     11  O   UNL     1     -26.423   4.601 -16.660  1.00  0.00    -0.275 OA
ATOM     12  N   UNL     1     -27.725   5.747 -15.111  1.00  0.00    -0.369 N 
ATOM     13  H   UNL     1     -27.797   6.225 -14.185  1.00  0.00     0.159 HD
ATOM     14  H   UNL     1     -28.574   5.681 -15.715  1.00  0.00     0.159 HD
ENDBRANCH   1  10
TORSDOF 4
ENDMDL
MODEL 6
REMARK VINA RESULT:    -4.517      2.047      3.468
REMARK INTER + INTRA:          -5.528
REMARK INTER:                  -5.432
REMARK INTRA:                  -0.096
REMARK UNBOUND:                -0.088
REMARK SMILES NC(=O)C[C@@H]([NH3+])C(=O)[O-]
REMARK SMILES IDX 4 1 5 2 6 3 7 7 8 8 9 9 2 10 3 11 1 12
REMARK H PARENT 6 4 6 5 6 6 1 13 1 14
REMARK Flexibility Score: inf
ROOT
ATOM      1  C   UNL     1     -23.973   5.758 -14.251  1.00  0.00     0.171 C 
ENDROOT
BRANCH   1   2
ATOM      2  C   UNL     1     -24.473   4.697 -15.251  1.00  0.00     0.237 C 
BRANCH   2   3
ATOM      3  N   UNL     1     -24.342   3.340 -14.703  1.00  0.00    -0.350 N 
ATOM      4  H   UNL     1     -24.666   2.640 -15.411  1.00  0.00     0.345 HD
ATOM      5  H   UNL     1     -23.340   3.136 -14.487  1.00  0.00     0.345 HD
ATOM      6  H   UNL     1     -24.911   3.236 -13.832  1.00  0.00     0.345 HD
ENDBRANCH   2   3
BRANCH   2   7
ATOM      7  C   UNL     1     -25.908   4.975 -15.607  1.00  0.00     0.100 C 
ATOM      8  O   UNL     1     -26.649   5.607 -14.808  1.00  0.00    -0.544 OA
ATOM      9  O   UNL     1     -26.432   4.521 -16.812  1.00  0.00    -0.544 OA
ENDBRANCH   2   7
ENDBRANCH   1   2
BRANCH   1  10
ATOM     10  C   UNL     1     -22.921   6.642 -14.857  1.00  0.00     0.223 C 
ATOM     11  O   UNL     1     -23.030   7.895 -14.774  1.00  0.00    -0.275 OA
ATOM     12  N   UNL     1     -21.782   6.071 -15.500  1.00  0.00    -0.369 N 
ATOM     13  H   UNL     1     -21.672   5.035 -15.567  1.00  0.00     0.159 HD
ATOM     14  H   UNL     1     -21.045   6.687 -15.909  1.00  0.00     0.159 HD
ENDBRANCH   1  10
TORSDOF 4
ENDMDL
MODEL 7
REMARK VINA RESULT:    -4.502      1.789      2.075
REMARK INTER + INTRA:          -5.511
REMARK INTER:                  -5.432
REMARK INTRA:                  -0.079
REMARK UNBOUND:                -0.088
REMARK SMILES NC(=O)C[C@@H]([NH3+])C(=O)[O-]
REMARK SMILES IDX 4 1 5 2 6 3 7 7 8 8 9 9 2 10 3 11 1 12
REMARK H PARENT 6 4 6 5 6 6 1 13 1 14
REMARK Flexibility Score: inf
ROOT
ATOM      1  C   UNL     1     -23.550   6.678 -14.096  1.00  0.00     0.171 C 
ENDROOT
BRANCH   1   2
ATOM      2  C   UNL     1     -24.868   6.103 -13.541  1.00  0.00     0.237 C 
BRANCH   2   3
ATOM      3  N   UNL     1     -25.048   6.448 -12.123  1.00  0.00    -0.350 N 
ATOM      4  H   UNL     1     -24.225   6.112 -11.570  1.00  0.00     0.345 HD
ATOM      5  H   UNL     1     -25.106   7.486 -12.012  1.00  0.00     0.345 HD
ATOM      6  H   UNL     1     -25.919   6.011 -11.743  1.00  0.00     0.345 HD
ENDBRANCH   2   3
BRANCH   2   7
ATOM      7  C   UNL     1     -26.026   6.622 -14.349  1.00  0.00     0.100 C 
ATOM      8  O   UNL     1     -26.315   7.847 -14.329  1.00  0.00    -0.544 OA
ATOM      9  O   UNL     1     -26.796   5.750 -15.111  1.00  0.00    -0.544 OA
ENDBRANCH   2   7
ENDBRANCH   1   2
BRANCH   1  10
ATOM     10  C   UNL     1     -22.932   5.766 -15.117  1.00  0.00     0.223 C 
ATOM     11  O   UNL     1     -23.521   4.701 -15.445  1.00  0.00    -0.275 OA
ATOM     12  N   UNL     1     -21.696   6.113 -15.741  1.00  0.00    -0.369 N 
ATOM     13  H   UNL     1     -21.202   6.998 -15.487  1.00  0.00     0.159 HD
ATOM     14  H   UNL     1     -21.274   5.485 -16.460  1.00  0.00     0.159 HD
ENDBRANCH   1  10
TORSDOF 4
ENDMDL
MODEL 8
REMARK VINA RESULT:    -4.437      1.680      4.116
REMARK INTER + INTRA:          -5.433
REMARK INTER:                  -5.204
REMARK INTRA:                  -0.229
REMARK UNBOUND:                -0.088
REMARK SMILES NC(=O)C[C@@H]([NH3+])C(=O)[O-]
REMARK SMILES IDX 4 1 5 2 6 3 7 7 8 8 9 9 2 10 3 11 1 12
REMARK H PARENT 6 4 6 5 6 6 1 13 1 14
REMARK Flexibility Score: inf
ROOT
ATOM      1  C   UNL     1     -24.349   5.975 -14.386  1.00  0.00     0.171 C 
ENDROOT
BRANCH   1   2
ATOM      2  C   UNL     1     -25.013   4.648 -14.803  1.00  0.00     0.237 C 
BRANCH   2   3
ATOM      3  N   UNL     1     -26.184   4.880 -15.661  1.00  0.00    -0.350 N 
ATOM      4  H   UNL     1     -26.858   5.516 -15.174  1.00  0.00     0.345 HD
ATOM      5  H   UNL     1     -25.890   5.345 -16.550  1.00  0.00     0.345 HD
ATOM      6  H   UNL     1     -26.663   3.978 -15.885  1.00  0.00     0.345 HD
ENDBRANCH   2   3
BRANCH   2   7
ATOM      7  C   UNL     1     -24.010   3.785 -15.521  1.00  0.00     0.100 C 
ATOM      8  O   UNL     1     -23.644   2.689 -15.019  1.00  0.00    -0.544 OA
ATOM      9  O   UNL     1     -23.469   4.198 -16.733  1.00  0.00    -0.544 OA
ENDBRANCH   2   7
ENDBRANCH   1   2
BRANCH   1  10
ATOM     10  C   UNL     1     -25.272   6.823 -13.560  1.00  0.00     0.223 C 
ATOM     11  O   UNL     1     -25.943   7.739 -14.107  1.00  0.00    -0.275 OA
ATOM     12  N   UNL     1     -25.418   6.578 -12.161  1.00  0.00    -0.369 N 
ATOM     13  H   UNL     1     -24.878   5.816 -11.695  1.00  0.00     0.159 HD
ATOM     14  H   UNL     1     -26.070   7.160 -11.590  1.00  0.00     0.159 HD
ENDBRANCH   1  10
TORSDOF 4
ENDMDL
MODEL 9
REMARK VINA RESULT:    -4.194      1.672      3.908
REMARK INTER + INTRA:          -5.140
REMARK INTER:                  -4.872
REMARK INTRA:                  -0.268
REMARK UNBOUND:                -0.088
REMARK SMILES NC(=O)C[C@@H]([NH3+])C(=O)[O-]
REMARK SMILES IDX 4 1 5 2 6 3 7 7 8 8 9 9 2 10 3 11 1 12
REMARK H PARENT 6 4 6 5 6 6 1 13 1 14
REMARK Flexibility Score: inf
ROOT
ATOM      1  C   UNL     1     -24.425   5.619 -14.371  1.00  0.00     0.171 C 
ENDROOT
BRANCH   1   2
ATOM      2  C   UNL     1     -25.488   4.756 -15.078  1.00  0.00     0.237 C 
BRANCH   2   3
ATOM      3  N   UNL     1     -26.797   5.425 -15.096  1.00  0.00    -0.350 N 
ATOM      4  H   UNL     1     -27.267   5.308 -14.168  1.00  0.00     0.345 HD
ATOM      5  H   UNL     1     -26.673   6.449 -15.265  1.00  0.00     0.345 HD
ATOM      6  H   UNL     1     -27.409   5.024 -15.843  1.00  0.00     0.345 HD
ENDBRANCH   2   3
BRANCH   2   7
ATOM      7  C   UNL     1     -25.043   4.456 -16.484  1.00  0.00     0.100 C 
ATOM      8  O   UNL     1     -25.892   4.353 -17.409  1.00  0.00    -0.544 OA
ATOM      9  O   UNL     1     -23.695   4.273 -16.769  1.00  0.00    -0.544 OA
ENDBRANCH   2   7
ENDBRANCH   1   2
BRANCH   1  10
ATOM     10  C   UNL     1     -25.050   6.667 -13.497  1.00  0.00     0.223 C 
ATOM     11  O   UNL     1     -25.521   7.716 -14.014  1.00  0.00    -0.275 OA
ATOM     12  N   UNL     1     -25.143   6.470 -12.087  1.00  0.00    -0.369 N 
ATOM     13  H   UNL     1     -24.768   5.601 -11.645  1.00  0.00     0.159 HD
ATOM     14  H   UNL     1     -25.590   7.194 -11.482  1.00  0.00     0.159 HD
ENDBRANCH   1  10
TORSDOF 4
ENDMDL
