MODEL 1
REMARK VINA RESULT:    -3.787      0.000      0.000
REMARK INTER + INTRA:          -8.587
REMARK INTER:                  -7.107
REMARK INTRA:                  -1.480
REMARK UNBOUND:                -1.480
REMARK SMILES O=C([O-])CCCCCCCCCCCCCCC(=O)[O-]
REMARK SMILES IDX 10 1 9 2 8 3 7 4 6 5 5 6 4 7 2 8 1 9 3 10 11 11 12 12 13 13
REMARK SMILES IDX 14 14 15 15 16 16 17 17 18 18 19 19 20 20
REMARK H PARENT
REMARK Flexibility Score: inf
ROOT
ATOM      1  C   UNL     1      27.213  -9.482  30.428  1.00  0.00     0.000 C 
ENDROOT
BRANCH   1   2
ATOM      2  C   UNL     1      27.848 -10.799  30.905  1.00  0.00     0.000 C 
BRANCH   2   3
ATOM      3  C   UNL     1      28.863 -11.422  29.925  1.00  0.00     0.000 C 
BRANCH   3   4
ATOM      4  C   UNL     1      30.336 -11.350  30.374  1.00  0.00     0.000 C 
BRANCH   4   5
ATOM      5  C   UNL     1      30.592 -10.509  31.639  1.00  0.00     0.000 C 
BRANCH   5   6
ATOM      6  C   UNL     1      31.751  -9.513  31.467  1.00  0.00     0.006 C 
BRANCH   6   7
ATOM      7  C   UNL     1      31.256  -8.065  31.350  1.00  0.00     0.053 C 
BRANCH   7   8
ATOM      8  C   UNL     1      30.895  -7.491  32.686  1.00  0.00     0.041 C 
ATOM      9  O   UNL     1      30.016  -6.594  32.774  1.00  0.00    -0.550 OA
ATOM     10  O   UNL     1      31.512  -7.966  33.836  1.00  0.00    -0.550 OA
ENDBRANCH   7   8
ENDBRANCH   6   7
ENDBRANCH   5   6
ENDBRANCH   4   5
ENDBRANCH   3   4
ENDBRANCH   2   3
ENDBRANCH   1   2
BRANCH   1  11
ATOM     11  C   UNL     1      26.652  -9.576  29.000  1.00  0.00     0.000 C 
BRANCH  11  12
ATOM     12  C   UNL     1      25.182  -9.136  28.915  1.00  0.00     0.000 C 
BRANCH  12  13
ATOM     13  C   UNL     1      24.787  -8.184  30.058  1.00  0.00     0.000 C 
BRANCH  13  14
ATOM     14  C   UNL     1      23.389  -8.484  30.621  1.00  0.00     0.000 C 
BRANCH  14  15
ATOM     15  C   UNL     1      23.434  -9.387  31.867  1.00  0.00     0.000 C 
BRANCH  15  16
ATOM     16  C   UNL     1      24.608  -9.039  32.804  1.00  0.00     0.006 C 
BRANCH  16  17
ATOM     17  C   UNL     1      24.861 -10.096  33.892  1.00  0.00     0.053 C 
BRANCH  17  18
ATOM     18  C   UNL     1      24.241  -9.725  35.203  1.00  0.00     0.041 C 
ATOM     19  O   UNL     1      23.857  -8.543  35.411  1.00  0.00    -0.550 OA
ATOM     20  O   UNL     1      24.066 -10.688  36.189  1.00  0.00    -0.550 OA
ENDBRANCH  17  18
ENDBRANCH  16  17
ENDBRANCH  15  16
ENDBRANCH  14  15
ENDBRANCH  13  14
ENDBRANCH  12  13
ENDBRANCH  11  12
ENDBRANCH   1  11
TORSDOF 15
ENDMDL
MODEL 2
REMARK VINA RESULT:    -3.724      0.986      6.188
REMARK INTER + INTRA:          -8.470
REMARK INTER:                  -6.640
REMARK INTRA:                  -1.830
REMARK UNBOUND:                -1.480
REMARK SMILES O=C([O-])CCCCCCCCCCCCCCC(=O)[O-]
REMARK SMILES IDX 10 1 9 2 8 3 7 4 6 5 5 6 4 7 2 8 1 9 3 10 11 11 12 12 13 13
REMARK SMILES IDX 14 14 15 15 16 16 17 17 18 18 19 19 20 20
REMARK H PARENT
REMARK Flexibility Score: inf
ROOT
ATOM      1  C   UNL     1      24.911  -9.197  28.581  1.00  0.00     0.000 C 
ENDROOT
BRANCH   1   2
ATOM      2  C   UNL     1      25.240  -8.593  29.957  1.00  0.00     0.000 C 
BRANCH   2   3
ATOM      3  C   UNL     1      24.104  -8.688  30.995  1.00  0.00     0.000 C 
BRANCH   3   4
ATOM      4  C   UNL     1      23.578 -10.112  31.264  1.00  0.00     0.000 C 
BRANCH   4   5
ATOM      5  C   UNL     1      24.641 -11.119  31.742  1.00  0.00     0.000 C 
BRANCH   5   6
ATOM      6  C   UNL     1      25.445 -10.609  32.949  1.00  0.00     0.006 C 
BRANCH   6   7
ATOM      7  C   UNL     1      24.868 -11.108  34.281  1.00  0.00     0.053 C 
BRANCH   7   8
ATOM      8  C   UNL     1      24.299  -9.987  35.095  1.00  0.00     0.041 C 
ATOM      9  O   UNL     1      23.887 -10.199  36.267  1.00  0.00    -0.550 OA
ATOM     10  O   UNL     1      24.247  -8.702  34.569  1.00  0.00    -0.550 OA
ENDBRANCH   7   8
ENDBRANCH   6   7
ENDBRANCH   5   6
ENDBRANCH   4   5
ENDBRANCH   3   4
ENDBRANCH   2   3
ENDBRANCH   1   2
BRANCH   1  11
ATOM     11  C   UNL     1      26.006 -10.148  28.071  1.00  0.00     0.000 C 
BRANCH  11  12
ATOM     12  C   UNL     1      27.414  -9.711  28.506  1.00  0.00     0.000 C 
BRANCH  12  13
ATOM     13  C   UNL     1      28.212 -10.858  29.152  1.00  0.00     0.000 C 
BRANCH  13  14
ATOM     14  C   UNL     1      28.249 -10.761  30.685  1.00  0.00     0.000 C 
BRANCH  14  15
ATOM     15  C   UNL     1      28.947  -9.481  31.179  1.00  0.00     0.000 C 
BRANCH  15  16
ATOM     16  C   UNL     1      30.484  -9.613  31.185  1.00  0.00     0.006 C 
BRANCH  16  17
ATOM     17  C   UNL     1      31.216  -8.273  31.363  1.00  0.00     0.053 C 
BRANCH  17  18
ATOM     18  C   UNL     1      30.936  -7.642  32.692  1.00  0.00     0.041 C 
ATOM     19  O   UNL     1      31.522  -8.057  33.726  1.00  0.00    -0.550 OA
ATOM     20  O   UNL     1      30.043  -6.582  32.785  1.00  0.00    -0.550 OA
ENDBRANCH  17  18
ENDBRANCH  16  17
ENDBRANCH  15  16
ENDBRANCH  14  15
ENDBRANCH  13  14
ENDBRANCH  12  13
ENDBRANCH  11  12
ENDBRANCH   1  11
TORSDOF 15
ENDMDL
MODEL 3
REMARK VINA RESULT:    -3.668      1.292      2.052
REMARK INTER + INTRA:          -8.365
REMARK INTER:                  -6.517
REMARK INTRA:                  -1.848
REMARK UNBOUND:                -1.480
REMARK SMILES O=C([O-])CCCCCCCCCCCCCCC(=O)[O-]
REMARK SMILES IDX 10 1 9 2 8 3 7 4 6 5 5 6 4 7 2 8 1 9 3 10 11 11 12 12 13 13
REMARK SMILES IDX 14 14 15 15 16 16 17 17 18 18 19 19 20 20
REMARK H PARENT
REMARK Flexibility Score: inf
ROOT
ATOM      1  C   UNL     1      28.552 -10.991  31.221  1.00  0.00     0.000 C 
ENDROOT
BRANCH   1   2
ATOM      2  C   UNL     1      29.065 -12.032  30.211  1.00  0.00     0.000 C 
BRANCH   2   3
ATOM      3  C   UNL     1      30.514 -11.811  29.731  1.00  0.00     0.000 C 
BRANCH   3   4
ATOM      4  C   UNL     1      31.578 -11.786  30.847  1.00  0.00     0.000 C 
BRANCH   4   5
ATOM      5  C   UNL     1      32.519 -10.567  30.823  1.00  0.00     0.000 C 
BRANCH   5   6
ATOM      6  C   UNL     1      31.794  -9.249  31.139  1.00  0.00     0.006 C 
BRANCH   6   7
ATOM      7  C   UNL     1      31.452  -9.119  32.629  1.00  0.00     0.053 C 
BRANCH   7   8
ATOM      8  C   UNL     1      31.061  -7.719  32.991  1.00  0.00     0.041 C 
ATOM      9  O   UNL     1      29.980  -7.232  32.566  1.00  0.00    -0.550 OA
ATOM     10  O   UNL     1      31.880  -6.959  33.817  1.00  0.00    -0.550 OA
ENDBRANCH   7   8
ENDBRANCH   6   7
ENDBRANCH   5   6
ENDBRANCH   4   5
ENDBRANCH   3   4
ENDBRANCH   2   3
ENDBRANCH   1   2
BRANCH   1  11
ATOM     11  C   UNL     1      28.010  -9.722  30.542  1.00  0.00     0.000 C 
BRANCH  11  12
ATOM     12  C   UNL     1      27.453  -9.998  29.137  1.00  0.00     0.000 C 
BRANCH  12  13
ATOM     13  C   UNL     1      25.947 -10.317  29.155  1.00  0.00     0.000 C 
BRANCH  13  14
ATOM     14  C   UNL     1      25.084  -9.110  28.753  1.00  0.00     0.000 C 
BRANCH  14  15
ATOM     15  C   UNL     1      24.656  -8.260  29.963  1.00  0.00     0.000 C 
BRANCH  15  16
ATOM     16  C   UNL     1      24.083  -9.116  31.110  1.00  0.00     0.006 C 
BRANCH  16  17
ATOM     17  C   UNL     1      24.812  -8.917  32.449  1.00  0.00     0.053 C 
BRANCH  17  18
ATOM     18  C   UNL     1      25.006 -10.203  33.190  1.00  0.00     0.041 C 
ATOM     19  O   UNL     1      24.914 -10.231  34.446  1.00  0.00    -0.550 OA
ATOM     20  O   UNL     1      25.267 -11.376  32.493  1.00  0.00    -0.550 OA
ENDBRANCH  17  18
ENDBRANCH  16  17
ENDBRANCH  15  16
ENDBRANCH  14  15
ENDBRANCH  13  14
ENDBRANCH  12  13
ENDBRANCH  11  12
ENDBRANCH   1  11
TORSDOF 15
ENDMDL
MODEL 4
REMARK VINA RESULT:    -3.607     14.938     17.992
REMARK INTER + INTRA:          -8.249
REMARK INTER:                  -6.802
REMARK INTRA:                  -1.447
REMARK UNBOUND:                -1.480
REMARK SMILES O=C([O-])CCCCCCCCCCCCCCC(=O)[O-]
REMARK SMILES IDX 10 1 9 2 8 3 7 4 6 5 5 6 4 7 2 8 1 9 3 10 11 11 12 12 13 13
REMARK SMILES IDX 14 14 15 15 16 16 17 17 18 18 19 19 20 20
REMARK H PARENT
REMARK Flexibility Score: inf
ROOT
ATOM      1  C   UNL     1      23.689   3.292  42.845  1.00  0.00     0.000 C 
ENDROOT
BRANCH   1   2
ATOM      2  C   UNL     1      22.793   4.063  43.829  1.00  0.00     0.000 C 
BRANCH   2   3
ATOM      3  C   UNL     1      21.436   4.517  43.251  1.00  0.00     0.000 C 
BRANCH   3   4
ATOM      4  C   UNL     1      20.196   3.939  43.961  1.00  0.00     0.000 C 
BRANCH   4   5
ATOM      5  C   UNL     1      20.481   2.777  44.930  1.00  0.00     0.000 C 
BRANCH   5   6
ATOM      6  C   UNL     1      20.162   3.128  46.392  1.00  0.00     0.006 C 
BRANCH   6   7
ATOM      7  C   UNL     1      20.290   4.632  46.667  1.00  0.00     0.053 C 
BRANCH   7   8
ATOM      8  C   UNL     1      21.663   4.996  47.142  1.00  0.00     0.041 C 
ATOM      9  O   UNL     1      22.386   4.136  47.713  1.00  0.00    -0.550 OA
ATOM     10  O   UNL     1      22.154   6.278  46.933  1.00  0.00    -0.550 OA
ENDBRANCH   7   8
ENDBRANCH   6   7
ENDBRANCH   5   6
ENDBRANCH   4   5
ENDBRANCH   3   4
ENDBRANCH   2   3
ENDBRANCH   1   2
BRANCH   1  11
ATOM     11  C   UNL     1      22.910   2.734  41.643  1.00  0.00     0.000 C 
BRANCH  11  12
ATOM     12  C   UNL     1      22.443   1.286  41.865  1.00  0.00     0.000 C 
BRANCH  12  13
ATOM     13  C   UNL     1      22.177   0.546  40.542  1.00  0.00     0.000 C 
BRANCH  13  14
ATOM     14  C   UNL     1      21.105  -0.547  40.682  1.00  0.00     0.000 C 
BRANCH  14  15
ATOM     15  C   UNL     1      20.739  -0.831  42.150  1.00  0.00     0.000 C 
BRANCH  15  16
ATOM     16  C   UNL     1      21.074  -2.276  42.572  1.00  0.00     0.006 C 
BRANCH  16  17
ATOM     17  C   UNL     1      22.421  -2.408  43.301  1.00  0.00     0.053 C 
BRANCH  17  18
ATOM     18  C   UNL     1      22.282  -2.280  44.786  1.00  0.00     0.041 C 
ATOM     19  O   UNL     1      23.249  -2.566  45.540  1.00  0.00    -0.550 OA
ATOM     20  O   UNL     1      21.091  -1.824  45.337  1.00  0.00    -0.550 OA
ENDBRANCH  17  18
ENDBRANCH  16  17
ENDBRANCH  15  16
ENDBRANCH  14  15
ENDBRANCH  13  14
ENDBRANCH  12  13
ENDBRANCH  11  12
ENDBRANCH   1  11
TORSDOF 15
ENDMDL
MODEL 5
REMARK VINA RESULT:    -3.593      2.609      7.191
REMARK INTER + INTRA:          -8.223
REMARK INTER:                  -7.098
REMARK INTRA:                  -1.125
REMARK UNBOUND:                -1.480
REMARK SMILES O=C([O-])CCCCCCCCCCCCCCC(=O)[O-]
REMARK SMILES IDX 10 1 9 2 8 3 7 4 6 5 5 6 4 7 2 8 1 9 3 10 11 11 12 12 13 13
REMARK SMILES IDX 14 14 15 15 16 16 17 17 18 18 19 19 20 20
REMARK H PARENT
REMARK Flexibility Score: inf
ROOT
ATOM      1  C   UNL     1      28.860 -10.229  29.962  1.00  0.00     0.000 C 
ENDROOT
BRANCH   1   2
ATOM      2  C   UNL     1      27.325 -10.221  30.061  1.00  0.00     0.000 C 
BRANCH   2   3
ATOM      3  C   UNL     1      26.605  -9.498  28.904  1.00  0.00     0.000 C 
BRANCH   3   4
ATOM      4  C   UNL     1      25.390 -10.246  28.320  1.00  0.00     0.000 C 
BRANCH   4   5
ATOM      5  C   UNL     1      24.212  -9.346  27.901  1.00  0.00     0.000 C 
BRANCH   5   6
ATOM      6  C   UNL     1      22.953  -9.580  28.752  1.00  0.00     0.006 C 
BRANCH   6   7
ATOM      7  C   UNL     1      22.503  -8.306  29.482  1.00  0.00     0.053 C 
BRANCH   7   8
ATOM      8  C   UNL     1      23.649  -7.620  30.160  1.00  0.00     0.041 C 
ATOM      9  O   UNL     1      24.067  -6.511  29.734  1.00  0.00    -0.550 OA
ATOM     10  O   UNL     1      24.239  -8.194  31.279  1.00  0.00    -0.550 OA
ENDBRANCH   7   8
ENDBRANCH   6   7
ENDBRANCH   5   6
ENDBRANCH   4   5
ENDBRANCH   3   4
ENDBRANCH   2   3
ENDBRANCH   1   2
BRANCH   1  11
ATOM     11  C   UNL     1      29.512 -11.245  30.915  1.00  0.00     0.000 C 
BRANCH  11  12
ATOM     12  C   UNL     1      30.978 -11.532  30.556  1.00  0.00     0.000 C 
BRANCH  12  13
ATOM     13  C   UNL     1      31.958 -10.626  31.322  1.00  0.00     0.000 C 
BRANCH  13  14
ATOM     14  C   UNL     1      32.721  -9.665  30.396  1.00  0.00     0.000 C 
BRANCH  14  15
ATOM     15  C   UNL     1      32.657  -8.205  30.877  1.00  0.00     0.000 C 
BRANCH  15  16
ATOM     16  C   UNL     1      31.247  -7.805  31.358  1.00  0.00     0.006 C 
BRANCH  16  17
ATOM     17  C   UNL     1      31.254  -6.928  32.621  1.00  0.00     0.053 C 
BRANCH  17  18
ATOM     18  C   UNL     1      31.804  -7.648  33.813  1.00  0.00     0.041 C 
ATOM     19  O   UNL     1      31.422  -8.819  34.077  1.00  0.00    -0.550 OA
ATOM     20  O   UNL     1      32.753  -7.035  34.620  1.00  0.00    -0.550 OA
ENDBRANCH  17  18
ENDBRANCH  16  17
ENDBRANCH  15  16
ENDBRANCH  14  15
ENDBRANCH  13  14
ENDBRANCH  12  13
ENDBRANCH  11  12
ENDBRANCH   1  11
TORSDOF 15
ENDMDL
MODEL 6
REMARK VINA RESULT:    -3.578      1.079      6.604
REMARK INTER + INTRA:          -8.195
REMARK INTER:                  -6.727
REMARK INTRA:                  -1.468
REMARK UNBOUND:                -1.480
REMARK SMILES O=C([O-])CCCCCCCCCCCCCCC(=O)[O-]
REMARK SMILES IDX 10 1 9 2 8 3 7 4 6 5 5 6 4 7 2 8 1 9 3 10 11 11 12 12 13 13
REMARK SMILES IDX 14 14 15 15 16 16 17 17 18 18 19 19 20 20
REMARK H PARENT
REMARK Flexibility Score: inf
ROOT
ATOM      1  C   UNL     1      26.295  -9.542  28.731  1.00  0.00     0.000 C 
ENDROOT
BRANCH   1   2
ATOM      2  C   UNL     1      24.845  -9.060  28.563  1.00  0.00     0.000 C 
BRANCH   2   3
ATOM      3  C   UNL     1      24.415  -7.945  29.538  1.00  0.00     0.000 C 
BRANCH   3   4
ATOM      4  C   UNL     1      23.318  -8.342  30.546  1.00  0.00     0.000 C 
BRANCH   4   5
ATOM      5  C   UNL     1      22.869  -9.813  30.474  1.00  0.00     0.000 C 
BRANCH   5   6
ATOM      6  C   UNL     1      23.332 -10.637  31.687  1.00  0.00     0.006 C 
BRANCH   6   7
ATOM      7  C   UNL     1      23.517  -9.768  32.939  1.00  0.00     0.053 C 
BRANCH   7   8
ATOM      8  C   UNL     1      24.648 -10.257  33.792  1.00  0.00     0.041 C 
ATOM      9  O   UNL     1      25.496 -11.061  33.322  1.00  0.00    -0.550 OA
ATOM     10  O   UNL     1      24.779  -9.804  35.098  1.00  0.00    -0.550 OA
ENDBRANCH   7   8
ENDBRANCH   6   7
ENDBRANCH   5   6
ENDBRANCH   4   5
ENDBRANCH   3   4
ENDBRANCH   2   3
ENDBRANCH   1   2
BRANCH   1  11
ATOM     11  C   UNL     1      26.762  -9.524  30.196  1.00  0.00     0.000 C 
BRANCH  11  12
ATOM     12  C   UNL     1      28.243  -9.906  30.347  1.00  0.00     0.000 C 
BRANCH  12  13
ATOM     13  C   UNL     1      28.440 -11.163  31.213  1.00  0.00     0.000 C 
BRANCH  13  14
ATOM     14  C   UNL     1      29.882 -11.308  31.724  1.00  0.00     0.000 C 
BRANCH  14  15
ATOM     15  C   UNL     1      30.918 -10.736  30.740  1.00  0.00     0.000 C 
BRANCH  15  16
ATOM     16  C   UNL     1      31.843  -9.692  31.399  1.00  0.00     0.006 C 
BRANCH  16  17
ATOM     17  C   UNL     1      31.300  -8.255  31.323  1.00  0.00     0.053 C 
BRANCH  17  18
ATOM     18  C   UNL     1      30.907  -7.722  32.666  1.00  0.00     0.041 C 
ATOM     19  O   UNL     1      30.142  -6.726  32.753  1.00  0.00    -0.550 OA
ATOM     20  O   UNL     1      31.369  -8.339  33.822  1.00  0.00    -0.550 OA
ENDBRANCH  17  18
ENDBRANCH  16  17
ENDBRANCH  15  16
ENDBRANCH  14  15
ENDBRANCH  13  14
ENDBRANCH  12  13
ENDBRANCH  11  12
ENDBRANCH   1  11
TORSDOF 15
ENDMDL
MODEL 7
REMARK VINA RESULT:    -3.414      1.320      2.326
REMARK INTER + INTRA:          -7.886
REMARK INTER:                  -6.130
REMARK INTRA:                  -1.756
REMARK UNBOUND:                -1.480
REMARK SMILES O=C([O-])CCCCCCCCCCCCCCC(=O)[O-]
REMARK SMILES IDX 10 1 9 2 8 3 7 4 6 5 5 6 4 7 2 8 1 9 3 10 11 11 12 12 13 13
REMARK SMILES IDX 14 14 15 15 16 16 17 17 18 18 19 19 20 20
REMARK H PARENT
REMARK Flexibility Score: inf
ROOT
ATOM      1  C   UNL     1      24.747  -8.240  30.002  1.00  0.00     0.000 C 
ENDROOT
BRANCH   1   2
ATOM      2  C   UNL     1      25.832  -9.120  29.358  1.00  0.00     0.000 C 
BRANCH   2   3
ATOM      3  C   UNL     1      26.991  -9.510  30.298  1.00  0.00     0.000 C 
BRANCH   3   4
ATOM      4  C   UNL     1      28.016 -10.496  29.701  1.00  0.00     0.000 C 
BRANCH   4   5
ATOM      5  C   UNL     1      29.354 -10.583  30.458  1.00  0.00     0.000 C 
BRANCH   5   6
ATOM      6  C   UNL     1      29.622  -9.352  31.339  1.00  0.00     0.006 C 
BRANCH   6   7
ATOM      7  C   UNL     1      30.979  -9.434  32.051  1.00  0.00     0.053 C 
BRANCH   7   8
ATOM      8  C   UNL     1      31.286  -8.178  32.808  1.00  0.00     0.041 C 
ATOM      9  O   UNL     1      31.568  -8.230  34.035  1.00  0.00    -0.550 OA
ATOM     10  O   UNL     1      31.286  -6.954  32.153  1.00  0.00    -0.550 OA
ENDBRANCH   7   8
ENDBRANCH   6   7
ENDBRANCH   5   6
ENDBRANCH   4   5
ENDBRANCH   3   4
ENDBRANCH   2   3
ENDBRANCH   1   2
BRANCH   1  11
ATOM     11  C   UNL     1      23.407  -8.976  30.169  1.00  0.00     0.000 C 
BRANCH  11  12
ATOM     12  C   UNL     1      23.434 -10.391  29.569  1.00  0.00     0.000 C 
BRANCH  12  13
ATOM     13  C   UNL     1      23.166 -11.481  30.622  1.00  0.00     0.000 C 
BRANCH  13  14
ATOM     14  C   UNL     1      24.442 -11.918  31.357  1.00  0.00     0.000 C 
BRANCH  14  15
ATOM     15  C   UNL     1      24.362 -11.676  32.875  1.00  0.00     0.000 C 
BRANCH  15  16
ATOM     16  C   UNL     1      25.133 -10.414  33.312  1.00  0.00     0.006 C 
BRANCH  16  17
ATOM     17  C   UNL     1      24.235  -9.325  33.923  1.00  0.00     0.053 C 
BRANCH  17  18
ATOM     18  C   UNL     1      24.198  -9.388  35.418  1.00  0.00     0.041 C 
ATOM     19  O   UNL     1      24.406  -8.351  36.101  1.00  0.00    -0.550 OA
ATOM     20  O   UNL     1      23.912 -10.588  36.057  1.00  0.00    -0.550 OA
ENDBRANCH  17  18
ENDBRANCH  16  17
ENDBRANCH  15  16
ENDBRANCH  14  15
ENDBRANCH  13  14
ENDBRANCH  12  13
ENDBRANCH  11  12
ENDBRANCH   1  11
TORSDOF 15
ENDMDL
MODEL 8
REMARK VINA RESULT:    -3.293      1.464      6.510
REMARK INTER + INTRA:          -7.660
REMARK INTER:                  -5.901
REMARK INTRA:                  -1.759
REMARK UNBOUND:                -1.480
REMARK SMILES O=C([O-])CCCCCCCCCCCCCCC(=O)[O-]
REMARK SMILES IDX 10 1 9 2 8 3 7 4 6 5 5 6 4 7 2 8 1 9 3 10 11 11 12 12 13 13
REMARK SMILES IDX 14 14 15 15 16 16 17 17 18 18 19 19 20 20
REMARK H PARENT
REMARK Flexibility Score: inf
ROOT
ATOM      1  C   UNL     1      24.242  -9.383  31.469  1.00  0.00     0.000 C 
ENDROOT
BRANCH   1   2
ATOM      2  C   UNL     1      25.131  -9.592  32.707  1.00  0.00     0.000 C 
BRANCH   2   3
ATOM      3  C   UNL     1      25.736 -11.004  32.840  1.00  0.00     0.000 C 
BRANCH   3   4
ATOM      4  C   UNL     1      24.782 -12.074  33.409  1.00  0.00     0.000 C 
BRANCH   4   5
ATOM      5  C   UNL     1      24.693 -12.116  34.946  1.00  0.00     0.000 C 
BRANCH   5   6
ATOM      6  C   UNL     1      23.248 -12.016  35.462  1.00  0.00     0.006 C 
BRANCH   6   7
ATOM      7  C   UNL     1      23.048 -10.813  36.393  1.00  0.00     0.053 C 
BRANCH   7   8
ATOM      8  C   UNL     1      22.882  -9.537  35.625  1.00  0.00     0.041 C 
ATOM      9  O   UNL     1      22.171  -9.510  34.585  1.00  0.00    -0.550 OA
ATOM     10  O   UNL     1      23.492  -8.372  36.072  1.00  0.00    -0.550 OA
ENDBRANCH   7   8
ENDBRANCH   6   7
ENDBRANCH   5   6
ENDBRANCH   4   5
ENDBRANCH   3   4
ENDBRANCH   2   3
ENDBRANCH   1   2
BRANCH   1  11
ATOM     11  C   UNL     1      24.799 -10.073  30.213  1.00  0.00     0.000 C 
BRANCH  11  12
ATOM     12  C   UNL     1      25.533  -9.096  29.281  1.00  0.00     0.000 C 
BRANCH  12  13
ATOM     13  C   UNL     1      27.005  -9.490  29.059  1.00  0.00     0.000 C 
BRANCH  13  14
ATOM     14  C   UNL     1      27.346 -10.863  29.661  1.00  0.00     0.000 C 
BRANCH  14  15
ATOM     15  C   UNL     1      28.669 -10.851  30.446  1.00  0.00     0.000 C 
BRANCH  15  16
ATOM     16  C   UNL     1      28.917  -9.509  31.164  1.00  0.00     0.006 C 
BRANCH  16  17
ATOM     17  C   UNL     1      30.403  -9.129  31.264  1.00  0.00     0.053 C 
BRANCH  17  18
ATOM     18  C   UNL     1      30.694  -8.269  32.454  1.00  0.00     0.041 C 
ATOM     19  O   UNL     1      31.520  -8.651  33.324  1.00  0.00    -0.550 OA
ATOM     20  O   UNL     1      30.070  -7.036  32.591  1.00  0.00    -0.550 OA
ENDBRANCH  17  18
ENDBRANCH  16  17
ENDBRANCH  15  16
ENDBRANCH  14  15
ENDBRANCH  13  14
ENDBRANCH  12  13
ENDBRANCH  11  12
ENDBRANCH   1  11
TORSDOF 15
ENDMDL
MODEL 9
REMARK VINA RESULT:    -3.266      1.731      7.181
REMARK INTER + INTRA:          -7.610
REMARK INTER:                  -6.278
REMARK INTRA:                  -1.332
REMARK UNBOUND:                -1.480
REMARK SMILES O=C([O-])CCCCCCCCCCCCCCC(=O)[O-]
REMARK SMILES IDX 10 1 9 2 8 3 7 4 6 5 5 6 4 7 2 8 1 9 3 10 11 11 12 12 13 13
REMARK SMILES IDX 14 14 15 15 16 16 17 17 18 18 19 19 20 20
REMARK H PARENT
REMARK Flexibility Score: inf
ROOT
ATOM      1  C   UNL     1      28.208  -9.698  30.863  1.00  0.00     0.000 C 
ENDROOT
BRANCH   1   2
ATOM      2  C   UNL     1      26.691  -9.489  30.723  1.00  0.00     0.000 C 
BRANCH   2   3
ATOM      3  C   UNL     1      26.176  -9.425  29.271  1.00  0.00     0.000 C 
BRANCH   3   4
ATOM      4  C   UNL     1      24.905  -8.579  29.062  1.00  0.00     0.000 C 
BRANCH   4   5
ATOM      5  C   UNL     1      23.721  -9.329  28.424  1.00  0.00     0.000 C 
BRANCH   5   6
ATOM      6  C   UNL     1      22.580  -9.599  29.418  1.00  0.00     0.006 C 
BRANCH   6   7
ATOM      7  C   UNL     1      22.730  -8.779  30.707  1.00  0.00     0.053 C 
BRANCH   7   8
ATOM      8  C   UNL     1      22.853  -9.658  31.914  1.00  0.00     0.041 C 
ATOM      9  O   UNL     1      23.810  -9.501  32.718  1.00  0.00    -0.550 OA
ATOM     10  O   UNL     1      21.897 -10.633  32.164  1.00  0.00    -0.550 OA
ENDBRANCH   7   8
ENDBRANCH   6   7
ENDBRANCH   5   6
ENDBRANCH   4   5
ENDBRANCH   3   4
ENDBRANCH   2   3
ENDBRANCH   1   2
BRANCH   1  11
ATOM     11  C   UNL     1      28.783 -10.629  29.783  1.00  0.00     0.000 C 
BRANCH  11  12
ATOM     12  C   UNL     1      29.060 -12.044  30.312  1.00  0.00     0.000 C 
BRANCH  12  13
ATOM     13  C   UNL     1      30.371 -12.125  31.114  1.00  0.00     0.000 C 
BRANCH  13  14
ATOM     14  C   UNL     1      31.596 -11.703  30.286  1.00  0.00     0.000 C 
BRANCH  14  15
ATOM     15  C   UNL     1      32.518 -10.733  31.047  1.00  0.00     0.000 C 
BRANCH  15  16
ATOM     16  C   UNL     1      31.857  -9.361  31.289  1.00  0.00     0.006 C 
BRANCH  16  17
ATOM     17  C   UNL     1      31.532  -9.087  32.767  1.00  0.00     0.053 C 
BRANCH  17  18
ATOM     18  C   UNL     1      31.210  -7.647  33.023  1.00  0.00     0.041 C 
ATOM     19  O   UNL     1      31.947  -6.957  33.775  1.00  0.00    -0.550 OA
ATOM     20  O   UNL     1      30.108  -7.061  32.414  1.00  0.00    -0.550 OA
ENDBRANCH  17  18
ENDBRANCH  16  17
ENDBRANCH  15  16
ENDBRANCH  14  15
ENDBRANCH  13  14
ENDBRANCH  12  13
ENDBRANCH  11  12
ENDBRANCH   1  11
TORSDOF 15
ENDMDL
