MODEL 1
REMARK VINA RESULT:    -3.755      0.000      0.000
REMARK INTER + INTRA:          -4.696
REMARK INTER:                  -4.634
REMARK INTRA:                  -0.062
REMARK UNBOUND:                -0.062
REMARK SMILES CCCCCC(=O)[O-]
REMARK SMILES IDX 4 1 5 2 6 3 7 4 8 5 3 6 2 7 1 8
REMARK H PARENT
REMARK Flexibility Score: inf
ROOT
ATOM      1  C   UNL     1       6.471  -2.272  -5.625  1.00  0.00     0.006 C 
ENDROOT
BRANCH   1   2
ATOM      2  C   UNL     1       5.776  -3.635  -5.582  1.00  0.00     0.053 C 
BRANCH   2   3
ATOM      3  C   UNL     1       6.765  -4.721  -5.302  1.00  0.00     0.041 C 
ATOM      4  O   UNL     1       7.275  -4.836  -4.156  1.00  0.00    -0.550 OA
ATOM      5  O   UNL     1       7.088  -5.640  -6.294  1.00  0.00    -0.550 OA
ENDBRANCH   2   3
ENDBRANCH   1   2
BRANCH   1   6
ATOM      6  C   UNL     1       5.584  -1.224  -6.312  1.00  0.00     0.000 C 
BRANCH   6   7
ATOM      7  C   UNL     1       4.718  -0.438  -5.316  1.00  0.00    -0.003 C 
ATOM      8  C   UNL     1       5.428   0.793  -4.755  1.00  0.00     0.004 C 
ENDBRANCH   6   7
ENDBRANCH   1   6
TORSDOF 4
ENDMDL
MODEL 2
REMARK VINA RESULT:    -3.752      0.089      1.148
REMARK INTER + INTRA:          -4.692
REMARK INTER:                  -4.629
REMARK INTRA:                  -0.064
REMARK UNBOUND:                -0.062
REMARK SMILES CCCCCC(=O)[O-]
REMARK SMILES IDX 4 1 5 2 6 3 7 4 8 5 3 6 2 7 1 8
REMARK H PARENT
REMARK Flexibility Score: inf
ROOT
ATOM      1  C   UNL     1       6.391  -2.263  -5.575  1.00  0.00     0.006 C 
ENDROOT
BRANCH   1   2
ATOM      2  C   UNL     1       5.702  -3.630  -5.621  1.00  0.00     0.053 C 
BRANCH   2   3
ATOM      3  C   UNL     1       6.685  -4.723  -5.348  1.00  0.00     0.041 C 
ATOM      4  O   UNL     1       7.004  -5.532  -6.259  1.00  0.00    -0.550 OA
ATOM      5  O   UNL     1       7.289  -4.819  -4.100  1.00  0.00    -0.550 OA
ENDBRANCH   2   3
ENDBRANCH   1   2
BRANCH   1   6
ATOM      6  C   UNL     1       5.572  -1.208  -6.334  1.00  0.00     0.000 C 
BRANCH   6   7
ATOM      7  C   UNL     1       4.685  -0.368  -5.402  1.00  0.00    -0.003 C 
ATOM      8  C   UNL     1       5.447   0.773  -4.729  1.00  0.00     0.004 C 
ENDBRANCH   6   7
ENDBRANCH   1   6
TORSDOF 4
ENDMDL
MODEL 3
REMARK VINA RESULT:    -3.521      3.317      4.685
REMARK INTER + INTRA:          -4.407
REMARK INTER:                  -4.271
REMARK INTRA:                  -0.135
REMARK UNBOUND:                -0.062
REMARK SMILES CCCCCC(=O)[O-]
REMARK SMILES IDX 4 1 5 2 6 3 7 4 8 5 3 6 2 7 1 8
REMARK H PARENT
REMARK Flexibility Score: inf
ROOT
ATOM      1  C   UNL     1       5.689  -1.551  -6.835  1.00  0.00     0.006 C 
ENDROOT
BRANCH   1   2
ATOM      2  C   UNL     1       6.104  -0.850  -5.539  1.00  0.00     0.053 C 
BRANCH   2   3
ATOM      3  C   UNL     1       5.133   0.233  -5.193  1.00  0.00     0.041 C 
ATOM      4  O   UNL     1       4.049   0.338  -5.824  1.00  0.00    -0.550 OA
ATOM      5  O   UNL     1       5.403   1.098  -4.140  1.00  0.00    -0.550 OA
ENDBRANCH   2   3
ENDBRANCH   1   2
BRANCH   1   6
ATOM      6  C   UNL     1       6.082  -3.036  -6.809  1.00  0.00     0.000 C 
BRANCH   6   7
ATOM      7  C   UNL     1       5.632  -3.743  -5.521  1.00  0.00    -0.003 C 
ATOM      8  C   UNL     1       6.776  -4.467  -4.812  1.00  0.00     0.004 C 
ENDBRANCH   6   7
ENDBRANCH   1   6
TORSDOF 4
ENDMDL
MODEL 4
REMARK VINA RESULT:    -3.495      0.992      1.505
REMARK INTER + INTRA:          -4.374
REMARK INTER:                  -4.326
REMARK INTRA:                  -0.048
REMARK UNBOUND:                -0.062
REMARK SMILES CCCCCC(=O)[O-]
REMARK SMILES IDX 4 1 5 2 6 3 7 4 8 5 3 6 2 7 1 8
REMARK H PARENT
REMARK Flexibility Score: inf
ROOT
ATOM      1  C   UNL     1       5.900  -2.136  -6.040  1.00  0.00     0.006 C 
ENDROOT
BRANCH   1   2
ATOM      2  C   UNL     1       6.949  -2.923  -5.250  1.00  0.00     0.053 C 
BRANCH   2   3
ATOM      3  C   UNL     1       6.651  -4.388  -5.297  1.00  0.00     0.041 C 
ATOM      4  O   UNL     1       6.010  -4.874  -6.266  1.00  0.00    -0.550 OA
ATOM      5  O   UNL     1       7.125  -5.226  -4.296  1.00  0.00    -0.550 OA
ENDBRANCH   2   3
ENDBRANCH   1   2
BRANCH   1   6
ATOM      6  C   UNL     1       5.996  -0.633  -5.735  1.00  0.00     0.000 C 
BRANCH   6   7
ATOM      7  C   UNL     1       4.644  -0.025  -5.332  1.00  0.00    -0.003 C 
ATOM      8  C   UNL     1       4.130   0.999  -6.343  1.00  0.00     0.004 C 
ENDBRANCH   6   7
ENDBRANCH   1   6
TORSDOF 4
ENDMDL
MODEL 5
REMARK VINA RESULT:    -3.291      3.998      5.359
REMARK INTER + INTRA:          -4.123
REMARK INTER:                  -4.002
REMARK INTRA:                  -0.121
REMARK UNBOUND:                -0.062
REMARK SMILES CCCCCC(=O)[O-]
REMARK SMILES IDX 4 1 5 2 6 3 7 4 8 5 3 6 2 7 1 8
REMARK H PARENT
REMARK Flexibility Score: inf
ROOT
ATOM      1  C   UNL     1       4.717  -0.547  -5.307  1.00  0.00     0.006 C 
ENDROOT
BRANCH   1   2
ATOM      2  C   UNL     1       5.243   0.863  -5.022  1.00  0.00     0.053 C 
BRANCH   2   3
ATOM      3  C   UNL     1       5.013   1.757  -6.199  1.00  0.00     0.041 C 
ATOM      4  O   UNL     1       5.989   2.276  -6.801  1.00  0.00    -0.550 OA
ATOM      5  O   UNL     1       3.722   1.977  -6.663  1.00  0.00    -0.550 OA
ENDBRANCH   2   3
ENDBRANCH   1   2
BRANCH   1   6
ATOM      6  C   UNL     1       5.627  -1.282  -6.303  1.00  0.00     0.000 C 
BRANCH   6   7
ATOM      7  C   UNL     1       6.455  -2.392  -5.638  1.00  0.00    -0.003 C 
ATOM      8  C   UNL     1       5.724  -3.733  -5.599  1.00  0.00     0.004 C 
ENDBRANCH   6   7
ENDBRANCH   1   6
TORSDOF 4
ENDMDL
MODEL 6
REMARK VINA RESULT:    -3.074      2.682      3.581
REMARK INTER + INTRA:          -3.855
REMARK INTER:                  -3.600
REMARK INTRA:                  -0.255
REMARK UNBOUND:                -0.062
REMARK SMILES CCCCCC(=O)[O-]
REMARK SMILES IDX 4 1 5 2 6 3 7 4 8 5 3 6 2 7 1 8
REMARK H PARENT
REMARK Flexibility Score: inf
ROOT
ATOM      1  C   UNL     1       5.340   0.845  -4.914  1.00  0.00     0.006 C 
ENDROOT
BRANCH   1   2
ATOM      2  C   UNL     1       4.685  -0.462  -5.369  1.00  0.00     0.053 C 
BRANCH   2   3
ATOM      3  C   UNL     1       5.656  -1.294  -6.144  1.00  0.00     0.041 C 
ATOM      4  O   UNL     1       6.637  -1.829  -5.564  1.00  0.00    -0.550 OA
ATOM      5  O   UNL     1       5.451  -1.521  -7.500  1.00  0.00    -0.550 OA
ENDBRANCH   2   3
ENDBRANCH   1   2
BRANCH   1   6
ATOM      6  C   UNL     1       5.395   1.862  -6.064  1.00  0.00     0.000 C 
BRANCH   6   7
ATOM      7  C   UNL     1       4.044   2.017  -6.780  1.00  0.00    -0.003 C 
ATOM      8  C   UNL     1       4.159   1.873  -8.297  1.00  0.00     0.004 C 
ENDBRANCH   6   7
ENDBRANCH   1   6
TORSDOF 4
ENDMDL
MODEL 7
REMARK VINA RESULT:    -3.037     11.426     12.210
REMARK INTER + INTRA:          -3.809
REMARK INTER:                  -3.701
REMARK INTRA:                  -0.109
REMARK UNBOUND:                -0.062
REMARK SMILES CCCCCC(=O)[O-]
REMARK SMILES IDX 4 1 5 2 6 3 7 4 8 5 3 6 2 7 1 8
REMARK H PARENT
REMARK Flexibility Score: inf
ROOT
ATOM      1  C   UNL     1       6.184   8.502  -2.445  1.00  0.00     0.006 C 
ENDROOT
BRANCH   1   2
ATOM      2  C   UNL     1       5.018   8.892  -1.534  1.00  0.00     0.053 C 
BRANCH   2   3
ATOM      3  C   UNL     1       5.262   8.420  -0.136  1.00  0.00     0.041 C 
ATOM      4  O   UNL     1       4.557   8.854   0.812  1.00  0.00    -0.550 OA
ATOM      5  O   UNL     1       6.238   7.463   0.114  1.00  0.00    -0.550 OA
ENDBRANCH   2   3
ENDBRANCH   1   2
BRANCH   1   6
ATOM      6  C   UNL     1       5.888   8.869  -3.906  1.00  0.00     0.000 C 
BRANCH   6   7
ATOM      7  C   UNL     1       4.580   8.247  -4.419  1.00  0.00    -0.003 C 
ATOM      8  C   UNL     1       3.758   9.214  -5.269  1.00  0.00     0.004 C 
ENDBRANCH   6   7
ENDBRANCH   1   6
TORSDOF 4
ENDMDL
MODEL 8
REMARK VINA RESULT:    -2.920      4.151      5.479
REMARK INTER + INTRA:          -3.666
REMARK INTER:                  -3.394
REMARK INTRA:                  -0.271
REMARK UNBOUND:                -0.062
REMARK SMILES CCCCCC(=O)[O-]
REMARK SMILES IDX 4 1 5 2 6 3 7 4 8 5 3 6 2 7 1 8
REMARK H PARENT
REMARK Flexibility Score: inf
ROOT
ATOM      1  C   UNL     1       5.201   1.117  -5.372  1.00  0.00     0.006 C 
ENDROOT
BRANCH   1   2
ATOM      2  C   UNL     1       4.448   1.992  -6.377  1.00  0.00     0.053 C 
BRANCH   2   3
ATOM      3  C   UNL     1       4.778   1.585  -7.778  1.00  0.00     0.041 C 
ATOM      4  O   UNL     1       3.861   1.258  -8.576  1.00  0.00    -0.550 OA
ATOM      5  O   UNL     1       6.096   1.614  -8.218  1.00  0.00    -0.550 OA
ENDBRANCH   2   3
ENDBRANCH   1   2
BRANCH   1   6
ATOM      6  C   UNL     1       4.697  -0.333  -5.418  1.00  0.00     0.000 C 
BRANCH   6   7
ATOM      7  C   UNL     1       5.826  -1.344  -5.670  1.00  0.00    -0.003 C 
ATOM      8  C   UNL     1       5.808  -1.910  -7.089  1.00  0.00     0.004 C 
ENDBRANCH   6   7
ENDBRANCH   1   6
TORSDOF 4
ENDMDL
MODEL 9
REMARK VINA RESULT:    -2.874      3.790      4.892
REMARK INTER + INTRA:          -3.608
REMARK INTER:                  -3.404
REMARK INTRA:                  -0.204
REMARK UNBOUND:                -0.062
REMARK SMILES CCCCCC(=O)[O-]
REMARK SMILES IDX 4 1 5 2 6 3 7 4 8 5 3 6 2 7 1 8
REMARK H PARENT
REMARK Flexibility Score: inf
ROOT
ATOM      1  C   UNL     1       4.473   1.079  -7.670  1.00  0.00     0.006 C 
ENDROOT
BRANCH   1   2
ATOM      2  C   UNL     1       3.889   1.029  -6.256  1.00  0.00     0.053 C 
BRANCH   2   3
ATOM      3  C   UNL     1       4.847   0.373  -5.315  1.00  0.00     0.041 C 
ATOM      4  O   UNL     1       5.336   1.021  -4.352  1.00  0.00    -0.550 OA
ATOM      5  O   UNL     1       5.164  -0.971  -5.470  1.00  0.00    -0.550 OA
ENDBRANCH   2   3
ENDBRANCH   1   2
BRANCH   1   6
ATOM      6  C   UNL     1       4.533   2.523  -8.190  1.00  0.00     0.000 C 
BRANCH   6   7
ATOM      7  C   UNL     1       5.553   3.383  -7.428  1.00  0.00    -0.003 C 
ATOM      8  C   UNL     1       6.970   2.814  -7.488  1.00  0.00     0.004 C 
ENDBRANCH   6   7
ENDBRANCH   1   6
TORSDOF 4
ENDMDL
