MODEL 1
REMARK VINA RESULT:    25.872      0.000      0.000
REMARK INTER + INTRA:          38.267
REMARK INTER:                  35.703
REMARK INTRA:                   2.564
REMARK UNBOUND:                 2.564
REMARK SMILES C=C(CC[C@H](C(=O)[O-])[C@H]1CC[C@]2(C)C3=C(CC[C@]12C)[C@]1(C)CC[C@H](O)C(C)(C)[C@@H]1CC3)C(C)C
REMARK SMILES IDX 4 1 5 2 6 3 7 4 8 5 9 6 10 7 18 8 11 9 12 10 17 11 19 12
REMARK SMILES IDX 13 13 14 14 16 15 15 16 31 17 20 18 30 19 29 20 22 21 21 22
REMARK SMILES IDX 26 23 23 24 24 25 27 26 28 27 25 28 3 30 2 31 1 32 32 33
REMARK SMILES IDX 33 34 34 35
REMARK H PARENT 25 29
REMARK Flexibility Score: inf
ROOT
ATOM      1  C   UNL     1       7.873 -35.635  18.283  1.00  0.00     0.014 C 
ENDROOT
BRANCH   1   2
ATOM      2  C   UNL     1       7.492 -35.537  16.777  1.00  0.00     0.039 C 
BRANCH   2   3
ATOM      3  C   UNL     1       7.318 -36.938  16.227  1.00  0.00     0.045 C 
ATOM      4  O   UNL     1       7.687 -37.206  15.051  1.00  0.00    -0.550 OA
ATOM      5  O   UNL     1       6.799 -37.950  17.027  1.00  0.00    -0.550 OA
ENDBRANCH   2   3
BRANCH   2   6
ATOM      6  C   UNL     1       8.532 -34.746  15.901  1.00  0.00     0.004 C 
ATOM      7  C   UNL     1       8.962 -35.574  14.672  1.00  0.00     0.006 C 
ATOM      8  C   UNL     1       8.127 -33.317  15.343  1.00  0.00    -0.020 C 
ATOM      9  C   UNL     1       8.838 -34.685  13.457  1.00  0.00     0.012 C 
ATOM     10  C   UNL     1       8.907 -33.229  13.963  1.00  0.00    -0.006 C 
ATOM     11  C   UNL     1       8.546 -32.191  16.361  1.00  0.00     0.012 C 
ATOM     12  C   UNL     1       6.589 -33.220  15.113  1.00  0.00     0.012 C 
ATOM     13  C   UNL     1       8.266 -32.322  12.876  1.00  0.00     0.017 C 
ATOM     14  C   UNL     1      10.371 -32.755  14.172  1.00  0.00    -0.064 C 
ATOM     15  C   UNL     1       9.465 -31.131  15.769  1.00  0.00     0.032 C 
ATOM     16  C   UNL     1      10.656 -31.790  15.092  1.00  0.00    -0.064 C 
ATOM     17  C   UNL     1      11.458 -33.305  13.281  1.00  0.00     0.032 C 
ATOM     18  C   UNL     1      12.101 -31.300  15.416  1.00  0.00    -0.008 C 
ATOM     19  C   UNL     1      12.655 -32.379  13.173  1.00  0.00     0.009 C 
ATOM     20  C   UNL     1      13.211 -32.072  14.581  1.00  0.00     0.007 C 
ATOM     21  C   UNL     1      12.145 -29.780  15.084  1.00  0.00     0.014 C 
ATOM     22  C   UNL     1      12.319 -31.548  16.937  1.00  0.00     0.016 C 
ATOM     23  C   UNL     1      14.654 -31.384  14.538  1.00  0.00    -0.006 C 
ATOM     24  C   UNL     1      13.536 -29.145  15.135  1.00  0.00     0.033 C 
ATOM     25  C   UNL     1      14.541 -29.862  14.218  1.00  0.00     0.120 C 
ATOM     26  C   UNL     1      15.569 -32.072  13.471  1.00  0.00     0.014 C 
ATOM     27  C   UNL     1      15.410 -31.570  15.892  1.00  0.00     0.014 C 
BRANCH  25  28
ATOM     28  O   UNL     1      14.170 -29.662  12.875  1.00  0.00    -0.393 OA
ATOM     29  H   UNL     1      14.995 -29.744  12.334  1.00  0.00     0.210 HD
ENDBRANCH  25  28
ENDBRANCH   2   6
ENDBRANCH   1   2
BRANCH   1  30
ATOM     30  C   UNL     1       8.522 -34.353  18.838  1.00  0.00     0.031 C 
BRANCH  30  31
ATOM     31  C   UNL     1       7.540 -33.209  18.993  1.00  0.00    -0.075 C 
ATOM     32  C   UNL     1       6.244 -33.403  18.692  1.00  0.00     0.008 C 
BRANCH  31  33
ATOM     33  C   UNL     1       8.048 -31.835  19.413  1.00  0.00     0.008 C 
ATOM     34  C   UNL     1       9.491 -31.615  18.933  1.00  0.00     0.012 C 
ATOM     35  C   UNL     1       7.128 -30.710  18.923  1.00  0.00     0.012 C 
ENDBRANCH  31  33
ENDBRANCH  30  31
ENDBRANCH   1  30
TORSDOF 7
ENDMDL
MODEL 2
REMARK VINA RESULT:    28.285      0.854      1.124
REMARK INTER + INTRA:          41.597
REMARK INTER:                  38.979
REMARK INTRA:                   2.617
REMARK UNBOUND:                 2.564
REMARK SMILES C=C(CC[C@H](C(=O)[O-])[C@H]1CC[C@]2(C)C3=C(CC[C@]12C)[C@]1(C)CC[C@H](O)C(C)(C)[C@@H]1CC3)C(C)C
REMARK SMILES IDX 4 1 5 2 6 3 7 4 8 5 9 6 10 7 18 8 11 9 12 10 17 11 19 12
REMARK SMILES IDX 13 13 14 14 16 15 15 16 31 17 20 18 30 19 29 20 22 21 21 22
REMARK SMILES IDX 26 23 23 24 24 25 27 26 28 27 25 28 3 30 2 31 1 32 32 33
REMARK SMILES IDX 33 34 34 35
REMARK H PARENT 25 29
REMARK Flexibility Score: inf
ROOT
ATOM      1  C   UNL     1       7.905 -34.501  18.622  1.00  0.00     0.014 C 
ENDROOT
BRANCH   1   2
ATOM      2  C   UNL     1       7.744 -34.823  17.108  1.00  0.00     0.039 C 
BRANCH   2   3
ATOM      3  C   UNL     1       7.682 -36.326  16.934  1.00  0.00     0.045 C 
ATOM      4  O   UNL     1       7.420 -36.821  15.804  1.00  0.00    -0.550 OA
ATOM      5  O   UNL     1       7.960 -37.172  18.002  1.00  0.00    -0.550 OA
ENDBRANCH   2   3
BRANCH   2   6
ATOM      6  C   UNL     1       8.881 -34.227  16.199  1.00  0.00     0.004 C 
ATOM      7  C   UNL     1       9.303 -35.236  15.110  1.00  0.00     0.006 C 
ATOM      8  C   UNL     1       8.614 -32.858  15.444  1.00  0.00    -0.020 C 
ATOM      9  C   UNL     1       9.305 -34.506  13.789  1.00  0.00     0.012 C 
ATOM     10  C   UNL     1       9.462 -33.005  14.109  1.00  0.00    -0.006 C 
ATOM     11  C   UNL     1       9.071 -31.641  16.333  1.00  0.00     0.012 C 
ATOM     12  C   UNL     1       7.100 -32.683  15.117  1.00  0.00     0.012 C 
ATOM     13  C   UNL     1       8.944 -32.204  12.883  1.00  0.00     0.017 C 
ATOM     14  C   UNL     1      10.947 -32.611  14.339  1.00  0.00    -0.064 C 
ATOM     15  C   UNL     1      10.095 -30.735  15.665  1.00  0.00     0.032 C 
ATOM     16  C   UNL     1      11.261 -31.558  15.144  1.00  0.00    -0.064 C 
ATOM     17  C   UNL     1      12.029 -33.348  13.587  1.00  0.00     0.032 C 
ATOM     18  C   UNL     1      12.724 -31.133  15.484  1.00  0.00    -0.008 C 
ATOM     19  C   UNL     1      13.297 -32.531  13.430  1.00  0.00     0.009 C 
ATOM     20  C   UNL     1      13.809 -32.082  14.818  1.00  0.00     0.007 C 
ATOM     21  C   UNL     1      12.900 -29.676  14.966  1.00  0.00     0.014 C 
ATOM     22  C   UNL     1      12.850 -31.195  17.035  1.00  0.00     0.016 C 
ATOM     23  C   UNL     1      15.301 -31.510  14.769  1.00  0.00    -0.006 C 
ATOM     24  C   UNL     1      14.331 -29.139  15.016  1.00  0.00     0.033 C 
ATOM     25  C   UNL     1      15.320 -30.038  14.254  1.00  0.00     0.120 C 
ATOM     26  C   UNL     1      16.209 -32.393  13.851  1.00  0.00     0.014 C 
ATOM     27  C   UNL     1      15.976 -31.570  16.176  1.00  0.00     0.014 C 
BRANCH  25  28
ATOM     28  O   UNL     1      15.028 -29.989  12.878  1.00  0.00    -0.393 OA
ATOM     29  H   UNL     1      14.047 -30.090  12.788  1.00  0.00     0.210 HD
ENDBRANCH  25  28
ENDBRANCH   2   6
ENDBRANCH   1   2
BRANCH   1  30
ATOM     30  C   UNL     1       6.854 -33.511  19.157  1.00  0.00     0.031 C 
BRANCH  30  31
ATOM     31  C   UNL     1       6.730 -32.260  18.311  1.00  0.00    -0.075 C 
ATOM     32  C   UNL     1       5.908 -32.259  17.246  1.00  0.00     0.008 C 
BRANCH  31  33
ATOM     33  C   UNL     1       7.596 -31.048  18.631  1.00  0.00     0.008 C 
ATOM     34  C   UNL     1       6.733 -29.866  19.096  1.00  0.00     0.012 C 
ATOM     35  C   UNL     1       8.681 -31.377  19.665  1.00  0.00     0.012 C 
ENDBRANCH  31  33
ENDBRANCH  30  31
ENDBRANCH   1  30
TORSDOF 7
ENDMDL
