MODEL 1
REMARK VINA RESULT:    -3.347      0.000      0.000
REMARK INTER + INTRA:          -6.897
REMARK INTER:                  -5.890
REMARK INTRA:                  -1.006
REMARK UNBOUND:                -1.006
REMARK SMILES CCCCCCC=CCCCCCCCC(=O)[O-]
REMARK SMILES IDX 10 1 11 2 12 3 13 4 14 5 15 6 16 7 17 8 18 9 9 10 8 11 7 12
REMARK SMILES IDX 6 13 5 14 4 15 3 16 2 17 1 18
REMARK H PARENT
REMARK Flexibility Score: inf
ROOT
ATOM      1  C   UNL     1      53.822  38.479 137.335  1.00  0.00     0.004 C 
ENDROOT
BRANCH   1   2
ATOM      2  C   UNL     1      55.061  38.972 138.110  1.00  0.00     0.000 C 
BRANCH   2   3
ATOM      3  C   UNL     1      55.178  40.503 138.242  1.00  0.00     0.000 C 
BRANCH   3   4
ATOM      4  C   UNL     1      55.867  40.998 139.529  1.00  0.00     0.000 C 
BRANCH   4   5
ATOM      5  C   UNL     1      56.527  39.896 140.376  1.00  0.00     0.006 C 
BRANCH   5   6
ATOM      6  C   UNL     1      56.614  40.260 141.864  1.00  0.00     0.053 C 
BRANCH   6   7
ATOM      7  C   UNL     1      58.002  40.693 142.216  1.00  0.00     0.041 C 
ATOM      8  O   UNL     1      58.642  40.095 143.120  1.00  0.00    -0.550 OA
ATOM      9  O   UNL     1      58.570  41.789 141.579  1.00  0.00    -0.550 OA
ENDBRANCH   6   7
ENDBRANCH   5   6
ENDBRANCH   4   5
ENDBRANCH   3   4
ENDBRANCH   2   3
ENDBRANCH   1   2
BRANCH   1  10
ATOM     10  C   UNL     1      53.387  37.044 137.683  1.00  0.00     0.027 C 
BRANCH  10  11
ATOM     11  C   UNL     1      51.937  36.788 137.375  1.00  0.00    -0.031 C 
ATOM     12  C   UNL     1      50.985  36.928 138.310  1.00  0.00    -0.031 C 
BRANCH  12  13
ATOM     13  C   UNL     1      49.534  36.670 138.002  1.00  0.00     0.027 C 
BRANCH  13  14
ATOM     14  C   UNL     1      48.721  37.968 137.848  1.00  0.00     0.004 C 
BRANCH  14  15
ATOM     15  C   UNL     1      48.521  38.417 136.389  1.00  0.00     0.000 C 
BRANCH  15  16
ATOM     16  C   UNL     1      48.569  37.249 135.394  1.00  0.00    -0.000 C 
BRANCH  16  17
ATOM     17  C   UNL     1      49.212  37.680 134.071  1.00  0.00    -0.003 C 
ATOM     18  C   UNL     1      50.729  37.781 134.203  1.00  0.00     0.004 C 
ENDBRANCH  16  17
ENDBRANCH  15  16
ENDBRANCH  14  15
ENDBRANCH  13  14
ENDBRANCH  12  13
ENDBRANCH  10  11
ENDBRANCH   1  10
TORSDOF 13
ENDMDL
MODEL 2
REMARK VINA RESULT:    -3.308      6.869      9.519
REMARK INTER + INTRA:          -6.828
REMARK INTER:                  -5.831
REMARK INTRA:                  -0.997
REMARK UNBOUND:                -1.006
REMARK SMILES CCCCCCC=CCCCCCCCC(=O)[O-]
REMARK SMILES IDX 10 1 11 2 12 3 13 4 14 5 15 6 16 7 17 8 18 9 9 10 8 11 7 12
REMARK SMILES IDX 6 13 5 14 4 15 3 16 2 17 1 18
REMARK H PARENT
REMARK Flexibility Score: inf
ROOT
ATOM      1  C   UNL     1      49.596  43.154 137.169  1.00  0.00     0.004 C 
ENDROOT
BRANCH   1   2
ATOM      2  C   UNL     1      48.704  42.665 136.009  1.00  0.00     0.000 C 
BRANCH   2   3
ATOM      3  C   UNL     1      49.251  41.448 135.237  1.00  0.00     0.000 C 
BRANCH   3   4
ATOM      4  C   UNL     1      48.534  40.114 135.527  1.00  0.00     0.000 C 
BRANCH   4   5
ATOM      5  C   UNL     1      49.401  39.048 136.219  1.00  0.00     0.006 C 
BRANCH   5   6
ATOM      6  C   UNL     1      48.570  37.966 136.920  1.00  0.00     0.053 C 
BRANCH   6   7
ATOM      7  C   UNL     1      49.465  36.941 137.541  1.00  0.00     0.041 C 
ATOM      8  O   UNL     1      49.072  36.276 138.535  1.00  0.00    -0.550 OA
ATOM      9  O   UNL     1      50.753  36.756 137.054  1.00  0.00    -0.550 OA
ENDBRANCH   6   7
ENDBRANCH   5   6
ENDBRANCH   4   5
ENDBRANCH   3   4
ENDBRANCH   2   3
ENDBRANCH   1   2
BRANCH   1  10
ATOM     10  C   UNL     1      49.314  44.599 137.617  1.00  0.00     0.027 C 
BRANCH  10  11
ATOM     11  C   UNL     1      48.753  44.674 139.011  1.00  0.00    -0.031 C 
ATOM     12  C   UNL     1      47.975  45.695 139.402  1.00  0.00    -0.031 C 
BRANCH  12  13
ATOM     13  C   UNL     1      47.414  45.770 140.797  1.00  0.00     0.027 C 
BRANCH  13  14
ATOM     14  C   UNL     1      48.226  44.942 141.808  1.00  0.00     0.004 C 
BRANCH  14  15
ATOM     15  C   UNL     1      49.293  45.748 142.571  1.00  0.00     0.000 C 
BRANCH  15  16
ATOM     16  C   UNL     1      50.710  45.530 142.022  1.00  0.00    -0.000 C 
BRANCH  16  17
ATOM     17  C   UNL     1      51.367  46.865 141.654  1.00  0.00    -0.003 C 
ATOM     18  C   UNL     1      50.340  47.993 141.614  1.00  0.00     0.004 C 
ENDBRANCH  16  17
ENDBRANCH  15  16
ENDBRANCH  14  15
ENDBRANCH  13  14
ENDBRANCH  12  13
ENDBRANCH  10  11
ENDBRANCH   1  10
TORSDOF 13
ENDMDL
MODEL 3
REMARK VINA RESULT:    -3.273      5.760      8.682
REMARK INTER + INTRA:          -6.767
REMARK INTER:                  -5.080
REMARK INTRA:                  -1.687
REMARK UNBOUND:                -1.006
REMARK SMILES CCCCCCC=CCCCCCCCC(=O)[O-]
REMARK SMILES IDX 10 1 11 2 12 3 13 4 14 5 15 6 16 7 17 8 18 9 9 10 8 11 7 12
REMARK SMILES IDX 6 13 5 14 4 15 3 16 2 17 1 18
REMARK H PARENT
REMARK Flexibility Score: inf
ROOT
ATOM      1  C   UNL     1      46.605  38.953 132.964  1.00  0.00     0.004 C 
ENDROOT
BRANCH   1   2
ATOM      2  C   UNL     1      46.367  39.654 134.317  1.00  0.00     0.000 C 
BRANCH   2   3
ATOM      3  C   UNL     1      47.590  39.689 135.255  1.00  0.00     0.000 C 
BRANCH   3   4
ATOM      4  C   UNL     1      47.655  38.546 136.287  1.00  0.00     0.000 C 
BRANCH   4   5
ATOM      5  C   UNL     1      48.658  37.428 135.956  1.00  0.00     0.006 C 
BRANCH   5   6
ATOM      6  C   UNL     1      49.988  37.578 136.706  1.00  0.00     0.053 C 
BRANCH   6   7
ATOM      7  C   UNL     1      50.152  36.474 137.703  1.00  0.00     0.041 C 
ATOM      8  O   UNL     1      49.167  36.077 138.378  1.00  0.00    -0.550 OA
ATOM      9  O   UNL     1      51.406  35.918 137.923  1.00  0.00    -0.550 OA
ENDBRANCH   6   7
ENDBRANCH   5   6
ENDBRANCH   4   5
ENDBRANCH   3   4
ENDBRANCH   2   3
ENDBRANCH   1   2
BRANCH   1  10
ATOM     10  C   UNL     1      46.077  37.509 132.898  1.00  0.00     0.027 C 
BRANCH  10  11
ATOM     11  C   UNL     1      44.970  37.251 133.885  1.00  0.00    -0.031 C 
ATOM     12  C   UNL     1      43.919  36.478 133.576  1.00  0.00    -0.031 C 
BRANCH  12  13
ATOM     13  C   UNL     1      42.812  36.222 134.563  1.00  0.00     0.027 C 
BRANCH  13  14
ATOM     14  C   UNL     1      42.274  37.515 135.201  1.00  0.00     0.004 C 
BRANCH  14  15
ATOM     15  C   UNL     1      41.043  38.105 134.489  1.00  0.00     0.000 C 
BRANCH  15  16
ATOM     16  C   UNL     1      41.346  39.431 133.777  1.00  0.00    -0.000 C 
BRANCH  16  17
ATOM     17  C   UNL     1      42.635  40.062 134.318  1.00  0.00    -0.003 C 
ATOM     18  C   UNL     1      43.256  41.010 133.296  1.00  0.00     0.004 C 
ENDBRANCH  16  17
ENDBRANCH  15  16
ENDBRANCH  14  15
ENDBRANCH  13  14
ENDBRANCH  12  13
ENDBRANCH  10  11
ENDBRANCH   1  10
TORSDOF 13
ENDMDL
MODEL 4
REMARK VINA RESULT:    -3.271      5.902      8.960
REMARK INTER + INTRA:          -6.763
REMARK INTER:                  -5.217
REMARK INTRA:                  -1.546
REMARK UNBOUND:                -1.006
REMARK SMILES CCCCCCC=CCCCCCCCC(=O)[O-]
REMARK SMILES IDX 10 1 11 2 12 3 13 4 14 5 15 6 16 7 17 8 18 9 9 10 8 11 7 12
REMARK SMILES IDX 6 13 5 14 4 15 3 16 2 17 1 18
REMARK H PARENT
REMARK Flexibility Score: inf
ROOT
ATOM      1  C   UNL     1      45.389  41.169 135.035  1.00  0.00     0.004 C 
ENDROOT
BRANCH   1   2
ATOM      2  C   UNL     1      45.450  39.969 134.068  1.00  0.00     0.000 C 
BRANCH   2   3
ATOM      3  C   UNL     1      46.703  39.084 134.208  1.00  0.00     0.000 C 
BRANCH   3   4
ATOM      4  C   UNL     1      47.019  38.620 135.644  1.00  0.00     0.000 C 
BRANCH   4   5
ATOM      5  C   UNL     1      48.517  38.512 135.977  1.00  0.00     0.006 C 
BRANCH   5   6
ATOM      6  C   UNL     1      48.784  38.348 137.479  1.00  0.00     0.053 C 
BRANCH   6   7
ATOM      7  C   UNL     1      49.570  37.102 137.736  1.00  0.00     0.041 C 
ATOM      8  O   UNL     1      49.145  36.241 138.550  1.00  0.00    -0.550 OA
ATOM      9  O   UNL     1      50.799  36.914 137.115  1.00  0.00    -0.550 OA
ENDBRANCH   6   7
ENDBRANCH   5   6
ENDBRANCH   4   5
ENDBRANCH   3   4
ENDBRANCH   2   3
ENDBRANCH   1   2
BRANCH   1  10
ATOM     10  C   UNL     1      46.036  42.455 134.490  1.00  0.00     0.027 C 
BRANCH  10  11
ATOM     11  C   UNL     1      47.217  42.900 135.310  1.00  0.00    -0.031 C 
ATOM     12  C   UNL     1      48.339  42.168 135.381  1.00  0.00    -0.031 C 
BRANCH  12  13
ATOM     13  C   UNL     1      49.520  42.614 136.201  1.00  0.00     0.027 C 
BRANCH  13  14
ATOM     14  C   UNL     1      49.953  44.057 135.884  1.00  0.00     0.004 C 
BRANCH  14  15
ATOM     15  C   UNL     1      49.638  45.069 137.000  1.00  0.00     0.000 C 
BRANCH  15  16
ATOM     16  C   UNL     1      49.907  44.510 138.405  1.00  0.00    -0.000 C 
BRANCH  16  17
ATOM     17  C   UNL     1      48.693  44.712 139.317  1.00  0.00    -0.003 C 
ATOM     18  C   UNL     1      47.652  45.615 138.659  1.00  0.00     0.004 C 
ENDBRANCH  16  17
ENDBRANCH  15  16
ENDBRANCH  14  15
ENDBRANCH  13  14
ENDBRANCH  12  13
ENDBRANCH  10  11
ENDBRANCH   1  10
TORSDOF 13
ENDMDL
MODEL 5
REMARK VINA RESULT:    -3.266      5.698      7.714
REMARK INTER + INTRA:          -6.754
REMARK INTER:                  -4.795
REMARK INTRA:                  -1.959
REMARK UNBOUND:                -1.006
REMARK SMILES CCCCCCC=CCCCCCCCC(=O)[O-]
REMARK SMILES IDX 10 1 11 2 12 3 13 4 14 5 15 6 16 7 17 8 18 9 9 10 8 11 7 12
REMARK SMILES IDX 6 13 5 14 4 15 3 16 2 17 1 18
REMARK H PARENT
REMARK Flexibility Score: inf
ROOT
ATOM      1  C   UNL     1      48.835  38.121 137.692  1.00  0.00     0.004 C 
ENDROOT
BRANCH   1   2
ATOM      2  C   UNL     1      48.351  37.908 136.243  1.00  0.00     0.000 C 
BRANCH   2   3
ATOM      3  C   UNL     1      47.199  38.831 135.800  1.00  0.00     0.000 C 
BRANCH   3   4
ATOM      4  C   UNL     1      47.554  39.830 134.681  1.00  0.00     0.000 C 
BRANCH   4   5
ATOM      5  C   UNL     1      48.919  40.522 134.838  1.00  0.00     0.006 C 
BRANCH   5   6
ATOM      6  C   UNL     1      48.826  41.866 135.572  1.00  0.00     0.053 C 
BRANCH   6   7
ATOM      7  C   UNL     1      47.972  42.823 134.803  1.00  0.00     0.041 C 
ATOM      8  O   UNL     1      46.928  43.298 135.321  1.00  0.00    -0.550 OA
ATOM      9  O   UNL     1      48.302  43.152 133.494  1.00  0.00    -0.550 OA
ENDBRANCH   6   7
ENDBRANCH   5   6
ENDBRANCH   4   5
ENDBRANCH   3   4
ENDBRANCH   2   3
ENDBRANCH   1   2
BRANCH   1  10
ATOM     10  C   UNL     1      49.304  36.836 138.398  1.00  0.00     0.027 C 
BRANCH  10  11
ATOM     11  C   UNL     1      50.633  36.348 137.889  1.00  0.00    -0.031 C 
ATOM     12  C   UNL     1      51.773  37.000 138.164  1.00  0.00    -0.031 C 
BRANCH  12  13
ATOM     13  C   UNL     1      53.103  36.512 137.654  1.00  0.00     0.027 C 
BRANCH  13  14
ATOM     14  C   UNL     1      53.365  36.921 136.194  1.00  0.00     0.004 C 
BRANCH  14  15
ATOM     15  C   UNL     1      52.862  38.331 135.834  1.00  0.00     0.000 C 
BRANCH  15  16
ATOM     16  C   UNL     1      51.809  38.320 134.717  1.00  0.00    -0.000 C 
BRANCH  16  17
ATOM     17  C   UNL     1      51.439  36.884 134.326  1.00  0.00    -0.003 C 
ATOM     18  C   UNL     1      50.345  36.866 133.263  1.00  0.00     0.004 C 
ENDBRANCH  16  17
ENDBRANCH  15  16
ENDBRANCH  14  15
ENDBRANCH  13  14
ENDBRANCH  12  13
ENDBRANCH  10  11
ENDBRANCH   1  10
TORSDOF 13
ENDMDL
MODEL 6
REMARK VINA RESULT:    -3.259      7.858     10.377
REMARK INTER + INTRA:          -6.743
REMARK INTER:                  -4.790
REMARK INTRA:                  -1.953
REMARK UNBOUND:                -1.006
REMARK SMILES CCCCCCC=CCCCCCCCC(=O)[O-]
REMARK SMILES IDX 10 1 11 2 12 3 13 4 14 5 15 6 16 7 17 8 18 9 9 10 8 11 7 12
REMARK SMILES IDX 6 13 5 14 4 15 3 16 2 17 1 18
REMARK H PARENT
REMARK Flexibility Score: inf
ROOT
ATOM      1  C   UNL     1      47.863  40.893 134.477  1.00  0.00     0.004 C 
ENDROOT
BRANCH   1   2
ATOM      2  C   UNL     1      46.499  41.529 134.819  1.00  0.00     0.000 C 
BRANCH   2   3
ATOM      3  C   UNL     1      45.322  40.537 134.900  1.00  0.00     0.000 C 
BRANCH   3   4
ATOM      4  C   UNL     1      43.923  41.183 134.911  1.00  0.00     0.000 C 
BRANCH   4   5
ATOM      5  C   UNL     1      42.752  40.195 134.767  1.00  0.00     0.006 C 
BRANCH   5   6
ATOM      6  C   UNL     1      43.161  38.879 134.094  1.00  0.00     0.053 C 
BRANCH   6   7
ATOM      7  C   UNL     1      42.663  37.711 134.885  1.00  0.00     0.041 C 
ATOM      8  O   UNL     1      41.883  37.889 135.856  1.00  0.00    -0.550 OA
ATOM      9  O   UNL     1      43.101  36.428 134.580  1.00  0.00    -0.550 OA
ENDBRANCH   6   7
ENDBRANCH   5   6
ENDBRANCH   4   5
ENDBRANCH   3   4
ENDBRANCH   2   3
ENDBRANCH   1   2
BRANCH   1  10
ATOM     10  C   UNL     1      48.886  40.934 135.627  1.00  0.00     0.027 C 
BRANCH  10  11
ATOM     11  C   UNL     1      49.360  39.564 136.028  1.00  0.00    -0.031 C 
ATOM     12  C   UNL     1      48.585  38.733 136.742  1.00  0.00    -0.031 C 
BRANCH  12  13
ATOM     13  C   UNL     1      49.060  37.363 137.144  1.00  0.00     0.027 C 
BRANCH  13  14
ATOM     14  C   UNL     1      49.710  36.595 135.980  1.00  0.00     0.004 C 
BRANCH  14  15
ATOM     15  C   UNL     1      48.713  36.098 134.917  1.00  0.00     0.000 C 
BRANCH  15  16
ATOM     16  C   UNL     1      48.971  36.705 133.530  1.00  0.00    -0.000 C 
BRANCH  16  17
ATOM     17  C   UNL     1      47.755  37.503 133.046  1.00  0.00    -0.003 C 
ATOM     18  C   UNL     1      46.545  37.264 133.944  1.00  0.00     0.004 C 
ENDBRANCH  16  17
ENDBRANCH  15  16
ENDBRANCH  14  15
ENDBRANCH  13  14
ENDBRANCH  12  13
ENDBRANCH  10  11
ENDBRANCH   1  10
TORSDOF 13
ENDMDL
MODEL 7
REMARK VINA RESULT:    -3.254      6.825      8.900
REMARK INTER + INTRA:          -6.733
REMARK INTER:                  -4.495
REMARK INTRA:                  -2.238
REMARK UNBOUND:                -1.006
REMARK SMILES CCCCCCC=CCCCCCCCC(=O)[O-]
REMARK SMILES IDX 10 1 11 2 12 3 13 4 14 5 15 6 16 7 17 8 18 9 9 10 8 11 7 12
REMARK SMILES IDX 6 13 5 14 4 15 3 16 2 17 1 18
REMARK H PARENT
REMARK Flexibility Score: inf
ROOT
ATOM      1  C   UNL     1      49.742  36.365 137.812  1.00  0.00     0.004 C 
ENDROOT
BRANCH   1   2
ATOM      2  C   UNL     1      49.163  37.785 137.975  1.00  0.00     0.000 C 
BRANCH   2   3
ATOM      3  C   UNL     1      48.249  38.251 136.825  1.00  0.00     0.000 C 
BRANCH   3   4
ATOM      4  C   UNL     1      48.376  37.441 135.520  1.00  0.00     0.000 C 
BRANCH   4   5
ATOM      5  C   UNL     1      47.390  37.842 134.409  1.00  0.00     0.006 C 
BRANCH   5   6
ATOM      6  C   UNL     1      46.159  38.586 134.944  1.00  0.00     0.053 C 
BRANCH   6   7
ATOM      7  C   UNL     1      44.934  38.180 134.188  1.00  0.00     0.041 C 
ATOM      8  O   UNL     1      44.135  39.053 133.760  1.00  0.00    -0.550 OA
ATOM      9  O   UNL     1      44.648  36.834 134.001  1.00  0.00    -0.550 OA
ENDBRANCH   6   7
ENDBRANCH   5   6
ENDBRANCH   4   5
ENDBRANCH   3   4
ENDBRANCH   2   3
ENDBRANCH   1   2
BRANCH   1  10
ATOM     10  C   UNL     1      51.280  36.303 137.828  1.00  0.00     0.027 C 
BRANCH  10  11
ATOM     11  C   UNL     1      51.905  37.140 136.745  1.00  0.00    -0.031 C 
ATOM     12  C   UNL     1      51.954  36.719 135.472  1.00  0.00    -0.031 C 
BRANCH  12  13
ATOM     13  C   UNL     1      52.580  37.557 134.389  1.00  0.00     0.027 C 
BRANCH  13  14
ATOM     14  C   UNL     1      51.561  38.466 133.679  1.00  0.00     0.004 C 
BRANCH  14  15
ATOM     15  C   UNL     1      51.680  39.956 134.050  1.00  0.00     0.000 C 
BRANCH  15  16
ATOM     16  C   UNL     1      50.597  40.411 135.040  1.00  0.00    -0.000 C 
BRANCH  16  17
ATOM     17  C   UNL     1      49.434  41.088 134.306  1.00  0.00    -0.003 C 
ATOM     18  C   UNL     1      48.388  41.605 135.290  1.00  0.00     0.004 C 
ENDBRANCH  16  17
ENDBRANCH  15  16
ENDBRANCH  14  15
ENDBRANCH  13  14
ENDBRANCH  12  13
ENDBRANCH  10  11
ENDBRANCH   1  10
TORSDOF 13
ENDMDL
MODEL 8
REMARK VINA RESULT:    -3.227      6.554      9.418
REMARK INTER + INTRA:          -6.686
REMARK INTER:                  -4.554
REMARK INTRA:                  -2.132
REMARK UNBOUND:                -1.006
REMARK SMILES CCCCCCC=CCCCCCCCC(=O)[O-]
REMARK SMILES IDX 10 1 11 2 12 3 13 4 14 5 15 6 16 7 17 8 18 9 9 10 8 11 7 12
REMARK SMILES IDX 6 13 5 14 4 15 3 16 2 17 1 18
REMARK H PARENT
REMARK Flexibility Score: inf
ROOT
ATOM      1  C   UNL     1      49.989  39.638 133.923  1.00  0.00     0.004 C 
ENDROOT
BRANCH   1   2
ATOM      2  C   UNL     1      49.362  39.576 132.515  1.00  0.00     0.000 C 
BRANCH   2   3
ATOM      3  C   UNL     1      48.397  38.397 132.286  1.00  0.00     0.000 C 
BRANCH   3   4
ATOM      4  C   UNL     1      48.766  37.095 133.024  1.00  0.00     0.000 C 
BRANCH   4   5
ATOM      5  C   UNL     1      47.586  36.373 133.697  1.00  0.00     0.006 C 
BRANCH   5   6
ATOM      6  C   UNL     1      46.405  37.307 133.991  1.00  0.00     0.053 C 
BRANCH   6   7
ATOM      7  C   UNL     1      45.153  36.777 133.368  1.00  0.00     0.041 C 
ATOM      8  O   UNL     1      45.142  36.436 132.157  1.00  0.00    -0.550 OA
ATOM      9  O   UNL     1      43.982  36.707 134.113  1.00  0.00    -0.550 OA
ENDBRANCH   6   7
ENDBRANCH   5   6
ENDBRANCH   4   5
ENDBRANCH   3   4
ENDBRANCH   2   3
ENDBRANCH   1   2
BRANCH   1  10
ATOM     10  C   UNL     1      49.152  40.415 134.955  1.00  0.00     0.027 C 
BRANCH  10  11
ATOM     11  C   UNL     1      49.187  39.785 136.321  1.00  0.00    -0.031 C 
ATOM     12  C   UNL     1      48.735  38.539 136.532  1.00  0.00    -0.031 C 
BRANCH  12  13
ATOM     13  C   UNL     1      48.770  37.910 137.899  1.00  0.00     0.027 C 
BRANCH  13  14
ATOM     14  C   UNL     1      49.465  36.537 137.903  1.00  0.00     0.004 C 
BRANCH  14  15
ATOM     15  C   UNL     1      49.955  36.074 136.518  1.00  0.00     0.000 C 
BRANCH  15  16
ATOM     16  C   UNL     1      51.481  36.153 136.369  1.00  0.00    -0.000 C 
BRANCH  16  17
ATOM     17  C   UNL     1      52.157  36.318 137.735  1.00  0.00    -0.003 C 
ATOM     18  C   UNL     1      53.036  37.566 137.768  1.00  0.00     0.004 C 
ENDBRANCH  16  17
ENDBRANCH  15  16
ENDBRANCH  14  15
ENDBRANCH  13  14
ENDBRANCH  12  13
ENDBRANCH  10  11
ENDBRANCH   1  10
TORSDOF 13
ENDMDL
MODEL 9
REMARK VINA RESULT:    -3.197      5.949      7.345
REMARK INTER + INTRA:          -6.633
REMARK INTER:                  -4.798
REMARK INTRA:                  -1.835
REMARK UNBOUND:                -1.006
REMARK SMILES CCCCCCC=CCCCCCCCC(=O)[O-]
REMARK SMILES IDX 10 1 11 2 12 3 13 4 14 5 15 6 16 7 17 8 18 9 9 10 8 11 7 12
REMARK SMILES IDX 6 13 5 14 4 15 3 16 2 17 1 18
REMARK H PARENT
REMARK Flexibility Score: inf
ROOT
ATOM      1  C   UNL     1      49.122  37.190 137.919  1.00  0.00     0.004 C 
ENDROOT
BRANCH   1   2
ATOM      2  C   UNL     1      49.993  35.986 137.504  1.00  0.00     0.000 C 
BRANCH   2   3
ATOM      3  C   UNL     1      51.513  36.211 137.625  1.00  0.00     0.000 C 
BRANCH   3   4
ATOM      4  C   UNL     1      52.320  35.928 136.342  1.00  0.00     0.000 C 
BRANCH   4   5
ATOM      5  C   UNL     1      52.417  37.110 135.363  1.00  0.00     0.006 C 
BRANCH   5   6
ATOM      6  C   UNL     1      52.024  36.731 133.929  1.00  0.00     0.053 C 
BRANCH   6   7
ATOM      7  C   UNL     1      50.547  36.868 133.739  1.00  0.00     0.041 C 
ATOM      8  O   UNL     1      49.777  35.922 134.050  1.00  0.00    -0.550 OA
ATOM      9  O   UNL     1      50.023  38.023 133.170  1.00  0.00    -0.550 OA
ENDBRANCH   6   7
ENDBRANCH   5   6
ENDBRANCH   4   5
ENDBRANCH   3   4
ENDBRANCH   2   3
ENDBRANCH   1   2
BRANCH   1  10
ATOM     10  C   UNL     1      49.131  38.354 136.912  1.00  0.00     0.027 C 
BRANCH  10  11
ATOM     11  C   UNL     1      47.755  38.694 136.408  1.00  0.00    -0.031 C 
ATOM     12  C   UNL     1      47.278  38.179 135.265  1.00  0.00    -0.031 C 
BRANCH  12  13
ATOM     13  C   UNL     1      45.901  38.520 134.760  1.00  0.00     0.027 C 
BRANCH  13  14
ATOM     14  C   UNL     1      45.871  39.834 133.960  1.00  0.00     0.004 C 
BRANCH  14  15
ATOM     15  C   UNL     1      47.104  40.055 133.065  1.00  0.00     0.000 C 
BRANCH  15  16
ATOM     16  C   UNL     1      47.835  41.370 133.373  1.00  0.00    -0.000 C 
BRANCH  16  17
ATOM     17  C   UNL     1      47.394  41.938 134.727  1.00  0.00    -0.003 C 
ATOM     18  C   UNL     1      48.597  42.260 135.609  1.00  0.00     0.004 C 
ENDBRANCH  16  17
ENDBRANCH  15  16
ENDBRANCH  14  15
ENDBRANCH  13  14
ENDBRANCH  12  13
ENDBRANCH  10  11
ENDBRANCH   1  10
TORSDOF 13
ENDMDL
