MODEL 1
REMARK VINA RESULT:    -3.653      0.000      0.000
REMARK INTER + INTRA:          -5.688
REMARK INTER:                  -4.935
REMARK INTRA:                  -0.753
REMARK UNBOUND:                -0.753
REMARK SMILES O=C[C@H](O)[C@H](O)[C@H](O)CO
REMARK SMILES IDX 7 1 9 2 10 3 5 5 3 6 2 7 1 8 4 9 6 11 8 13
REMARK H PARENT 10 4 4 10 6 12 8 14
REMARK Flexibility Score: inf
ROOT
ATOM      1  C   UNL     1       8.421  -5.689  -0.153  1.00  0.00     0.171 C 
ENDROOT
BRANCH   1   2
ATOM      2  C   UNL     1       8.017  -6.599  -1.328  1.00  0.00     0.190 C 
BRANCH   2   3
ATOM      3  O   UNL     1       7.267  -7.693  -0.872  1.00  0.00    -0.394 OA
ATOM      4  H   UNL     1       6.325  -7.384  -0.810  1.00  0.00     0.210 HD
ENDBRANCH   2   3
ENDBRANCH   1   2
BRANCH   1   5
ATOM      5  C   UNL     1       7.198  -4.902   0.385  1.00  0.00     0.181 C 
BRANCH   5   6
ATOM      6  C   UNL     1       7.010  -5.037   1.916  1.00  0.00     0.209 C 
BRANCH   6   7
ATOM      7  C   UNL     1       6.905  -6.479   2.343  1.00  0.00     0.258 C 
ATOM      8  O   UNL     1       6.007  -7.196   1.927  1.00  0.00    -0.300 OA
ENDBRANCH   6   7
BRANCH   6   9
ATOM      9  O   UNL     1       5.884  -4.303   2.332  1.00  0.00    -0.383 OA
ATOM     10  H   UNL     1       5.842  -3.491   1.760  1.00  0.00     0.211 HD
ENDBRANCH   6   9
ENDBRANCH   5   6
BRANCH   5  11
ATOM     11  O   UNL     1       6.036  -5.369  -0.254  1.00  0.00    -0.387 OA
ATOM     12  H   UNL     1       5.352  -4.655  -0.172  1.00  0.00     0.211 HD
ENDBRANCH   5  11
ENDBRANCH   1   5
BRANCH   1  13
ATOM     13  O   UNL     1       9.410  -4.792  -0.590  1.00  0.00    -0.388 OA
ATOM     14  H   UNL     1       9.782  -4.351   0.219  1.00  0.00     0.211 HD
ENDBRANCH   1  13
TORSDOF 8
ENDMDL
MODEL 2
REMARK VINA RESULT:    -3.594      7.129      9.066
REMARK INTER + INTRA:          -5.607
REMARK INTER:                  -4.973
REMARK INTRA:                  -0.634
REMARK UNBOUND:                -0.753
REMARK SMILES O=C[C@H](O)[C@H](O)[C@H](O)CO
REMARK SMILES IDX 7 1 9 2 10 3 5 5 3 6 2 7 1 8 4 9 6 11 8 13
REMARK H PARENT 10 4 4 10 6 12 8 14
REMARK Flexibility Score: inf
ROOT
ATOM      1  C   UNL     1      -0.610  -9.515   4.403  1.00  0.00     0.171 C 
ENDROOT
BRANCH   1   2
ATOM      2  C   UNL     1      -0.461  -9.561   5.935  1.00  0.00     0.190 C 
BRANCH   2   3
ATOM      3  O   UNL     1       0.009  -8.333   6.424  1.00  0.00    -0.394 OA
ATOM      4  H   UNL     1       0.896  -8.181   6.003  1.00  0.00     0.210 HD
ENDBRANCH   2   3
ENDBRANCH   1   2
BRANCH   1   5
ATOM      5  C   UNL     1       0.156  -8.305   3.808  1.00  0.00     0.181 C 
BRANCH   5   6
ATOM      6  C   UNL     1       0.039  -8.206   2.267  1.00  0.00     0.209 C 
BRANCH   6   7
ATOM      7  C   UNL     1       1.254  -7.557   1.654  1.00  0.00     0.258 C 
ATOM      8  O   UNL     1       1.776  -6.581   2.170  1.00  0.00    -0.300 OA
ENDBRANCH   6   7
BRANCH   6   9
ATOM      9  O   UNL     1      -1.136  -7.518   1.914  1.00  0.00    -0.383 OA
ATOM     10  H   UNL     1      -0.907  -6.932   1.144  1.00  0.00     0.211 HD
ENDBRANCH   6   9
ENDBRANCH   5   6
BRANCH   5  11
ATOM     11  O   UNL     1       1.515  -8.409   4.151  1.00  0.00    -0.387 OA
ATOM     12  H   UNL     1       1.988  -7.665   3.696  1.00  0.00     0.211 HD
ENDBRANCH   5  11
ENDBRANCH   1   5
BRANCH   1  13
ATOM     13  O   UNL     1      -1.974  -9.421   4.081  1.00  0.00    -0.388 OA
ATOM     14  H   UNL     1      -2.472  -9.350   4.937  1.00  0.00     0.211 HD
ENDBRANCH   1  13
TORSDOF 8
ENDMDL
MODEL 3
REMARK VINA RESULT:    -3.467      1.242      2.279
REMARK INTER + INTRA:          -5.437
REMARK INTER:                  -5.058
REMARK INTRA:                  -0.378
REMARK UNBOUND:                -0.753
REMARK SMILES O=C[C@H](O)[C@H](O)[C@H](O)CO
REMARK SMILES IDX 7 1 9 2 10 3 5 5 3 6 2 7 1 8 4 9 6 11 8 13
REMARK H PARENT 10 4 4 10 6 12 8 14
REMARK Flexibility Score: inf
ROOT
ATOM      1  C   UNL     1       8.633  -6.416  -1.207  1.00  0.00     0.171 C 
ENDROOT
BRANCH   1   2
ATOM      2  C   UNL     1       8.339  -7.897  -0.901  1.00  0.00     0.190 C 
BRANCH   2   3
ATOM      3  O   UNL     1       7.052  -8.246  -1.336  1.00  0.00    -0.394 OA
ATOM      4  H   UNL     1       6.631  -8.755  -0.594  1.00  0.00     0.210 HD
ENDBRANCH   2   3
ENDBRANCH   1   2
BRANCH   1   5
ATOM      5  C   UNL     1       8.392  -5.533   0.044  1.00  0.00     0.181 C 
BRANCH   5   6
ATOM      6  C   UNL     1       6.952  -4.969   0.126  1.00  0.00     0.209 C 
BRANCH   6   7
ATOM      7  C   UNL     1       6.784  -4.030   1.294  1.00  0.00     0.258 C 
ATOM      8  O   UNL     1       5.823  -4.122   2.043  1.00  0.00    -0.300 OA
ENDBRANCH   6   7
BRANCH   6   9
ATOM      9  O   UNL     1       6.022  -6.023   0.185  1.00  0.00    -0.383 OA
ATOM     10  H   UNL     1       5.128  -5.629   0.003  1.00  0.00     0.211 HD
ENDBRANCH   6   9
ENDBRANCH   5   6
BRANCH   5  11
ATOM     11  O   UNL     1       9.297  -4.457   0.027  1.00  0.00    -0.387 OA
ATOM     12  H   UNL     1       9.192  -4.003  -0.849  1.00  0.00     0.211 HD
ENDBRANCH   5  11
ENDBRANCH   1   5
BRANCH   1  13
ATOM     13  O   UNL     1       7.799  -5.994  -2.256  1.00  0.00    -0.388 OA
ATOM     14  H   UNL     1       7.859  -5.003  -2.295  1.00  0.00     0.211 HD
ENDBRANCH   1  13
TORSDOF 8
ENDMDL
MODEL 4
REMARK VINA RESULT:    -3.442     12.218     13.149
REMARK INTER + INTRA:          -5.403
REMARK INTER:                  -5.118
REMARK INTRA:                  -0.285
REMARK UNBOUND:                -0.753
REMARK SMILES O=C[C@H](O)[C@H](O)[C@H](O)CO
REMARK SMILES IDX 7 1 9 2 10 3 5 5 3 6 2 7 1 8 4 9 6 11 8 13
REMARK H PARENT 10 4 4 10 6 12 8 14
REMARK Flexibility Score: inf
ROOT
ATOM      1  C   UNL     1       6.452   4.759  -8.822  1.00  0.00     0.171 C 
ENDROOT
BRANCH   1   2
ATOM      2  C   UNL     1       7.601   4.283  -9.730  1.00  0.00     0.190 C 
BRANCH   2   3
ATOM      3  O   UNL     1       8.688   5.166  -9.656  1.00  0.00    -0.394 OA
ATOM      4  H   UNL     1       9.494   4.646  -9.914  1.00  0.00     0.210 HD
ENDBRANCH   2   3
ENDBRANCH   1   2
BRANCH   1   5
ATOM      5  C   UNL     1       5.463   3.602  -8.526  1.00  0.00     0.181 C 
BRANCH   5   6
ATOM      6  C   UNL     1       5.604   3.030  -7.093  1.00  0.00     0.209 C 
BRANCH   6   7
ATOM      7  C   UNL     1       4.518   2.032  -6.780  1.00  0.00     0.258 C 
ATOM      8  O   UNL     1       4.623   0.861  -7.112  1.00  0.00    -0.300 OA
ENDBRANCH   6   7
BRANCH   6   9
ATOM      9  O   UNL     1       5.616   4.077  -6.153  1.00  0.00    -0.383 OA
ATOM     10  H   UNL     1       5.325   3.689  -5.285  1.00  0.00     0.211 HD
ENDBRANCH   6   9
ENDBRANCH   5   6
BRANCH   5  11
ATOM     11  O   UNL     1       5.683   2.564  -9.448  1.00  0.00    -0.387 OA
ATOM     12  H   UNL     1       5.653   1.712  -8.940  1.00  0.00     0.211 HD
ENDBRANCH   5  11
ENDBRANCH   1   5
BRANCH   1  13
ATOM     13  O   UNL     1       5.775   5.813  -9.458  1.00  0.00    -0.388 OA
ATOM     14  H   UNL     1       6.351   6.618  -9.381  1.00  0.00     0.211 HD
ENDBRANCH   1  13
TORSDOF 8
ENDMDL
MODEL 5
REMARK VINA RESULT:    -3.389      1.218      4.054
REMARK INTER + INTRA:          -5.331
REMARK INTER:                  -4.873
REMARK INTRA:                  -0.458
REMARK UNBOUND:                -0.753
REMARK SMILES O=C[C@H](O)[C@H](O)[C@H](O)CO
REMARK SMILES IDX 7 1 9 2 10 3 5 5 3 6 2 7 1 8 4 9 6 11 8 13
REMARK H PARENT 10 4 4 10 6 12 8 14
REMARK Flexibility Score: inf
ROOT
ATOM      1  C   UNL     1       6.709  -5.366   0.708  1.00  0.00     0.171 C 
ENDROOT
BRANCH   1   2
ATOM      2  C   UNL     1       6.756  -3.920   1.237  1.00  0.00     0.190 C 
BRANCH   2   3
ATOM      3  O   UNL     1       5.901  -3.769   2.339  1.00  0.00    -0.394 OA
ATOM      4  H   UNL     1       6.434  -3.331   3.053  1.00  0.00     0.210 HD
ENDBRANCH   2   3
ENDBRANCH   1   2
BRANCH   1   5
ATOM      5  C   UNL     1       7.764  -5.583  -0.407  1.00  0.00     0.181 C 
BRANCH   5   6
ATOM      6  C   UNL     1       8.204  -7.060  -0.552  1.00  0.00     0.209 C 
BRANCH   6   7
ATOM      7  C   UNL     1       9.496  -7.187  -1.320  1.00  0.00     0.258 C 
ATOM      8  O   UNL     1       9.731  -6.471  -2.281  1.00  0.00    -0.300 OA
ENDBRANCH   6   7
BRANCH   6   9
ATOM      9  O   UNL     1       7.181  -7.813  -1.156  1.00  0.00    -0.383 OA
ATOM     10  H   UNL     1       6.375  -7.717  -0.582  1.00  0.00     0.211 HD
ENDBRANCH   6   9
ENDBRANCH   5   6
BRANCH   5  11
ATOM     11  O   UNL     1       8.898  -4.802  -0.123  1.00  0.00    -0.387 OA
ATOM     12  H   UNL     1       8.790  -4.457   0.802  1.00  0.00     0.211 HD
ENDBRANCH   5  11
ENDBRANCH   1   5
BRANCH   1  13
ATOM     13  O   UNL     1       5.423  -5.625   0.204  1.00  0.00    -0.388 OA
ATOM     14  H   UNL     1       5.091  -6.443   0.660  1.00  0.00     0.211 HD
ENDBRANCH   1  13
TORSDOF 8
ENDMDL
MODEL 6
REMARK VINA RESULT:    -3.385      1.738      2.385
REMARK INTER + INTRA:          -5.326
REMARK INTER:                  -4.484
REMARK INTRA:                  -0.841
REMARK UNBOUND:                -0.753
REMARK SMILES O=C[C@H](O)[C@H](O)[C@H](O)CO
REMARK SMILES IDX 7 1 9 2 10 3 5 5 3 6 2 7 1 8 4 9 6 11 8 13
REMARK H PARENT 10 4 4 10 6 12 8 14
REMARK Flexibility Score: inf
ROOT
ATOM      1  C   UNL     1       7.957  -6.614   1.859  1.00  0.00     0.171 C 
ENDROOT
BRANCH   1   2
ATOM      2  C   UNL     1       7.296  -7.998   1.715  1.00  0.00     0.190 C 
BRANCH   2   3
ATOM      3  O   UNL     1       6.005  -7.989   2.264  1.00  0.00    -0.394 OA
ATOM      4  H   UNL     1       5.839  -7.062   2.580  1.00  0.00     0.210 HD
ENDBRANCH   2   3
ENDBRANCH   1   2
BRANCH   1   5
ATOM      5  C   UNL     1       7.382  -5.614   0.824  1.00  0.00     0.181 C 
BRANCH   5   6
ATOM      6  C   UNL     1       6.407  -4.584   1.445  1.00  0.00     0.209 C 
BRANCH   6   7
ATOM      7  C   UNL     1       4.985  -4.821   1.006  1.00  0.00     0.258 C 
ATOM      8  O   UNL     1       4.344  -5.770   1.432  1.00  0.00    -0.300 OA
ENDBRANCH   6   7
BRANCH   6   9
ATOM      9  O   UNL     1       6.822  -3.276   1.133  1.00  0.00    -0.383 OA
ATOM     10  H   UNL     1       7.131  -3.288   0.189  1.00  0.00     0.211 HD
ENDBRANCH   6   9
ENDBRANCH   5   6
BRANCH   5  11
ATOM     11  O   UNL     1       6.701  -6.331  -0.176  1.00  0.00    -0.387 OA
ATOM     12  H   UNL     1       6.190  -7.050   0.278  1.00  0.00     0.211 HD
ENDBRANCH   5  11
ENDBRANCH   1   5
BRANCH   1  13
ATOM     13  O   UNL     1       9.343  -6.749   1.672  1.00  0.00    -0.388 OA
ATOM     14  H   UNL     1       9.743  -6.919   2.566  1.00  0.00     0.211 HD
ENDBRANCH   1  13
TORSDOF 8
ENDMDL
MODEL 7
REMARK VINA RESULT:    -3.348      7.495      8.786
REMARK INTER + INTRA:          -5.276
REMARK INTER:                  -4.602
REMARK INTRA:                  -0.674
REMARK UNBOUND:                -0.753
REMARK SMILES O=C[C@H](O)[C@H](O)[C@H](O)CO
REMARK SMILES IDX 7 1 9 2 10 3 5 5 3 6 2 7 1 8 4 9 6 11 8 13
REMARK H PARENT 10 4 4 10 6 12 8 14
REMARK Flexibility Score: inf
ROOT
ATOM      1  C   UNL     1       0.620  -9.269   5.453  1.00  0.00     0.171 C 
ENDROOT
BRANCH   1   2
ATOM      2  C   UNL     1       1.924  -9.707   6.146  1.00  0.00     0.190 C 
BRANCH   2   3
ATOM      3  O   UNL     1       2.749  -8.600   6.394  1.00  0.00    -0.394 OA
ATOM      4  H   UNL     1       3.569  -8.949   6.832  1.00  0.00     0.210 HD
ENDBRANCH   2   3
ENDBRANCH   1   2
BRANCH   1   5
ATOM      5  C   UNL     1       0.911  -8.670   4.053  1.00  0.00     0.181 C 
BRANCH   5   6
ATOM      6  C   UNL     1      -0.231  -8.913   3.036  1.00  0.00     0.209 C 
BRANCH   6   7
ATOM      7  C   UNL     1      -0.307  -7.814   2.007  1.00  0.00     0.258 C 
ATOM      8  O   UNL     1       0.689  -7.443   1.405  1.00  0.00    -0.300 OA
ENDBRANCH   6   7
BRANCH   6   9
ATOM      9  O   UNL     1      -1.457  -9.060   3.711  1.00  0.00    -0.383 OA
ATOM     10  H   UNL     1      -1.257  -9.500   4.580  1.00  0.00     0.211 HD
ENDBRANCH   6   9
ENDBRANCH   5   6
BRANCH   5  11
ATOM     11  O   UNL     1       2.092  -9.240   3.547  1.00  0.00    -0.387 OA
ATOM     12  H   UNL     1       2.364  -9.956   4.178  1.00  0.00     0.211 HD
ENDBRANCH   5  11
ENDBRANCH   1   5
BRANCH   1  13
ATOM     13  O   UNL     1      -0.023  -8.313   6.257  1.00  0.00    -0.388 OA
ATOM     14  H   UNL     1      -0.951  -8.635   6.407  1.00  0.00     0.211 HD
ENDBRANCH   1  13
TORSDOF 8
ENDMDL
MODEL 8
REMARK VINA RESULT:    -3.275      7.036      8.906
REMARK INTER + INTRA:          -5.177
REMARK INTER:                  -4.533
REMARK INTRA:                  -0.644
REMARK UNBOUND:                -0.753
REMARK SMILES O=C[C@H](O)[C@H](O)[C@H](O)CO
REMARK SMILES IDX 7 1 9 2 10 3 5 5 3 6 2 7 1 8 4 9 6 11 8 13
REMARK H PARENT 10 4 4 10 6 12 8 14
REMARK Flexibility Score: inf
ROOT
ATOM      1  C   UNL     1       0.468  -8.984   5.290  1.00  0.00     0.171 C 
ENDROOT
BRANCH   1   2
ATOM      2  C   UNL     1       0.164 -10.115   6.291  1.00  0.00     0.190 C 
BRANCH   2   3
ATOM      3  O   UNL     1      -1.198 -10.125   6.626  1.00  0.00    -0.394 OA
ATOM      4  H   UNL     1      -1.635  -9.436   6.060  1.00  0.00     0.210 HD
ENDBRANCH   2   3
ENDBRANCH   1   2
BRANCH   1   5
ATOM      5  C   UNL     1      -0.100  -9.319   3.887  1.00  0.00     0.181 C 
BRANCH   5   6
ATOM      6  C   UNL     1       0.350  -8.321   2.792  1.00  0.00     0.209 C 
BRANCH   6   7
ATOM      7  C   UNL     1       1.431  -8.901   1.915  1.00  0.00     0.258 C 
ATOM      8  O   UNL     1       2.602  -8.880   2.260  1.00  0.00    -0.300 OA
ENDBRANCH   6   7
BRANCH   6   9
ATOM      9  O   UNL     1       0.769  -7.114   3.380  1.00  0.00    -0.383 OA
ATOM     10  H   UNL     1      -0.004  -6.490   3.342  1.00  0.00     0.211 HD
ENDBRANCH   6   9
ENDBRANCH   5   6
BRANCH   5  11
ATOM     11  O   UNL     1      -1.504  -9.317   3.948  1.00  0.00    -0.387 OA
ATOM     12  H   UNL     1      -1.832  -9.751   3.118  1.00  0.00     0.211 HD
ENDBRANCH   5  11
ENDBRANCH   1   5
BRANCH   1  13
ATOM     13  O   UNL     1       1.859  -8.807   5.211  1.00  0.00    -0.388 OA
ATOM     14  H   UNL     1       2.278  -9.580   5.674  1.00  0.00     0.211 HD
ENDBRANCH   1  13
TORSDOF 8
ENDMDL
MODEL 9
REMARK VINA RESULT:    -3.264      0.961      2.188
REMARK INTER + INTRA:          -5.163
REMARK INTER:                  -4.544
REMARK INTRA:                  -0.619
REMARK UNBOUND:                -0.753
REMARK SMILES O=C[C@H](O)[C@H](O)[C@H](O)CO
REMARK SMILES IDX 7 1 9 2 10 3 5 5 3 6 2 7 1 8 4 9 6 11 8 13
REMARK H PARENT 10 4 4 10 6 12 8 14
REMARK Flexibility Score: inf
ROOT
ATOM      1  C   UNL     1       8.045  -6.463  -1.072  1.00  0.00     0.171 C 
ENDROOT
BRANCH   1   2
ATOM      2  C   UNL     1       9.374  -7.071  -1.559  1.00  0.00     0.190 C 
BRANCH   2   3
ATOM      3  O   UNL     1      10.125  -6.117  -2.262  1.00  0.00    -0.394 OA
ATOM      4  H   UNL     1      11.054  -6.465  -2.306  1.00  0.00     0.210 HD
ENDBRANCH   2   3
ENDBRANCH   1   2
BRANCH   1   5
ATOM      5  C   UNL     1       8.250  -5.658   0.237  1.00  0.00     0.181 C 
BRANCH   5   6
ATOM      6  C   UNL     1       6.920  -5.252   0.919  1.00  0.00     0.209 C 
BRANCH   6   7
ATOM      7  C   UNL     1       6.609  -6.128   2.105  1.00  0.00     0.258 C 
ATOM      8  O   UNL     1       6.017  -7.188   1.968  1.00  0.00    -0.300 OA
ENDBRANCH   6   7
BRANCH   6   9
ATOM      9  O   UNL     1       5.870  -5.273  -0.017  1.00  0.00    -0.383 OA
ATOM     10  H   UNL     1       5.452  -4.372  -0.003  1.00  0.00     0.211 HD
ENDBRANCH   6   9
ENDBRANCH   5   6
BRANCH   5  11
ATOM     11  O   UNL     1       8.982  -4.494  -0.051  1.00  0.00    -0.387 OA
ATOM     12  H   UNL     1       9.944  -4.731   0.012  1.00  0.00     0.211 HD
ENDBRANCH   5  11
ENDBRANCH   1   5
BRANCH   1  13
ATOM     13  O   UNL     1       7.122  -7.500  -0.854  1.00  0.00    -0.388 OA
ATOM     14  H   UNL     1       6.966  -7.940  -1.731  1.00  0.00     0.211 HD
ENDBRANCH   1  13
TORSDOF 8
ENDMDL
