MODEL 1
REMARK VINA RESULT:    -5.443      0.000      0.000
REMARK INTER + INTRA:          -6.891
REMARK INTER:                  -6.238
REMARK INTRA:                  -0.653
REMARK UNBOUND:                -0.653
REMARK SMILES C=C(C)[C@@H]1CC[C@]2(C(=O)[O-])CC[C@@]3(C)[C@@H](CC[C@H]4[C@]5(C)CC[C@@H](O)C(C)(C)[C@@H]5CC[C@]43C)[C@H]12
REMARK SMILES IDX 7 1 6 2 33 3 11 4 5 5 15 6 4 7 12 8 16 9 13 10 17 11 31 12
REMARK SMILES IDX 14 13 18 14 30 15 32 16 19 17 29 18 21 19 20 20 28 21 22 22
REMARK SMILES IDX 25 23 23 24 26 25 27 26 8 27 9 28 10 29 2 30 3 31 1 32 24 33
REMARK H PARENT 24 34
REMARK Flexibility Score: inf
ROOT
ATOM      1  C   UNL     1      27.142  21.765  35.598  1.00  0.00     0.014 C 
ATOM      2  C   UNL     1      28.485  21.366  34.918  1.00  0.00     0.014 C 
ATOM      3  C   UNL     1      26.720  20.471  36.364  1.00  0.00     0.012 C 
ATOM      4  C   UNL     1      27.283  23.016  36.495  1.00  0.00     0.014 C 
ATOM      5  C   UNL     1      28.509  19.839  34.826  1.00  0.00     0.009 C 
ATOM      6  C   UNL     1      27.415  20.316  37.787  1.00  0.00     0.000 C 
ATOM      7  C   UNL     1      27.137  19.388  35.323  1.00  0.00     0.018 C 
ATOM      8  C   UNL     1      28.021  22.762  37.805  1.00  0.00     0.008 C 
ATOM      9  C   UNL     1      26.803  19.128  38.582  1.00  0.00     0.005 C 
ATOM     10  C   UNL     1      27.433  21.609  38.671  1.00  0.00    -0.024 C 
ATOM     11  C   UNL     1      27.194  19.050  40.070  1.00  0.00     0.005 C 
ATOM     12  C   UNL     1      28.335  21.379  40.036  1.00  0.00    -0.024 C 
ATOM     13  C   UNL     1      25.941  21.989  38.991  1.00  0.00     0.012 C 
ATOM     14  C   UNL     1      28.470  19.828  40.452  1.00  0.00     0.002 C 
ATOM     15  C   UNL     1      29.764  22.056  40.024  1.00  0.00     0.008 C 
ATOM     16  C   UNL     1      27.628  22.118  41.232  1.00  0.00     0.012 C 
ATOM     17  C   UNL     1      29.846  18.992  40.240  1.00  0.00    -0.026 C 
ATOM     18  C   UNL     1      30.895  21.203  39.477  1.00  0.00     0.005 C 
ATOM     19  C   UNL     1      29.950  17.888  41.360  1.00  0.00     0.010 C 
ATOM     20  C   UNL     1      29.892  18.200  38.888  1.00  0.00     0.012 C 
ATOM     21  C   UNL     1      31.133  19.905  40.289  1.00  0.00     0.003 C 
ATOM     22  C   UNL     1      31.387  17.427  41.592  1.00  0.00     0.033 C 
ATOM     23  C   UNL     1      31.887  20.007  41.700  1.00  0.00    -0.006 C 
ATOM     24  C   UNL     1      32.220  18.544  42.244  1.00  0.00     0.120 C 
ATOM     25  C   UNL     1      31.089  20.764  42.805  1.00  0.00     0.014 C 
ATOM     26  C   UNL     1      33.213  20.803  41.517  1.00  0.00     0.014 C 
ENDROOT
BRANCH   1  27
ATOM     27  C   UNL     1      26.127  22.137  34.514  1.00  0.00     0.048 C 
ATOM     28  O   UNL     1      26.456  22.913  33.582  1.00  0.00    -0.550 OA
ATOM     29  O   UNL     1      24.811  21.696  34.577  1.00  0.00    -0.550 OA
ENDBRANCH   1  27
BRANCH   7  30
ATOM     30  C   UNL     1      26.965  17.917  35.689  1.00  0.00    -0.077 C 
ATOM     31  C   UNL     1      25.587  17.305  35.609  1.00  0.00     0.039 C 
ATOM     32  C   UNL     1      27.999  17.101  35.978  1.00  0.00     0.008 C 
ENDBRANCH   7  30
BRANCH  24  33
ATOM     33  O   UNL     1      33.591  18.234  42.116  1.00  0.00    -0.393 OA
ATOM     34  H   UNL     1      33.661  17.246  42.018  1.00  0.00     0.210 HD
ENDBRANCH  24  33
TORSDOF 3
ENDMDL
MODEL 2
REMARK VINA RESULT:    -5.136      2.485      4.816
REMARK INTER + INTRA:          -6.540
REMARK INTER:                  -5.884
REMARK INTRA:                  -0.656
REMARK UNBOUND:                -0.653
REMARK SMILES C=C(C)[C@@H]1CC[C@]2(C(=O)[O-])CC[C@@]3(C)[C@@H](CC[C@H]4[C@]5(C)CC[C@@H](O)C(C)(C)[C@@H]5CC[C@]43C)[C@H]12
REMARK SMILES IDX 7 1 6 2 33 3 11 4 5 5 15 6 4 7 12 8 16 9 13 10 17 11 31 12
REMARK SMILES IDX 14 13 18 14 30 15 32 16 19 17 29 18 21 19 20 20 28 21 22 22
REMARK SMILES IDX 25 23 23 24 26 25 27 26 8 27 9 28 10 29 2 30 3 31 1 32 24 33
REMARK H PARENT 24 34
REMARK Flexibility Score: inf
ROOT
ATOM      1  C   UNL     1      24.832  18.303  36.648  1.00  0.00     0.014 C 
ATOM      2  C   UNL     1      24.064  19.235  37.631  1.00  0.00     0.014 C 
ATOM      3  C   UNL     1      25.595  19.299  35.717  1.00  0.00     0.012 C 
ATOM      4  C   UNL     1      25.746  17.295  37.382  1.00  0.00     0.014 C 
ATOM      5  C   UNL     1      23.938  20.601  36.954  1.00  0.00     0.009 C 
ATOM      6  C   UNL     1      26.969  19.818  36.327  1.00  0.00     0.000 C 
ATOM      7  C   UNL     1      24.507  20.404  35.549  1.00  0.00     0.018 C 
ATOM      8  C   UNL     1      27.003  17.916  37.980  1.00  0.00     0.008 C 
ATOM      9  C   UNL     1      27.774  20.635  35.277  1.00  0.00     0.005 C 
ATOM     10  C   UNL     1      27.878  18.716  36.971  1.00  0.00    -0.024 C 
ATOM     11  C   UNL     1      29.233  20.951  35.655  1.00  0.00     0.005 C 
ATOM     12  C   UNL     1      29.181  19.393  37.728  1.00  0.00    -0.024 C 
ATOM     13  C   UNL     1      28.295  17.717  35.831  1.00  0.00     0.012 C 
ATOM     14  C   UNL     1      29.554  20.854  37.161  1.00  0.00     0.002 C 
ATOM     15  C   UNL     1      29.097  19.437  39.306  1.00  0.00     0.008 C 
ATOM     16  C   UNL     1      30.433  18.471  37.488  1.00  0.00     0.012 C 
ATOM     17  C   UNL     1      29.242  22.213  37.995  1.00  0.00    -0.026 C 
ATOM     18  C   UNL     1      28.465  20.684  39.901  1.00  0.00     0.005 C 
ATOM     19  C   UNL     1      30.330  23.294  37.635  1.00  0.00     0.010 C 
ATOM     20  C   UNL     1      27.873  22.875  37.616  1.00  0.00     0.012 C 
ATOM     21  C   UNL     1      29.233  21.985  39.558  1.00  0.00     0.003 C 
ATOM     22  C   UNL     1      30.465  24.366  38.713  1.00  0.00     0.033 C 
ATOM     23  C   UNL     1      30.598  22.302  40.336  1.00  0.00    -0.006 C 
ATOM     24  C   UNL     1      31.089  23.780  39.991  1.00  0.00     0.120 C 
ATOM     25  C   UNL     1      31.765  21.317  40.020  1.00  0.00     0.014 C 
ATOM     26  C   UNL     1      30.352  22.185  41.869  1.00  0.00     0.014 C 
ENDROOT
BRANCH   1  27
ATOM     27  C   UNL     1      23.820  17.462  35.866  1.00  0.00     0.048 C 
ATOM     28  O   UNL     1      22.875  16.891  36.468  1.00  0.00    -0.550 OA
ATOM     29  O   UNL     1      23.964  17.244  34.502  1.00  0.00    -0.550 OA
ENDBRANCH   1  27
BRANCH   7  30
ATOM     30  C   UNL     1      24.852  21.652  34.744  1.00  0.00    -0.077 C 
ATOM     31  C   UNL     1      24.838  21.571  33.236  1.00  0.00     0.039 C 
ATOM     32  C   UNL     1      25.064  22.860  35.305  1.00  0.00     0.008 C 
ENDBRANCH   7  30
BRANCH  24  33
ATOM     33  O   UNL     1      30.873  24.671  41.064  1.00  0.00    -0.393 OA
ATOM     34  H   UNL     1      31.718  25.178  41.200  1.00  0.00     0.210 HD
ENDBRANCH  24  33
TORSDOF 3
ENDMDL
MODEL 3
REMARK VINA RESULT:    -4.996      1.908      3.299
REMARK INTER + INTRA:          -6.379
REMARK INTER:                  -5.631
REMARK INTRA:                  -0.748
REMARK UNBOUND:                -0.653
REMARK SMILES C=C(C)[C@@H]1CC[C@]2(C(=O)[O-])CC[C@@]3(C)[C@@H](CC[C@H]4[C@]5(C)CC[C@@H](O)C(C)(C)[C@@H]5CC[C@]43C)[C@H]12
REMARK SMILES IDX 7 1 6 2 33 3 11 4 5 5 15 6 4 7 12 8 16 9 13 10 17 11 31 12
REMARK SMILES IDX 14 13 18 14 30 15 32 16 19 17 29 18 21 19 20 20 28 21 22 22
REMARK SMILES IDX 25 23 23 24 26 25 27 26 8 27 9 28 10 29 2 30 3 31 1 32 24 33
REMARK H PARENT 24 34
REMARK Flexibility Score: inf
ROOT
ATOM      1  C   UNL     1      25.434  18.693  35.709  1.00  0.00     0.014 C 
ATOM      2  C   UNL     1      25.767  17.199  35.995  1.00  0.00     0.014 C 
ATOM      3  C   UNL     1      25.235  19.304  37.133  1.00  0.00     0.012 C 
ATOM      4  C   UNL     1      26.527  19.390  34.867  1.00  0.00     0.014 C 
ATOM      5  C   UNL     1      25.228  16.875  37.390  1.00  0.00     0.009 C 
ATOM      6  C   UNL     1      26.595  19.724  37.844  1.00  0.00     0.000 C 
ATOM      7  C   UNL     1      24.480  18.133  37.831  1.00  0.00     0.018 C 
ATOM      8  C   UNL     1      27.810  19.688  35.635  1.00  0.00     0.008 C 
ATOM      9  C   UNL     1      26.321  20.510  39.157  1.00  0.00     0.005 C 
ATOM     10  C   UNL     1      27.610  20.508  36.943  1.00  0.00    -0.024 C 
ATOM     11  C   UNL     1      27.543  21.207  39.784  1.00  0.00     0.005 C 
ATOM     12  C   UNL     1      29.048  20.728  37.727  1.00  0.00    -0.024 C 
ATOM     13  C   UNL     1      26.932  21.868  36.535  1.00  0.00     0.012 C 
ATOM     14  C   UNL     1      28.912  20.659  39.330  1.00  0.00     0.002 C 
ATOM     15  C   UNL     1      30.227  19.790  37.249  1.00  0.00     0.008 C 
ATOM     16  C   UNL     1      29.597  22.159  37.371  1.00  0.00     0.012 C 
ATOM     17  C   UNL     1      29.434  19.383  40.190  1.00  0.00    -0.026 C 
ATOM     18  C   UNL     1      30.357  18.465  37.981  1.00  0.00     0.005 C 
ATOM     19  C   UNL     1      29.887  19.878  41.615  1.00  0.00     0.010 C 
ATOM     20  C   UNL     1      28.316  18.319  40.468  1.00  0.00     0.012 C 
ATOM     21  C   UNL     1      30.635  18.626  39.497  1.00  0.00     0.003 C 
ATOM     22  C   UNL     1      30.864  18.915  42.284  1.00  0.00     0.033 C 
ATOM     23  C   UNL     1      32.110  19.037  39.971  1.00  0.00    -0.006 C 
ATOM     24  C   UNL     1      32.221  18.924  41.558  1.00  0.00     0.120 C 
ATOM     25  C   UNL     1      32.544  20.476  39.556  1.00  0.00     0.014 C 
ATOM     26  C   UNL     1      33.145  18.079  39.311  1.00  0.00     0.014 C 
ENDROOT
BRANCH   1  27
ATOM     27  C   UNL     1      24.151  18.767  34.878  1.00  0.00     0.048 C 
ATOM     28  O   UNL     1      23.607  19.878  34.655  1.00  0.00    -0.550 OA
ATOM     29  O   UNL     1      23.519  17.616  34.423  1.00  0.00    -0.550 OA
ENDBRANCH   1  27
BRANCH   7  30
ATOM     30  C   UNL     1      24.129  18.266  39.309  1.00  0.00    -0.077 C 
ATOM     31  C   UNL     1      23.030  19.220  39.712  1.00  0.00     0.039 C 
ATOM     32  C   UNL     1      24.675  17.496  40.272  1.00  0.00     0.008 C 
ENDBRANCH   7  30
BRANCH  24  33
ATOM     33  O   UNL     1      32.966  17.792  41.955  1.00  0.00    -0.393 OA
ATOM     34  H   UNL     1      33.279  17.957  42.885  1.00  0.00     0.210 HD
ENDBRANCH  24  33
TORSDOF 3
ENDMDL
MODEL 4
REMARK VINA RESULT:    -4.863      1.751      2.350
REMARK INTER + INTRA:          -6.226
REMARK INTER:                  -5.579
REMARK INTRA:                  -0.647
REMARK UNBOUND:                -0.653
REMARK SMILES C=C(C)[C@@H]1CC[C@]2(C(=O)[O-])CC[C@@]3(C)[C@@H](CC[C@H]4[C@]5(C)CC[C@@H](O)C(C)(C)[C@@H]5CC[C@]43C)[C@H]12
REMARK SMILES IDX 7 1 6 2 33 3 11 4 5 5 15 6 4 7 12 8 16 9 13 10 17 11 31 12
REMARK SMILES IDX 14 13 18 14 30 15 32 16 19 17 29 18 21 19 20 20 28 21 22 22
REMARK SMILES IDX 25 23 23 24 26 25 27 26 8 27 9 28 10 29 2 30 3 31 1 32 24 33
REMARK H PARENT 24 34
REMARK Flexibility Score: inf
ROOT
ATOM      1  C   UNL     1      26.463  21.557  35.399  1.00  0.00     0.014 C 
ATOM      2  C   UNL     1      27.753  21.402  34.541  1.00  0.00     0.014 C 
ATOM      3  C   UNL     1      26.664  20.525  36.554  1.00  0.00     0.012 C 
ATOM      4  C   UNL     1      26.245  23.011  35.878  1.00  0.00     0.014 C 
ATOM      5  C   UNL     1      28.335  20.020  34.846  1.00  0.00     0.009 C 
ATOM      6  C   UNL     1      27.551  21.075  37.755  1.00  0.00     0.000 C 
ATOM      7  C   UNL     1      27.312  19.349  35.762  1.00  0.00     0.018 C 
ATOM      8  C   UNL     1      27.193  23.449  36.989  1.00  0.00     0.008 C 
ATOM      9  C   UNL     1      27.542  20.088  38.955  1.00  0.00     0.005 C 
ATOM     10  C   UNL     1      27.202  22.524  38.240  1.00  0.00    -0.024 C 
ATOM     11  C   UNL     1      28.130  20.633  40.271  1.00  0.00     0.005 C 
ATOM     12  C   UNL     1      28.299  23.053  39.356  1.00  0.00    -0.024 C 
ATOM     13  C   UNL     1      25.734  22.497  38.803  1.00  0.00     0.012 C 
ATOM     14  C   UNL     1      29.060  21.853  40.115  1.00  0.00     0.002 C 
ATOM     15  C   UNL     1      29.355  24.102  38.821  1.00  0.00     0.008 C 
ATOM     16  C   UNL     1      27.535  23.882  40.454  1.00  0.00     0.012 C 
ATOM     17  C   UNL     1      30.607  21.472  39.800  1.00  0.00    -0.026 C 
ATOM     18  C   UNL     1      30.639  23.519  38.257  1.00  0.00     0.005 C 
ATOM     19  C   UNL     1      31.267  20.893  41.108  1.00  0.00     0.010 C 
ATOM     20  C   UNL     1      30.765  20.337  38.731  1.00  0.00     0.012 C 
ATOM     21  C   UNL     1      31.453  22.707  39.295  1.00  0.00     0.003 C 
ATOM     22  C   UNL     1      32.789  21.012  41.095  1.00  0.00     0.033 C 
ATOM     23  C   UNL     1      32.296  23.500  40.404  1.00  0.00    -0.006 C 
ATOM     24  C   UNL     1      33.223  22.483  41.211  1.00  0.00     0.120 C 
ATOM     25  C   UNL     1      31.429  24.288  41.434  1.00  0.00     0.014 C 
ATOM     26  C   UNL     1      33.189  24.566  39.703  1.00  0.00     0.014 C 
ENDROOT
BRANCH   1  27
ATOM     27  C   UNL     1      25.247  21.210  34.537  1.00  0.00     0.048 C 
ATOM     28  O   UNL     1      25.098  21.749  33.411  1.00  0.00    -0.550 OA
ATOM     29  O   UNL     1      24.249  20.364  35.004  1.00  0.00    -0.550 OA
ENDBRANCH   1  27
BRANCH   7  30
ATOM     30  C   UNL     1      27.755  18.107  36.528  1.00  0.00    -0.077 C 
ATOM     31  C   UNL     1      26.704  17.130  36.998  1.00  0.00     0.039 C 
ATOM     32  C   UNL     1      29.049  17.777  36.717  1.00  0.00     0.008 C 
ENDBRANCH   7  30
BRANCH  24  33
ATOM     33  O   UNL     1      34.579  22.597  40.839  1.00  0.00    -0.393 OA
ATOM     34  H   UNL     1      35.120  22.532  41.672  1.00  0.00     0.210 HD
ENDBRANCH  24  33
TORSDOF 3
ENDMDL
MODEL 5
REMARK VINA RESULT:    -4.707      3.247      7.760
REMARK INTER + INTRA:          -6.048
REMARK INTER:                  -5.297
REMARK INTRA:                  -0.751
REMARK UNBOUND:                -0.653
REMARK SMILES C=C(C)[C@@H]1CC[C@]2(C(=O)[O-])CC[C@@]3(C)[C@@H](CC[C@H]4[C@]5(C)CC[C@@H](O)C(C)(C)[C@@H]5CC[C@]43C)[C@H]12
REMARK SMILES IDX 7 1 6 2 33 3 11 4 5 5 15 6 4 7 12 8 16 9 13 10 17 11 31 12
REMARK SMILES IDX 14 13 18 14 30 15 32 16 19 17 29 18 21 19 20 20 28 21 22 22
REMARK SMILES IDX 25 23 23 24 26 25 27 26 8 27 9 28 10 29 2 30 3 31 1 32 24 33
REMARK H PARENT 24 34
REMARK Flexibility Score: inf
ROOT
ATOM      1  C   UNL     1      28.537  19.705  36.577  1.00  0.00     0.014 C 
ATOM      2  C   UNL     1      29.288  20.807  37.381  1.00  0.00     0.014 C 
ATOM      3  C   UNL     1      27.109  19.696  37.212  1.00  0.00     0.012 C 
ATOM      4  C   UNL     1      28.552  19.972  35.054  1.00  0.00     0.014 C 
ATOM      5  C   UNL     1      28.550  20.978  38.710  1.00  0.00     0.009 C 
ATOM      6  C   UNL     1      26.141  20.813  36.622  1.00  0.00     0.000 C 
ATOM      7  C   UNL     1      27.476  19.891  38.714  1.00  0.00     0.018 C 
ATOM      8  C   UNL     1      27.633  21.105  34.612  1.00  0.00     0.008 C 
ATOM      9  C   UNL     1      24.687  20.621  37.138  1.00  0.00     0.005 C 
ATOM     10  C   UNL     1      26.151  20.955  35.062  1.00  0.00    -0.024 C 
ATOM     11  C   UNL     1      23.612  21.462  36.425  1.00  0.00     0.005 C 
ATOM     12  C   UNL     1      25.254  22.257  34.582  1.00  0.00    -0.024 C 
ATOM     13  C   UNL     1      25.621  19.603  34.457  1.00  0.00     0.012 C 
ATOM     14  C   UNL     1      24.143  22.694  35.664  1.00  0.00     0.002 C 
ATOM     15  C   UNL     1      26.088  23.522  34.131  1.00  0.00     0.008 C 
ATOM     16  C   UNL     1      24.488  21.877  33.262  1.00  0.00     0.012 C 
ATOM     17  C   UNL     1      24.305  24.023  36.583  1.00  0.00    -0.026 C 
ATOM     18  C   UNL     1      26.424  24.518  35.228  1.00  0.00     0.005 C 
ATOM     19  C   UNL     1      22.875  24.599  36.906  1.00  0.00     0.010 C 
ATOM     20  C   UNL     1      24.951  23.738  37.983  1.00  0.00     0.012 C 
ATOM     21  C   UNL     1      25.173  25.147  35.890  1.00  0.00     0.003 C 
ATOM     22  C   UNL     1      22.912  26.080  37.276  1.00  0.00     0.033 C 
ATOM     23  C   UNL     1      24.370  26.285  35.097  1.00  0.00    -0.006 C 
ATOM     24  C   UNL     1      23.271  26.939  36.051  1.00  0.00     0.120 C 
ATOM     25  C   UNL     1      23.656  25.789  33.803  1.00  0.00     0.014 C 
ATOM     26  C   UNL     1      25.369  27.385  34.632  1.00  0.00     0.014 C 
ENDROOT
BRANCH   1  27
ATOM     27  C   UNL     1      29.253  18.367  36.777  1.00  0.00     0.048 C 
ATOM     28  O   UNL     1      28.725  17.302  36.367  1.00  0.00    -0.550 OA
ATOM     29  O   UNL     1      30.449  18.287  37.478  1.00  0.00    -0.550 OA
ENDBRANCH   1  27
BRANCH   7  30
ATOM     30  C   UNL     1      26.348  20.014  39.732  1.00  0.00    -0.077 C 
ATOM     31  C   UNL     1      25.549  18.782  40.084  1.00  0.00     0.039 C 
ATOM     32  C   UNL     1      26.092  21.145  40.420  1.00  0.00     0.008 C 
ENDBRANCH   7  30
BRANCH  24  33
ATOM     33  O   UNL     1      23.648  28.228  36.484  1.00  0.00    -0.393 OA
ATOM     34  H   UNL     1      24.442  28.120  37.073  1.00  0.00     0.210 HD
ENDBRANCH  24  33
TORSDOF 3
ENDMDL
MODEL 6
REMARK VINA RESULT:    -4.569      2.174      7.061
REMARK INTER + INTRA:          -5.890
REMARK INTER:                  -5.136
REMARK INTRA:                  -0.753
REMARK UNBOUND:                -0.653
REMARK SMILES C=C(C)[C@@H]1CC[C@]2(C(=O)[O-])CC[C@@]3(C)[C@@H](CC[C@H]4[C@]5(C)CC[C@@H](O)C(C)(C)[C@@H]5CC[C@]43C)[C@H]12
REMARK SMILES IDX 7 1 6 2 33 3 11 4 5 5 15 6 4 7 12 8 16 9 13 10 17 11 31 12
REMARK SMILES IDX 14 13 18 14 30 15 32 16 19 17 29 18 21 19 20 20 28 21 22 22
REMARK SMILES IDX 25 23 23 24 26 25 27 26 8 27 9 28 10 29 2 30 3 31 1 32 24 33
REMARK H PARENT 24 34
REMARK Flexibility Score: inf
ROOT
ATOM      1  C   UNL     1      30.143  22.008  42.568  1.00  0.00     0.014 C 
ATOM      2  C   UNL     1      30.194  20.465  42.768  1.00  0.00     0.014 C 
ATOM      3  C   UNL     1      30.840  22.223  41.186  1.00  0.00     0.012 C 
ATOM      4  C   UNL     1      28.704  22.567  42.647  1.00  0.00     0.014 C 
ATOM      5  C   UNL     1      31.321  19.931  41.881  1.00  0.00     0.009 C 
ATOM      6  C   UNL     1      29.870  22.012  39.943  1.00  0.00     0.000 C 
ATOM      7  C   UNL     1      31.988  21.174  41.292  1.00  0.00     0.018 C 
ATOM      8  C   UNL     1      27.846  22.250  41.427  1.00  0.00     0.008 C 
ATOM      9  C   UNL     1      30.559  22.439  38.617  1.00  0.00     0.005 C 
ATOM     10  C   UNL     1      28.462  22.689  40.066  1.00  0.00    -0.024 C 
ATOM     11  C   UNL     1      29.635  22.544  37.389  1.00  0.00     0.005 C 
ATOM     12  C   UNL     1      27.484  22.251  38.808  1.00  0.00    -0.024 C 
ATOM     13  C   UNL     1      28.686  24.243  40.143  1.00  0.00     0.012 C 
ATOM     14  C   UNL     1      28.303  21.774  37.506  1.00  0.00     0.002 C 
ATOM     15  C   UNL     1      26.369  21.186  39.159  1.00  0.00     0.008 C 
ATOM     16  C   UNL     1      26.627  23.500  38.384  1.00  0.00     0.012 C 
ATOM     17  C   UNL     1      28.398  20.214  37.065  1.00  0.00    -0.026 C 
ATOM     18  C   UNL     1      26.767  19.730  38.983  1.00  0.00     0.005 C 
ATOM     19  C   UNL     1      28.532  20.133  35.498  1.00  0.00     0.010 C 
ATOM     20  C   UNL     1      29.673  19.487  37.617  1.00  0.00     0.012 C 
ATOM     21  C   UNL     1      27.145  19.369  37.525  1.00  0.00     0.003 C 
ATOM     22  C   UNL     1      28.092  18.779  34.944  1.00  0.00     0.033 C 
ATOM     23  C   UNL     1      25.973  19.183  36.448  1.00  0.00    -0.006 C 
ATOM     24  C   UNL     1      26.571  18.599  35.089  1.00  0.00     0.120 C 
ATOM     25  C   UNL     1      25.192  20.490  36.111  1.00  0.00     0.014 C 
ATOM     26  C   UNL     1      24.912  18.192  37.012  1.00  0.00     0.014 C 
ENDROOT
BRANCH   1  27
ATOM     27  C   UNL     1      30.919  22.683  43.703  1.00  0.00     0.048 C 
ATOM     28  O   UNL     1      31.354  23.854  43.560  1.00  0.00    -0.550 OA
ATOM     29  O   UNL     1      31.228  21.999  44.872  1.00  0.00    -0.550 OA
ENDBRANCH   1  27
BRANCH   7  30
ATOM     30  C   UNL     1      32.914  20.981  40.096  1.00  0.00    -0.077 C 
ATOM     31  C   UNL     1      33.891  22.078  39.749  1.00  0.00     0.039 C 
ATOM     32  C   UNL     1      32.984  19.833  39.392  1.00  0.00     0.008 C 
ENDBRANCH   7  30
BRANCH  24  33
ATOM     33  O   UNL     1      26.248  17.236  34.913  1.00  0.00    -0.393 OA
ATOM     34  H   UNL     1      26.559  16.753  35.726  1.00  0.00     0.210 HD
ENDBRANCH  24  33
TORSDOF 3
ENDMDL
MODEL 7
REMARK VINA RESULT:    -4.494      3.632      5.657
REMARK INTER + INTRA:          -5.804
REMARK INTER:                  -5.043
REMARK INTRA:                  -0.761
REMARK UNBOUND:                -0.653
REMARK SMILES C=C(C)[C@@H]1CC[C@]2(C(=O)[O-])CC[C@@]3(C)[C@@H](CC[C@H]4[C@]5(C)CC[C@@H](O)C(C)(C)[C@@H]5CC[C@]43C)[C@H]12
REMARK SMILES IDX 7 1 6 2 33 3 11 4 5 5 15 6 4 7 12 8 16 9 13 10 17 11 31 12
REMARK SMILES IDX 14 13 18 14 30 15 32 16 19 17 29 18 21 19 20 20 28 21 22 22
REMARK SMILES IDX 25 23 23 24 26 25 27 26 8 27 9 28 10 29 2 30 3 31 1 32 24 33
REMARK H PARENT 24 34
REMARK Flexibility Score: inf
ROOT
ATOM      1  C   UNL     1      28.695  20.017  38.433  1.00  0.00     0.014 C 
ATOM      2  C   UNL     1      29.620  19.607  37.249  1.00  0.00     0.014 C 
ATOM      3  C   UNL     1      29.639  19.950  39.676  1.00  0.00     0.012 C 
ATOM      4  C   UNL     1      28.032  21.396  38.214  1.00  0.00     0.014 C 
ATOM      5  C   UNL     1      30.792  18.822  37.842  1.00  0.00     0.009 C 
ATOM      6  C   UNL     1      30.517  21.261  39.883  1.00  0.00     0.000 C 
ATOM      7  C   UNL     1      30.463  18.673  39.327  1.00  0.00     0.018 C 
ATOM      8  C   UNL     1      28.983  22.577  38.377  1.00  0.00     0.008 C 
ATOM      9  C   UNL     1      31.274  21.219  41.239  1.00  0.00     0.005 C 
ATOM     10  C   UNL     1      29.745  22.617  39.733  1.00  0.00    -0.024 C 
ATOM     11  C   UNL     1      31.931  22.542  41.678  1.00  0.00     0.005 C 
ATOM     12  C   UNL     1      30.787  23.898  39.786  1.00  0.00    -0.024 C 
ATOM     13  C   UNL     1      28.660  22.675  40.869  1.00  0.00     0.012 C 
ATOM     14  C   UNL     1      32.168  23.560  40.544  1.00  0.00     0.002 C 
ATOM     15  C   UNL     1      31.095  24.576  38.391  1.00  0.00     0.008 C 
ATOM     16  C   UNL     1      30.099  25.069  40.580  1.00  0.00     0.012 C 
ATOM     17  C   UNL     1      33.566  23.350  39.744  1.00  0.00    -0.026 C 
ATOM     18  C   UNL     1      32.280  24.011  37.627  1.00  0.00     0.005 C 
ATOM     19  C   UNL     1      34.757  23.808  40.668  1.00  0.00     0.010 C 
ATOM     20  C   UNL     1      33.871  21.849  39.407  1.00  0.00     0.012 C 
ATOM     21  C   UNL     1      33.623  24.153  38.386  1.00  0.00     0.003 C 
ATOM     22  C   UNL     1      36.010  24.163  39.871  1.00  0.00     0.033 C 
ATOM     23  C   UNL     1      34.333  25.589  38.432  1.00  0.00    -0.006 C 
ATOM     24  C   UNL     1      35.793  25.453  39.061  1.00  0.00     0.120 C 
ATOM     25  C   UNL     1      33.555  26.669  39.244  1.00  0.00     0.014 C 
ATOM     26  C   UNL     1      34.446  26.152  36.984  1.00  0.00     0.014 C 
ENDROOT
BRANCH   1  27
ATOM     27  C   UNL     1      27.547  19.010  38.541  1.00  0.00     0.048 C 
ATOM     28  O   UNL     1      26.858  18.949  39.590  1.00  0.00    -0.550 OA
ATOM     29  O   UNL     1      27.293  18.095  37.526  1.00  0.00    -0.550 OA
ENDBRANCH   1  27
BRANCH   7  30
ATOM     30  C   UNL     1      31.590  18.252  40.263  1.00  0.00    -0.077 C 
ATOM     31  C   UNL     1      31.236  17.662  41.607  1.00  0.00     0.039 C 
ATOM     32  C   UNL     1      32.892  18.276  39.911  1.00  0.00     0.008 C 
ENDBRANCH   7  30
BRANCH  24  33
ATOM     33  O   UNL     1      36.802  25.558  38.079  1.00  0.00    -0.393 OA
ATOM     34  H   UNL     1      36.348  25.682  37.202  1.00  0.00     0.210 HD
ENDBRANCH  24  33
TORSDOF 3
ENDMDL
MODEL 8
REMARK VINA RESULT:    -4.476     10.095     12.037
REMARK INTER + INTRA:          -5.783
REMARK INTER:                  -5.055
REMARK INTRA:                  -0.727
REMARK UNBOUND:                -0.653
REMARK SMILES C=C(C)[C@@H]1CC[C@]2(C(=O)[O-])CC[C@@]3(C)[C@@H](CC[C@H]4[C@]5(C)CC[C@@H](O)C(C)(C)[C@@H]5CC[C@]43C)[C@H]12
REMARK SMILES IDX 7 1 6 2 33 3 11 4 5 5 15 6 4 7 12 8 16 9 13 10 17 11 31 12
REMARK SMILES IDX 14 13 18 14 30 15 32 16 19 17 29 18 21 19 20 20 28 21 22 22
REMARK SMILES IDX 25 23 23 24 26 25 27 26 8 27 9 28 10 29 2 30 3 31 1 32 24 33
REMARK H PARENT 24 34
REMARK Flexibility Score: inf
ROOT
ATOM      1  C   UNL     1      34.070  29.498  33.369  1.00  0.00     0.014 C 
ATOM      2  C   UNL     1      34.108  28.122  32.641  1.00  0.00     0.014 C 
ATOM      3  C   UNL     1      34.101  29.113  34.883  1.00  0.00     0.012 C 
ATOM      4  C   UNL     1      35.220  30.432  32.928  1.00  0.00     0.014 C 
ATOM      5  C   UNL     1      33.614  27.070  33.636  1.00  0.00     0.009 C 
ATOM      6  C   UNL     1      35.565  28.838  35.441  1.00  0.00     0.000 C 
ATOM      7  C   UNL     1      33.172  27.861  34.866  1.00  0.00     0.018 C 
ATOM      8  C   UNL     1      36.588  30.035  33.473  1.00  0.00     0.008 C 
ATOM      9  C   UNL     1      35.551  28.665  36.986  1.00  0.00     0.005 C 
ATOM     10  C   UNL     1      36.653  29.884  35.021  1.00  0.00    -0.024 C 
ATOM     11  C   UNL     1      36.932  28.672  37.670  1.00  0.00     0.005 C 
ATOM     12  C   UNL     1      38.157  29.398  35.503  1.00  0.00    -0.024 C 
ATOM     13  C   UNL     1      36.242  31.272  35.636  1.00  0.00     0.012 C 
ATOM     14  C   UNL     1      38.123  28.366  36.739  1.00  0.00     0.002 C 
ATOM     15  C   UNL     1      39.082  28.827  34.354  1.00  0.00     0.008 C 
ATOM     16  C   UNL     1      38.962  30.663  35.979  1.00  0.00     0.012 C 
ATOM     17  C   UNL     1      38.431  26.782  36.555  1.00  0.00    -0.026 C 
ATOM     18  C   UNL     1      38.988  27.330  34.113  1.00  0.00     0.005 C 
ATOM     19  C   UNL     1      39.076  26.229  37.882  1.00  0.00     0.010 C 
ATOM     20  C   UNL     1      37.142  25.917  36.341  1.00  0.00     0.012 C 
ATOM     21  C   UNL     1      39.399  26.483  35.343  1.00  0.00     0.003 C 
ATOM     22  C   UNL     1      39.879  24.952  37.651  1.00  0.00     0.033 C 
ATOM     23  C   UNL     1      40.957  26.333  35.690  1.00  0.00    -0.006 C 
ATOM     24  C   UNL     1      41.155  25.248  36.843  1.00  0.00     0.120 C 
ATOM     25  C   UNL     1      41.647  27.655  36.146  1.00  0.00     0.014 C 
ATOM     26  C   UNL     1      41.724  25.876  34.414  1.00  0.00     0.014 C 
ENDROOT
BRANCH   1  27
ATOM     27  C   UNL     1      32.773  30.223  32.997  1.00  0.00     0.048 C 
ATOM     28  O   UNL     1      32.393  31.217  33.665  1.00  0.00    -0.550 OA
ATOM     29  O   UNL     1      31.954  29.757  31.976  1.00  0.00    -0.550 OA
ENDBRANCH   1  27
BRANCH   7  30
ATOM     30  C   UNL     1      32.962  27.090  36.165  1.00  0.00    -0.077 C 
ATOM     31  C   UNL     1      32.008  27.647  37.195  1.00  0.00     0.039 C 
ATOM     32  C   UNL     1      33.501  25.877  36.401  1.00  0.00     0.008 C 
ENDBRANCH   7  30
BRANCH  24  33
ATOM     33  O   UNL     1      41.677  24.036  36.342  1.00  0.00    -0.393 OA
ATOM     34  H   UNL     1      42.583  24.234  35.980  1.00  0.00     0.210 HD
ENDBRANCH  24  33
TORSDOF 3
ENDMDL
MODEL 9
REMARK VINA RESULT:    -4.472      1.659      7.490
REMARK INTER + INTRA:          -5.779
REMARK INTER:                  -5.021
REMARK INTRA:                  -0.758
REMARK UNBOUND:                -0.653
REMARK SMILES C=C(C)[C@@H]1CC[C@]2(C(=O)[O-])CC[C@@]3(C)[C@@H](CC[C@H]4[C@]5(C)CC[C@@H](O)C(C)(C)[C@@H]5CC[C@]43C)[C@H]12
REMARK SMILES IDX 7 1 6 2 33 3 11 4 5 5 15 6 4 7 12 8 16 9 13 10 17 11 31 12
REMARK SMILES IDX 14 13 18 14 30 15 32 16 19 17 29 18 21 19 20 20 28 21 22 22
REMARK SMILES IDX 25 23 23 24 26 25 27 26 8 27 9 28 10 29 2 30 3 31 1 32 24 33
REMARK H PARENT 24 34
REMARK Flexibility Score: inf
ROOT
ATOM      1  C   UNL     1      30.715  19.502  39.520  1.00  0.00     0.014 C 
ATOM      2  C   UNL     1      31.007  21.023  39.351  1.00  0.00     0.014 C 
ATOM      3  C   UNL     1      29.283  19.470  40.145  1.00  0.00     0.012 C 
ATOM      4  C   UNL     1      30.845  18.725  38.191  1.00  0.00     0.014 C 
ATOM      5  C   UNL     1      30.089  21.770  40.321  1.00  0.00     0.009 C 
ATOM      6  C   UNL     1      28.116  19.593  39.071  1.00  0.00     0.000 C 
ATOM      7  C   UNL     1      29.385  20.678  41.126  1.00  0.00     0.018 C 
ATOM      8  C   UNL     1      29.700  18.968  37.213  1.00  0.00     0.008 C 
ATOM      9  C   UNL     1      26.727  19.348  39.725  1.00  0.00     0.005 C 
ATOM     10  C   UNL     1      28.281  18.702  37.794  1.00  0.00    -0.024 C 
ATOM     11  C   UNL     1      25.552  19.165  38.745  1.00  0.00     0.005 C 
ATOM     12  C   UNL     1      27.113  19.048  36.677  1.00  0.00    -0.024 C 
ATOM     13  C   UNL     1      28.247  17.198  38.254  1.00  0.00     0.012 C 
ATOM     14  C   UNL     1      25.796  19.713  37.324  1.00  0.00     0.002 C 
ATOM     15  C   UNL     1      27.595  19.908  35.441  1.00  0.00     0.008 C 
ATOM     16  C   UNL     1      26.663  17.705  35.992  1.00  0.00     0.012 C 
ATOM     17  C   UNL     1      25.448  21.290  37.152  1.00  0.00    -0.026 C 
ATOM     18  C   UNL     1      27.486  21.415  35.601  1.00  0.00     0.005 C 
ATOM     19  C   UNL     1      23.883  21.472  37.163  1.00  0.00     0.010 C 
ATOM     20  C   UNL     1      25.967  22.175  38.336  1.00  0.00     0.012 C 
ATOM     21  C   UNL     1      26.033  21.905  35.820  1.00  0.00     0.003 C 
ATOM     22  C   UNL     1      23.442  22.768  36.487  1.00  0.00     0.033 C 
ATOM     23  C   UNL     1      25.042  21.964  34.561  1.00  0.00    -0.006 C 
ATOM     24  C   UNL     1      23.688  22.704  34.970  1.00  0.00     0.120 C 
ATOM     25  C   UNL     1      24.671  20.571  33.966  1.00  0.00     0.014 C 
ATOM     26  C   UNL     1      25.728  22.748  33.404  1.00  0.00     0.014 C 
ENDROOT
BRANCH   1  27
ATOM     27  C   UNL     1      31.757  18.898  40.465  1.00  0.00     0.048 C 
ATOM     28  O   UNL     1      31.523  17.809  41.049  1.00  0.00    -0.550 OA
ATOM     29  O   UNL     1      32.938  19.568  40.760  1.00  0.00    -0.550 OA
ENDBRANCH   1  27
BRANCH   7  30
ATOM     30  C   UNL     1      28.150  21.074  41.928  1.00  0.00    -0.077 C 
ATOM     31  C   UNL     1      27.704  20.184  43.063  1.00  0.00     0.039 C 
ATOM     32  C   UNL     1      27.493  22.237  41.748  1.00  0.00     0.008 C 
ENDBRANCH   7  30
BRANCH  24  33
ATOM     33  O   UNL     1      23.617  24.007  34.434  1.00  0.00    -0.393 OA
ATOM     34  H   UNL     1      24.357  24.095  33.774  1.00  0.00     0.210 HD
ENDBRANCH  24  33
TORSDOF 3
ENDMDL
