MODEL 1
REMARK VINA RESULT:    -5.485      0.000      0.000
REMARK INTER + INTRA:          -5.645
REMARK INTER:                  -5.645
REMARK INTRA:                   0.000
REMARK UNBOUND:                 0.000
REMARK SMILES Cc1ccccc1O
REMARK SMILES IDX 1 1 2 2 3 3 4 4 5 5 6 6 7 7 8 8
REMARK H PARENT 8 9
REMARK Flexibility Score: inf
ROOT
ATOM      1  C   UNL     1      -6.803  -4.593  14.886  1.00  0.00     0.048 C 
ATOM      2  C   UNL     1      -6.986  -5.611  15.977  1.00  0.00    -0.009 A 
ATOM      3  C   UNL     1      -5.919  -6.461  16.319  1.00  0.00     0.007 A 
ATOM      4  C   UNL     1      -6.070  -7.413  17.331  1.00  0.00     0.001 A 
ATOM      5  C   UNL     1      -7.283  -7.528  18.009  1.00  0.00     0.004 A 
ATOM      6  C   UNL     1      -8.351  -6.691  17.679  1.00  0.00     0.046 A 
ATOM      7  C   UNL     1      -8.214  -5.732  16.667  1.00  0.00     0.118 A 
ENDROOT
BRANCH   7   8
ATOM      8  O   UNL     1      -9.311  -4.918  16.374  1.00  0.00    -0.508 OA
ATOM      9  H   UNL     1      -9.388  -3.961  16.693  1.00  0.00     0.293 HD
ENDBRANCH   7   8
TORSDOF 1
ENDMDL
MODEL 2
REMARK VINA RESULT:    -5.442      1.759      2.207
REMARK INTER + INTRA:          -5.601
REMARK INTER:                  -5.601
REMARK INTRA:                   0.000
REMARK UNBOUND:                 0.000
REMARK SMILES Cc1ccccc1O
REMARK SMILES IDX 1 1 2 2 3 3 4 4 5 5 6 6 7 7 8 8
REMARK H PARENT 8 9
REMARK Flexibility Score: inf
ROOT
ATOM      1  C   UNL     1      -6.776  -5.084  14.698  1.00  0.00     0.048 C 
ATOM      2  C   UNL     1      -7.176  -5.745  15.988  1.00  0.00    -0.009 A 
ATOM      3  C   UNL     1      -7.656  -4.960  17.051  1.00  0.00     0.007 A 
ATOM      4  C   UNL     1      -8.034  -5.556  18.257  1.00  0.00     0.001 A 
ATOM      5  C   UNL     1      -7.937  -6.939  18.415  1.00  0.00     0.004 A 
ATOM      6  C   UNL     1      -7.462  -7.730  17.367  1.00  0.00     0.046 A 
ATOM      7  C   UNL     1      -7.080  -7.146  16.152  1.00  0.00     0.118 A 
ENDROOT
BRANCH   7   8
ATOM      8  O   UNL     1      -6.612  -7.981  15.134  1.00  0.00    -0.508 OA
ATOM      9  H   UNL     1      -7.107  -8.117  14.263  1.00  0.00     0.293 HD
ENDBRANCH   7   8
TORSDOF 1
ENDMDL
MODEL 3
REMARK VINA RESULT:    -5.346      1.871      2.181
REMARK INTER + INTRA:          -5.502
REMARK INTER:                  -5.502
REMARK INTRA:                   0.000
REMARK UNBOUND:                 0.000
REMARK SMILES Cc1ccccc1O
REMARK SMILES IDX 1 1 2 2 3 3 4 4 5 5 6 6 7 7 8 8
REMARK H PARENT 8 9
REMARK Flexibility Score: inf
ROOT
ATOM      1  C   UNL     1      -6.354  -4.216  15.756  1.00  0.00     0.048 C 
ATOM      2  C   UNL     1      -6.803  -5.547  16.293  1.00  0.00    -0.009 A 
ATOM      3  C   UNL     1      -7.696  -6.333  15.544  1.00  0.00     0.007 A 
ATOM      4  C   UNL     1      -8.125  -7.572  16.026  1.00  0.00     0.001 A 
ATOM      5  C   UNL     1      -7.668  -8.040  17.259  1.00  0.00     0.004 A 
ATOM      6  C   UNL     1      -6.781  -7.269  18.014  1.00  0.00     0.046 A 
ATOM      7  C   UNL     1      -6.343  -6.025  17.542  1.00  0.00     0.118 A 
ENDROOT
BRANCH   7   8
ATOM      8  O   UNL     1      -5.456  -5.292  18.334  1.00  0.00    -0.508 OA
ATOM      9  H   UNL     1      -5.088  -5.636  19.212  1.00  0.00     0.293 HD
ENDBRANCH   7   8
TORSDOF 1
ENDMDL
MODEL 4
REMARK VINA RESULT:    -5.070      1.661      2.116
REMARK INTER + INTRA:          -5.219
REMARK INTER:                  -5.219
REMARK INTRA:                   0.000
REMARK UNBOUND:                 0.000
REMARK SMILES Cc1ccccc1O
REMARK SMILES IDX 1 1 2 2 3 3 4 4 5 5 6 6 7 7 8 8
REMARK H PARENT 8 9
REMARK Flexibility Score: inf
ROOT
ATOM      1  C   UNL     1      -8.189  -5.698  14.639  1.00  0.00     0.048 C 
ATOM      2  C   UNL     1      -7.611  -6.044  15.984  1.00  0.00    -0.009 A 
ATOM      3  C   UNL     1      -8.175  -7.091  16.734  1.00  0.00     0.007 A 
ATOM      4  C   UNL     1      -7.652  -7.427  17.985  1.00  0.00     0.001 A 
ATOM      5  C   UNL     1      -6.561  -6.725  18.500  1.00  0.00     0.004 A 
ATOM      6  C   UNL     1      -5.991  -5.683  17.765  1.00  0.00     0.046 A 
ATOM      7  C   UNL     1      -6.505  -5.335  16.509  1.00  0.00     0.118 A 
ENDROOT
BRANCH   7   8
ATOM      8  O   UNL     1      -5.900  -4.286  15.813  1.00  0.00    -0.508 OA
ATOM      9  H   UNL     1      -6.314  -3.855  14.997  1.00  0.00     0.293 HD
ENDBRANCH   7   8
TORSDOF 1
ENDMDL
MODEL 5
REMARK VINA RESULT:    -5.009      1.322      2.158
REMARK INTER + INTRA:          -5.155
REMARK INTER:                  -5.155
REMARK INTRA:                   0.000
REMARK UNBOUND:                 0.000
REMARK SMILES Cc1ccccc1O
REMARK SMILES IDX 1 1 2 2 3 3 4 4 5 5 6 6 7 7 8 8
REMARK H PARENT 8 9
REMARK Flexibility Score: inf
ROOT
ATOM      1  C   UNL     1      -5.164  -7.094  15.732  1.00  0.00     0.048 C 
ATOM      2  C   UNL     1      -6.404  -6.625  16.440  1.00  0.00    -0.009 A 
ATOM      3  C   UNL     1      -6.634  -7.018  17.770  1.00  0.00     0.007 A 
ATOM      4  C   UNL     1      -7.782  -6.592  18.446  1.00  0.00     0.001 A 
ATOM      5  C   UNL     1      -8.709  -5.772  17.802  1.00  0.00     0.004 A 
ATOM      6  C   UNL     1      -8.493  -5.375  16.481  1.00  0.00     0.046 A 
ATOM      7  C   UNL     1      -7.347  -5.794  15.792  1.00  0.00     0.118 A 
ENDROOT
BRANCH   7   8
ATOM      8  O   UNL     1      -7.176  -5.369  14.472  1.00  0.00    -0.508 OA
ATOM      9  H   UNL     1      -6.560  -4.610  14.214  1.00  0.00     0.293 HD
ENDBRANCH   7   8
TORSDOF 1
ENDMDL
MODEL 6
REMARK VINA RESULT:    -5.008      0.804      2.587
REMARK INTER + INTRA:          -5.154
REMARK INTER:                  -5.154
REMARK INTRA:                   0.000
REMARK UNBOUND:                 0.000
REMARK SMILES Cc1ccccc1O
REMARK SMILES IDX 1 1 2 2 3 3 4 4 5 5 6 6 7 7 8 8
REMARK H PARENT 8 9
REMARK Flexibility Score: inf
ROOT
ATOM      1  C   UNL     1      -8.115  -7.380  17.967  1.00  0.00     0.048 C 
ATOM      2  C   UNL     1      -7.357  -6.567  16.953  1.00  0.00    -0.009 A 
ATOM      3  C   UNL     1      -6.046  -6.939  16.606  1.00  0.00     0.007 A 
ATOM      4  C   UNL     1      -5.326  -6.196  15.666  1.00  0.00     0.001 A 
ATOM      5  C   UNL     1      -5.905  -5.079  15.064  1.00  0.00     0.004 A 
ATOM      6  C   UNL     1      -7.206  -4.699  15.400  1.00  0.00     0.046 A 
ATOM      7  C   UNL     1      -7.940  -5.434  16.340  1.00  0.00     0.118 A 
ENDROOT
BRANCH   7   8
ATOM      8  O   UNL     1      -9.238  -5.014  16.642  1.00  0.00    -0.508 OA
ATOM      9  H   UNL     1      -9.439  -4.298  17.327  1.00  0.00     0.293 HD
ENDBRANCH   7   8
TORSDOF 1
ENDMDL
MODEL 7
REMARK VINA RESULT:    -5.007      1.831      3.355
REMARK INTER + INTRA:          -5.154
REMARK INTER:                  -5.154
REMARK INTRA:                   0.000
REMARK UNBOUND:                 0.000
REMARK SMILES Cc1ccccc1O
REMARK SMILES IDX 1 1 2 2 3 3 4 4 5 5 6 6 7 7 8 8
REMARK H PARENT 8 9
REMARK Flexibility Score: inf
ROOT
ATOM      1  C   UNL     1      -7.773  -7.560  18.124  1.00  0.00     0.048 C 
ATOM      2  C   UNL     1      -7.421  -6.600  17.022  1.00  0.00    -0.009 A 
ATOM      3  C   UNL     1      -8.147  -6.628  15.818  1.00  0.00     0.007 A 
ATOM      4  C   UNL     1      -7.835  -5.743  14.783  1.00  0.00     0.001 A 
ATOM      5  C   UNL     1      -6.799  -4.822  14.938  1.00  0.00     0.004 A 
ATOM      6  C   UNL     1      -6.070  -4.783  16.128  1.00  0.00     0.046 A 
ATOM      7  C   UNL     1      -6.372  -5.664  17.175  1.00  0.00     0.118 A 
ENDROOT
BRANCH   7   8
ATOM      8  O   UNL     1      -5.614  -5.585  18.346  1.00  0.00    -0.508 OA
ATOM      9  H   UNL     1      -5.906  -6.003  19.219  1.00  0.00     0.293 HD
ENDBRANCH   7   8
TORSDOF 1
ENDMDL
MODEL 8
REMARK VINA RESULT:    -4.993      1.843      3.337
REMARK INTER + INTRA:          -5.139
REMARK INTER:                  -5.139
REMARK INTRA:                   0.000
REMARK UNBOUND:                 0.000
REMARK SMILES Cc1ccccc1O
REMARK SMILES IDX 1 1 2 2 3 3 4 4 5 5 6 6 7 7 8 8
REMARK H PARENT 8 9
REMARK Flexibility Score: inf
ROOT
ATOM      1  C   UNL     1      -7.751  -7.619  17.994  1.00  0.00     0.048 C 
ATOM      2  C   UNL     1      -7.274  -6.495  17.116  1.00  0.00    -0.009 A 
ATOM      3  C   UNL     1      -7.292  -5.177  17.605  1.00  0.00     0.007 A 
ATOM      4  C   UNL     1      -6.852  -4.119  16.804  1.00  0.00     0.001 A 
ATOM      5  C   UNL     1      -6.389  -4.365  15.511  1.00  0.00     0.004 A 
ATOM      6  C   UNL     1      -6.366  -5.670  15.013  1.00  0.00     0.046 A 
ATOM      7  C   UNL     1      -6.804  -6.740  15.805  1.00  0.00     0.118 A 
ENDROOT
BRANCH   7   8
ATOM      8  O   UNL     1      -6.761  -8.026  15.261  1.00  0.00    -0.508 OA
ATOM      9  H   UNL     1      -7.403  -8.344  14.548  1.00  0.00     0.293 HD
ENDBRANCH   7   8
TORSDOF 1
ENDMDL
MODEL 9
REMARK VINA RESULT:    -4.914      1.950      2.571
REMARK INTER + INTRA:          -5.057
REMARK INTER:                  -5.057
REMARK INTRA:                   0.000
REMARK UNBOUND:                 0.000
REMARK SMILES Cc1ccccc1O
REMARK SMILES IDX 1 1 2 2 3 3 4 4 5 5 6 6 7 7 8 8
REMARK H PARENT 8 9
REMARK Flexibility Score: inf
ROOT
ATOM      1  C   UNL     1      -6.706  -3.903  17.365  1.00  0.00     0.048 C 
ATOM      2  C   UNL     1      -7.067  -5.316  16.998  1.00  0.00    -0.009 A 
ATOM      3  C   UNL     1      -8.152  -5.943  17.636  1.00  0.00     0.007 A 
ATOM      4  C   UNL     1      -8.503  -7.255  17.308  1.00  0.00     0.001 A 
ATOM      5  C   UNL     1      -7.777  -7.954  16.343  1.00  0.00     0.004 A 
ATOM      6  C   UNL     1      -6.697  -7.343  15.703  1.00  0.00     0.046 A 
ATOM      7  C   UNL     1      -6.334  -6.028  16.021  1.00  0.00     0.118 A 
ENDROOT
BRANCH   7   8
ATOM      8  O   UNL     1      -5.246  -5.462  15.353  1.00  0.00    -0.508 OA
ATOM      9  H   UNL     1      -4.418  -5.130  15.830  1.00  0.00     0.293 HD
ENDBRANCH   7   8
TORSDOF 1
ENDMDL
