MODEL 1
REMARK VINA RESULT:    -3.346      0.000      0.000
REMARK INTER + INTRA:          -6.331
REMARK INTER:                  -5.301
REMARK INTRA:                  -1.029
REMARK UNBOUND:                -1.029
REMARK SMILES CCCCCCCCCCCC(=O)[O-]
REMARK SMILES IDX 7 1 8 2 9 3 10 4 11 5 12 6 13 7 14 8 6 9 5 10 4 11 3 12 2 13
REMARK SMILES IDX 1 14
REMARK H PARENT
REMARK Flexibility Score: inf
ROOT
ATOM      1  C   UNL     1     -16.036 -17.071  27.862  1.00  0.00     0.000 C 
ENDROOT
BRANCH   1   2
ATOM      2  C   UNL     1     -15.168 -16.179  26.961  1.00  0.00     0.000 C 
BRANCH   2   3
ATOM      3  C   UNL     1     -15.847 -14.828  26.706  1.00  0.00     0.000 C 
BRANCH   3   4
ATOM      4  C   UNL     1     -16.723 -14.880  25.448  1.00  0.00     0.006 C 
BRANCH   4   5
ATOM      5  C   UNL     1     -16.967 -13.476  24.890  1.00  0.00     0.053 C 
BRANCH   5   6
ATOM      6  C   UNL     1     -18.173 -12.861  25.530  1.00  0.00     0.041 C 
ATOM      7  O   UNL     1     -18.223 -11.618  25.721  1.00  0.00    -0.550 OA
ATOM      8  O   UNL     1     -19.260 -13.655  25.869  1.00  0.00    -0.550 OA
ENDBRANCH   5   6
ENDBRANCH   4   5
ENDBRANCH   3   4
ENDBRANCH   2   3
ENDBRANCH   1   2
BRANCH   1   9
ATOM      9  C   UNL     1     -15.237 -17.665  29.041  1.00  0.00     0.000 C 
BRANCH   9  10
ATOM     10  C   UNL     1     -15.201 -16.753  30.280  1.00  0.00    -0.000 C 
BRANCH  10  11
ATOM     11  C   UNL     1     -13.777 -16.319  30.662  1.00  0.00    -0.000 C 
BRANCH  11  12
ATOM     12  C   UNL     1     -12.706 -16.874  29.706  1.00  0.00    -0.000 C 
BRANCH  12  13
ATOM     13  C   UNL     1     -11.993 -15.783  28.880  1.00  0.00    -0.003 C 
ATOM     14  C   UNL     1     -12.607 -14.398  29.089  1.00  0.00     0.004 C 
ENDBRANCH  12  13
ENDBRANCH  11  12
ENDBRANCH  10  11
ENDBRANCH   9  10
ENDBRANCH   1   9
TORSDOF 10
ENDMDL
MODEL 2
REMARK VINA RESULT:    -3.184      9.466     10.460
REMARK INTER + INTRA:          -6.075
REMARK INTER:                  -4.609
REMARK INTRA:                  -1.466
REMARK UNBOUND:                -1.029
REMARK SMILES CCCCCCCCCCCC(=O)[O-]
REMARK SMILES IDX 7 1 8 2 9 3 10 4 11 5 12 6 13 7 14 8 6 9 5 10 4 11 3 12 2 13
REMARK SMILES IDX 1 14
REMARK H PARENT
REMARK Flexibility Score: inf
ROOT
ATOM      1  C   UNL     1     -14.248 -21.257  21.356  1.00  0.00     0.000 C 
ENDROOT
BRANCH   1   2
ATOM      2  C   UNL     1     -13.176 -20.438  20.620  1.00  0.00     0.000 C 
BRANCH   2   3
ATOM      3  C   UNL     1     -12.320 -21.337  19.720  1.00  0.00     0.000 C 
BRANCH   3   4
ATOM      4  C   UNL     1     -10.865 -21.375  20.205  1.00  0.00     0.006 C 
BRANCH   4   5
ATOM      5  C   UNL     1     -10.436 -20.017  20.764  1.00  0.00     0.053 C 
BRANCH   5   6
ATOM      6  C   UNL     1      -9.321 -19.442  19.947  1.00  0.00     0.041 C 
ATOM      7  O   UNL     1      -9.491 -19.204  18.723  1.00  0.00    -0.550 OA
ATOM      8  O   UNL     1      -8.112 -19.122  20.549  1.00  0.00    -0.550 OA
ENDBRANCH   5   6
ENDBRANCH   4   5
ENDBRANCH   3   4
ENDBRANCH   2   3
ENDBRANCH   1   2
BRANCH   1   9
ATOM      9  C   UNL     1     -14.110 -21.156  22.890  1.00  0.00     0.000 C 
BRANCH   9  10
ATOM     10  C   UNL     1     -12.665 -21.324  23.390  1.00  0.00    -0.000 C 
BRANCH  10  11
ATOM     11  C   UNL     1     -12.477 -22.573  24.265  1.00  0.00    -0.000 C 
BRANCH  11  12
ATOM     12  C   UNL     1     -12.896 -23.871  23.553  1.00  0.00    -0.000 C 
BRANCH  12  13
ATOM     13  C   UNL     1     -11.918 -24.309  22.443  1.00  0.00    -0.003 C 
ATOM     14  C   UNL     1     -12.639 -24.718  21.158  1.00  0.00     0.004 C 
ENDBRANCH  12  13
ENDBRANCH  11  12
ENDBRANCH  10  11
ENDBRANCH   9  10
ENDBRANCH   1   9
TORSDOF 10
ENDMDL
MODEL 3
REMARK VINA RESULT:    -3.142      9.048      9.910
REMARK INTER + INTRA:          -6.008
REMARK INTER:                  -4.659
REMARK INTRA:                  -1.350
REMARK UNBOUND:                -1.029
REMARK SMILES CCCCCCCCCCCC(=O)[O-]
REMARK SMILES IDX 7 1 8 2 9 3 10 4 11 5 12 6 13 7 14 8 6 9 5 10 4 11 3 12 2 13
REMARK SMILES IDX 1 14
REMARK H PARENT
REMARK Flexibility Score: inf
ROOT
ATOM      1  C   UNL     1     -11.208 -23.196  20.573  1.00  0.00     0.000 C 
ENDROOT
BRANCH   1   2
ATOM      2  C   UNL     1     -11.371 -21.863  19.826  1.00  0.00     0.000 C 
BRANCH   2   3
ATOM      3  C   UNL     1     -10.544 -20.756  20.491  1.00  0.00     0.000 C 
BRANCH   3   4
ATOM      4  C   UNL     1     -10.837 -19.392  19.853  1.00  0.00     0.006 C 
BRANCH   4   5
ATOM      5  C   UNL     1     -12.277 -18.954  20.129  1.00  0.00     0.053 C 
BRANCH   5   6
ATOM      6  C   UNL     1     -12.966 -18.583  18.853  1.00  0.00     0.041 C 
ATOM      7  O   UNL     1     -13.390 -17.411  18.680  1.00  0.00    -0.550 OA
ATOM      8  O   UNL     1     -13.095 -19.519  17.836  1.00  0.00    -0.550 OA
ENDBRANCH   5   6
ENDBRANCH   4   5
ENDBRANCH   3   4
ENDBRANCH   2   3
ENDBRANCH   1   2
BRANCH   1   9
ATOM      9  C   UNL     1     -12.566 -23.868  20.873  1.00  0.00     0.000 C 
BRANCH   9  10
ATOM     10  C   UNL     1     -12.737 -24.276  22.346  1.00  0.00    -0.000 C 
BRANCH  10  11
ATOM     11  C   UNL     1     -11.906 -23.412  23.306  1.00  0.00    -0.000 C 
BRANCH  11  12
ATOM     12  C   UNL     1     -12.755 -22.387  24.077  1.00  0.00    -0.000 C 
BRANCH  12  13
ATOM     13  C   UNL     1     -12.876 -21.025  23.361  1.00  0.00    -0.003 C 
ATOM     14  C   UNL     1     -14.217 -20.860  22.644  1.00  0.00     0.004 C 
ENDBRANCH  12  13
ENDBRANCH  11  12
ENDBRANCH  10  11
ENDBRANCH   9  10
ENDBRANCH   1   9
TORSDOF 10
ENDMDL
MODEL 4
REMARK VINA RESULT:    -3.138      3.532      6.978
REMARK INTER + INTRA:          -6.002
REMARK INTER:                  -5.219
REMARK INTRA:                  -0.783
REMARK UNBOUND:                -1.029
REMARK SMILES CCCCCCCCCCCC(=O)[O-]
REMARK SMILES IDX 7 1 8 2 9 3 10 4 11 5 12 6 13 7 14 8 6 9 5 10 4 11 3 12 2 13
REMARK SMILES IDX 1 14
REMARK H PARENT
REMARK Flexibility Score: inf
ROOT
ATOM      1  C   UNL     1     -16.398 -14.196  26.250  1.00  0.00     0.000 C 
ENDROOT
BRANCH   1   2
ATOM      2  C   UNL     1     -16.399 -15.704  25.955  1.00  0.00     0.000 C 
BRANCH   2   3
ATOM      3  C   UNL     1     -15.198 -16.394  26.614  1.00  0.00     0.000 C 
BRANCH   3   4
ATOM      4  C   UNL     1     -14.901 -15.786  27.990  1.00  0.00     0.006 C 
BRANCH   4   5
ATOM      5  C   UNL     1     -14.587 -16.877  29.017  1.00  0.00     0.053 C 
BRANCH   5   6
ATOM      6  C   UNL     1     -13.114 -16.949  29.271  1.00  0.00     0.041 C 
ATOM      7  O   UNL     1     -12.648 -17.821  30.050  1.00  0.00    -0.550 OA
ATOM      8  O   UNL     1     -12.252 -16.086  28.608  1.00  0.00    -0.550 OA
ENDBRANCH   5   6
ENDBRANCH   4   5
ENDBRANCH   3   4
ENDBRANCH   2   3
ENDBRANCH   1   2
BRANCH   1   9
ATOM      9  C   UNL     1     -17.810 -13.580  26.149  1.00  0.00     0.000 C 
BRANCH   9  10
ATOM     10  C   UNL     1     -17.847 -12.255  25.368  1.00  0.00    -0.000 C 
BRANCH  10  11
ATOM     11  C   UNL     1     -18.566 -12.378  24.016  1.00  0.00    -0.000 C 
BRANCH  11  12
ATOM     12  C   UNL     1     -17.852 -13.333  23.043  1.00  0.00    -0.000 C 
BRANCH  12  13
ATOM     13  C   UNL     1     -18.787 -14.394  22.424  1.00  0.00    -0.003 C 
ATOM     14  C   UNL     1     -18.605 -15.773  23.059  1.00  0.00     0.004 C 
ENDBRANCH  12  13
ENDBRANCH  11  12
ENDBRANCH  10  11
ENDBRANCH   9  10
ENDBRANCH   1   9
TORSDOF 10
ENDMDL
MODEL 5
REMARK VINA RESULT:    -3.127      3.367      6.568
REMARK INTER + INTRA:          -5.984
REMARK INTER:                  -5.041
REMARK INTRA:                  -0.943
REMARK UNBOUND:                -1.029
REMARK SMILES CCCCCCCCCCCC(=O)[O-]
REMARK SMILES IDX 7 1 8 2 9 3 10 4 11 5 12 6 13 7 14 8 6 9 5 10 4 11 3 12 2 13
REMARK SMILES IDX 1 14
REMARK H PARENT
REMARK Flexibility Score: inf
ROOT
ATOM      1  C   UNL     1     -17.061 -13.705  27.035  1.00  0.00     0.000 C 
ENDROOT
BRANCH   1   2
ATOM      2  C   UNL     1     -16.392 -14.492  28.173  1.00  0.00     0.000 C 
BRANCH   2   3
ATOM      3  C   UNL     1     -14.895 -14.682  27.904  1.00  0.00     0.000 C 
BRANCH   3   4
ATOM      4  C   UNL     1     -14.484 -16.148  28.088  1.00  0.00     0.006 C 
BRANCH   4   5
ATOM      5  C   UNL     1     -15.712 -17.056  28.175  1.00  0.00     0.053 C 
BRANCH   5   6
ATOM      6  C   UNL     1     -15.633 -17.930  29.388  1.00  0.00     0.041 C 
ATOM      7  O   UNL     1     -14.906 -17.599  30.360  1.00  0.00    -0.550 OA
ATOM      8  O   UNL     1     -16.401 -19.084  29.464  1.00  0.00    -0.550 OA
ENDBRANCH   5   6
ENDBRANCH   4   5
ENDBRANCH   3   4
ENDBRANCH   2   3
ENDBRANCH   1   2
BRANCH   1   9
ATOM      9  C   UNL     1     -16.462 -14.049  25.655  1.00  0.00     0.000 C 
BRANCH   9  10
ATOM     10  C   UNL     1     -17.196 -15.193  24.934  1.00  0.00    -0.000 C 
BRANCH  10  11
ATOM     11  C   UNL     1     -18.351 -14.698  24.050  1.00  0.00    -0.000 C 
BRANCH  11  12
ATOM     12  C   UNL     1     -17.867 -14.006  22.764  1.00  0.00    -0.000 C 
BRANCH  12  13
ATOM     13  C   UNL     1     -18.563 -12.656  22.491  1.00  0.00    -0.003 C 
ATOM     14  C   UNL     1     -18.771 -11.838  23.765  1.00  0.00     0.004 C 
ENDBRANCH  12  13
ENDBRANCH  11  12
ENDBRANCH  10  11
ENDBRANCH   9  10
ENDBRANCH   1   9
TORSDOF 10
ENDMDL
MODEL 6
REMARK VINA RESULT:    -3.105      9.955     11.263
REMARK INTER + INTRA:          -5.949
REMARK INTER:                  -5.439
REMARK INTRA:                  -0.510
REMARK UNBOUND:                -1.029
REMARK SMILES CCCCCCCCCCCC(=O)[O-]
REMARK SMILES IDX 7 1 8 2 9 3 10 4 11 5 12 6 13 7 14 8 6 9 5 10 4 11 3 12 2 13
REMARK SMILES IDX 1 14
REMARK H PARENT
REMARK Flexibility Score: inf
ROOT
ATOM      1  C   UNL     1     -10.402 -19.781  20.495  1.00  0.00     0.000 C 
ENDROOT
BRANCH   1   2
ATOM      2  C   UNL     1      -9.774 -20.048  19.118  1.00  0.00     0.000 C 
BRANCH   2   3
ATOM      3  C   UNL     1      -8.324 -19.551  19.069  1.00  0.00     0.000 C 
BRANCH   3   4
ATOM      4  C   UNL     1      -7.902 -18.951  20.416  1.00  0.00     0.006 C 
BRANCH   4   5
ATOM      5  C   UNL     1      -6.541 -18.259  20.307  1.00  0.00     0.053 C 
BRANCH   5   6
ATOM      6  C   UNL     1      -5.902 -18.145  21.655  1.00  0.00     0.041 C 
ATOM      7  O   UNL     1      -5.958 -19.105  22.467  1.00  0.00    -0.550 OA
ATOM      8  O   UNL     1      -5.202 -16.995  21.997  1.00  0.00    -0.550 OA
ENDBRANCH   5   6
ENDBRANCH   4   5
ENDBRANCH   3   4
ENDBRANCH   2   3
ENDBRANCH   1   2
BRANCH   1   9
ATOM      9  C   UNL     1     -11.868 -19.311  20.388  1.00  0.00     0.000 C 
BRANCH   9  10
ATOM     10  C   UNL     1     -12.851 -20.171  21.201  1.00  0.00    -0.000 C 
BRANCH  10  11
ATOM     11  C   UNL     1     -12.143 -21.146  22.155  1.00  0.00    -0.000 C 
BRANCH  11  12
ATOM     12  C   UNL     1     -12.862 -21.286  23.508  1.00  0.00    -0.000 C 
BRANCH  12  13
ATOM     13  C   UNL     1     -12.493 -22.575  24.271  1.00  0.00    -0.003 C 
ATOM     14  C   UNL     1     -12.170 -23.738  23.331  1.00  0.00     0.004 C 
ENDBRANCH  12  13
ENDBRANCH  11  12
ENDBRANCH  10  11
ENDBRANCH   9  10
ENDBRANCH   1   9
TORSDOF 10
ENDMDL
MODEL 7
REMARK VINA RESULT:    -3.096      3.414      6.356
REMARK INTER + INTRA:          -5.936
REMARK INTER:                  -4.628
REMARK INTRA:                  -1.308
REMARK UNBOUND:                -1.029
REMARK SMILES CCCCCCCCCCCC(=O)[O-]
REMARK SMILES IDX 7 1 8 2 9 3 10 4 11 5 12 6 13 7 14 8 6 9 5 10 4 11 3 12 2 13
REMARK SMILES IDX 1 14
REMARK H PARENT
REMARK Flexibility Score: inf
ROOT
ATOM      1  C   UNL     1     -17.822 -13.533  27.379  1.00  0.00     0.000 C 
ENDROOT
BRANCH   1   2
ATOM      2  C   UNL     1     -17.005 -14.751  27.840  1.00  0.00     0.000 C 
BRANCH   2   3
ATOM      3  C   UNL     1     -15.612 -14.751  27.200  1.00  0.00     0.000 C 
BRANCH   3   4
ATOM      4  C   UNL     1     -14.865 -16.055  27.508  1.00  0.00     0.006 C 
BRANCH   4   5
ATOM      5  C   UNL     1     -15.744 -17.015  28.314  1.00  0.00     0.053 C 
BRANCH   5   6
ATOM      6  C   UNL     1     -14.981 -17.578  29.472  1.00  0.00     0.041 C 
ATOM      7  O   UNL     1     -13.729 -17.688  29.411  1.00  0.00    -0.550 OA
ATOM      8  O   UNL     1     -15.648 -17.935  30.636  1.00  0.00    -0.550 OA
ENDBRANCH   5   6
ENDBRANCH   4   5
ENDBRANCH   3   4
ENDBRANCH   2   3
ENDBRANCH   1   2
BRANCH   1   9
ATOM      9  C   UNL     1     -17.094 -12.719  26.289  1.00  0.00     0.000 C 
BRANCH   9  10
ATOM     10  C   UNL     1     -17.783 -12.776  24.915  1.00  0.00    -0.000 C 
BRANCH  10  11
ATOM     11  C   UNL     1     -17.149 -13.808  23.971  1.00  0.00    -0.000 C 
BRANCH  11  12
ATOM     12  C   UNL     1     -18.179 -14.776  23.364  1.00  0.00    -0.000 C 
BRANCH  12  13
ATOM     13  C   UNL     1     -18.576 -15.927  24.311  1.00  0.00    -0.003 C 
ATOM     14  C   UNL     1     -17.378 -16.783  24.725  1.00  0.00     0.004 C 
ENDBRANCH  12  13
ENDBRANCH  11  12
ENDBRANCH  10  11
ENDBRANCH   9  10
ENDBRANCH   1   9
TORSDOF 10
ENDMDL
MODEL 8
REMARK VINA RESULT:    -3.089      8.948     10.015
REMARK INTER + INTRA:          -5.925
REMARK INTER:                  -4.348
REMARK INTRA:                  -1.576
REMARK UNBOUND:                -1.029
REMARK SMILES CCCCCCCCCCCC(=O)[O-]
REMARK SMILES IDX 7 1 8 2 9 3 10 4 11 5 12 6 13 7 14 8 6 9 5 10 4 11 3 12 2 13
REMARK SMILES IDX 1 14
REMARK H PARENT
REMARK Flexibility Score: inf
ROOT
ATOM      1  C   UNL     1     -11.947 -22.715  20.130  1.00  0.00     0.000 C 
ENDROOT
BRANCH   1   2
ATOM      2  C   UNL     1     -10.692 -21.848  19.942  1.00  0.00     0.000 C 
BRANCH   2   3
ATOM      3  C   UNL     1     -10.803 -20.541  20.737  1.00  0.00     0.000 C 
BRANCH   3   4
ATOM      4  C   UNL     1     -10.910 -19.333  19.798  1.00  0.00     0.006 C 
BRANCH   4   5
ATOM      5  C   UNL     1     -12.249 -18.613  19.979  1.00  0.00     0.053 C 
BRANCH   5   6
ATOM      6  C   UNL     1     -12.878 -18.336  18.649  1.00  0.00     0.041 C 
ATOM      7  O   UNL     1     -13.629 -17.338  18.500  1.00  0.00    -0.550 OA
ATOM      8  O   UNL     1     -12.595 -19.154  17.563  1.00  0.00    -0.550 OA
ENDBRANCH   5   6
ENDBRANCH   4   5
ENDBRANCH   3   4
ENDBRANCH   2   3
ENDBRANCH   1   2
BRANCH   1   9
ATOM      9  C   UNL     1     -13.128 -22.230  19.263  1.00  0.00     0.000 C 
BRANCH   9  10
ATOM     10  C   UNL     1     -14.319 -21.708  20.084  1.00  0.00    -0.000 C 
BRANCH  10  11
ATOM     11  C   UNL     1     -14.266 -22.142  21.557  1.00  0.00    -0.000 C 
BRANCH  11  12
ATOM     12  C   UNL     1     -14.148 -20.955  22.527  1.00  0.00    -0.000 C 
BRANCH  12  13
ATOM     13  C   UNL     1     -12.891 -21.011  23.420  1.00  0.00    -0.003 C 
ATOM     14  C   UNL     1     -12.554 -22.435  23.864  1.00  0.00     0.004 C 
ENDBRANCH  12  13
ENDBRANCH  11  12
ENDBRANCH  10  11
ENDBRANCH   9  10
ENDBRANCH   1   9
TORSDOF 10
ENDMDL
MODEL 9
REMARK VINA RESULT:    -3.019      1.869      2.995
REMARK INTER + INTRA:          -5.813
REMARK INTER:                  -4.148
REMARK INTRA:                  -1.666
REMARK UNBOUND:                -1.029
REMARK SMILES CCCCCCCCCCCC(=O)[O-]
REMARK SMILES IDX 7 1 8 2 9 3 10 4 11 5 12 6 13 7 14 8 6 9 5 10 4 11 3 12 2 13
REMARK SMILES IDX 1 14
REMARK H PARENT
REMARK Flexibility Score: inf
ROOT
ATOM      1  C   UNL     1     -15.104 -16.808  27.950  1.00  0.00     0.000 C 
ENDROOT
BRANCH   1   2
ATOM      2  C   UNL     1     -15.290 -16.104  26.596  1.00  0.00     0.000 C 
BRANCH   2   3
ATOM      3  C   UNL     1     -16.732 -16.246  26.096  1.00  0.00     0.000 C 
BRANCH   3   4
ATOM      4  C   UNL     1     -17.070 -15.153  25.074  1.00  0.00     0.006 C 
BRANCH   4   5
ATOM      5  C   UNL     1     -16.904 -13.759  25.684  1.00  0.00     0.053 C 
BRANCH   5   6
ATOM      6  C   UNL     1     -18.220 -13.048  25.732  1.00  0.00     0.041 C 
ATOM      7  O   UNL     1     -18.292 -11.828  25.430  1.00  0.00    -0.550 OA
ATOM      8  O   UNL     1     -19.375 -13.745  26.063  1.00  0.00    -0.550 OA
ENDBRANCH   5   6
ENDBRANCH   4   5
ENDBRANCH   3   4
ENDBRANCH   2   3
ENDBRANCH   1   2
BRANCH   1   9
ATOM      9  C   UNL     1     -14.579 -15.850  29.040  1.00  0.00     0.000 C 
BRANCH   9  10
ATOM     10  C   UNL     1     -14.351 -14.414  28.538  1.00  0.00    -0.000 C 
BRANCH  10  11
ATOM     11  C   UNL     1     -15.341 -13.406  29.141  1.00  0.00    -0.000 C 
BRANCH  11  12
ATOM     12  C   UNL     1     -16.439 -14.077  29.985  1.00  0.00    -0.000 C 
BRANCH  12  13
ATOM     13  C   UNL     1     -17.826 -14.070  29.310  1.00  0.00    -0.003 C 
ATOM     14  C   UNL     1     -18.410 -15.475  29.162  1.00  0.00     0.004 C 
ENDBRANCH  12  13
ENDBRANCH  11  12
ENDBRANCH  10  11
ENDBRANCH   9  10
ENDBRANCH   1   9
TORSDOF 10
ENDMDL
