MODEL 1
REMARK VINA RESULT:    15.082      0.000      0.000
REMARK INTER + INTRA:          19.562
REMARK INTER:                  19.931
REMARK INTRA:                  -0.369
REMARK UNBOUND:                -0.369
REMARK SMILES CC[C@H](C=C[C@H](C)[C@H]1CC[C@H]2[C@@H]3CC=C4C[C@H](O)CC[C@]4(C)[C@H]3CC[C@]12C)C(C)C
REMARK SMILES IDX 6 1 7 2 5 3 4 4 3 5 2 6 1 7 28 8 29 9 30 10 8 11 9 12 26 13
REMARK SMILES IDX 10 14 11 15 25 16 27 17 12 18 24 19 23 20 13 21 21 22 14 23
REMARK SMILES IDX 15 24 20 25 22 26 16 27 19 28 17 29 18 30
REMARK H PARENT 18 31
REMARK Flexibility Score: inf
ROOT
ATOM      1  C   UNL     1      28.060  32.072  23.813  1.00  0.00     0.012 C 
ATOM      2  C   UNL     1      28.320  32.378  25.298  1.00  0.00     0.012 C 
ENDROOT
BRANCH   1   3
ATOM      3  C   UNL     1      29.122  32.794  23.007  1.00  0.00    -0.028 C 
ATOM      4  C   UNL     1      28.954  33.834  22.156  1.00  0.00    -0.027 C 
BRANCH   4   5
ATOM      5  C   UNL     1      27.654  34.555  21.811  1.00  0.00     0.014 C 
BRANCH   5   6
ATOM      6  C   UNL     1      27.471  35.750  22.785  1.00  0.00     0.004 C 
ATOM      7  C   UNL     1      26.801  35.355  24.103  1.00  0.00     0.004 C 
ENDBRANCH   5   6
BRANCH   5   8
ATOM      8  C   UNL     1      27.702  35.025  20.323  1.00  0.00    -0.011 C 
ATOM      9  C   UNL     1      27.444  33.871  19.333  1.00  0.00     0.008 C 
ATOM     10  C   UNL     1      29.060  35.678  19.986  1.00  0.00     0.008 C 
ENDBRANCH   5   8
ENDBRANCH   4   5
ENDBRANCH   1   3
BRANCH   1  11
ATOM     11  C   UNL     1      27.968  30.518  23.575  1.00  0.00     0.002 C 
ATOM     12  C   UNL     1      29.079  29.959  22.656  1.00  0.00     0.005 C 
ATOM     13  C   UNL     1      27.904  29.479  24.738  1.00  0.00    -0.026 C 
ATOM     14  C   UNL     1      29.125  28.438  22.913  1.00  0.00     0.005 C 
ATOM     15  C   UNL     1      27.984  28.186  23.900  1.00  0.00    -0.001 C 
ATOM     16  C   UNL     1      26.567  29.445  25.507  1.00  0.00     0.007 C 
ATOM     17  C   UNL     1      29.116  29.603  25.729  1.00  0.00     0.012 C 
ATOM     18  C   UNL     1      27.996  26.888  24.741  1.00  0.00     0.000 C 
ATOM     19  C   UNL     1      26.492  28.203  26.420  1.00  0.00     0.005 C 
ATOM     20  C   UNL     1      26.730  26.860  25.658  1.00  0.00     0.003 C 
ATOM     21  C   UNL     1      27.979  25.652  23.828  1.00  0.00     0.031 C 
ATOM     22  C   UNL     1      26.728  25.583  26.585  1.00  0.00    -0.008 C 
ATOM     23  C   UNL     1      27.701  24.377  24.579  1.00  0.00    -0.027 C 
ATOM     24  C   UNL     1      27.033  24.324  25.754  1.00  0.00    -0.065 C 
ATOM     25  C   UNL     1      25.318  25.428  27.236  1.00  0.00     0.014 C 
ATOM     26  C   UNL     1      27.800  25.691  27.705  1.00  0.00     0.016 C 
ATOM     27  C   UNL     1      26.728  22.961  26.351  1.00  0.00     0.063 C 
ATOM     28  C   UNL     1      25.084  24.064  27.906  1.00  0.00     0.033 C 
ATOM     29  C   UNL     1      25.307  22.910  26.924  1.00  0.00     0.118 C 
BRANCH  29  30
ATOM     30  O   UNL     1      24.358  22.977  25.890  1.00  0.00    -0.393 OA
ATOM     31  H   UNL     1      23.527  22.561  26.234  1.00  0.00     0.210 HD
ENDBRANCH  29  30
ENDBRANCH   1  11
TORSDOF 6
ENDMDL
