MODEL 1
REMARK VINA RESULT:    -1.644      0.000      0.000
REMARK INTER + INTRA:          -1.975
REMARK INTER:                  -1.932
REMARK INTRA:                  -0.042
REMARK UNBOUND:                -0.042
REMARK SMILES O=C([O-])CCC(=O)[O-]
REMARK SMILES IDX 4 1 2 2 1 3 3 4 5 5 6 6 7 7 8 8
REMARK H PARENT
REMARK Flexibility Score: inf
ROOT
ATOM      1  C   UNL     1     -19.263   0.176 -14.645  1.00  0.00     0.059 C 
ENDROOT
BRANCH   1   2
ATOM      2  C   UNL     1     -19.803  -0.798 -15.644  1.00  0.00     0.042 C 
ATOM      3  O   UNL     1     -19.960  -0.453 -16.845  1.00  0.00    -0.550 OA
ATOM      4  O   UNL     1     -20.087  -2.103 -15.261  1.00  0.00    -0.550 OA
ENDBRANCH   1   2
BRANCH   1   5
ATOM      5  C   UNL     1     -19.991   1.515 -14.757  1.00  0.00     0.059 C 
BRANCH   5   6
ATOM      6  C   UNL     1     -19.177   2.606 -14.136  1.00  0.00     0.042 C 
ATOM      7  O   UNL     1     -19.701   3.725 -13.888  1.00  0.00    -0.550 OA
ATOM      8  O   UNL     1     -17.828   2.406 -13.875  1.00  0.00    -0.550 OA
ENDBRANCH   5   6
ENDBRANCH   1   5
TORSDOF 3
ENDMDL
MODEL 2
REMARK VINA RESULT:    -1.583      3.756      5.048
REMARK INTER + INTRA:          -1.902
REMARK INTER:                  -1.796
REMARK INTRA:                  -0.107
REMARK UNBOUND:                -0.042
REMARK SMILES O=C([O-])CCC(=O)[O-]
REMARK SMILES IDX 4 1 2 2 1 3 3 4 5 5 6 6 7 7 8 8
REMARK H PARENT
REMARK Flexibility Score: inf
ROOT
ATOM      1  C   UNL     1     -20.095   4.434 -16.865  1.00  0.00     0.059 C 
ENDROOT
BRANCH   1   2
ATOM      2  C   UNL     1     -20.059   3.924 -15.460  1.00  0.00     0.042 C 
ATOM      3  O   UNL     1     -20.012   4.730 -14.493  1.00  0.00    -0.550 OA
ATOM      4  O   UNL     1     -20.125   2.558 -15.213  1.00  0.00    -0.550 OA
ENDBRANCH   1   2
BRANCH   1   5
ATOM      5  C   UNL     1     -19.991   5.959 -16.883  1.00  0.00     0.059 C 
BRANCH   5   6
ATOM      6  C   UNL     1     -18.600   6.385 -17.234  1.00  0.00     0.042 C 
ATOM      7  O   UNL     1     -18.156   6.201 -18.399  1.00  0.00    -0.550 OA
ATOM      8  O   UNL     1     -17.776   6.940 -16.263  1.00  0.00    -0.550 OA
ENDBRANCH   5   6
ENDBRANCH   1   5
TORSDOF 3
ENDMDL
MODEL 3
REMARK VINA RESULT:    -1.472      5.020      6.044
REMARK INTER + INTRA:          -1.773
REMARK INTER:                  -1.636
REMARK INTRA:                  -0.136
REMARK UNBOUND:                -0.042
REMARK SMILES O=C([O-])CCC(=O)[O-]
REMARK SMILES IDX 4 1 2 2 1 3 3 4 5 5 6 6 7 7 8 8
REMARK H PARENT
REMARK Flexibility Score: inf
ROOT
ATOM      1  C   UNL     1     -19.667   6.535 -16.977  1.00  0.00     0.059 C 
ENDROOT
BRANCH   1   2
ATOM      2  C   UNL     1     -18.599   6.223 -17.977  1.00  0.00     0.042 C 
ATOM      3  O   UNL     1     -17.625   7.008 -18.131  1.00  0.00    -0.550 OA
ATOM      4  O   UNL     1     -18.651   5.041 -18.705  1.00  0.00    -0.550 OA
ENDBRANCH   1   2
BRANCH   1   5
ATOM      5  C   UNL     1     -19.048   7.045 -15.675  1.00  0.00     0.059 C 
BRANCH   5   6
ATOM      6  C   UNL     1     -18.580   5.900 -14.834  1.00  0.00     0.042 C 
ATOM      7  O   UNL     1     -17.529   6.006 -14.147  1.00  0.00    -0.550 OA
ATOM      8  O   UNL     1     -19.276   4.698 -14.845  1.00  0.00    -0.550 OA
ENDBRANCH   5   6
ENDBRANCH   1   5
TORSDOF 3
ENDMDL
MODEL 4
REMARK VINA RESULT:    -1.459      4.357      5.980
REMARK INTER + INTRA:          -1.757
REMARK INTER:                  -1.678
REMARK INTRA:                  -0.079
REMARK UNBOUND:                -0.042
REMARK SMILES O=C([O-])CCC(=O)[O-]
REMARK SMILES IDX 4 1 2 2 1 3 3 4 5 5 6 6 7 7 8 8
REMARK H PARENT
REMARK Flexibility Score: inf
ROOT
ATOM      1  C   UNL     1     -19.537   5.792 -15.870  1.00  0.00     0.059 C 
ENDROOT
BRANCH   1   2
ATOM      2  C   UNL     1     -18.983   5.115 -14.657  1.00  0.00     0.042 C 
ATOM      3  O   UNL     1     -18.016   5.626 -14.032  1.00  0.00    -0.550 OA
ATOM      4  O   UNL     1     -19.564   3.944 -14.186  1.00  0.00    -0.550 OA
ENDBRANCH   1   2
BRANCH   1   5
ATOM      5  C   UNL     1     -18.545   6.823 -16.408  1.00  0.00     0.059 C 
BRANCH   5   6
ATOM      6  C   UNL     1     -18.072   6.433 -17.772  1.00  0.00     0.042 C 
ATOM      7  O   UNL     1     -17.201   7.125 -18.364  1.00  0.00    -0.550 OA
ATOM      8  O   UNL     1     -18.627   5.332 -18.413  1.00  0.00    -0.550 OA
ENDBRANCH   5   6
ENDBRANCH   1   5
TORSDOF 3
ENDMDL
MODEL 5
REMARK VINA RESULT:    -0.911      4.866      6.398
REMARK INTER + INTRA:          -1.113
REMARK INTER:                  -1.083
REMARK INTRA:                  -0.031
REMARK UNBOUND:                -0.042
REMARK SMILES O=C([O-])CCC(=O)[O-]
REMARK SMILES IDX 4 1 2 2 1 3 3 4 5 5 6 6 7 7 8 8
REMARK H PARENT
REMARK Flexibility Score: inf
ROOT
ATOM      1  C   UNL     1     -19.098   5.354 -15.458  1.00  0.00     0.059 C 
ENDROOT
BRANCH   1   2
ATOM      2  C   UNL     1     -18.989   6.515 -14.521  1.00  0.00     0.042 C 
ATOM      3  O   UNL     1     -17.877   7.076 -14.334  1.00  0.00    -0.550 OA
ATOM      4  O   UNL     1     -20.123   7.010 -13.891  1.00  0.00    -0.550 OA
ENDBRANCH   1   2
BRANCH   1   5
ATOM      5  C   UNL     1     -20.012   5.699 -16.634  1.00  0.00     0.059 C 
BRANCH   5   6
ATOM      6  C   UNL     1     -19.566   4.985 -17.871  1.00  0.00     0.042 C 
ATOM      7  O   UNL     1     -20.099   3.891 -18.197  1.00  0.00    -0.550 OA
ATOM      8  O   UNL     1     -18.529   5.501 -18.637  1.00  0.00    -0.550 OA
ENDBRANCH   5   6
ENDBRANCH   1   5
TORSDOF 3
ENDMDL
MODEL 6
REMARK VINA RESULT:    -0.869     18.736     19.544
REMARK INTER + INTRA:          -1.063
REMARK INTER:                  -0.953
REMARK INTRA:                  -0.110
REMARK UNBOUND:                -0.042
REMARK SMILES O=C([O-])CCC(=O)[O-]
REMARK SMILES IDX 4 1 2 2 1 3 3 4 5 5 6 6 7 7 8 8
REMARK H PARENT
REMARK Flexibility Score: inf
ROOT
ATOM      1  C   UNL     1     -15.971 -10.861 -29.207  1.00  0.00     0.059 C 
ENDROOT
BRANCH   1   2
ATOM      2  C   UNL     1     -14.594 -10.469 -29.642  1.00  0.00     0.042 C 
ATOM      3  O   UNL     1     -14.153 -10.839 -30.762  1.00  0.00    -0.550 OA
ATOM      4  O   UNL     1     -13.814  -9.653 -28.832  1.00  0.00    -0.550 OA
ENDBRANCH   1   2
BRANCH   1   5
ATOM      5  C   UNL     1     -16.823 -11.248 -30.415  1.00  0.00     0.059 C 
BRANCH   5   6
ATOM      6  C   UNL     1     -17.673 -10.096 -30.848  1.00  0.00     0.042 C 
ATOM      7  O   UNL     1     -18.637  -9.714 -30.131  1.00  0.00    -0.550 OA
ATOM      8  O   UNL     1     -17.432  -9.472 -32.065  1.00  0.00    -0.550 OA
ENDBRANCH   5   6
ENDBRANCH   1   5
TORSDOF 3
ENDMDL
MODEL 7
REMARK VINA RESULT:    -0.855     18.732     19.490
REMARK INTER + INTRA:          -1.047
REMARK INTER:                  -0.941
REMARK INTRA:                  -0.107
REMARK UNBOUND:                -0.042
REMARK SMILES O=C([O-])CCC(=O)[O-]
REMARK SMILES IDX 4 1 2 2 1 3 3 4 5 5 6 6 7 7 8 8
REMARK H PARENT
REMARK Flexibility Score: inf
ROOT
ATOM      1  C   UNL     1     -16.810 -11.238 -30.453  1.00  0.00     0.059 C 
ENDROOT
BRANCH   1   2
ATOM      2  C   UNL     1     -17.691 -10.106 -30.878  1.00  0.00     0.042 C 
ATOM      3  O   UNL     1     -18.634  -9.723 -30.136  1.00  0.00    -0.550 OA
ATOM      4  O   UNL     1     -17.441  -9.440 -32.071  1.00  0.00    -0.550 OA
ENDBRANCH   1   2
BRANCH   1   5
ATOM      5  C   UNL     1     -15.980 -10.841 -29.232  1.00  0.00     0.059 C 
BRANCH   5   6
ATOM      6  C   UNL     1     -14.601 -10.438 -29.646  1.00  0.00     0.042 C 
ATOM      7  O   UNL     1     -14.125 -10.838 -30.743  1.00  0.00    -0.550 OA
ATOM      8  O   UNL     1     -13.820  -9.660 -28.801  1.00  0.00    -0.550 OA
ENDBRANCH   5   6
ENDBRANCH   1   5
TORSDOF 3
ENDMDL
MODEL 8
REMARK VINA RESULT:     0.900      3.462      5.496
REMARK INTER + INTRA:           1.016
REMARK INTER:                   1.076
REMARK INTRA:                  -0.060
REMARK UNBOUND:                -0.042
REMARK SMILES O=C([O-])CCC(=O)[O-]
REMARK SMILES IDX 4 1 2 2 1 3 3 4 5 5 6 6 7 7 8 8
REMARK H PARENT
REMARK Flexibility Score: inf
ROOT
ATOM      1  C   UNL     1     -20.008   4.955 -16.937  1.00  0.00     0.059 C 
ENDROOT
BRANCH   1   2
ATOM      2  C   UNL     1     -19.029   6.073 -17.103  1.00  0.00     0.042 C 
ATOM      3  O   UNL     1     -18.521   6.627 -16.091  1.00  0.00    -0.550 OA
ATOM      4  O   UNL     1     -18.638   6.474 -18.374  1.00  0.00    -0.550 OA
ENDBRANCH   1   2
BRANCH   1   5
ATOM      5  C   UNL     1     -20.124   4.560 -15.464  1.00  0.00     0.059 C 
BRANCH   5   6
ATOM      6  C   UNL     1     -19.944   3.083 -15.303  1.00  0.00     0.042 C 
ATOM      7  O   UNL     1     -19.586   2.605 -14.193  1.00  0.00    -0.550 OA
ATOM      8  O   UNL     1     -20.125   2.237 -16.390  1.00  0.00    -0.550 OA
ENDBRANCH   5   6
ENDBRANCH   1   5
TORSDOF 3
ENDMDL
