MODEL 1
REMARK VINA RESULT:    -4.733      0.000      0.000
REMARK INTER + INTRA:          -5.462
REMARK INTER:                  -5.148
REMARK INTRA:                  -0.314
REMARK UNBOUND:                -0.314
REMARK SMILES C[C@@H]1[C@H](C)CC[C@@]2(C(=O)[O-])CC[C@]3(C)C(=CC[C@H]4[C@@]5(C)CC[C@H](O)C(C)(C)[C@@H]5CC[C@@]43C)[C@@H]12
REMARK SMILES IDX 7 1 6 2 11 3 33 4 5 5 12 6 15 7 2 8 3 9 13 10 16 11 1 12
REMARK SMILES IDX 4 13 14 14 31 15 17 16 18 17 30 18 32 19 19 20 29 21 28 22
REMARK SMILES IDX 21 23 20 24 25 25 22 26 23 27 26 28 27 29 8 30 9 31 10 32
REMARK SMILES IDX 24 33
REMARK H PARENT 24 34
REMARK Flexibility Score: inf
ROOT
ATOM      1  C   UNL     1     -23.603  55.672  46.028  1.00  0.00     0.017 C 
ATOM      2  C   UNL     1     -22.419  55.375  47.010  1.00  0.00     0.014 C 
ATOM      3  C   UNL     1     -23.014  55.466  44.524  1.00  0.00     0.014 C 
ATOM      4  C   UNL     1     -24.898  54.770  46.407  1.00  0.00     0.030 C 
ATOM      5  C   UNL     1     -22.784  54.485  48.208  1.00  0.00     0.004 C 
ATOM      6  C   UNL     1     -23.259  54.026  43.876  1.00  0.00     0.013 C 
ATOM      7  C   UNL     1     -24.839  53.416  45.637  1.00  0.00    -0.063 C 
ATOM      8  C   UNL     1     -25.297  54.572  47.930  1.00  0.00    -0.003 C 
ATOM      9  C   UNL     1     -24.110  54.908  48.868  1.00  0.00    -0.011 C 
ATOM     10  C   UNL     1     -24.822  53.651  44.086  1.00  0.00    -0.006 C 
ATOM     11  C   UNL     1     -24.550  52.187  46.195  1.00  0.00    -0.027 C 
ATOM     12  C   UNL     1     -26.670  55.206  48.365  1.00  0.00     0.008 C 
ATOM     13  C   UNL     1     -24.069  56.387  49.310  1.00  0.00     0.008 C 
ATOM     14  C   UNL     1     -25.562  54.886  43.434  1.00  0.00     0.017 C 
ATOM     15  C   UNL     1     -25.578  52.378  43.447  1.00  0.00    -0.020 C 
ATOM     16  C   UNL     1     -24.723  50.875  45.474  1.00  0.00     0.032 C 
ATOM     17  C   UNL     1     -24.775  51.069  43.953  1.00  0.00     0.006 C 
ATOM     18  C   UNL     1     -25.518  52.523  41.815  1.00  0.00     0.008 C 
ATOM     19  C   UNL     1     -27.086  52.321  44.065  1.00  0.00     0.012 C 
ATOM     20  C   UNL     1     -25.168  49.709  43.148  1.00  0.00    -0.025 C 
ATOM     21  C   UNL     1     -25.397  51.178  41.081  1.00  0.00     0.005 C 
ATOM     22  C   UNL     1     -26.060  50.075  41.891  1.00  0.00     0.003 C 
ATOM     23  C   UNL     1     -26.035  48.747  44.003  1.00  0.00     0.010 C 
ATOM     24  C   UNL     1     -23.810  49.041  42.787  1.00  0.00     0.012 C 
ATOM     25  C   UNL     1     -26.588  48.862  41.048  1.00  0.00    -0.006 C 
ATOM     26  C   UNL     1     -26.489  47.499  43.238  1.00  0.00     0.033 C 
ATOM     27  C   UNL     1     -27.328  47.880  42.009  1.00  0.00     0.120 C 
ATOM     28  C   UNL     1     -27.662  49.381  40.034  1.00  0.00     0.014 C 
ATOM     29  C   UNL     1     -25.460  48.187  40.219  1.00  0.00     0.014 C 
ENDROOT
BRANCH   1  30
ATOM     30  C   UNL     1     -23.996  57.175  46.083  1.00  0.00     0.048 C 
ATOM     31  O   UNL     1     -25.208  57.497  45.976  1.00  0.00    -0.550 OA
ATOM     32  O   UNL     1     -23.025  58.133  46.389  1.00  0.00    -0.550 OA
ENDBRANCH   1  30
BRANCH  27  33
ATOM     33  O   UNL     1     -27.741  46.727  41.315  1.00  0.00    -0.393 OA
ATOM     34  H   UNL     1     -28.159  46.116  41.989  1.00  0.00     0.210 HD
ENDBRANCH  27  33
TORSDOF 2
ENDMDL
MODEL 2
REMARK VINA RESULT:    -4.710      2.058      8.854
REMARK INTER + INTRA:          -5.438
REMARK INTER:                  -5.123
REMARK INTRA:                  -0.314
REMARK UNBOUND:                -0.314
REMARK SMILES C[C@@H]1[C@H](C)CC[C@@]2(C(=O)[O-])CC[C@]3(C)C(=CC[C@H]4[C@@]5(C)CC[C@H](O)C(C)(C)[C@@H]5CC[C@@]43C)[C@@H]12
REMARK SMILES IDX 7 1 6 2 11 3 33 4 5 5 12 6 15 7 2 8 3 9 13 10 16 11 1 12
REMARK SMILES IDX 4 13 14 14 31 15 17 16 18 17 30 18 32 19 19 20 29 21 28 22
REMARK SMILES IDX 21 23 20 24 25 25 22 26 23 27 26 28 27 29 8 30 9 31 10 32
REMARK SMILES IDX 24 33
REMARK H PARENT 24 34
REMARK Flexibility Score: inf
ROOT
ATOM      1  C   UNL     1     -26.762  47.054  39.705  1.00  0.00     0.017 C 
ATOM      2  C   UNL     1     -27.925  46.168  40.269  1.00  0.00     0.014 C 
ATOM      3  C   UNL     1     -27.434  48.475  39.277  1.00  0.00     0.014 C 
ATOM      4  C   UNL     1     -25.545  47.144  40.774  1.00  0.00     0.030 C 
ATOM      5  C   UNL     1     -27.595  45.427  41.573  1.00  0.00     0.004 C 
ATOM      6  C   UNL     1     -27.357  49.635  40.373  1.00  0.00     0.013 C 
ATOM      7  C   UNL     1     -25.766  48.361  41.722  1.00  0.00    -0.063 C 
ATOM      8  C   UNL     1     -25.100  45.845  41.568  1.00  0.00    -0.003 C 
ATOM      9  C   UNL     1     -26.207  44.760  41.532  1.00  0.00    -0.011 C 
ATOM     10  C   UNL     1     -25.829  49.703  40.911  1.00  0.00    -0.006 C 
ATOM     11  C   UNL     1     -26.147  48.288  43.047  1.00  0.00    -0.027 C 
ATOM     12  C   UNL     1     -23.654  45.309  41.249  1.00  0.00     0.008 C 
ATOM     13  C   UNL     1     -26.086  43.792  40.335  1.00  0.00     0.008 C 
ATOM     14  C   UNL     1     -25.004  49.896  39.577  1.00  0.00     0.017 C 
ATOM     15  C   UNL     1     -25.228  50.831  41.894  1.00  0.00    -0.020 C 
ATOM     16  C   UNL     1     -26.133  49.462  43.992  1.00  0.00     0.032 C 
ATOM     17  C   UNL     1     -26.129  50.796  43.235  1.00  0.00     0.006 C 
ATOM     18  C   UNL     1     -25.345  52.278  41.131  1.00  0.00     0.008 C 
ATOM     19  C   UNL     1     -23.707  50.398  42.290  1.00  0.00     0.012 C 
ATOM     20  C   UNL     1     -25.904  52.082  44.208  1.00  0.00    -0.025 C 
ATOM     21  C   UNL     1     -25.626  53.454  42.080  1.00  0.00     0.005 C 
ATOM     22  C   UNL     1     -25.037  53.173  43.454  1.00  0.00     0.003 C 
ATOM     23  C   UNL     1     -25.097  51.724  45.483  1.00  0.00     0.010 C 
ATOM     24  C   UNL     1     -27.335  52.563  44.587  1.00  0.00     0.012 C 
ATOM     25  C   UNL     1     -24.666  54.449  44.286  1.00  0.00    -0.006 C 
ATOM     26  C   UNL     1     -24.799  52.935  46.373  1.00  0.00     0.033 C 
ATOM     27  C   UNL     1     -23.982  53.991  45.612  1.00  0.00     0.120 C 
ATOM     28  C   UNL     1     -23.593  55.272  43.498  1.00  0.00     0.014 C 
ATOM     29  C   UNL     1     -25.889  55.382  44.511  1.00  0.00     0.014 C 
ENDROOT
BRANCH   1  30
ATOM     30  C   UNL     1     -26.225  46.467  38.369  1.00  0.00     0.048 C 
ATOM     31  O   UNL     1     -24.995  46.544  38.116  1.00  0.00    -0.550 OA
ATOM     32  O   UNL     1     -27.083  45.739  37.539  1.00  0.00    -0.550 OA
ENDBRANCH   1  30
BRANCH  27  33
ATOM     33  O   UNL     1     -23.712  55.098  46.438  1.00  0.00    -0.393 OA
ATOM     34  H   UNL     1     -23.055  54.793  47.129  1.00  0.00     0.210 HD
ENDBRANCH  27  33
TORSDOF 2
ENDMDL
MODEL 3
REMARK VINA RESULT:    -4.683      1.900      4.422
REMARK INTER + INTRA:          -5.408
REMARK INTER:                  -5.094
REMARK INTRA:                  -0.314
REMARK UNBOUND:                -0.314
REMARK SMILES C[C@@H]1[C@H](C)CC[C@@]2(C(=O)[O-])CC[C@]3(C)C(=CC[C@H]4[C@@]5(C)CC[C@H](O)C(C)(C)[C@@H]5CC[C@@]43C)[C@@H]12
REMARK SMILES IDX 7 1 6 2 11 3 33 4 5 5 12 6 15 7 2 8 3 9 13 10 16 11 1 12
REMARK SMILES IDX 4 13 14 14 31 15 17 16 18 17 30 18 32 19 19 20 29 21 28 22
REMARK SMILES IDX 21 23 20 24 25 25 22 26 23 27 26 28 27 29 8 30 9 31 10 32
REMARK SMILES IDX 24 33
REMARK H PARENT 24 34
REMARK Flexibility Score: inf
ROOT
ATOM      1  C   UNL     1     -24.863  53.845  44.518  1.00  0.00     0.017 C 
ATOM      2  C   UNL     1     -25.321  55.164  43.806  1.00  0.00     0.014 C 
ATOM      3  C   UNL     1     -26.223  53.034  44.900  1.00  0.00     0.014 C 
ATOM      4  C   UNL     1     -23.800  53.040  43.594  1.00  0.00     0.030 C 
ATOM      5  C   UNL     1     -24.540  55.512  42.531  1.00  0.00     0.004 C 
ATOM      6  C   UNL     1     -26.688  51.926  43.846  1.00  0.00     0.013 C 
ATOM      7  C   UNL     1     -24.558  52.054  42.655  1.00  0.00    -0.063 C 
ATOM      8  C   UNL     1     -22.665  53.839  42.825  1.00  0.00    -0.003 C 
ATOM      9  C   UNL     1     -23.020  55.344  42.712  1.00  0.00    -0.011 C 
ATOM     10  C   UNL     1     -25.395  51.018  43.484  1.00  0.00    -0.006 C 
ATOM     11  C   UNL     1     -24.730  52.212  41.295  1.00  0.00    -0.027 C 
ATOM     12  C   UNL     1     -21.190  53.552  43.291  1.00  0.00     0.008 C 
ATOM     13  C   UNL     1     -22.499  56.193  43.892  1.00  0.00     0.008 C 
ATOM     14  C   UNL     1     -24.914  50.523  44.907  1.00  0.00     0.017 C 
ATOM     15  C   UNL     1     -25.412  49.669  42.601  1.00  0.00    -0.020 C 
ATOM     16  C   UNL     1     -25.268  51.138  40.384  1.00  0.00     0.032 C 
ATOM     17  C   UNL     1     -26.040  50.069  41.167  1.00  0.00     0.006 C 
ATOM     18  C   UNL     1     -26.347  48.569  43.379  1.00  0.00     0.008 C 
ATOM     19  C   UNL     1     -23.868  49.198  42.368  1.00  0.00     0.012 C 
ATOM     20  C   UNL     1     -26.458  48.786  40.256  1.00  0.00    -0.025 C 
ATOM     21  C   UNL     1     -27.133  47.649  42.432  1.00  0.00     0.005 C 
ATOM     22  C   UNL     1     -26.375  47.466  41.127  1.00  0.00     0.003 C 
ATOM     23  C   UNL     1     -25.482  48.561  39.071  1.00  0.00     0.010 C 
ATOM     24  C   UNL     1     -27.888  49.107  39.730  1.00  0.00     0.012 C 
ATOM     25  C   UNL     1     -26.676  46.125  40.370  1.00  0.00    -0.006 C 
ATOM     26  C   UNL     1     -25.807  47.310  38.248  1.00  0.00     0.033 C 
ATOM     27  C   UNL     1     -25.746  46.045  39.120  1.00  0.00     0.120 C 
ATOM     28  C   UNL     1     -26.278  44.925  41.293  1.00  0.00     0.014 C 
ATOM     29  C   UNL     1     -28.185  45.966  40.032  1.00  0.00     0.014 C 
ENDROOT
BRANCH   1  30
ATOM     30  C   UNL     1     -24.208  54.163  45.891  1.00  0.00     0.048 C 
ATOM     31  O   UNL     1     -23.232  53.470  46.280  1.00  0.00    -0.550 OA
ATOM     32  O   UNL     1     -24.614  55.293  46.606  1.00  0.00    -0.550 OA
ENDBRANCH   1  30
BRANCH  27  33
ATOM     33  O   UNL     1     -26.043  44.902  38.354  1.00  0.00    -0.393 OA
ATOM     34  H   UNL     1     -26.240  45.217  37.425  1.00  0.00     0.210 HD
ENDBRANCH  27  33
TORSDOF 2
ENDMDL
MODEL 4
REMARK VINA RESULT:    -4.655      1.756      8.170
REMARK INTER + INTRA:          -5.378
REMARK INTER:                  -5.064
REMARK INTRA:                  -0.314
REMARK UNBOUND:                -0.314
REMARK SMILES C[C@@H]1[C@H](C)CC[C@@]2(C(=O)[O-])CC[C@]3(C)C(=CC[C@H]4[C@@]5(C)CC[C@H](O)C(C)(C)[C@@H]5CC[C@@]43C)[C@@H]12
REMARK SMILES IDX 7 1 6 2 11 3 33 4 5 5 12 6 15 7 2 8 3 9 13 10 16 11 1 12
REMARK SMILES IDX 4 13 14 14 31 15 17 16 18 17 30 18 32 19 19 20 29 21 28 22
REMARK SMILES IDX 21 23 20 24 25 25 22 26 23 27 26 28 27 29 8 30 9 31 10 32
REMARK SMILES IDX 24 33
REMARK H PARENT 24 34
REMARK Flexibility Score: inf
ROOT
ATOM      1  C   UNL     1     -24.568  49.310  41.062  1.00  0.00     0.017 C 
ATOM      2  C   UNL     1     -25.577  49.577  39.893  1.00  0.00     0.014 C 
ATOM      3  C   UNL     1     -23.414  50.454  40.942  1.00  0.00     0.014 C 
ATOM      4  C   UNL     1     -25.347  49.243  42.484  1.00  0.00     0.030 C 
ATOM      5  C   UNL     1     -27.058  49.510  40.295  1.00  0.00     0.004 C 
ATOM      6  C   UNL     1     -23.629  51.752  41.849  1.00  0.00     0.013 C 
ATOM      7  C   UNL     1     -25.417  50.668  43.113  1.00  0.00    -0.063 C 
ATOM      8  C   UNL     1     -26.734  48.480  42.583  1.00  0.00    -0.003 C 
ATOM      9  C   UNL     1     -27.370  48.290  41.182  1.00  0.00    -0.011 C 
ATOM     10  C   UNL     1     -23.980  51.250  43.350  1.00  0.00    -0.006 C 
ATOM     11  C   UNL     1     -26.548  51.454  43.195  1.00  0.00    -0.027 C 
ATOM     12  C   UNL     1     -26.742  47.188  43.482  1.00  0.00     0.008 C 
ATOM     13  C   UNL     1     -26.956  46.973  40.488  1.00  0.00     0.008 C 
ATOM     14  C   UNL     1     -22.757  50.307  43.692  1.00  0.00     0.017 C 
ATOM     15  C   UNL     1     -24.104  52.194  44.652  1.00  0.00    -0.020 C 
ATOM     16  C   UNL     1     -26.634  52.722  44.006  1.00  0.00     0.032 C 
ATOM     17  C   UNL     1     -25.243  53.290  44.314  1.00  0.00     0.006 C 
ATOM     18  C   UNL     1     -22.647  52.902  44.902  1.00  0.00     0.008 C 
ATOM     19  C   UNL     1     -24.632  51.277  45.893  1.00  0.00     0.012 C 
ATOM     20  C   UNL     1     -25.279  54.538  45.359  1.00  0.00    -0.025 C 
ATOM     21  C   UNL     1     -22.743  54.329  45.464  1.00  0.00     0.005 C 
ATOM     22  C   UNL     1     -24.005  54.481  46.299  1.00  0.00     0.003 C 
ATOM     23  C   UNL     1     -26.500  54.473  46.314  1.00  0.00     0.010 C 
ATOM     24  C   UNL     1     -25.351  55.814  44.470  1.00  0.00     0.012 C 
ATOM     25  C   UNL     1     -23.929  55.578  47.418  1.00  0.00    -0.006 C 
ATOM     26  C   UNL     1     -26.510  55.591  47.362  1.00  0.00     0.033 C 
ATOM     27  C   UNL     1     -25.252  55.532  48.243  1.00  0.00     0.120 C 
ATOM     28  C   UNL     1     -22.777  55.207  48.410  1.00  0.00     0.014 C 
ATOM     29  C   UNL     1     -23.606  56.985  46.842  1.00  0.00     0.014 C 
ENDROOT
BRANCH   1  30
ATOM     30  C   UNL     1     -23.807  47.974  40.835  1.00  0.00     0.048 C 
ATOM     31  O   UNL     1     -23.503  47.264  41.828  1.00  0.00    -0.550 OA
ATOM     32  O   UNL     1     -23.597  47.510  39.532  1.00  0.00    -0.550 OA
ENDBRANCH   1  30
BRANCH  27  33
ATOM     33  O   UNL     1     -25.272  56.562  49.204  1.00  0.00    -0.393 OA
ATOM     34  H   UNL     1     -26.234  56.775  49.381  1.00  0.00     0.210 HD
ENDBRANCH  27  33
TORSDOF 2
ENDMDL
MODEL 5
REMARK VINA RESULT:    -4.515      3.419      6.526
REMARK INTER + INTRA:          -5.225
REMARK INTER:                  -4.911
REMARK INTRA:                  -0.314
REMARK UNBOUND:                -0.314
REMARK SMILES C[C@@H]1[C@H](C)CC[C@@]2(C(=O)[O-])CC[C@]3(C)C(=CC[C@H]4[C@@]5(C)CC[C@H](O)C(C)(C)[C@@H]5CC[C@@]43C)[C@@H]12
REMARK SMILES IDX 7 1 6 2 11 3 33 4 5 5 12 6 15 7 2 8 3 9 13 10 16 11 1 12
REMARK SMILES IDX 4 13 14 14 31 15 17 16 18 17 30 18 32 19 19 20 29 21 28 22
REMARK SMILES IDX 21 23 20 24 25 25 22 26 23 27 26 28 27 29 8 30 9 31 10 32
REMARK SMILES IDX 24 33
REMARK H PARENT 24 34
REMARK Flexibility Score: inf
ROOT
ATOM      1  C   UNL     1     -25.129  50.709  43.694  1.00  0.00     0.017 C 
ATOM      2  C   UNL     1     -26.238  51.721  44.143  1.00  0.00     0.014 C 
ATOM      3  C   UNL     1     -25.534  49.269  44.339  1.00  0.00     0.014 C 
ATOM      4  C   UNL     1     -24.955  50.734  42.081  1.00  0.00     0.030 C 
ATOM      5  C   UNL     1     -26.758  52.641  43.029  1.00  0.00     0.004 C 
ATOM      6  C   UNL     1     -26.363  48.292  43.385  1.00  0.00     0.013 C 
ATOM      7  C   UNL     1     -25.913  49.690  41.432  1.00  0.00    -0.063 C 
ATOM      8  C   UNL     1     -24.976  52.121  41.311  1.00  0.00    -0.003 C 
ATOM      9  C   UNL     1     -25.619  53.233  42.178  1.00  0.00    -0.011 C 
ATOM     10  C   UNL     1     -25.606  48.242  41.952  1.00  0.00    -0.006 C 
ATOM     11  C   UNL     1     -27.062  49.985  40.726  1.00  0.00    -0.027 C 
ATOM     12  C   UNL     1     -23.628  52.537  40.613  1.00  0.00     0.008 C 
ATOM     13  C   UNL     1     -24.604  53.997  43.056  1.00  0.00     0.008 C 
ATOM     14  C   UNL     1     -24.139  47.808  42.354  1.00  0.00     0.017 C 
ATOM     15  C   UNL     1     -25.970  47.256  40.730  1.00  0.00    -0.020 C 
ATOM     16  C   UNL     1     -27.840  48.973  39.923  1.00  0.00     0.032 C 
ATOM     17  C   UNL     1     -27.517  47.539  40.360  1.00  0.00     0.006 C 
ATOM     18  C   UNL     1     -25.748  45.715  41.243  1.00  0.00     0.008 C 
ATOM     19  C   UNL     1     -25.054  47.679  39.448  1.00  0.00     0.012 C 
ATOM     20  C   UNL     1     -28.173  46.411  39.385  1.00  0.00    -0.025 C 
ATOM     21  C   UNL     1     -26.745  44.714  40.637  1.00  0.00     0.005 C 
ATOM     22  C   UNL     1     -27.185  45.180  39.257  1.00  0.00     0.003 C 
ATOM     23  C   UNL     1     -28.376  46.929  37.937  1.00  0.00     0.010 C 
ATOM     24  C   UNL     1     -29.543  46.057  40.033  1.00  0.00     0.012 C 
ATOM     25  C   UNL     1     -27.639  44.034  38.287  1.00  0.00    -0.006 C 
ATOM     26  C   UNL     1     -28.913  45.859  36.980  1.00  0.00     0.033 C 
ATOM     27  C   UNL     1     -27.952  44.664  36.894  1.00  0.00     0.120 C 
ATOM     28  C   UNL     1     -26.439  43.053  38.068  1.00  0.00     0.014 C 
ATOM     29  C   UNL     1     -28.814  43.201  38.869  1.00  0.00     0.014 C 
ENDROOT
BRANCH   1  30
ATOM     30  C   UNL     1     -23.768  51.057  44.359  1.00  0.00     0.048 C 
ATOM     31  O   UNL     1     -22.705  50.888  43.707  1.00  0.00    -0.550 OA
ATOM     32  O   UNL     1     -23.748  51.683  45.609  1.00  0.00    -0.550 OA
ENDBRANCH   1  30
BRANCH  27  33
ATOM     33  O   UNL     1     -28.453  43.688  36.012  1.00  0.00    -0.393 OA
ATOM     34  H   UNL     1     -27.954  42.841  36.200  1.00  0.00     0.210 HD
ENDBRANCH  27  33
TORSDOF 2
ENDMDL
MODEL 6
REMARK VINA RESULT:    -4.402      1.780      3.575
REMARK INTER + INTRA:          -5.103
REMARK INTER:                  -4.788
REMARK INTRA:                  -0.314
REMARK UNBOUND:                -0.314
REMARK SMILES C[C@@H]1[C@H](C)CC[C@@]2(C(=O)[O-])CC[C@]3(C)C(=CC[C@H]4[C@@]5(C)CC[C@H](O)C(C)(C)[C@@H]5CC[C@@]43C)[C@@H]12
REMARK SMILES IDX 7 1 6 2 11 3 33 4 5 5 12 6 15 7 2 8 3 9 13 10 16 11 1 12
REMARK SMILES IDX 4 13 14 14 31 15 17 16 18 17 30 18 32 19 19 20 29 21 28 22
REMARK SMILES IDX 21 23 20 24 25 25 22 26 23 27 26 28 27 29 8 30 9 31 10 32
REMARK SMILES IDX 24 33
REMARK H PARENT 24 34
REMARK Flexibility Score: inf
ROOT
ATOM      1  C   UNL     1     -24.011  53.528  45.845  1.00  0.00     0.017 C 
ATOM      2  C   UNL     1     -25.223  53.876  46.776  1.00  0.00     0.014 C 
ATOM      3  C   UNL     1     -23.584  51.997  46.200  1.00  0.00     0.014 C 
ATOM      4  C   UNL     1     -24.387  53.812  44.292  1.00  0.00     0.030 C 
ATOM      5  C   UNL     1     -26.391  54.584  46.074  1.00  0.00     0.004 C 
ATOM      6  C   UNL     1     -24.217  50.867  45.264  1.00  0.00     0.013 C 
ATOM      7  C   UNL     1     -25.006  52.531  43.658  1.00  0.00    -0.063 C 
ATOM      8  C   UNL     1     -25.200  55.119  43.908  1.00  0.00    -0.003 C 
ATOM      9  C   UNL     1     -25.915  55.717  45.145  1.00  0.00    -0.011 C 
ATOM     10  C   UNL     1     -24.003  51.327  43.724  1.00  0.00    -0.006 C 
ATOM     11  C   UNL     1     -26.338  52.356  43.338  1.00  0.00    -0.027 C 
ATOM     12  C   UNL     1     -24.427  56.173  43.031  1.00  0.00     0.008 C 
ATOM     13  C   UNL     1     -25.063  56.751  45.914  1.00  0.00     0.008 C 
ATOM     14  C   UNL     1     -22.440  51.555  43.648  1.00  0.00     0.017 C 
ATOM     15  C   UNL     1     -24.317  50.429  42.422  1.00  0.00    -0.020 C 
ATOM     16  C   UNL     1     -26.864  51.202  42.524  1.00  0.00     0.032 C 
ATOM     17  C   UNL     1     -25.879  50.026  42.512  1.00  0.00     0.006 C 
ATOM     18  C   UNL     1     -23.352  49.104  42.479  1.00  0.00     0.008 C 
ATOM     19  C   UNL     1     -24.105  51.361  41.101  1.00  0.00     0.012 C 
ATOM     20  C   UNL     1     -26.310  48.843  41.478  1.00  0.00    -0.025 C 
ATOM     21  C   UNL     1     -24.009  47.838  41.906  1.00  0.00     0.005 C 
ATOM     22  C   UNL     1     -25.012  48.211  40.825  1.00  0.00     0.003 C 
ATOM     23  C   UNL     1     -27.152  49.376  40.289  1.00  0.00     0.010 C 
ATOM     24  C   UNL     1     -27.142  47.840  42.329  1.00  0.00     0.012 C 
ATOM     25  C   UNL     1     -25.260  47.102  39.744  1.00  0.00    -0.006 C 
ATOM     26  C   UNL     1     -27.497  48.295  39.259  1.00  0.00     0.033 C 
ATOM     27  C   UNL     1     -26.224  47.678  38.660  1.00  0.00     0.120 C 
ATOM     28  C   UNL     1     -23.909  46.796  39.015  1.00  0.00     0.014 C 
ATOM     29  C   UNL     1     -25.757  45.769  40.370  1.00  0.00     0.014 C 
ENDROOT
BRANCH   1  30
ATOM     30  C   UNL     1     -22.764  54.373  46.230  1.00  0.00     0.048 C 
ATOM     31  O   UNL     1     -21.991  54.775  45.322  1.00  0.00    -0.550 OA
ATOM     32  O   UNL     1     -22.595  54.792  47.553  1.00  0.00    -0.550 OA
ENDBRANCH   1  30
BRANCH  27  33
ATOM     33  O   UNL     1     -26.552  46.688  37.714  1.00  0.00    -0.393 OA
ATOM     34  H   UNL     1     -27.541  46.543  37.776  1.00  0.00     0.210 HD
ENDBRANCH  27  33
TORSDOF 2
ENDMDL
MODEL 7
REMARK VINA RESULT:    -4.363      2.849      5.185
REMARK INTER + INTRA:          -5.060
REMARK INTER:                  -4.762
REMARK INTRA:                  -0.298
REMARK UNBOUND:                -0.314
REMARK SMILES C[C@@H]1[C@H](C)CC[C@@]2(C(=O)[O-])CC[C@]3(C)C(=CC[C@H]4[C@@]5(C)CC[C@H](O)C(C)(C)[C@@H]5CC[C@@]43C)[C@@H]12
REMARK SMILES IDX 7 1 6 2 11 3 33 4 5 5 12 6 15 7 2 8 3 9 13 10 16 11 1 12
REMARK SMILES IDX 4 13 14 14 31 15 17 16 18 17 30 18 32 19 19 20 29 21 28 22
REMARK SMILES IDX 21 23 20 24 25 25 22 26 23 27 26 28 27 29 8 30 9 31 10 32
REMARK SMILES IDX 24 33
REMARK H PARENT 24 34
REMARK Flexibility Score: inf
ROOT
ATOM      1  C   UNL     1     -23.703  51.200  43.179  1.00  0.00     0.017 C 
ATOM      2  C   UNL     1     -23.247  50.586  44.547  1.00  0.00     0.014 C 
ATOM      3  C   UNL     1     -22.859  50.422  42.024  1.00  0.00     0.014 C 
ATOM      4  C   UNL     1     -25.318  51.136  43.036  1.00  0.00     0.030 C 
ATOM      5  C   UNL     1     -24.391  50.258  45.518  1.00  0.00     0.004 C 
ATOM      6  C   UNL     1     -23.598  49.177  41.346  1.00  0.00     0.013 C 
ATOM      7  C   UNL     1     -25.733  49.793  42.363  1.00  0.00    -0.063 C 
ATOM      8  C   UNL     1     -26.230  51.482  44.286  1.00  0.00    -0.003 C 
ATOM      9  C   UNL     1     -25.426  51.396  45.608  1.00  0.00    -0.011 C 
ATOM     10  C   UNL     1     -25.092  49.655  40.937  1.00  0.00    -0.006 C 
ATOM     11  C   UNL     1     -26.333  48.726  43.001  1.00  0.00    -0.027 C 
ATOM     12  C   UNL     1     -27.118  52.774  44.148  1.00  0.00     0.008 C 
ATOM     13  C   UNL     1     -24.760  52.728  46.015  1.00  0.00     0.008 C 
ATOM     14  C   UNL     1     -24.812  50.924  40.036  1.00  0.00     0.017 C 
ATOM     15  C   UNL     1     -26.147  48.800  40.068  1.00  0.00    -0.020 C 
ATOM     16  C   UNL     1     -26.924  47.540  42.283  1.00  0.00     0.032 C 
ATOM     17  C   UNL     1     -26.369  47.408  40.860  1.00  0.00     0.006 C 
ATOM     18  C   UNL     1     -25.493  48.549  38.586  1.00  0.00     0.008 C 
ATOM     19  C   UNL     1     -27.563  49.609  40.053  1.00  0.00     0.012 C 
ATOM     20  C   UNL     1     -27.131  46.270  39.979  1.00  0.00    -0.025 C 
ATOM     21  C   UNL     1     -25.866  47.191  37.970  1.00  0.00     0.005 C 
ATOM     22  C   UNL     1     -27.231  46.744  38.471  1.00  0.00     0.003 C 
ATOM     23  C   UNL     1     -28.596  46.050  40.440  1.00  0.00     0.010 C 
ATOM     24  C   UNL     1     -26.297  44.972  40.180  1.00  0.00     0.012 C 
ATOM     25  C   UNL     1     -28.009  45.787  37.502  1.00  0.00    -0.006 C 
ATOM     26  C   UNL     1     -29.360  45.044  39.573  1.00  0.00     0.033 C 
ATOM     27  C   UNL     1     -29.420  45.511  38.110  1.00  0.00     0.120 C 
ATOM     28  C   UNL     1     -28.251  46.530  36.146  1.00  0.00     0.014 C 
ATOM     29  C   UNL     1     -27.208  44.494  37.182  1.00  0.00     0.014 C 
ENDROOT
BRANCH   1  30
ATOM     30  C   UNL     1     -23.239  52.679  43.062  1.00  0.00     0.048 C 
ATOM     31  O   UNL     1     -22.077  52.989  43.431  1.00  0.00    -0.550 OA
ATOM     32  O   UNL     1     -24.059  53.612  42.420  1.00  0.00    -0.550 OA
ENDBRANCH   1  30
BRANCH  27  33
ATOM     33  O   UNL     1     -30.125  44.581  37.322  1.00  0.00    -0.393 OA
ATOM     34  H   UNL     1     -30.384  43.826  37.926  1.00  0.00     0.210 HD
ENDBRANCH  27  33
TORSDOF 2
ENDMDL
MODEL 8
REMARK VINA RESULT:    -4.253      3.048      5.839
REMARK INTER + INTRA:          -4.940
REMARK INTER:                  -4.626
REMARK INTRA:                  -0.314
REMARK UNBOUND:                -0.314
REMARK SMILES C[C@@H]1[C@H](C)CC[C@@]2(C(=O)[O-])CC[C@]3(C)C(=CC[C@H]4[C@@]5(C)CC[C@H](O)C(C)(C)[C@@H]5CC[C@@]43C)[C@@H]12
REMARK SMILES IDX 7 1 6 2 11 3 33 4 5 5 12 6 15 7 2 8 3 9 13 10 16 11 1 12
REMARK SMILES IDX 4 13 14 14 31 15 17 16 18 17 30 18 32 19 19 20 29 21 28 22
REMARK SMILES IDX 21 23 20 24 25 25 22 26 23 27 26 28 27 29 8 30 9 31 10 32
REMARK SMILES IDX 24 33
REMARK H PARENT 24 34
REMARK Flexibility Score: inf
ROOT
ATOM      1  C   UNL     1     -24.499  51.213  43.838  1.00  0.00     0.017 C 
ATOM      2  C   UNL     1     -25.727  51.451  44.783  1.00  0.00     0.014 C 
ATOM      3  C   UNL     1     -24.090  49.645  44.004  1.00  0.00     0.014 C 
ATOM      4  C   UNL     1     -24.842  51.695  42.327  1.00  0.00     0.030 C 
ATOM      5  C   UNL     1     -26.876  52.253  44.155  1.00  0.00     0.004 C 
ATOM      6  C   UNL     1     -24.711  48.649  42.921  1.00  0.00     0.013 C 
ATOM      7  C   UNL     1     -25.458  50.510  41.524  1.00  0.00    -0.063 C 
ATOM      8  C   UNL     1     -25.638  53.047  42.097  1.00  0.00    -0.003 C 
ATOM      9  C   UNL     1     -26.374  53.490  43.387  1.00  0.00    -0.011 C 
ATOM     10  C   UNL     1     -24.464  49.298  41.456  1.00  0.00    -0.006 C 
ATOM     11  C   UNL     1     -26.784  50.389  41.160  1.00  0.00    -0.027 C 
ATOM     12  C   UNL     1     -24.840  54.197  41.376  1.00  0.00     0.008 C 
ATOM     13  C   UNL     1     -25.530  54.410  44.297  1.00  0.00     0.008 C 
ATOM     14  C   UNL     1     -22.898  49.520  41.439  1.00  0.00     0.017 C 
ATOM     15  C   UNL     1     -24.757  48.575  40.045  1.00  0.00    -0.020 C 
ATOM     16  C   UNL     1     -27.301  49.353  40.196  1.00  0.00     0.032 C 
ATOM     17  C   UNL     1     -26.324  48.179  40.053  1.00  0.00     0.006 C 
ATOM     18  C   UNL     1     -23.803  47.245  39.952  1.00  0.00     0.008 C 
ATOM     19  C   UNL     1     -24.513  49.665  38.857  1.00  0.00     0.012 C 
ATOM     20  C   UNL     1     -26.742  47.141  38.870  1.00  0.00    -0.025 C 
ATOM     21  C   UNL     1     -24.457  46.068  39.210  1.00  0.00     0.005 C 
ATOM     22  C   UNL     1     -25.436  46.584  38.166  1.00  0.00     0.003 C 
ATOM     23  C   UNL     1     -27.557  47.827  37.742  1.00  0.00     0.010 C 
ATOM     24  C   UNL     1     -27.598  46.046  39.570  1.00  0.00     0.012 C 
ATOM     25  C   UNL     1     -25.670  45.623  36.949  1.00  0.00    -0.006 C 
ATOM     26  C   UNL     1     -27.888  46.889  36.577  1.00  0.00     0.033 C 
ATOM     27  C   UNL     1     -26.608  46.341  35.928  1.00  0.00     0.120 C 
ATOM     28  C   UNL     1     -24.306  45.400  36.213  1.00  0.00     0.014 C 
ATOM     29  C   UNL     1     -26.188  44.227  37.391  1.00  0.00     0.014 C 
ENDROOT
BRANCH   1  30
ATOM     30  C   UNL     1     -23.255  51.990  44.352  1.00  0.00     0.048 C 
ATOM     31  O   UNL     1     -22.454  52.485  43.517  1.00  0.00    -0.550 OA
ATOM     32  O   UNL     1     -23.116  52.250  45.718  1.00  0.00    -0.550 OA
ENDBRANCH   1  30
BRANCH  27  33
ATOM     33  O   UNL     1     -26.924  45.482  34.858  1.00  0.00    -0.393 OA
ATOM     34  H   UNL     1     -27.026  44.564  35.243  1.00  0.00     0.210 HD
ENDBRANCH  27  33
TORSDOF 2
ENDMDL
MODEL 9
REMARK VINA RESULT:    -4.222      1.279      8.612
REMARK INTER + INTRA:          -4.907
REMARK INTER:                  -4.593
REMARK INTRA:                  -0.314
REMARK UNBOUND:                -0.314
REMARK SMILES C[C@@H]1[C@H](C)CC[C@@]2(C(=O)[O-])CC[C@]3(C)C(=CC[C@H]4[C@@]5(C)CC[C@H](O)C(C)(C)[C@@H]5CC[C@@]43C)[C@@H]12
REMARK SMILES IDX 7 1 6 2 11 3 33 4 5 5 12 6 15 7 2 8 3 9 13 10 16 11 1 12
REMARK SMILES IDX 4 13 14 14 31 15 17 16 18 17 30 18 32 19 19 20 29 21 28 22
REMARK SMILES IDX 21 23 20 24 25 25 22 26 23 27 26 28 27 29 8 30 9 31 10 32
REMARK SMILES IDX 24 33
REMARK H PARENT 24 34
REMARK Flexibility Score: inf
ROOT
ATOM      1  C   UNL     1     -24.960  47.535  40.964  1.00  0.00     0.017 C 
ATOM      2  C   UNL     1     -23.986  47.511  39.737  1.00  0.00     0.014 C 
ATOM      3  C   UNL     1     -24.021  47.558  42.295  1.00  0.00     0.014 C 
ATOM      4  C   UNL     1     -26.018  48.758  40.828  1.00  0.00     0.030 C 
ATOM      5  C   UNL     1     -24.355  48.480  38.604  1.00  0.00     0.004 C 
ATOM      6  C   UNL     1     -23.724  49.003  42.908  1.00  0.00     0.013 C 
ATOM      7  C   UNL     1     -25.432  50.037  41.500  1.00  0.00    -0.063 C 
ATOM      8  C   UNL     1     -26.675  49.074  39.419  1.00  0.00    -0.003 C 
ATOM      9  C   UNL     1     -25.857  48.440  38.265  1.00  0.00    -0.011 C 
ATOM     10  C   UNL     1     -25.137  49.790  43.021  1.00  0.00    -0.006 C 
ATOM     11  C   UNL     1     -24.956  51.148  40.834  1.00  0.00    -0.027 C 
ATOM     12  C   UNL     1     -28.228  48.840  39.321  1.00  0.00     0.008 C 
ATOM     13  C   UNL     1     -26.310  47.009  37.899  1.00  0.00     0.008 C 
ATOM     14  C   UNL     1     -26.017  48.793  43.877  1.00  0.00     0.017 C 
ATOM     15  C   UNL     1     -25.366  51.212  43.744  1.00  0.00    -0.020 C 
ATOM     16  C   UNL     1     -24.610  52.450  41.509  1.00  0.00     0.032 C 
ATOM     17  C   UNL     1     -24.376  52.260  43.013  1.00  0.00     0.006 C 
ATOM     18  C   UNL     1     -24.989  51.038  45.330  1.00  0.00     0.008 C 
ATOM     19  C   UNL     1     -26.902  51.682  43.462  1.00  0.00     0.012 C 
ATOM     20  C   UNL     1     -24.205  53.667  43.815  1.00  0.00    -0.025 C 
ATOM     21  C   UNL     1     -24.355  52.292  45.954  1.00  0.00     0.005 C 
ATOM     22  C   UNL     1     -24.862  53.542  45.251  1.00  0.00     0.003 C 
ATOM     23  C   UNL     1     -24.950  54.837  43.121  1.00  0.00     0.010 C 
ATOM     24  C   UNL     1     -22.672  53.938  43.843  1.00  0.00     0.012 C 
ATOM     25  C   UNL     1     -24.848  54.843  46.127  1.00  0.00    -0.006 C 
ATOM     26  C   UNL     1     -24.874  56.152  43.903  1.00  0.00     0.033 C 
ATOM     27  C   UNL     1     -25.492  56.000  45.301  1.00  0.00     0.120 C 
ATOM     28  C   UNL     1     -25.770  54.623  47.373  1.00  0.00     0.014 C 
ATOM     29  C   UNL     1     -23.427  55.179  46.660  1.00  0.00     0.014 C 
ENDROOT
BRANCH   1  30
ATOM     30  C   UNL     1     -25.741  46.195  41.069  1.00  0.00     0.048 C 
ATOM     31  O   UNL     1     -26.938  46.212  41.455  1.00  0.00    -0.550 OA
ATOM     32  O   UNL     1     -25.155  45.014  40.603  1.00  0.00    -0.550 OA
ENDBRANCH   1  30
BRANCH  27  33
ATOM     33  O   UNL     1     -25.419  57.214  46.010  1.00  0.00    -0.393 OA
ATOM     34  H   UNL     1     -24.961  57.873  45.412  1.00  0.00     0.210 HD
ENDBRANCH  27  33
TORSDOF 2
ENDMDL
