MODEL 1
REMARK VINA RESULT:    -5.717      0.000      0.000
REMARK INTER + INTRA:          -9.504
REMARK INTER:                  -7.722
REMARK INTRA:                  -1.782
REMARK UNBOUND:                -1.782
REMARK SMILES C=CC(C)=CCC=C(C)CCC=C(C)C
REMARK SMILES IDX 8 1 7 2 9 3 10 4 11 5 12 6 14 7 13 8 15 9 6 10 5 11 3 12
REMARK SMILES IDX 4 13 2 14 1 15
REMARK H PARENT
REMARK Flexibility Score: inf
ROOT
ATOM      1  C   UNL     1     112.218 110.979 115.395  1.00  0.00    -0.077 C 
ATOM      2  C   UNL     1     112.397 109.951 114.535  1.00  0.00    -0.024 C 
ATOM      3  C   UNL     1     113.120 112.192 115.381  1.00  0.00     0.039 C 
ENDROOT
BRANCH   1   4
ATOM      4  C   UNL     1     111.081 110.913 116.392  1.00  0.00     0.034 C 
BRANCH   4   5
ATOM      5  C   UNL     1     109.733 110.795 115.673  1.00  0.00     0.032 C 
BRANCH   5   6
ATOM      6  C   UNL     1     109.537 111.941 114.713  1.00  0.00    -0.028 C 
ATOM      7  C   UNL     1     109.210 113.041 112.539  1.00  0.00     0.039 C 
ATOM      8  C   UNL     1     109.355 111.799 113.381  1.00  0.00    -0.080 C 
ATOM      9  C   UNL     1     109.274 110.441 112.724  1.00  0.00     0.039 C 
ENDBRANCH   5   6
ENDBRANCH   4   5
ENDBRANCH   1   4
BRANCH   2  10
ATOM     10  C   UNL     1     113.484 109.902 113.492  1.00  0.00     0.055 C 
BRANCH  10  11
ATOM     11  C   UNL     1     112.888 109.746 112.118  1.00  0.00    -0.020 C 
ATOM     12  C   UNL     1     112.682 110.753 111.246  1.00  0.00    -0.055 C 
ATOM     13  C   UNL     1     112.946 112.192 111.626  1.00  0.00     0.044 C 
BRANCH  12  14
ATOM     14  C   UNL     1     112.170 110.408 109.896  1.00  0.00    -0.005 C 
ATOM     15  C   UNL     1     112.951 110.280 108.824  1.00  0.00     0.009 C 
ENDBRANCH  12  14
ENDBRANCH  10  11
ENDBRANCH   2  10
TORSDOF 6
ENDMDL
MODEL 2
REMARK VINA RESULT:    -5.707      1.174      3.677
REMARK INTER + INTRA:          -9.491
REMARK INTER:                  -7.557
REMARK INTRA:                  -1.934
REMARK UNBOUND:                -1.782
REMARK SMILES C=CC(C)=CCC=C(C)CCC=C(C)C
REMARK SMILES IDX 8 1 7 2 9 3 10 4 11 5 12 6 14 7 13 8 15 9 6 10 5 11 3 12
REMARK SMILES IDX 4 13 2 14 1 15
REMARK H PARENT
REMARK Flexibility Score: inf
ROOT
ATOM      1  C   UNL     1     110.070 110.802 115.286  1.00  0.00    -0.077 C 
ATOM      2  C   UNL     1     109.909 111.939 114.573  1.00  0.00    -0.024 C 
ATOM      3  C   UNL     1     109.164 109.608 115.091  1.00  0.00     0.039 C 
ENDROOT
BRANCH   1   4
ATOM      4  C   UNL     1     111.189 110.724 116.302  1.00  0.00     0.034 C 
BRANCH   4   5
ATOM      5  C   UNL     1     112.556 110.812 115.614  1.00  0.00     0.032 C 
BRANCH   5   6
ATOM      6  C   UNL     1     112.635 109.848 114.457  1.00  0.00    -0.028 C 
ATOM      7  C   UNL     1     112.852 109.138 112.114  1.00  0.00     0.039 C 
ATOM      8  C   UNL     1     112.834 110.212 113.171  1.00  0.00    -0.080 C 
ATOM      9  C   UNL     1     113.056 111.653 112.772  1.00  0.00     0.039 C 
ENDBRANCH   5   6
ENDBRANCH   4   5
ENDBRANCH   1   4
BRANCH   2  10
ATOM     10  C   UNL     1     108.841 112.137 113.528  1.00  0.00     0.055 C 
BRANCH  10  11
ATOM     11  C   UNL     1     109.463 112.427 112.187  1.00  0.00    -0.020 C 
ATOM     12  C   UNL     1     109.638 111.520 111.205  1.00  0.00    -0.055 C 
ATOM     13  C   UNL     1     109.306 110.060 111.410  1.00  0.00     0.044 C 
BRANCH  12  14
ATOM     14  C   UNL     1     110.184 111.998 109.910  1.00  0.00    -0.005 C 
ATOM     15  C   UNL     1     111.379 111.641 109.440  1.00  0.00     0.009 C 
ENDBRANCH  12  14
ENDBRANCH  10  11
ENDBRANCH   2  10
TORSDOF 6
ENDMDL
MODEL 3
REMARK VINA RESULT:    -5.696      3.054      5.936
REMARK INTER + INTRA:          -9.476
REMARK INTER:                  -7.590
REMARK INTRA:                  -1.886
REMARK UNBOUND:                -1.782
REMARK SMILES C=CC(C)=CCC=C(C)CCC=C(C)C
REMARK SMILES IDX 8 1 7 2 9 3 10 4 11 5 12 6 14 7 13 8 15 9 6 10 5 11 3 12
REMARK SMILES IDX 4 13 2 14 1 15
REMARK H PARENT
REMARK Flexibility Score: inf
ROOT
ATOM      1  C   UNL     1     109.822 110.835 110.563  1.00  0.00    -0.077 C 
ATOM      2  C   UNL     1     109.600 111.931 109.803  1.00  0.00    -0.024 C 
ATOM      3  C   UNL     1     109.119 109.525 110.290  1.00  0.00     0.039 C 
ENDROOT
BRANCH   1   4
ATOM      4  C   UNL     1     110.803 110.924 111.712  1.00  0.00     0.034 C 
BRANCH   4   5
ATOM      5  C   UNL     1     112.232 111.124 111.194  1.00  0.00     0.032 C 
BRANCH   5   6
ATOM      6  C   UNL     1     112.548 110.133 110.101  1.00  0.00    -0.028 C 
ATOM      7  C   UNL     1     113.106 109.368 107.833  1.00  0.00     0.039 C 
ATOM      8  C   UNL     1     112.849 110.471 108.828  1.00  0.00    -0.080 C 
ATOM      9  C   UNL     1     112.953 111.912 108.384  1.00  0.00     0.039 C 
ENDBRANCH   5   6
ENDBRANCH   4   5
ENDBRANCH   1   4
BRANCH   2  10
ATOM     10  C   UNL     1     108.656 111.968 108.629  1.00  0.00     0.055 C 
BRANCH  10  11
ATOM     11  C   UNL     1     109.409 112.258 107.357  1.00  0.00    -0.020 C 
ATOM     12  C   UNL     1     109.713 111.344 106.414  1.00  0.00    -0.055 C 
ATOM     13  C   UNL     1     109.402 109.877 106.607  1.00  0.00     0.044 C 
BRANCH  12  14
ATOM     14  C   UNL     1     110.381 111.820 105.177  1.00  0.00    -0.005 C 
ATOM     15  C   UNL     1     111.650 111.546 104.875  1.00  0.00     0.009 C 
ENDBRANCH  12  14
ENDBRANCH  10  11
ENDBRANCH   2  10
TORSDOF 6
ENDMDL
MODEL 4
REMARK VINA RESULT:    -5.682      3.114      4.923
REMARK INTER + INTRA:          -9.457
REMARK INTER:                  -7.713
REMARK INTRA:                  -1.744
REMARK UNBOUND:                -1.782
REMARK SMILES C=CC(C)=CCC=C(C)CCC=C(C)C
REMARK SMILES IDX 8 1 7 2 9 3 10 4 11 5 12 6 14 7 13 8 15 9 6 10 5 11 3 12
REMARK SMILES IDX 4 13 2 14 1 15
REMARK H PARENT
REMARK Flexibility Score: inf
ROOT
ATOM      1  C   UNL     1     112.217 110.949 110.446  1.00  0.00    -0.077 C 
ATOM      2  C   UNL     1     112.423 109.911 109.605  1.00  0.00    -0.024 C 
ATOM      3  C   UNL     1     113.049 112.209 110.369  1.00  0.00     0.039 C 
ENDROOT
BRANCH   1   4
ATOM      4  C   UNL     1     111.125 110.846 111.488  1.00  0.00     0.034 C 
BRANCH   4   5
ATOM      5  C   UNL     1     109.748 110.728 110.823  1.00  0.00     0.032 C 
BRANCH   5   6
ATOM      6  C   UNL     1     109.524 111.861 109.853  1.00  0.00    -0.028 C 
ATOM      7  C   UNL     1     109.154 112.932 107.673  1.00  0.00     0.039 C 
ATOM      8  C   UNL     1     109.327 111.702 108.526  1.00  0.00    -0.080 C 
ATOM      9  C   UNL     1     109.257 110.336 107.885  1.00  0.00     0.039 C 
ENDBRANCH   5   6
ENDBRANCH   4   5
ENDBRANCH   1   4
BRANCH   2  10
ATOM     10  C   UNL     1     113.471 109.895 108.522  1.00  0.00     0.055 C 
BRANCH  10  11
ATOM     11  C   UNL     1     112.829 109.721 107.170  1.00  0.00    -0.020 C 
ATOM     12  C   UNL     1     112.628 110.711 106.278  1.00  0.00    -0.055 C 
ATOM     13  C   UNL     1     112.948 112.151 106.611  1.00  0.00     0.044 C 
BRANCH  12  14
ATOM     14  C   UNL     1     112.064 110.347 104.954  1.00  0.00    -0.005 C 
ATOM     15  C   UNL     1     112.812 109.977 103.914  1.00  0.00     0.009 C 
ENDBRANCH  12  14
ENDBRANCH  10  11
ENDBRANCH   2  10
TORSDOF 6
ENDMDL
MODEL 5
REMARK VINA RESULT:    -5.644      1.525      2.600
REMARK INTER + INTRA:          -9.406
REMARK INTER:                  -7.698
REMARK INTRA:                  -1.708
REMARK UNBOUND:                -1.782
REMARK SMILES C=CC(C)=CCC=C(C)CCC=C(C)C
REMARK SMILES IDX 8 1 7 2 9 3 10 4 11 5 12 6 14 7 13 8 15 9 6 10 5 11 3 12
REMARK SMILES IDX 4 13 2 14 1 15
REMARK H PARENT
REMARK Flexibility Score: inf
ROOT
ATOM      1  C   UNL     1     112.921 110.842 113.341  1.00  0.00    -0.077 C 
ATOM      2  C   UNL     1     112.974 111.990 112.629  1.00  0.00    -0.024 C 
ATOM      3  C   UNL     1     113.118 109.493 112.687  1.00  0.00     0.039 C 
ENDROOT
BRANCH   1   4
ATOM      4  C   UNL     1     112.660 110.912 114.830  1.00  0.00     0.034 C 
BRANCH   4   5
ATOM      5  C   UNL     1     111.164 110.757 115.128  1.00  0.00     0.032 C 
BRANCH   5   6
ATOM      6  C   UNL     1     110.371 111.855 114.465  1.00  0.00    -0.028 C 
ATOM      7  C   UNL     1     108.878 112.880 112.804  1.00  0.00     0.039 C 
ATOM      8  C   UNL     1     109.582 111.680 113.382  1.00  0.00    -0.080 C 
ATOM      9  C   UNL     1     109.376 110.322 112.753  1.00  0.00     0.039 C 
ENDBRANCH   5   6
ENDBRANCH   4   5
ENDBRANCH   1   4
BRANCH   2  10
ATOM     10  C   UNL     1     113.235 112.053 111.146  1.00  0.00     0.055 C 
BRANCH  10  11
ATOM     11  C   UNL     1     112.006 112.528 110.415  1.00  0.00    -0.020 C 
ATOM     12  C   UNL     1     111.161 111.734 109.727  1.00  0.00    -0.055 C 
ATOM     13  C   UNL     1     111.441 110.261 109.537  1.00  0.00     0.044 C 
BRANCH  12  14
ATOM     14  C   UNL     1     109.946 112.356 109.143  1.00  0.00    -0.005 C 
ATOM     15  C   UNL     1     108.846 111.670 108.835  1.00  0.00     0.009 C 
ENDBRANCH  12  14
ENDBRANCH  10  11
ENDBRANCH   2  10
TORSDOF 6
ENDMDL
MODEL 6
REMARK VINA RESULT:    -5.595      1.117      3.356
REMARK INTER + INTRA:          -9.340
REMARK INTER:                  -7.720
REMARK INTRA:                  -1.620
REMARK UNBOUND:                -1.782
REMARK SMILES C=CC(C)=CCC=C(C)CCC=C(C)C
REMARK SMILES IDX 8 1 7 2 9 3 10 4 11 5 12 6 14 7 13 8 15 9 6 10 5 11 3 12
REMARK SMILES IDX 4 13 2 14 1 15
REMARK H PARENT
REMARK Flexibility Score: inf
ROOT
ATOM      1  C   UNL     1     109.302 111.507 113.384  1.00  0.00    -0.077 C 
ATOM      2  C   UNL     1     109.256 110.329 112.721  1.00  0.00    -0.024 C 
ATOM      3  C   UNL     1     109.165 112.829 112.664  1.00  0.00     0.039 C 
ENDROOT
BRANCH   1   4
ATOM      4  C   UNL     1     109.494 111.498 114.885  1.00  0.00     0.034 C 
BRANCH   4   5
ATOM      5  C   UNL     1     110.979 111.622 115.245  1.00  0.00     0.032 C 
BRANCH   5   6
ATOM      6  C   UNL     1     111.766 110.470 114.673  1.00  0.00    -0.028 C 
ATOM      7  C   UNL     1     113.304 109.320 113.139  1.00  0.00     0.039 C 
ATOM      8  C   UNL     1     112.614 110.569 113.626  1.00  0.00    -0.080 C 
ATOM      9  C   UNL     1     112.901 111.889 112.950  1.00  0.00     0.039 C 
ENDBRANCH   5   6
ENDBRANCH   4   5
ENDBRANCH   1   4
BRANCH   2  10
ATOM     10  C   UNL     1     109.061 110.206 111.232  1.00  0.00     0.055 C 
BRANCH  10  11
ATOM     11  C   UNL     1     110.306 109.659 110.582  1.00  0.00    -0.020 C 
ATOM     12  C   UNL     1     111.227 110.399 109.933  1.00  0.00    -0.055 C 
ATOM     13  C   UNL     1     111.032 111.880 109.706  1.00  0.00     0.044 C 
BRANCH  12  14
ATOM     14  C   UNL     1     112.442 109.709 109.431  1.00  0.00    -0.005 C 
ATOM     15  C   UNL     1     113.190 110.173 108.431  1.00  0.00     0.009 C 
ENDBRANCH  12  14
ENDBRANCH  10  11
ENDBRANCH   2  10
TORSDOF 6
ENDMDL
MODEL 7
REMARK VINA RESULT:    -5.572      3.978      6.470
REMARK INTER + INTRA:          -9.309
REMARK INTER:                  -7.597
REMARK INTRA:                  -1.711
REMARK UNBOUND:                -1.782
REMARK SMILES C=CC(C)=CCC=C(C)CCC=C(C)C
REMARK SMILES IDX 8 1 7 2 9 3 10 4 11 5 12 6 14 7 13 8 15 9 6 10 5 11 3 12
REMARK SMILES IDX 4 13 2 14 1 15
REMARK H PARENT
REMARK Flexibility Score: inf
ROOT
ATOM      1  C   UNL     1     112.963 110.900 108.449  1.00  0.00    -0.077 C 
ATOM      2  C   UNL     1     112.979 112.045 107.729  1.00  0.00    -0.024 C 
ATOM      3  C   UNL     1     113.205 109.555 107.804  1.00  0.00     0.039 C 
ENDROOT
BRANCH   1   4
ATOM      4  C   UNL     1     112.700 110.971 109.937  1.00  0.00     0.034 C 
BRANCH   4   5
ATOM      5  C   UNL     1     111.208 110.790 110.236  1.00  0.00     0.032 C 
BRANCH   5   6
ATOM      6  C   UNL     1     110.393 111.869 109.566  1.00  0.00    -0.028 C 
ATOM      7  C   UNL     1     108.869 112.852 107.909  1.00  0.00     0.039 C 
ATOM      8  C   UNL     1     109.594 111.668 108.496  1.00  0.00    -0.080 C 
ATOM      9  C   UNL     1     109.395 110.299 107.889  1.00  0.00     0.039 C 
ENDBRANCH   5   6
ENDBRANCH   4   5
ENDBRANCH   1   4
BRANCH   2  10
ATOM     10  C   UNL     1     113.237 112.106 106.246  1.00  0.00     0.055 C 
BRANCH  10  11
ATOM     11  C   UNL     1     112.004 112.573 105.516  1.00  0.00    -0.020 C 
ATOM     12  C   UNL     1     111.147 111.770 104.855  1.00  0.00    -0.055 C 
ATOM     13  C   UNL     1     111.414 110.290 104.698  1.00  0.00     0.044 C 
BRANCH  12  14
ATOM     14  C   UNL     1     109.931 112.387 104.268  1.00  0.00    -0.005 C 
ATOM     15  C   UNL     1     108.848 111.691 103.923  1.00  0.00     0.009 C 
ENDBRANCH  12  14
ENDBRANCH  10  11
ENDBRANCH   2  10
TORSDOF 6
ENDMDL
MODEL 8
REMARK VINA RESULT:    -5.547      1.285      4.573
REMARK INTER + INTRA:          -9.275
REMARK INTER:                  -7.488
REMARK INTRA:                  -1.787
REMARK UNBOUND:                -1.782
REMARK SMILES C=CC(C)=CCC=C(C)CCC=C(C)C
REMARK SMILES IDX 8 1 7 2 9 3 10 4 11 5 12 6 14 7 13 8 15 9 6 10 5 11 3 12
REMARK SMILES IDX 4 13 2 14 1 15
REMARK H PARENT
REMARK Flexibility Score: inf
ROOT
ATOM      1  C   UNL     1     111.465 110.828 109.858  1.00  0.00    -0.077 C 
ATOM      2  C   UNL     1     111.836 111.932 110.545  1.00  0.00    -0.024 C 
ATOM      3  C   UNL     1     112.360 109.614 109.764  1.00  0.00     0.039 C 
ENDROOT
BRANCH   1   4
ATOM      4  C   UNL     1     110.118 110.810 109.170  1.00  0.00     0.034 C 
BRANCH   4   5
ATOM      5  C   UNL     1     108.993 111.113 110.167  1.00  0.00     0.032 C 
BRANCH   5   6
ATOM      6  C   UNL     1     109.169 110.310 111.431  1.00  0.00    -0.028 C 
ATOM      7  C   UNL     1     109.454 109.916 113.840  1.00  0.00     0.039 C 
ATOM      8  C   UNL     1     109.238 110.842 112.671  1.00  0.00    -0.080 C 
ATOM      9  C   UNL     1     109.088 112.326 112.915  1.00  0.00     0.039 C 
ENDBRANCH   5   6
ENDBRANCH   4   5
ENDBRANCH   1   4
BRANCH   2  10
ATOM     10  C   UNL     1     113.146 112.070 111.278  1.00  0.00     0.055 C 
BRANCH  10  11
ATOM     11  C   UNL     1     112.910 112.165 112.763  1.00  0.00    -0.020 C 
ATOM     12  C   UNL     1     112.984 111.131 113.624  1.00  0.00    -0.055 C 
ATOM     13  C   UNL     1     113.217 109.718 113.142  1.00  0.00     0.044 C 
BRANCH  12  14
ATOM     14  C   UNL     1     112.813 111.420 115.070  1.00  0.00    -0.005 C 
ATOM     15  C   UNL     1     112.284 112.551 115.536  1.00  0.00     0.009 C 
ENDBRANCH  12  14
ENDBRANCH  10  11
ENDBRANCH   2  10
TORSDOF 6
ENDMDL
MODEL 9
REMARK VINA RESULT:    -5.433      1.428      5.559
REMARK INTER + INTRA:          -9.121
REMARK INTER:                  -7.304
REMARK INTRA:                  -1.816
REMARK UNBOUND:                -1.782
REMARK SMILES C=CC(C)=CCC=C(C)CCC=C(C)C
REMARK SMILES IDX 8 1 7 2 9 3 10 4 11 5 12 6 14 7 13 8 15 9 6 10 5 11 3 12
REMARK SMILES IDX 4 13 2 14 1 15
REMARK H PARENT
REMARK Flexibility Score: inf
ROOT
ATOM      1  C   UNL     1     110.430 110.953 109.081  1.00  0.00    -0.077 C 
ATOM      2  C   UNL     1     109.956 110.047 109.966  1.00  0.00    -0.024 C 
ATOM      3  C   UNL     1     109.765 112.297 108.890  1.00  0.00     0.039 C 
ENDROOT
BRANCH   1   4
ATOM      4  C   UNL     1     111.658 110.612 108.266  1.00  0.00     0.034 C 
BRANCH   4   5
ATOM      5  C   UNL     1     112.852 110.314 109.179  1.00  0.00     0.032 C 
BRANCH   5   6
ATOM      6  C   UNL     1     112.919 111.307 110.313  1.00  0.00    -0.028 C 
ATOM      7  C   UNL     1     112.913 112.081 112.645  1.00  0.00     0.039 C 
ATOM      8  C   UNL     1     112.874 110.975 111.622  1.00  0.00    -0.080 C 
ATOM      9  C   UNL     1     112.805 109.538 112.082  1.00  0.00     0.039 C 
ENDBRANCH   5   6
ENDBRANCH   4   5
ENDBRANCH   1   4
BRANCH   2  10
ATOM     10  C   UNL     1     108.750 110.272 110.841  1.00  0.00     0.055 C 
BRANCH  10  11
ATOM     11  C   UNL     1     109.145 110.267 112.295  1.00  0.00    -0.020 C 
ATOM     12  C   UNL     1     109.322 111.369 113.051  1.00  0.00    -0.055 C 
ATOM     13  C   UNL     1     109.234 112.756 112.456  1.00  0.00     0.044 C 
BRANCH  12  14
ATOM     14  C   UNL     1     109.621 111.180 114.492  1.00  0.00    -0.005 C 
ATOM     15  C   UNL     1     110.407 110.209 114.958  1.00  0.00     0.009 C 
ENDBRANCH  12  14
ENDBRANCH  10  11
ENDBRANCH   2  10
TORSDOF 6
ENDMDL
