MODEL 1
REMARK VINA RESULT:    -7.413      0.000      0.000
REMARK INTER + INTRA:          -9.163
REMARK INTER:                  -8.929
REMARK INTRA:                  -0.234
REMARK UNBOUND:                -0.234
REMARK SMILES O=c1c(O)c(-c2ccc(O)c(O)c2)oc2cc(O)cc(O)c12
REMARK SMILES IDX 5 1 3 2 2 3 1 4 22 5 20 6 19 7 17 8 16 9 15 10 14 11 6 12
REMARK SMILES IDX 7 13 8 14 9 15 13 16 11 17 10 18 12 20 4 22 21 24 18 26
REMARK H PARENT 10 19 12 21 4 23 21 25 18 27
REMARK Flexibility Score: inf
ROOT
ATOM      1  C   UNL     1      26.484 -26.491  28.197  1.00  0.00     0.180 A 
ATOM      2  C   UNL     1      27.359 -25.681  27.453  1.00  0.00     0.208 A 
ATOM      3  C   UNL     1      26.863 -24.992  26.335  1.00  0.00     0.238 A 
ATOM      4  O   UNL     1      27.637 -24.226  25.704  1.00  0.00    -0.285 OA
ATOM      5  C   UNL     1      25.504 -25.134  25.965  1.00  0.00     0.111 A 
ATOM      6  C   UNL     1      24.904 -24.514  24.828  1.00  0.00     0.134 A 
ATOM      7  C   UNL     1      23.522 -24.619  24.633  1.00  0.00     0.093 A 
ATOM      8  C   UNL     1      22.728 -25.373  25.496  1.00  0.00     0.123 A 
ATOM      9  C   UNL     1      23.313 -26.033  26.578  1.00  0.00     0.094 A 
ATOM     10  C   UNL     1      24.684 -25.918  26.819  1.00  0.00     0.146 A 
ATOM     11  O   UNL     1      25.200 -26.551  27.865  1.00  0.00    -0.452 OA
ENDROOT
BRANCH   1  12
ATOM     12  C   UNL     1      26.939 -27.267  29.374  1.00  0.00     0.025 A 
ATOM     13  C   UNL     1      26.606 -26.876  30.680  1.00  0.00     0.016 A 
ATOM     14  C   UNL     1      27.066 -27.609  31.775  1.00  0.00     0.051 A 
ATOM     15  C   UNL     1      27.876 -28.735  31.592  1.00  0.00     0.157 A 
ATOM     16  C   UNL     1      27.769 -28.383  29.189  1.00  0.00     0.062 A 
ATOM     17  C   UNL     1      28.235 -29.126  30.280  1.00  0.00     0.158 A 
BRANCH  15  18
ATOM     18  O   UNL     1      28.299 -29.427  32.728  1.00  0.00    -0.504 OA
ATOM     19  H   UNL     1      27.744 -29.530  33.566  1.00  0.00     0.293 HD
ENDBRANCH  15  18
BRANCH  17  20
ATOM     20  O   UNL     1      29.048 -30.231  30.019  1.00  0.00    -0.504 OA
ATOM     21  H   UNL     1      29.089 -31.052  30.604  1.00  0.00     0.293 HD
ENDBRANCH  17  20
ENDBRANCH   1  12
BRANCH   2  22
ATOM     22  O   UNL     1      28.691 -25.537  27.848  1.00  0.00    -0.502 OA
ATOM     23  H   UNL     1      29.016 -24.747  28.393  1.00  0.00     0.293 HD
ENDBRANCH   2  22
BRANCH   6  24
ATOM     24  O   UNL     1      25.620 -23.813  23.853  1.00  0.00    -0.507 OA
ATOM     25  H   UNL     1      25.571 -23.994  22.862  1.00  0.00     0.293 HD
ENDBRANCH   6  24
BRANCH   8  26
ATOM     26  O   UNL     1      21.357 -25.469  25.262  1.00  0.00    -0.508 OA
ATOM     27  H   UNL     1      20.837 -26.306  25.500  1.00  0.00     0.293 HD
ENDBRANCH   8  26
TORSDOF 6
ENDMDL
MODEL 2
REMARK VINA RESULT:    -7.344      1.262      3.096
REMARK INTER + INTRA:          -9.080
REMARK INTER:                  -8.819
REMARK INTRA:                  -0.262
REMARK UNBOUND:                -0.234
REMARK SMILES O=c1c(O)c(-c2ccc(O)c(O)c2)oc2cc(O)cc(O)c12
REMARK SMILES IDX 5 1 3 2 2 3 1 4 22 5 20 6 19 7 17 8 16 9 15 10 14 11 6 12
REMARK SMILES IDX 7 13 8 14 9 15 13 16 11 17 10 18 12 20 4 22 21 24 18 26
REMARK H PARENT 10 19 12 21 4 23 21 25 18 27
REMARK Flexibility Score: inf
ROOT
ATOM      1  C   UNL     1      26.575 -26.492  28.177  1.00  0.00     0.180 A 
ATOM      2  C   UNL     1      25.271 -26.508  27.654  1.00  0.00     0.208 A 
ATOM      3  C   UNL     1      24.974 -25.705  26.541  1.00  0.00     0.238 A 
ATOM      4  O   UNL     1      23.820 -25.764  26.044  1.00  0.00    -0.285 OA
ATOM      5  C   UNL     1      25.980 -24.883  25.977  1.00  0.00     0.111 A 
ATOM      6  C   UNL     1      25.779 -24.000  24.874  1.00  0.00     0.134 A 
ATOM      7  C   UNL     1      26.876 -23.333  24.316  1.00  0.00     0.093 A 
ATOM      8  C   UNL     1      28.153 -23.467  24.858  1.00  0.00     0.123 A 
ATOM      9  C   UNL     1      28.350 -24.282  25.974  1.00  0.00     0.094 A 
ATOM     10  C   UNL     1      27.282 -24.988  26.531  1.00  0.00     0.146 A 
ATOM     11  O   UNL     1      27.513 -25.762  27.585  1.00  0.00    -0.452 OA
ENDROOT
BRANCH   1  12
ATOM     12  C   UNL     1      26.959 -27.294  29.362  1.00  0.00     0.025 A 
ATOM     13  C   UNL     1      26.526 -26.945  30.650  1.00  0.00     0.016 A 
ATOM     14  C   UNL     1      26.919 -27.702  31.756  1.00  0.00     0.051 A 
ATOM     15  C   UNL     1      27.762 -28.808  31.601  1.00  0.00     0.157 A 
ATOM     16  C   UNL     1      27.821 -28.390  29.207  1.00  0.00     0.062 A 
ATOM     17  C   UNL     1      28.222 -29.155  30.309  1.00  0.00     0.158 A 
BRANCH  15  18
ATOM     18  O   UNL     1      28.115 -29.525  32.746  1.00  0.00    -0.504 OA
ATOM     19  H   UNL     1      27.447 -29.925  33.390  1.00  0.00     0.293 HD
ENDBRANCH  15  18
BRANCH  17  20
ATOM     20  O   UNL     1      29.071 -30.239  30.077  1.00  0.00    -0.504 OA
ATOM     21  H   UNL     1      29.844 -30.221  29.427  1.00  0.00     0.293 HD
ENDBRANCH  17  20
ENDBRANCH   1  12
BRANCH   2  22
ATOM     22  O   UNL     1      24.300 -27.343  28.212  1.00  0.00    -0.502 OA
ATOM     23  H   UNL     1      23.379 -27.010  28.470  1.00  0.00     0.293 HD
ENDBRANCH   2  22
BRANCH   6  24
ATOM     24  O   UNL     1      24.529 -23.722  24.313  1.00  0.00    -0.507 OA
ATOM     25  H   UNL     1      24.350 -23.626  23.325  1.00  0.00     0.293 HD
ENDBRANCH   6  24
BRANCH   8  26
ATOM     26  O   UNL     1      29.220 -22.775  24.286  1.00  0.00    -0.508 OA
ATOM     27  H   UNL     1      29.070 -21.969  23.691  1.00  0.00     0.293 HD
ENDBRANCH   8  26
TORSDOF 6
ENDMDL
MODEL 3
REMARK VINA RESULT:    -7.302      5.221      8.070
REMARK INTER + INTRA:          -9.029
REMARK INTER:                  -8.709
REMARK INTRA:                  -0.321
REMARK UNBOUND:                -0.234
REMARK SMILES O=c1c(O)c(-c2ccc(O)c(O)c2)oc2cc(O)cc(O)c12
REMARK SMILES IDX 5 1 3 2 2 3 1 4 22 5 20 6 19 7 17 8 16 9 15 10 14 11 6 12
REMARK SMILES IDX 7 13 8 14 9 15 13 16 11 17 10 18 12 20 4 22 21 24 18 26
REMARK H PARENT 10 19 12 21 4 23 21 25 18 27
REMARK Flexibility Score: inf
ROOT
ATOM      1  C   UNL     1      23.748 -21.369  26.723  1.00  0.00     0.180 A 
ATOM      2  C   UNL     1      23.139 -22.238  27.646  1.00  0.00     0.208 A 
ATOM      3  C   UNL     1      22.935 -23.579  27.284  1.00  0.00     0.238 A 
ATOM      4  O   UNL     1      22.440 -24.366  28.133  1.00  0.00    -0.285 OA
ATOM      5  C   UNL     1      23.325 -24.030  26.000  1.00  0.00     0.111 A 
ATOM      6  C   UNL     1      23.130 -25.358  25.513  1.00  0.00     0.134 A 
ATOM      7  C   UNL     1      23.672 -25.727  24.277  1.00  0.00     0.093 A 
ATOM      8  C   UNL     1      24.347 -24.803  23.482  1.00  0.00     0.123 A 
ATOM      9  C   UNL     1      24.493 -23.486  23.921  1.00  0.00     0.094 A 
ATOM     10  C   UNL     1      23.994 -23.096  25.166  1.00  0.00     0.146 A 
ATOM     11  O   UNL     1      24.162 -21.838  25.552  1.00  0.00    -0.452 OA
ENDROOT
BRANCH   1  12
ATOM     12  C   UNL     1      23.975 -19.936  27.023  1.00  0.00     0.025 A 
ATOM     13  C   UNL     1      25.132 -19.504  27.687  1.00  0.00     0.016 A 
ATOM     14  C   UNL     1      25.314 -18.151  27.980  1.00  0.00     0.051 A 
ATOM     15  C   UNL     1      24.342 -17.207  27.631  1.00  0.00     0.157 A 
ATOM     16  C   UNL     1      22.988 -18.995  26.691  1.00  0.00     0.062 A 
ATOM     17  C   UNL     1      23.161 -17.636  26.980  1.00  0.00     0.158 A 
BRANCH  15  18
ATOM     18  O   UNL     1      24.586 -15.870  27.949  1.00  0.00    -0.504 OA
ATOM     19  H   UNL     1      25.504 -15.449  27.952  1.00  0.00     0.293 HD
ENDBRANCH  15  18
BRANCH  17  20
ATOM     20  O   UNL     1      22.142 -16.755  26.610  1.00  0.00    -0.504 OA
ATOM     21  H   UNL     1      21.165 -17.009  26.566  1.00  0.00     0.293 HD
ENDBRANCH  17  20
ENDBRANCH   1  12
BRANCH   2  22
ATOM     22  O   UNL     1      22.782 -21.777  28.915  1.00  0.00    -0.502 OA
ATOM     23  H   UNL     1      22.013 -21.135  29.065  1.00  0.00     0.293 HD
ENDBRANCH   2  22
BRANCH   6  24
ATOM     24  O   UNL     1      22.391 -26.335  26.188  1.00  0.00    -0.507 OA
ATOM     25  H   UNL     1      21.384 -26.360  26.241  1.00  0.00     0.293 HD
ENDBRANCH   6  24
BRANCH   8  26
ATOM     26  O   UNL     1      24.861 -25.201  22.249  1.00  0.00    -0.508 OA
ATOM     27  H   UNL     1      25.763 -24.876  21.921  1.00  0.00     0.293 HD
ENDBRANCH   8  26
TORSDOF 6
ENDMDL
MODEL 4
REMARK VINA RESULT:    -7.107      2.895      3.949
REMARK INTER + INTRA:          -8.795
REMARK INTER:                  -8.567
REMARK INTRA:                  -0.228
REMARK UNBOUND:                -0.234
REMARK SMILES O=c1c(O)c(-c2ccc(O)c(O)c2)oc2cc(O)cc(O)c12
REMARK SMILES IDX 5 1 3 2 2 3 1 4 22 5 20 6 19 7 17 8 16 9 15 10 14 11 6 12
REMARK SMILES IDX 7 13 8 14 9 15 13 16 11 17 10 18 12 20 4 22 21 24 18 26
REMARK H PARENT 10 19 12 21 4 23 21 25 18 27
REMARK Flexibility Score: inf
ROOT
ATOM      1  C   UNL     1      25.028 -25.112  27.571  1.00  0.00     0.180 A 
ATOM      2  C   UNL     1      24.105 -25.401  26.551  1.00  0.00     0.208 A 
ATOM      3  C   UNL     1      23.264 -24.378  26.085  1.00  0.00     0.238 A 
ATOM      4  O   UNL     1      22.477 -24.628  25.134  1.00  0.00    -0.285 OA
ATOM      5  C   UNL     1      23.342 -23.085  26.656  1.00  0.00     0.111 A 
ATOM      6  C   UNL     1      22.510 -21.985  26.289  1.00  0.00     0.134 A 
ATOM      7  C   UNL     1      22.764 -20.718  26.827  1.00  0.00     0.093 A 
ATOM      8  C   UNL     1      23.776 -20.523  27.765  1.00  0.00     0.123 A 
ATOM      9  C   UNL     1      24.558 -21.604  28.176  1.00  0.00     0.094 A 
ATOM     10  C   UNL     1      24.352 -22.873  27.631  1.00  0.00     0.146 A 
ATOM     11  O   UNL     1      25.123 -23.873  28.040  1.00  0.00    -0.452 OA
ENDROOT
BRANCH   1  12
ATOM     12  C   UNL     1      25.932 -26.143  28.131  1.00  0.00     0.025 A 
ATOM     13  C   UNL     1      27.304 -26.148  27.837  1.00  0.00     0.016 A 
ATOM     14  C   UNL     1      28.133 -27.144  28.357  1.00  0.00     0.051 A 
ATOM     15  C   UNL     1      27.610 -28.160  29.165  1.00  0.00     0.157 A 
ATOM     16  C   UNL     1      25.401 -27.172  28.923  1.00  0.00     0.062 A 
ATOM     17  C   UNL     1      26.224 -28.176  29.449  1.00  0.00     0.158 A 
BRANCH  15  18
ATOM     18  O   UNL     1      28.493 -29.123  29.656  1.00  0.00    -0.504 OA
ATOM     19  H   UNL     1      29.187 -29.592  29.092  1.00  0.00     0.293 HD
ENDBRANCH  15  18
BRANCH  17  20
ATOM     20  O   UNL     1      25.628 -29.161  30.238  1.00  0.00    -0.504 OA
ATOM     21  H   UNL     1      26.025 -29.513  31.097  1.00  0.00     0.293 HD
ENDBRANCH  17  20
ENDBRANCH   1  12
BRANCH   2  22
ATOM     22  O   UNL     1      24.059 -26.678  25.986  1.00  0.00    -0.502 OA
ATOM     23  H   UNL     1      24.209 -27.519  26.530  1.00  0.00     0.293 HD
ENDBRANCH   2  22
BRANCH   6  24
ATOM     24  O   UNL     1      21.413 -22.089  25.429  1.00  0.00    -0.507 OA
ATOM     25  H   UNL     1      20.611 -21.477  25.442  1.00  0.00     0.293 HD
ENDBRANCH   6  24
BRANCH   8  26
ATOM     26  O   UNL     1      23.991 -19.251  28.293  1.00  0.00    -0.508 OA
ATOM     27  H   UNL     1      23.221 -18.618  28.479  1.00  0.00     0.293 HD
ENDBRANCH   8  26
TORSDOF 6
ENDMDL
MODEL 5
REMARK VINA RESULT:    -6.947      1.666      7.005
REMARK INTER + INTRA:          -8.602
REMARK INTER:                  -8.273
REMARK INTRA:                  -0.329
REMARK UNBOUND:                -0.234
REMARK SMILES O=c1c(O)c(-c2ccc(O)c(O)c2)oc2cc(O)cc(O)c12
REMARK SMILES IDX 5 1 3 2 2 3 1 4 22 5 20 6 19 7 17 8 16 9 15 10 14 11 6 12
REMARK SMILES IDX 7 13 8 14 9 15 13 16 11 17 10 18 12 20 4 22 21 24 18 26
REMARK H PARENT 10 19 12 21 4 23 21 25 18 27
REMARK Flexibility Score: inf
ROOT
ATOM      1  C   UNL     1      25.595 -25.825  27.830  1.00  0.00     0.180 A 
ATOM      2  C   UNL     1      25.101 -25.071  28.909  1.00  0.00     0.208 A 
ATOM      3  C   UNL     1      25.403 -25.479  30.218  1.00  0.00     0.238 A 
ATOM      4  O   UNL     1      25.004 -24.770  31.179  1.00  0.00    -0.285 OA
ATOM      5  C   UNL     1      26.179 -26.643  30.433  1.00  0.00     0.111 A 
ATOM      6  C   UNL     1      26.512 -27.170  31.717  1.00  0.00     0.134 A 
ATOM      7  C   UNL     1      27.394 -28.252  31.812  1.00  0.00     0.093 A 
ATOM      8  C   UNL     1      27.906 -28.867  30.670  1.00  0.00     0.123 A 
ATOM      9  C   UNL     1      27.541 -28.397  29.408  1.00  0.00     0.094 A 
ATOM     10  C   UNL     1      26.690 -27.297  29.281  1.00  0.00     0.146 A 
ATOM     11  O   UNL     1      26.375 -26.874  28.063  1.00  0.00    -0.452 OA
ENDROOT
BRANCH   1  12
ATOM     12  C   UNL     1      25.299 -25.473  26.422  1.00  0.00     0.025 A 
ATOM     13  C   UNL     1      24.194 -26.016  25.750  1.00  0.00     0.016 A 
ATOM     14  C   UNL     1      23.949 -25.688  24.415  1.00  0.00     0.051 A 
ATOM     15  C   UNL     1      24.806 -24.826  23.722  1.00  0.00     0.157 A 
ATOM     16  C   UNL     1      26.173 -24.626  25.723  1.00  0.00     0.062 A 
ATOM     17  C   UNL     1      25.936 -24.291  24.384  1.00  0.00     0.158 A 
BRANCH  15  18
ATOM     18  O   UNL     1      24.503 -24.535  22.391  1.00  0.00    -0.504 OA
ATOM     19  H   UNL     1      24.387 -23.599  22.029  1.00  0.00     0.293 HD
ENDBRANCH  15  18
BRANCH  17  20
ATOM     20  O   UNL     1      26.842 -23.433  23.756  1.00  0.00    -0.504 OA
ATOM     21  H   UNL     1      26.633 -22.477  23.506  1.00  0.00     0.293 HD
ENDBRANCH  17  20
ENDBRANCH   1  12
BRANCH   2  22
ATOM     22  O   UNL     1      24.355 -23.914  28.674  1.00  0.00    -0.502 OA
ATOM     23  H   UNL     1      23.610 -23.611  29.290  1.00  0.00     0.293 HD
ENDBRANCH   2  22
BRANCH   6  24
ATOM     24  O   UNL     1      25.984 -26.688  32.919  1.00  0.00    -0.507 OA
ATOM     25  H   UNL     1      25.682 -27.267  33.688  1.00  0.00     0.293 HD
ENDBRANCH   6  24
BRANCH   8  26
ATOM     26  O   UNL     1      28.770 -29.953  30.802  1.00  0.00    -0.508 OA
ATOM     27  H   UNL     1      28.421 -30.892  30.953  1.00  0.00     0.293 HD
ENDBRANCH   8  26
TORSDOF 6
ENDMDL
MODEL 6
REMARK VINA RESULT:    -6.915      5.023      8.323
REMARK INTER + INTRA:          -8.564
REMARK INTER:                  -8.280
REMARK INTRA:                  -0.284
REMARK UNBOUND:                -0.234
REMARK SMILES O=c1c(O)c(-c2ccc(O)c(O)c2)oc2cc(O)cc(O)c12
REMARK SMILES IDX 5 1 3 2 2 3 1 4 22 5 20 6 19 7 17 8 16 9 15 10 14 11 6 12
REMARK SMILES IDX 7 13 8 14 9 15 13 16 11 17 10 18 12 20 4 22 21 24 18 26
REMARK H PARENT 10 19 12 21 4 23 21 25 18 27
REMARK Flexibility Score: inf
ROOT
ATOM      1  C   UNL     1      26.154 -28.196  35.680  1.00  0.00     0.180 A 
ATOM      2  C   UNL     1      25.380 -27.126  35.198  1.00  0.00     0.208 A 
ATOM      3  C   UNL     1      25.485 -26.766  33.846  1.00  0.00     0.238 A 
ATOM      4  O   UNL     1      24.749 -25.843  33.407  1.00  0.00    -0.285 OA
ATOM      5  C   UNL     1      26.375 -27.466  32.996  1.00  0.00     0.111 A 
ATOM      6  C   UNL     1      26.591 -27.159  31.619  1.00  0.00     0.134 A 
ATOM      7  C   UNL     1      27.396 -28.001  30.843  1.00  0.00     0.093 A 
ATOM      8  C   UNL     1      28.044 -29.099  31.406  1.00  0.00     0.123 A 
ATOM      9  C   UNL     1      27.887 -29.374  32.765  1.00  0.00     0.094 A 
ATOM     10  C   UNL     1      27.062 -28.574  33.558  1.00  0.00     0.146 A 
ATOM     11  O   UNL     1      26.930 -28.875  34.844  1.00  0.00    -0.452 OA
ENDROOT
BRANCH   1  12
ATOM     12  C   UNL     1      26.116 -28.620  37.099  1.00  0.00     0.025 A 
ATOM     13  C   UNL     1      26.759 -27.877  38.101  1.00  0.00     0.016 A 
ATOM     14  C   UNL     1      26.730 -28.309  39.428  1.00  0.00     0.051 A 
ATOM     15  C   UNL     1      26.074 -29.494  39.780  1.00  0.00     0.157 A 
ATOM     16  C   UNL     1      25.476 -29.820  37.446  1.00  0.00     0.062 A 
ATOM     17  C   UNL     1      25.441 -30.261  38.774  1.00  0.00     0.158 A 
BRANCH  15  18
ATOM     18  O   UNL     1      26.078 -29.868  41.125  1.00  0.00    -0.504 OA
ATOM     19  H   UNL     1      26.718 -29.497  41.812  1.00  0.00     0.293 HD
ENDBRANCH  15  18
BRANCH  17  20
ATOM     20  O   UNL     1      24.775 -31.459  39.046  1.00  0.00    -0.504 OA
ATOM     21  H   UNL     1      25.163 -32.205  39.604  1.00  0.00     0.293 HD
ENDBRANCH  17  20
ENDBRANCH   1  12
BRANCH   2  22
ATOM     22  O   UNL     1      24.491 -26.463  36.049  1.00  0.00    -0.502 OA
ATOM     23  H   UNL     1      24.648 -25.514  36.366  1.00  0.00     0.293 HD
ENDBRANCH   2  22
BRANCH   6  24
ATOM     24  O   UNL     1      26.065 -26.033  30.978  1.00  0.00    -0.507 OA
ATOM     25  H   UNL     1      25.435 -26.062  30.191  1.00  0.00     0.293 HD
ENDBRANCH   6  24
BRANCH   8  26
ATOM     26  O   UNL     1      28.852 -29.906  30.606  1.00  0.00    -0.508 OA
ATOM     27  H   UNL     1      29.822 -30.081  30.840  1.00  0.00     0.293 HD
ENDBRANCH   8  26
TORSDOF 6
ENDMDL
MODEL 7
REMARK VINA RESULT:    -6.892      5.480      8.529
REMARK INTER + INTRA:          -8.536
REMARK INTER:                  -8.269
REMARK INTRA:                  -0.267
REMARK UNBOUND:                -0.234
REMARK SMILES O=c1c(O)c(-c2ccc(O)c(O)c2)oc2cc(O)cc(O)c12
REMARK SMILES IDX 5 1 3 2 2 3 1 4 22 5 20 6 19 7 17 8 16 9 15 10 14 11 6 12
REMARK SMILES IDX 7 13 8 14 9 15 13 16 11 17 10 18 12 20 4 22 21 24 18 26
REMARK H PARENT 10 19 12 21 4 23 21 25 18 27
REMARK Flexibility Score: inf
ROOT
ATOM      1  C   UNL     1      23.793 -20.868  26.286  1.00  0.00     0.180 A 
ATOM      2  C   UNL     1      22.918 -21.809  25.717  1.00  0.00     0.208 A 
ATOM      3  C   UNL     1      23.454 -22.879  24.983  1.00  0.00     0.238 A 
ATOM      4  O   UNL     1      22.670 -23.748  24.521  1.00  0.00    -0.285 OA
ATOM      5  C   UNL     1      24.856 -22.986  24.813  1.00  0.00     0.111 A 
ATOM      6  C   UNL     1      25.505 -24.006  24.056  1.00  0.00     0.134 A 
ATOM      7  C   UNL     1      26.902 -24.089  24.064  1.00  0.00     0.093 A 
ATOM      8  C   UNL     1      27.675 -23.153  24.749  1.00  0.00     0.123 A 
ATOM      9  C   UNL     1      27.053 -22.116  25.444  1.00  0.00     0.094 A 
ATOM     10  C   UNL     1      25.659 -22.027  25.484  1.00  0.00     0.146 A 
ATOM     11  O   UNL     1      25.105 -21.032  26.166  1.00  0.00    -0.452 OA
ENDROOT
BRANCH   1  12
ATOM     12  C   UNL     1      23.303 -19.699  27.053  1.00  0.00     0.025 A 
ATOM     13  C   UNL     1      23.343 -19.677  28.455  1.00  0.00     0.016 A 
ATOM     14  C   UNL     1      22.852 -18.575  29.158  1.00  0.00     0.051 A 
ATOM     15  C   UNL     1      22.301 -17.482  28.480  1.00  0.00     0.157 A 
ATOM     16  C   UNL     1      22.731 -18.614  26.371  1.00  0.00     0.062 A 
ATOM     17  C   UNL     1      22.236 -17.504  27.067  1.00  0.00     0.158 A 
BRANCH  15  18
ATOM     18  O   UNL     1      21.833 -16.410  29.241  1.00  0.00    -0.504 OA
ATOM     19  H   UNL     1      20.893 -16.344  29.605  1.00  0.00     0.293 HD
ENDBRANCH  15  18
BRANCH  17  20
ATOM     20  O   UNL     1      21.692 -16.456  26.321  1.00  0.00    -0.504 OA
ATOM     21  H   UNL     1      20.717 -16.195  26.344  1.00  0.00     0.293 HD
ENDBRANCH  17  20
ENDBRANCH   1  12
BRANCH   2  22
ATOM     22  O   UNL     1      21.540 -21.697  25.915  1.00  0.00    -0.502 OA
ATOM     23  H   UNL     1      20.953 -22.496  26.122  1.00  0.00     0.293 HD
ENDBRANCH   2  22
BRANCH   6  24
ATOM     24  O   UNL     1      24.829 -24.938  23.261  1.00  0.00    -0.507 OA
ATOM     25  H   UNL     1      24.334 -24.717  22.410  1.00  0.00     0.293 HD
ENDBRANCH   6  24
BRANCH   8  26
ATOM     26  O   UNL     1      29.065 -23.257  24.723  1.00  0.00    -0.508 OA
ATOM     27  H   UNL     1      29.543 -24.069  25.097  1.00  0.00     0.293 HD
ENDBRANCH   8  26
TORSDOF 6
ENDMDL
MODEL 8
REMARK VINA RESULT:    -6.881      2.061      3.752
REMARK INTER + INTRA:          -8.523
REMARK INTER:                  -8.232
REMARK INTRA:                  -0.291
REMARK UNBOUND:                -0.234
REMARK SMILES O=c1c(O)c(-c2ccc(O)c(O)c2)oc2cc(O)cc(O)c12
REMARK SMILES IDX 5 1 3 2 2 3 1 4 22 5 20 6 19 7 17 8 16 9 15 10 14 11 6 12
REMARK SMILES IDX 7 13 8 14 9 15 13 16 11 17 10 18 12 20 4 22 21 24 18 26
REMARK H PARENT 10 19 12 21 4 23 21 25 18 27
REMARK Flexibility Score: inf
ROOT
ATOM      1  C   UNL     1      24.880 -25.831  27.701  1.00  0.00     0.180 A 
ATOM      2  C   UNL     1      23.815 -25.804  26.785  1.00  0.00     0.208 A 
ATOM      3  C   UNL     1      24.007 -25.191  25.537  1.00  0.00     0.238 A 
ATOM      4  O   UNL     1      23.068 -25.217  24.699  1.00  0.00    -0.285 OA
ATOM      5  C   UNL     1      25.255 -24.598  25.227  1.00  0.00     0.111 A 
ATOM      6  C   UNL     1      25.547 -23.914  24.009  1.00  0.00     0.134 A 
ATOM      7  C   UNL     1      26.854 -23.481  23.757  1.00  0.00     0.093 A 
ATOM      8  C   UNL     1      27.864 -23.648  24.703  1.00  0.00     0.123 A 
ATOM      9  C   UNL     1      27.575 -24.262  25.923  1.00  0.00     0.094 A 
ATOM     10  C   UNL     1      26.289 -24.737  26.189  1.00  0.00     0.146 A 
ATOM     11  O   UNL     1      26.058 -25.325  27.356  1.00  0.00    -0.452 OA
ENDROOT
BRANCH   1  12
ATOM     12  C   UNL     1      24.747 -26.439  29.046  1.00  0.00     0.025 A 
ATOM     13  C   UNL     1      24.078 -25.774  30.085  1.00  0.00     0.016 A 
ATOM     14  C   UNL     1      23.986 -26.355  31.351  1.00  0.00     0.051 A 
ATOM     15  C   UNL     1      24.569 -27.600  31.610  1.00  0.00     0.157 A 
ATOM     16  C   UNL     1      25.352 -27.678  29.309  1.00  0.00     0.062 A 
ATOM     17  C   UNL     1      25.265 -28.269  30.575  1.00  0.00     0.158 A 
BRANCH  15  18
ATOM     18  O   UNL     1      24.438 -28.128  32.895  1.00  0.00    -0.504 OA
ATOM     19  H   UNL     1      25.215 -28.438  33.460  1.00  0.00     0.293 HD
ENDBRANCH  15  18
BRANCH  17  20
ATOM     20  O   UNL     1      25.881 -29.509  30.760  1.00  0.00    -0.504 OA
ATOM     21  H   UNL     1      26.750 -29.778  30.321  1.00  0.00     0.293 HD
ENDBRANCH  17  20
ENDBRANCH   1  12
BRANCH   2  22
ATOM     22  O   UNL     1      22.599 -26.415  27.102  1.00  0.00    -0.502 OA
ATOM     23  H   UNL     1      22.520 -27.138  27.807  1.00  0.00     0.293 HD
ENDBRANCH   2  22
BRANCH   6  24
ATOM     24  O   UNL     1      24.591 -23.613  23.034  1.00  0.00    -0.507 OA
ATOM     25  H   UNL     1      24.717 -23.753  22.042  1.00  0.00     0.293 HD
ENDBRANCH   6  24
BRANCH   8  26
ATOM     26  O   UNL     1      29.151 -23.190  24.425  1.00  0.00    -0.508 OA
ATOM     27  H   UNL     1      29.968 -23.630  24.831  1.00  0.00     0.293 HD
ENDBRANCH   8  26
TORSDOF 6
ENDMDL
MODEL 9
REMARK VINA RESULT:    -6.812      5.735     10.675
REMARK INTER + INTRA:          -8.440
REMARK INTER:                  -8.149
REMARK INTRA:                  -0.290
REMARK UNBOUND:                -0.234
REMARK SMILES O=c1c(O)c(-c2ccc(O)c(O)c2)oc2cc(O)cc(O)c12
REMARK SMILES IDX 5 1 3 2 2 3 1 4 22 5 20 6 19 7 17 8 16 9 15 10 14 11 6 12
REMARK SMILES IDX 7 13 8 14 9 15 13 16 11 17 10 18 12 20 4 22 21 24 18 26
REMARK H PARENT 10 19 12 21 4 23 21 25 18 27
REMARK Flexibility Score: inf
ROOT
ATOM      1  C   UNL     1      25.998 -28.053  35.875  1.00  0.00     0.180 A 
ATOM      2  C   UNL     1      25.331 -28.888  36.788  1.00  0.00     0.208 A 
ATOM      3  C   UNL     1      25.382 -28.578  38.156  1.00  0.00     0.238 A 
ATOM      4  O   UNL     1      24.738 -29.298  38.963  1.00  0.00    -0.285 OA
ATOM      5  C   UNL     1      26.112 -27.448  38.596  1.00  0.00     0.111 A 
ATOM      6  C   UNL     1      26.263 -27.063  39.962  1.00  0.00     0.134 A 
ATOM      7  C   UNL     1      26.897 -25.854  40.272  1.00  0.00     0.093 A 
ATOM      8  C   UNL     1      27.441 -25.049  39.273  1.00  0.00     0.123 A 
ATOM      9  C   UNL     1      27.351 -25.445  37.938  1.00  0.00     0.094 A 
ATOM     10  C   UNL     1      26.693 -26.628  37.594  1.00  0.00     0.146 A 
ATOM     11  O   UNL     1      26.619 -26.964  36.312  1.00  0.00    -0.452 OA
ENDROOT
BRANCH   1  12
ATOM     12  C   UNL     1      26.011 -28.328  34.419  1.00  0.00     0.025 A 
ATOM     13  C   UNL     1      24.918 -27.997  33.604  1.00  0.00     0.016 A 
ATOM     14  C   UNL     1      24.943 -28.287  32.239  1.00  0.00     0.051 A 
ATOM     15  C   UNL     1      26.047 -28.925  31.663  1.00  0.00     0.157 A 
ATOM     16  C   UNL     1      27.111 -28.987  33.849  1.00  0.00     0.062 A 
ATOM     17  C   UNL     1      27.145 -29.283  32.481  1.00  0.00     0.158 A 
BRANCH  15  18
ATOM     18  O   UNL     1      26.010 -29.183  30.292  1.00  0.00    -0.504 OA
ATOM     19  H   UNL     1      26.708 -28.858  29.638  1.00  0.00     0.293 HD
ENDBRANCH  15  18
BRANCH  17  20
ATOM     20  O   UNL     1      28.277 -29.930  31.981  1.00  0.00    -0.504 OA
ATOM     21  H   UNL     1      28.325 -30.361  31.069  1.00  0.00     0.293 HD
ENDBRANCH  17  20
ENDBRANCH   1  12
BRANCH   2  22
ATOM     22  O   UNL     1      24.598 -29.986  36.330  1.00  0.00    -0.502 OA
ATOM     23  H   UNL     1      23.869 -30.423  36.881  1.00  0.00     0.293 HD
ENDBRANCH   2  22
BRANCH   6  24
ATOM     24  O   UNL     1      25.837 -27.840  41.044  1.00  0.00    -0.507 OA
ATOM     25  H   UNL     1      26.452 -28.309  41.692  1.00  0.00     0.293 HD
ENDBRANCH   6  24
BRANCH   8  26
ATOM     26  O   UNL     1      28.080 -23.859  39.620  1.00  0.00    -0.508 OA
ATOM     27  H   UNL     1      28.705 -23.806  40.416  1.00  0.00     0.293 HD
ENDBRANCH   8  26
TORSDOF 6
ENDMDL
