MODEL 1
REMARK VINA RESULT:    -2.658      0.000      0.000
REMARK INTER + INTRA:          -2.658
REMARK INTER:                  -2.658
REMARK INTRA:                   0.000
REMARK UNBOUND:                 0.000
REMARK SMILES CC(=O)[O-]
REMARK SMILES IDX 1 1 2 2 3 3 4 4
REMARK H PARENT
REMARK Flexibility Score: inf
ROOT
ATOM      1  C   UNL     1      46.691  10.875 -30.495  1.00  0.00     0.063 C 
ATOM      2  C   UNL     1      46.130  12.092 -31.149  1.00  0.00     0.038 C 
ATOM      3  O   UNL     1      45.338  12.840 -30.518  1.00  0.00    -0.550 OA
ATOM      4  O   UNL     1      46.435  12.374 -32.474  1.00  0.00    -0.550 OA
ENDROOT
TORSDOF 0
ENDMDL
MODEL 2
REMARK VINA RESULT:    -2.560      1.278      1.800
REMARK INTER + INTRA:          -2.560
REMARK INTER:                  -2.560
REMARK INTRA:                   0.000
REMARK UNBOUND:                 0.000
REMARK SMILES CC(=O)[O-]
REMARK SMILES IDX 1 1 2 2 3 3 4 4
REMARK H PARENT
REMARK Flexibility Score: inf
ROOT
ATOM      1  C   UNL     1      45.478  12.686 -32.732  1.00  0.00     0.063 C 
ATOM      2  C   UNL     1      45.858  12.248 -31.358  1.00  0.00     0.038 C 
ATOM      3  O   UNL     1      45.330  12.792 -30.353  1.00  0.00    -0.550 OA
ATOM      4  O   UNL     1      46.836  11.278 -31.182  1.00  0.00    -0.550 OA
ENDROOT
TORSDOF 0
ENDMDL
MODEL 3
REMARK VINA RESULT:    -2.548      1.773      1.964
REMARK INTER + INTRA:          -2.548
REMARK INTER:                  -2.548
REMARK INTRA:                   0.000
REMARK UNBOUND:                 0.000
REMARK SMILES CC(=O)[O-]
REMARK SMILES IDX 1 1 2 2 3 3 4 4
REMARK H PARENT
REMARK Flexibility Score: inf
ROOT
ATOM      1  C   UNL     1      45.514  12.682 -30.617  1.00  0.00     0.063 C 
ATOM      2  C   UNL     1      45.827  12.470 -32.059  1.00  0.00     0.038 C 
ATOM      3  O   UNL     1      46.978  12.099 -32.408  1.00  0.00    -0.550 OA
ATOM      4  O   UNL     1      44.866  12.736 -33.026  1.00  0.00    -0.550 OA
ENDROOT
TORSDOF 0
ENDMDL
MODEL 4
REMARK VINA RESULT:    -2.458      1.749      2.591
REMARK INTER + INTRA:          -2.458
REMARK INTER:                  -2.458
REMARK INTRA:                   0.000
REMARK UNBOUND:                 0.000
REMARK SMILES CC(=O)[O-]
REMARK SMILES IDX 1 1 2 2 3 3 4 4
REMARK H PARENT
REMARK Flexibility Score: inf
ROOT
ATOM      1  C   UNL     1      45.508  12.759 -30.692  1.00  0.00     0.063 C 
ATOM      2  C   UNL     1      46.273  11.554 -30.263  1.00  0.00     0.038 C 
ATOM      3  O   UNL     1      46.952  10.904 -31.102  1.00  0.00    -0.550 OA
ATOM      4  O   UNL     1      46.197  11.111 -28.949  1.00  0.00    -0.550 OA
ENDROOT
TORSDOF 0
ENDMDL
MODEL 5
REMARK VINA RESULT:    -2.362      7.179      7.499
REMARK INTER + INTRA:          -2.362
REMARK INTER:                  -2.362
REMARK INTRA:                   0.000
REMARK UNBOUND:                 0.000
REMARK SMILES CC(=O)[O-]
REMARK SMILES IDX 1 1 2 2 3 3 4 4
REMARK H PARENT
REMARK Flexibility Score: inf
ROOT
ATOM      1  C   UNL     1      41.598  12.774 -36.058  1.00  0.00     0.063 C 
ATOM      2  C   UNL     1      40.762  13.987 -35.828  1.00  0.00     0.038 C 
ATOM      3  O   UNL     1      41.306  15.083 -35.528  1.00  0.00    -0.550 OA
ATOM      4  O   UNL     1      39.377  13.901 -35.888  1.00  0.00    -0.550 OA
ENDROOT
TORSDOF 0
ENDMDL
MODEL 6
REMARK VINA RESULT:    -2.235      7.359      7.696
REMARK INTER + INTRA:          -2.235
REMARK INTER:                  -2.235
REMARK INTRA:                   0.000
REMARK UNBOUND:                 0.000
REMARK SMILES CC(=O)[O-]
REMARK SMILES IDX 1 1 2 2 3 3 4 4
REMARK H PARENT
REMARK Flexibility Score: inf
ROOT
ATOM      1  C   UNL     1      39.134  13.982 -35.791  1.00  0.00     0.063 C 
ATOM      2  C   UNL     1      40.624  13.960 -35.806  1.00  0.00     0.038 C 
ATOM      3  O   UNL     1      41.274  15.007 -35.547  1.00  0.00    -0.550 OA
ATOM      4  O   UNL     1      41.301  12.800 -36.158  1.00  0.00    -0.550 OA
ENDROOT
TORSDOF 0
ENDMDL
MODEL 7
REMARK VINA RESULT:    -2.208     19.932     20.357
REMARK INTER + INTRA:          -2.208
REMARK INTER:                  -2.208
REMARK INTRA:                   0.000
REMARK UNBOUND:                 0.000
REMARK SMILES CC(=O)[O-]
REMARK SMILES IDX 1 1 2 2 3 3 4 4
REMARK H PARENT
REMARK Flexibility Score: inf
ROOT
ATOM      1  C   UNL     1      54.226  27.812 -38.824  1.00  0.00     0.063 C 
ATOM      2  C   UNL     1      54.930  28.970 -38.203  1.00  0.00     0.038 C 
ATOM      3  O   UNL     1      55.321  28.906 -37.008  1.00  0.00    -0.550 OA
ATOM      4  O   UNL     1      55.109  30.144 -38.923  1.00  0.00    -0.550 OA
ENDROOT
TORSDOF 0
ENDMDL
MODEL 8
REMARK VINA RESULT:    -2.172     17.785     18.111
REMARK INTER + INTRA:          -2.172
REMARK INTER:                  -2.172
REMARK INTRA:                   0.000
REMARK UNBOUND:                 0.000
REMARK SMILES CC(=O)[O-]
REMARK SMILES IDX 1 1 2 2 3 3 4 4
REMARK H PARENT
REMARK Flexibility Score: inf
ROOT
ATOM      1  C   UNL     1      55.351  25.658 -35.347  1.00  0.00     0.063 C 
ATOM      2  C   UNL     1      55.770  26.949 -34.730  1.00  0.00     0.038 C 
ATOM      3  O   UNL     1      55.959  27.024 -33.487  1.00  0.00    -0.550 OA
ATOM      4  O   UNL     1      55.901  28.086 -35.516  1.00  0.00    -0.550 OA
ENDROOT
TORSDOF 0
ENDMDL
MODEL 9
REMARK VINA RESULT:    -2.114      8.994      9.297
REMARK INTER + INTRA:          -2.114
REMARK INTER:                  -2.114
REMARK INTRA:                   0.000
REMARK UNBOUND:                 0.000
REMARK SMILES CC(=O)[O-]
REMARK SMILES IDX 1 1 2 2 3 3 4 4
REMARK H PARENT
REMARK Flexibility Score: inf
ROOT
ATOM      1  C   UNL     1      37.688  13.395 -36.738  1.00  0.00     0.063 C 
ATOM      2  C   UNL     1      38.458  14.139 -35.700  1.00  0.00     0.038 C 
ATOM      3  O   UNL     1      37.862  14.908 -34.901  1.00  0.00    -0.550 OA
ATOM      4  O   UNL     1      39.841  14.029 -35.647  1.00  0.00    -0.550 OA
ENDROOT
TORSDOF 0
ENDMDL
