MODEL 1
REMARK VINA RESULT:    -4.446      0.000      0.000
REMARK INTER + INTRA:          -4.804
REMARK INTER:                  -4.706
REMARK INTRA:                  -0.098
REMARK UNBOUND:                -0.098
REMARK SMILES C=C(C)[C@@H]1CC=C(C)C(=O)C1
REMARK SMILES IDX 8 1 7 2 6 3 5 4 4 5 11 6 9 7 10 8 2 9 1 10 3 11
REMARK H PARENT
REMARK Flexibility Score: inf
ROOT
ATOM      1  C   UNL     1     -14.702  -0.406 -11.618  1.00  0.00     0.048 C 
ATOM      2  C   UNL     1     -14.130   0.925 -12.022  1.00  0.00    -0.012 C 
ATOM      3  C   UNL     1     -14.952   1.954 -12.288  1.00  0.00    -0.019 C 
ATOM      4  C   UNL     1     -14.432   3.312 -12.679  1.00  0.00     0.036 C 
ATOM      5  C   UNL     1     -13.122   3.193 -13.481  1.00  0.00     0.025 C 
ATOM      6  C   UNL     1     -12.083   2.377 -12.689  1.00  0.00     0.089 C 
ATOM      7  C   UNL     1     -12.669   1.063 -12.247  1.00  0.00     0.158 C 
ATOM      8  O   UNL     1     -11.899   0.088 -12.034  1.00  0.00    -0.295 OA
ENDROOT
BRANCH   5   9
ATOM      9  C   UNL     1     -12.578   4.561 -13.875  1.00  0.00    -0.077 C 
ATOM     10  C   UNL     1     -11.257   4.807 -13.902  1.00  0.00     0.008 C 
ATOM     11  C   UNL     1     -13.527   5.673 -14.243  1.00  0.00     0.039 C 
ENDBRANCH   5   9
TORSDOF 1
ENDMDL
MODEL 2
REMARK VINA RESULT:    -4.278      1.577      4.402
REMARK INTER + INTRA:          -4.626
REMARK INTER:                  -4.531
REMARK INTRA:                  -0.095
REMARK UNBOUND:                -0.098
REMARK SMILES C=C(C)[C@@H]1CC=C(C)C(=O)C1
REMARK SMILES IDX 8 1 7 2 6 3 5 4 4 5 11 6 9 7 10 8 2 9 1 10 3 11
REMARK H PARENT
REMARK Flexibility Score: inf
ROOT
ATOM      1  C   UNL     1     -13.219   5.097 -14.034  1.00  0.00     0.048 C 
ATOM      2  C   UNL     1     -13.329   3.702 -13.483  1.00  0.00    -0.012 C 
ATOM      3  C   UNL     1     -14.355   3.379 -12.678  1.00  0.00    -0.019 C 
ATOM      4  C   UNL     1     -14.522   1.993 -12.114  1.00  0.00     0.036 C 
ATOM      5  C   UNL     1     -13.155   1.328 -11.862  1.00  0.00     0.025 C 
ATOM      6  C   UNL     1     -12.313   1.335 -13.151  1.00  0.00     0.089 C 
ATOM      7  C   UNL     1     -12.239   2.724 -13.727  1.00  0.00     0.158 C 
ATOM      8  O   UNL     1     -11.256   3.036 -14.452  1.00  0.00    -0.295 OA
ENDROOT
BRANCH   5   9
ATOM      9  C   UNL     1     -13.309  -0.079 -11.300  1.00  0.00    -0.077 C 
ATOM     10  C   UNL     1     -14.408  -0.814 -11.546  1.00  0.00     0.008 C 
ATOM     11  C   UNL     1     -12.218  -0.676 -10.448  1.00  0.00     0.039 C 
ENDBRANCH   5   9
TORSDOF 1
ENDMDL
MODEL 3
REMARK VINA RESULT:    -4.185      7.942      8.957
REMARK INTER + INTRA:          -4.528
REMARK INTER:                  -4.431
REMARK INTRA:                  -0.097
REMARK UNBOUND:                -0.098
REMARK SMILES C=C(C)[C@@H]1CC=C(C)C(=O)C1
REMARK SMILES IDX 8 1 7 2 6 3 5 4 4 5 11 6 9 7 10 8 2 9 1 10 3 11
REMARK H PARENT
REMARK Flexibility Score: inf
ROOT
ATOM      1  C   UNL     1      -4.075  -1.125  -9.319  1.00  0.00     0.048 C 
ATOM      2  C   UNL     1      -4.260   0.282  -9.818  1.00  0.00    -0.012 C 
ATOM      3  C   UNL     1      -4.925   1.176  -9.066  1.00  0.00    -0.019 C 
ATOM      4  C   UNL     1      -5.123   2.601  -9.508  1.00  0.00     0.036 C 
ATOM      5  C   UNL     1      -5.250   2.693 -11.041  1.00  0.00     0.025 C 
ATOM      6  C   UNL     1      -4.032   2.036 -11.718  1.00  0.00     0.089 C 
ATOM      7  C   UNL     1      -3.820   0.644 -11.188  1.00  0.00     0.158 C 
ATOM      8  O   UNL     1      -3.229  -0.204 -11.910  1.00  0.00    -0.295 OA
ENDROOT
BRANCH   5   9
ATOM      9  C   UNL     1      -5.441   4.131 -11.505  1.00  0.00    -0.077 C 
ATOM     10  C   UNL     1      -4.696   4.652 -12.496  1.00  0.00     0.008 C 
ATOM     11  C   UNL     1      -6.481   5.004 -10.849  1.00  0.00     0.039 C 
ENDBRANCH   5   9
TORSDOF 1
ENDMDL
MODEL 4
REMARK VINA RESULT:    -4.178     16.521     17.777
REMARK INTER + INTRA:          -4.520
REMARK INTER:                  -4.423
REMARK INTRA:                  -0.096
REMARK UNBOUND:                -0.098
REMARK SMILES C=C(C)[C@@H]1CC=C(C)C(=O)C1
REMARK SMILES IDX 8 1 7 2 6 3 5 4 4 5 11 6 9 7 10 8 2 9 1 10 3 11
REMARK H PARENT
REMARK Flexibility Score: inf
ROOT
ATOM      1  C   UNL     1      -4.043  14.402 -24.802  1.00  0.00     0.048 C 
ATOM      2  C   UNL     1      -4.348  12.932 -24.890  1.00  0.00    -0.012 C 
ATOM      3  C   UNL     1      -3.354  12.055 -25.111  1.00  0.00    -0.019 C 
ATOM      4  C   UNL     1      -3.601  10.572 -25.189  1.00  0.00     0.036 C 
ATOM      5  C   UNL     1      -4.990  10.272 -25.784  1.00  0.00     0.025 C 
ATOM      6  C   UNL     1      -6.083  11.003 -24.983  1.00  0.00     0.089 C 
ATOM      7  C   UNL     1      -5.757  12.467 -24.857  1.00  0.00     0.158 C 
ATOM      8  O   UNL     1      -6.694  13.293 -24.687  1.00  0.00    -0.295 OA
ENDROOT
BRANCH   5   9
ATOM      9  C   UNL     1      -5.258   8.775 -25.861  1.00  0.00    -0.077 C 
ATOM     10  C   UNL     1      -4.362   7.880 -25.410  1.00  0.00     0.008 C 
ATOM     11  C   UNL     1      -6.548   8.268 -26.453  1.00  0.00     0.039 C 
ENDBRANCH   5   9
TORSDOF 1
ENDMDL
MODEL 5
REMARK VINA RESULT:    -4.167      5.571      8.644
REMARK INTER + INTRA:          -4.508
REMARK INTER:                  -4.412
REMARK INTRA:                  -0.096
REMARK UNBOUND:                -0.098
REMARK SMILES C=C(C)[C@@H]1CC=C(C)C(=O)C1
REMARK SMILES IDX 8 1 7 2 6 3 5 4 4 5 11 6 9 7 10 8 2 9 1 10 3 11
REMARK H PARENT
REMARK Flexibility Score: inf
ROOT
ATOM      1  C   UNL     1     -14.388  12.933 -15.513  1.00  0.00     0.048 C 
ATOM      2  C   UNL     1     -14.070  11.473 -15.686  1.00  0.00    -0.012 C 
ATOM      3  C   UNL     1     -14.503  10.818 -16.777  1.00  0.00    -0.019 C 
ATOM      4  C   UNL     1     -14.198   9.363 -17.009  1.00  0.00     0.036 C 
ATOM      5  C   UNL     1     -14.117   8.594 -15.676  1.00  0.00     0.025 C 
ATOM      6  C   UNL     1     -13.095   9.262 -14.736  1.00  0.00     0.089 C 
ATOM      7  C   UNL     1     -13.388  10.731 -14.596  1.00  0.00     0.158 C 
ATOM      8  O   UNL     1     -13.013  11.336 -13.555  1.00  0.00    -0.295 OA
ENDROOT
BRANCH   5   9
ATOM      9  C   UNL     1     -13.798   7.121 -15.894  1.00  0.00    -0.077 C 
ATOM     10  C   UNL     1     -13.768   6.587 -17.128  1.00  0.00     0.008 C 
ATOM     11  C   UNL     1     -13.510   6.228 -14.715  1.00  0.00     0.039 C 
ENDBRANCH   5   9
TORSDOF 1
ENDMDL
MODEL 6
REMARK VINA RESULT:    -4.142      6.553      8.870
REMARK INTER + INTRA:          -4.482
REMARK INTER:                  -4.386
REMARK INTRA:                  -0.096
REMARK UNBOUND:                -0.098
REMARK SMILES C=C(C)[C@@H]1CC=C(C)C(=O)C1
REMARK SMILES IDX 8 1 7 2 6 3 5 4 4 5 11 6 9 7 10 8 2 9 1 10 3 11
REMARK H PARENT
REMARK Flexibility Score: inf
ROOT
ATOM      1  C   UNL     1      -8.887  11.252  -9.765  1.00  0.00     0.048 C 
ATOM      2  C   UNL     1      -8.620   9.873 -10.302  1.00  0.00    -0.012 C 
ATOM      3  C   UNL     1      -9.642   9.021 -10.495  1.00  0.00    -0.019 C 
ATOM      4  C   UNL     1      -9.433   7.636 -11.047  1.00  0.00     0.036 C 
ATOM      5  C   UNL     1      -8.073   7.062 -10.604  1.00  0.00     0.025 C 
ATOM      6  C   UNL     1      -6.936   8.023 -10.996  1.00  0.00     0.089 C 
ATOM      7  C   UNL     1      -7.222   9.414 -10.497  1.00  0.00     0.158 C 
ATOM      8  O   UNL     1      -6.260  10.199 -10.281  1.00  0.00    -0.295 OA
ENDROOT
BRANCH   5   9
ATOM      9  C   UNL     1      -7.844   5.664 -11.164  1.00  0.00    -0.077 C 
ATOM     10  C   UNL     1      -8.777   5.048 -11.911  1.00  0.00     0.008 C 
ATOM     11  C   UNL     1      -6.552   4.941 -10.882  1.00  0.00     0.039 C 
ENDBRANCH   5   9
TORSDOF 1
ENDMDL
MODEL 7
REMARK VINA RESULT:    -4.089     12.782     13.722
REMARK INTER + INTRA:          -4.426
REMARK INTER:                  -4.330
REMARK INTRA:                  -0.096
REMARK UNBOUND:                -0.098
REMARK SMILES C=C(C)[C@@H]1CC=C(C)C(=O)C1
REMARK SMILES IDX 8 1 7 2 6 3 5 4 4 5 11 6 9 7 10 8 2 9 1 10 3 11
REMARK H PARENT
REMARK Flexibility Score: inf
ROOT
ATOM      1  C   UNL     1      -0.249   6.373 -14.670  1.00  0.00     0.048 C 
ATOM      2  C   UNL     1      -0.714   7.474 -13.757  1.00  0.00    -0.012 C 
ATOM      3  C   UNL     1      -1.247   7.170 -12.561  1.00  0.00    -0.019 C 
ATOM      4  C   UNL     1      -1.712   8.233 -11.601  1.00  0.00     0.036 C 
ATOM      5  C   UNL     1      -2.254   9.462 -12.355  1.00  0.00     0.025 C 
ATOM      6  C   UNL     1      -1.197   9.991 -13.343  1.00  0.00     0.089 C 
ATOM      7  C   UNL     1      -0.700   8.881 -14.229  1.00  0.00     0.158 C 
ATOM      8  O   UNL     1      -0.234   9.164 -15.365  1.00  0.00    -0.295 OA
ENDROOT
BRANCH   5   9
ATOM      9  C   UNL     1      -2.719  10.550 -11.396  1.00  0.00    -0.077 C 
ATOM     10  C   UNL     1      -2.045  11.707 -11.271  1.00  0.00     0.008 C 
ATOM     11  C   UNL     1      -3.956  10.342 -10.561  1.00  0.00     0.039 C 
ENDBRANCH   5   9
TORSDOF 1
ENDMDL
MODEL 8
REMARK VINA RESULT:    -4.064      8.488      9.789
REMARK INTER + INTRA:          -4.399
REMARK INTER:                  -4.303
REMARK INTRA:                  -0.096
REMARK UNBOUND:                -0.098
REMARK SMILES C=C(C)[C@@H]1CC=C(C)C(=O)C1
REMARK SMILES IDX 8 1 7 2 6 3 5 4 4 5 11 6 9 7 10 8 2 9 1 10 3 11
REMARK H PARENT
REMARK Flexibility Score: inf
ROOT
ATOM      1  C   UNL     1     -16.359   5.658 -22.132  1.00  0.00     0.048 C 
ATOM      2  C   UNL     1     -16.275   4.189 -21.825  1.00  0.00    -0.012 C 
ATOM      3  C   UNL     1     -17.105   3.328 -22.440  1.00  0.00    -0.019 C 
ATOM      4  C   UNL     1     -17.052   1.846 -22.183  1.00  0.00     0.036 C 
ATOM      5  C   UNL     1     -16.633   1.550 -20.729  1.00  0.00     0.025 C 
ATOM      6  C   UNL     1     -15.297   2.246 -20.407  1.00  0.00     0.089 C 
ATOM      7  C   UNL     1     -15.366   3.708 -20.755  1.00  0.00     0.158 C 
ATOM      8  O   UNL     1     -14.613   4.519 -20.151  1.00  0.00    -0.295 OA
ENDROOT
BRANCH   5   9
ATOM      9  C   UNL     1     -16.565   0.053 -20.458  1.00  0.00    -0.077 C 
ATOM     10  C   UNL     1     -16.690  -0.845 -21.451  1.00  0.00     0.008 C 
ATOM     11  C   UNL     1     -16.356  -0.451 -19.052  1.00  0.00     0.039 C 
ENDBRANCH   5   9
TORSDOF 1
ENDMDL
MODEL 9
REMARK VINA RESULT:    -4.026     12.142     13.856
REMARK INTER + INTRA:          -4.359
REMARK INTER:                  -4.263
REMARK INTRA:                  -0.096
REMARK UNBOUND:                -0.098
REMARK SMILES C=C(C)[C@@H]1CC=C(C)C(=O)C1
REMARK SMILES IDX 8 1 7 2 6 3 5 4 4 5 11 6 9 7 10 8 2 9 1 10 3 11
REMARK H PARENT
REMARK Flexibility Score: inf
ROOT
ATOM      1  C   UNL     1      -2.222  11.918 -10.979  1.00  0.00     0.048 C 
ATOM      2  C   UNL     1      -2.127  10.615 -11.724  1.00  0.00    -0.012 C 
ATOM      3  C   UNL     1      -2.877   9.568 -11.340  1.00  0.00    -0.019 C 
ATOM      4  C   UNL     1      -2.835   8.247 -12.061  1.00  0.00     0.036 C 
ATOM      5  C   UNL     1      -1.431   7.973 -12.633  1.00  0.00     0.025 C 
ATOM      6  C   UNL     1      -0.982   9.141 -13.530  1.00  0.00     0.089 C 
ATOM      7  C   UNL     1      -1.118  10.450 -12.800  1.00  0.00     0.158 C 
ATOM      8  O   UNL     1      -0.387  11.421 -13.138  1.00  0.00    -0.295 OA
ENDROOT
BRANCH   5   9
ATOM      9  C   UNL     1      -1.376   6.644 -13.375  1.00  0.00    -0.077 C 
ATOM     10  C   UNL     1      -2.302   5.690 -13.171  1.00  0.00     0.008 C 
ATOM     11  C   UNL     1      -0.267   6.374 -14.359  1.00  0.00     0.039 C 
ENDBRANCH   5   9
TORSDOF 1
ENDMDL
