MODEL 1
REMARK VINA RESULT:    -5.731      0.000      0.000
REMARK INTER + INTRA:          -7.603
REMARK INTER:                  -7.741
REMARK INTRA:                   0.138
REMARK UNBOUND:                 0.138
REMARK SMILES O=c1c(-c2ccc(O)cc2)coc2c([C@@H]3O[C@@H](CO)[C@@H](O)[C@@H](O)[C@H]3O)c(O)ccc12
REMARK SMILES IDX 3 1 11 2 12 3 13 4 30 5 2 6 1 7 29 8 28 9 26 10 14 11 4 12
REMARK SMILES IDX 5 13 6 14 7 15 10 16 9 17 8 18 15 20 24 21 16 22 22 23 17 24
REMARK SMILES IDX 20 25 25 26 23 28 18 30 19 31 21 33 27 35
REMARK H PARENT 8 19 25 27 23 29 19 32 21 34 27 36
REMARK Flexibility Score: inf
ROOT
ATOM      1  C   UNL     1     -25.964  -2.103   8.906  1.00  0.00     0.065 A 
ATOM      2  C   UNL     1     -24.635  -1.676   8.779  1.00  0.00     0.208 A 
ATOM      3  O   UNL     1     -23.636  -2.548   8.794  1.00  0.00    -0.463 OA
ATOM      4  C   UNL     1     -23.809  -3.862   8.923  1.00  0.00     0.147 A 
ATOM      5  C   UNL     1     -25.119  -4.377   9.065  1.00  0.00     0.066 A 
ATOM      6  C   UNL     1     -26.204  -3.481   9.046  1.00  0.00     0.200 A 
ATOM      7  O   UNL     1     -27.388  -3.913   9.132  1.00  0.00    -0.288 OA
ATOM      8  C   UNL     1     -25.308  -5.753   9.221  1.00  0.00     0.020 A 
ATOM      9  C   UNL     1     -24.213  -6.608   9.262  1.00  0.00     0.047 A 
ATOM     10  C   UNL     1     -22.906  -6.118   9.128  1.00  0.00     0.125 A 
ATOM     11  C   UNL     1     -22.682  -4.727   8.917  1.00  0.00     0.069 A 
ENDROOT
BRANCH   1  12
ATOM     12  C   UNL     1     -27.066  -1.108   8.889  1.00  0.00    -0.011 A 
ATOM     13  C   UNL     1     -27.452  -0.458  10.074  1.00  0.00     0.013 A 
ATOM     14  C   UNL     1     -28.495   0.473  10.063  1.00  0.00     0.047 A 
ATOM     15  C   UNL     1     -29.168   0.762   8.872  1.00  0.00     0.115 A 
ATOM     16  C   UNL     1     -27.751  -0.819   7.696  1.00  0.00     0.013 A 
ATOM     17  C   UNL     1     -28.795   0.112   7.688  1.00  0.00     0.047 A 
BRANCH  15  18
ATOM     18  O   UNL     1     -30.205   1.691   8.876  1.00  0.00    -0.508 OA
ATOM     19  H   UNL     1     -30.390   2.283   8.073  1.00  0.00     0.293 HD
ENDBRANCH  15  18
ENDBRANCH   1  12
BRANCH  11  20
ATOM     20  C   UNL     1     -21.296  -4.069   8.727  1.00  0.00     0.188 C 
ATOM     21  C   UNL     1     -20.031  -4.949   8.501  1.00  0.00     0.179 C 
ATOM     22  O   UNL     1     -21.347  -3.044   7.739  1.00  0.00    -0.362 OA
ATOM     23  C   UNL     1     -20.007  -5.507   7.059  1.00  0.00     0.177 C 
ATOM     24  C   UNL     1     -21.483  -3.583   6.432  1.00  0.00     0.176 C 
ATOM     25  C   UNL     1     -20.222  -4.378   6.034  1.00  0.00     0.177 C 
BRANCH  21  26
ATOM     26  O   UNL     1     -18.882  -4.161   8.699  1.00  0.00    -0.387 OA
ATOM     27  H   UNL     1     -18.260  -4.355   7.949  1.00  0.00     0.211 HD
ENDBRANCH  21  26
BRANCH  23  28
ATOM     28  O   UNL     1     -18.789  -6.159   6.805  1.00  0.00    -0.387 OA
ATOM     29  H   UNL     1     -19.013  -7.024   6.375  1.00  0.00     0.211 HD
ENDBRANCH  23  28
BRANCH  24  30
ATOM     30  C   UNL     1     -21.790  -2.448   5.442  1.00  0.00     0.191 C 
BRANCH  30  31
ATOM     31  O   UNL     1     -22.582  -1.451   6.031  1.00  0.00    -0.394 OA
ATOM     32  H   UNL     1     -21.997  -0.660   6.163  1.00  0.00     0.210 HD
ENDBRANCH  30  31
ENDBRANCH  24  30
BRANCH  25  33
ATOM     33  O   UNL     1     -19.104  -3.526   5.998  1.00  0.00    -0.388 OA
ATOM     34  H   UNL     1     -18.310  -4.098   5.821  1.00  0.00     0.211 HD
ENDBRANCH  25  33
ENDBRANCH  11  20
BRANCH  10  35
ATOM     35  O   UNL     1     -21.860  -7.031   9.220  1.00  0.00    -0.507 OA
ATOM     36  H   UNL     1     -20.890  -6.739   9.244  1.00  0.00     0.293 HD
ENDBRANCH  10  35
TORSDOF 9
ENDMDL
MODEL 2
REMARK VINA RESULT:    -5.419      4.434     12.076
REMARK INTER + INTRA:          -7.182
REMARK INTER:                  -7.308
REMARK INTRA:                   0.127
REMARK UNBOUND:                 0.138
REMARK SMILES O=c1c(-c2ccc(O)cc2)coc2c([C@@H]3O[C@@H](CO)[C@@H](O)[C@@H](O)[C@H]3O)c(O)ccc12
REMARK SMILES IDX 3 1 11 2 12 3 13 4 30 5 2 6 1 7 29 8 28 9 26 10 14 11 4 12
REMARK SMILES IDX 5 13 6 14 7 15 10 16 9 17 8 18 15 20 24 21 16 22 22 23 17 24
REMARK SMILES IDX 20 25 25 26 23 28 18 30 19 31 21 33 27 35
REMARK H PARENT 8 19 25 27 23 29 19 32 21 34 27 36
REMARK Flexibility Score: inf
ROOT
ATOM      1  C   UNL     1     -28.179   2.011   8.894  1.00  0.00     0.065 A 
ATOM      2  C   UNL     1     -29.532   1.649   8.891  1.00  0.00     0.208 A 
ATOM      3  O   UNL     1     -30.484   2.571   8.952  1.00  0.00    -0.463 OA
ATOM      4  C   UNL     1     -30.237   3.878   9.015  1.00  0.00     0.147 A 
ATOM      5  C   UNL     1     -28.897   4.329   9.031  1.00  0.00     0.066 A 
ATOM      6  C   UNL     1     -27.861   3.379   8.959  1.00  0.00     0.200 A 
ATOM      7  O   UNL     1     -26.655   3.752   8.933  1.00  0.00    -0.288 OA
ATOM      8  C   UNL     1     -28.629   5.699   9.117  1.00  0.00     0.020 A 
ATOM      9  C   UNL     1     -29.674   6.610   9.212  1.00  0.00     0.047 A 
ATOM     10  C   UNL     1     -31.009   6.183   9.204  1.00  0.00     0.125 A 
ATOM     11  C   UNL     1     -31.318   4.799   9.066  1.00  0.00     0.069 A 
ENDROOT
BRANCH   1  12
ATOM     12  C   UNL     1     -27.132   0.961   8.827  1.00  0.00    -0.011 A 
ATOM     13  C   UNL     1     -26.679   0.336  10.002  1.00  0.00     0.013 A 
ATOM     14  C   UNL     1     -25.686  -0.647   9.943  1.00  0.00     0.047 A 
ATOM     15  C   UNL     1     -25.131  -1.015   8.714  1.00  0.00     0.115 A 
ATOM     16  C   UNL     1     -26.564   0.592   7.595  1.00  0.00     0.013 A 
ATOM     17  C   UNL     1     -25.572  -0.392   7.539  1.00  0.00     0.047 A 
BRANCH  15  18
ATOM     18  O   UNL     1     -24.143  -1.996   8.670  1.00  0.00    -0.508 OA
ATOM     19  H   UNL     1     -23.341  -1.913   8.057  1.00  0.00     0.293 HD
ENDBRANCH  15  18
ENDBRANCH   1  12
BRANCH  11  20
ATOM     20  C   UNL     1     -32.745   4.207   9.013  1.00  0.00     0.188 C 
ATOM     21  C   UNL     1     -33.984   5.146   8.923  1.00  0.00     0.179 C 
ATOM     22  O   UNL     1     -32.842   3.192   8.020  1.00  0.00    -0.362 OA
ATOM     23  C   UNL     1     -34.128   5.721   7.495  1.00  0.00     0.177 C 
ATOM     24  C   UNL     1     -32.814   3.738   6.709  1.00  0.00     0.176 C 
ATOM     25  C   UNL     1     -34.071   4.594   6.447  1.00  0.00     0.177 C 
BRANCH  21  26
ATOM     26  O   UNL     1     -35.142   4.410   9.232  1.00  0.00    -0.387 OA
ATOM     27  H   UNL     1     -34.914   3.807   9.989  1.00  0.00     0.211 HD
ENDBRANCH  21  26
BRANCH  23  28
ATOM     28  O   UNL     1     -35.334   6.430   7.370  1.00  0.00    -0.387 OA
ATOM     29  H   UNL     1     -35.130   7.249   6.849  1.00  0.00     0.211 HD
ENDBRANCH  23  28
BRANCH  24  30
ATOM     30  C   UNL     1     -32.662   2.601   5.686  1.00  0.00     0.191 C 
BRANCH  30  31
ATOM     31  O   UNL     1     -33.359   2.880   4.500  1.00  0.00    -0.394 OA
ATOM     32  H   UNL     1     -32.679   2.978   3.784  1.00  0.00     0.210 HD
ENDBRANCH  30  31
ENDBRANCH  24  30
BRANCH  25  33
ATOM     33  O   UNL     1     -35.225   3.795   6.519  1.00  0.00    -0.388 OA
ATOM     34  H   UNL     1     -35.885   4.180   5.883  1.00  0.00     0.211 HD
ENDBRANCH  25  33
ENDBRANCH  11  20
BRANCH  10  35
ATOM     35  O   UNL     1     -31.999   7.152   9.343  1.00  0.00    -0.507 OA
ATOM     36  H   UNL     1     -32.398   7.634   8.547  1.00  0.00     0.293 HD
ENDBRANCH  10  35
TORSDOF 9
ENDMDL
MODEL 3
REMARK VINA RESULT:    -5.284      1.663      2.155
REMARK INTER + INTRA:          -7.000
REMARK INTER:                  -7.279
REMARK INTRA:                   0.279
REMARK UNBOUND:                 0.138
REMARK SMILES O=c1c(-c2ccc(O)cc2)coc2c([C@@H]3O[C@@H](CO)[C@@H](O)[C@@H](O)[C@H]3O)c(O)ccc12
REMARK SMILES IDX 3 1 11 2 12 3 13 4 30 5 2 6 1 7 29 8 28 9 26 10 14 11 4 12
REMARK SMILES IDX 5 13 6 14 7 15 10 16 9 17 8 18 15 20 24 21 16 22 22 23 17 24
REMARK SMILES IDX 20 25 25 26 23 28 18 30 19 31 21 33 27 35
REMARK H PARENT 8 19 25 27 23 29 19 32 21 34 27 36
REMARK Flexibility Score: inf
ROOT
ATOM      1  C   UNL     1     -24.924  -2.161   9.072  1.00  0.00     0.065 A 
ATOM      2  C   UNL     1     -23.558  -2.299   9.350  1.00  0.00     0.208 A 
ATOM      3  O   UNL     1     -23.000  -3.499   9.446  1.00  0.00    -0.463 OA
ATOM      4  C   UNL     1     -23.675  -4.637   9.288  1.00  0.00     0.147 A 
ATOM      5  C   UNL     1     -25.061  -4.587   9.012  1.00  0.00     0.066 A 
ATOM      6  C   UNL     1     -25.683  -3.331   8.894  1.00  0.00     0.200 A 
ATOM      7  O   UNL     1     -26.912  -3.252   8.611  1.00  0.00    -0.288 OA
ATOM      8  C   UNL     1     -25.779  -5.778   8.863  1.00  0.00     0.020 A 
ATOM      9  C   UNL     1     -25.139  -7.002   9.010  1.00  0.00     0.047 A 
ATOM     10  C   UNL     1     -23.767  -7.074   9.289  1.00  0.00     0.125 A 
ATOM     11  C   UNL     1     -22.996  -5.881   9.396  1.00  0.00     0.069 A 
ENDROOT
BRANCH   1  12
ATOM     12  C   UNL     1     -25.526  -0.808   8.970  1.00  0.00    -0.011 A 
ATOM     13  C   UNL     1     -25.685  -0.195   7.715  1.00  0.00     0.013 A 
ATOM     14  C   UNL     1     -26.242   1.083   7.617  1.00  0.00     0.047 A 
ATOM     15  C   UNL     1     -26.644   1.766   8.768  1.00  0.00     0.115 A 
ATOM     16  C   UNL     1     -25.924  -0.112  10.125  1.00  0.00     0.013 A 
ATOM     17  C   UNL     1     -26.482   1.166  10.024  1.00  0.00     0.047 A 
BRANCH  15  18
ATOM     18  O   UNL     1     -27.199   3.039   8.655  1.00  0.00    -0.508 OA
ATOM     19  H   UNL     1     -28.163   3.221   8.908  1.00  0.00     0.293 HD
ENDBRANCH  15  18
ENDBRANCH   1  12
BRANCH  11  20
ATOM     20  C   UNL     1     -21.475  -5.826   9.671  1.00  0.00     0.188 C 
ATOM     21  C   UNL     1     -20.599  -7.102   9.497  1.00  0.00     0.179 C 
ATOM     22  O   UNL     1     -20.870  -4.734   8.986  1.00  0.00    -0.362 OA
ATOM     23  C   UNL     1     -20.357  -7.396   7.999  1.00  0.00     0.177 C 
ATOM     24  C   UNL     1     -20.803  -4.966   7.586  1.00  0.00     0.176 C 
ATOM     25  C   UNL     1     -19.850  -6.138   7.271  1.00  0.00     0.177 C 
BRANCH  21  26
ATOM     26  O   UNL     1     -19.356  -6.893  10.122  1.00  0.00    -0.387 OA
ATOM     27  H   UNL     1     -18.893  -6.168   9.623  1.00  0.00     0.211 HD
ENDBRANCH  21  26
BRANCH  23  28
ATOM     28  O   UNL     1     -19.432  -8.443   7.847  1.00  0.00    -0.387 OA
ATOM     29  H   UNL     1     -19.069  -8.370   6.926  1.00  0.00     0.211 HD
ENDBRANCH  23  28
BRANCH  24  30
ATOM     30  C   UNL     1     -20.385  -3.669   6.874  1.00  0.00     0.191 C 
BRANCH  30  31
ATOM     31  O   UNL     1     -21.454  -2.765   6.784  1.00  0.00    -0.394 OA
ATOM     32  H   UNL     1     -21.625  -2.430   7.702  1.00  0.00     0.210 HD
ENDBRANCH  30  31
ENDBRANCH  24  30
BRANCH  25  33
ATOM     33  O   UNL     1     -18.543  -5.823   7.684  1.00  0.00    -0.388 OA
ATOM     34  H   UNL     1     -18.194  -6.615   8.172  1.00  0.00     0.211 HD
ENDBRANCH  25  33
ENDBRANCH  11  20
BRANCH  10  35
ATOM     35  O   UNL     1     -23.207  -8.335   9.462  1.00  0.00    -0.507 OA
ATOM     36  H   UNL     1     -22.706  -8.592  10.305  1.00  0.00     0.293 HD
ENDBRANCH  10  35
TORSDOF 9
ENDMDL
MODEL 4
REMARK VINA RESULT:    -5.245      5.883     13.023
REMARK INTER + INTRA:          -6.947
REMARK INTER:                  -7.191
REMARK INTRA:                   0.243
REMARK UNBOUND:                 0.138
REMARK SMILES O=c1c(-c2ccc(O)cc2)coc2c([C@@H]3O[C@@H](CO)[C@@H](O)[C@@H](O)[C@H]3O)c(O)ccc12
REMARK SMILES IDX 3 1 11 2 12 3 13 4 30 5 2 6 1 7 29 8 28 9 26 10 14 11 4 12
REMARK SMILES IDX 5 13 6 14 7 15 10 16 9 17 8 18 15 20 24 21 16 22 22 23 17 24
REMARK SMILES IDX 20 25 25 26 23 28 18 30 19 31 21 33 27 35
REMARK H PARENT 8 19 25 27 23 29 19 32 21 34 27 36
REMARK Flexibility Score: inf
ROOT
ATOM      1  C   UNL     1     -29.663   2.436   9.084  1.00  0.00     0.065 A 
ATOM      2  C   UNL     1     -31.024   2.659   9.332  1.00  0.00     0.208 A 
ATOM      3  O   UNL     1     -31.503   3.892   9.436  1.00  0.00    -0.463 OA
ATOM      4  C   UNL     1     -30.752   4.985   9.314  1.00  0.00     0.147 A 
ATOM      5  C   UNL     1     -29.365   4.848   9.070  1.00  0.00     0.066 A 
ATOM      6  C   UNL     1     -28.824   3.555   8.945  1.00  0.00     0.200 A 
ATOM      7  O   UNL     1     -27.597   3.400   8.690  1.00  0.00    -0.288 OA
ATOM      8  C   UNL     1     -28.567   5.991   8.960  1.00  0.00     0.020 A 
ATOM      9  C   UNL     1     -29.128   7.252   9.114  1.00  0.00     0.047 A 
ATOM     10  C   UNL     1     -30.499   7.410   9.361  1.00  0.00     0.125 A 
ATOM     11  C   UNL     1     -31.350   6.269   9.428  1.00  0.00     0.069 A 
ENDROOT
BRANCH   1  12
ATOM     12  C   UNL     1     -29.149   1.047   8.973  1.00  0.00    -0.011 A 
ATOM     13  C   UNL     1     -28.960   0.461   7.709  1.00  0.00     0.013 A 
ATOM     14  C   UNL     1     -28.485  -0.850   7.601  1.00  0.00     0.047 A 
ATOM     15  C   UNL     1     -28.197  -1.591   8.751  1.00  0.00     0.115 A 
ATOM     16  C   UNL     1     -28.865   0.294  10.125  1.00  0.00     0.013 A 
ATOM     17  C   UNL     1     -28.390  -1.017  10.014  1.00  0.00     0.047 A 
BRANCH  15  18
ATOM     18  O   UNL     1     -27.724  -2.895   8.628  1.00  0.00    -0.508 OA
ATOM     19  H   UNL     1     -28.267  -3.614   8.164  1.00  0.00     0.293 HD
ENDBRANCH  15  18
ENDBRANCH   1  12
BRANCH  11  20
ATOM     20  C   UNL     1     -32.877   6.311   9.665  1.00  0.00     0.188 C 
ATOM     21  C   UNL     1     -33.656   7.654   9.540  1.00  0.00     0.179 C 
ATOM     22  O   UNL     1     -33.540   5.302   8.911  1.00  0.00    -0.362 OA
ATOM     23  C   UNL     1     -33.837   8.041   8.054  1.00  0.00     0.177 C 
ATOM     24  C   UNL     1     -33.554   5.609   7.524  1.00  0.00     0.176 C 
ATOM     25  C   UNL     1     -34.413   6.861   7.250  1.00  0.00     0.177 C 
BRANCH  21  26
ATOM     26  O   UNL     1     -34.926   7.504  10.125  1.00  0.00    -0.387 OA
ATOM     27  H   UNL     1     -35.399   8.373  10.030  1.00  0.00     0.211 HD
ENDBRANCH  21  26
BRANCH  23  28
ATOM     28  O   UNL     1     -34.680   9.158   7.937  1.00  0.00    -0.387 OA
ATOM     29  H   UNL     1     -34.114   9.960   8.085  1.00  0.00     0.211 HD
ENDBRANCH  23  28
BRANCH  24  30
ATOM     30  C   UNL     1     -34.044   4.384   6.735  1.00  0.00     0.191 C 
BRANCH  30  31
ATOM     31  O   UNL     1     -33.037   3.416   6.611  1.00  0.00    -0.394 OA
ATOM     32  H   UNL     1     -32.535   3.412   7.466  1.00  0.00     0.210 HD
ENDBRANCH  30  31
ENDBRANCH  24  30
BRANCH  25  33
ATOM     33  O   UNL     1     -35.750   6.621   7.616  1.00  0.00    -0.388 OA
ATOM     34  H   UNL     1     -35.741   6.324   8.564  1.00  0.00     0.211 HD
ENDBRANCH  25  33
ENDBRANCH  11  20
BRANCH  10  35
ATOM     35  O   UNL     1     -30.980   8.703   9.543  1.00  0.00    -0.507 OA
ATOM     36  H   UNL     1     -31.764   9.066   9.015  1.00  0.00     0.293 HD
ENDBRANCH  10  35
TORSDOF 9
ENDMDL
MODEL 5
REMARK VINA RESULT:    -5.123      3.769     11.330
REMARK INTER + INTRA:          -6.783
REMARK INTER:                  -7.619
REMARK INTRA:                   0.836
REMARK UNBOUND:                 0.138
REMARK SMILES O=c1c(-c2ccc(O)cc2)coc2c([C@@H]3O[C@@H](CO)[C@@H](O)[C@@H](O)[C@H]3O)c(O)ccc12
REMARK SMILES IDX 3 1 11 2 12 3 13 4 30 5 2 6 1 7 29 8 28 9 26 10 14 11 4 12
REMARK SMILES IDX 5 13 6 14 7 15 10 16 9 17 8 18 15 20 24 21 16 22 22 23 17 24
REMARK SMILES IDX 20 25 25 26 23 28 18 30 19 31 21 33 27 35
REMARK H PARENT 8 19 25 27 23 29 19 32 21 34 27 36
REMARK Flexibility Score: inf
ROOT
ATOM      1  C   UNL     1     -27.851   0.421   8.742  1.00  0.00     0.065 A 
ATOM      2  C   UNL     1     -29.231   0.373   8.983  1.00  0.00     0.208 A 
ATOM      3  O   UNL     1     -29.948   1.488   9.051  1.00  0.00    -0.463 OA
ATOM      4  C   UNL     1     -29.430   2.705   8.898  1.00  0.00     0.147 A 
ATOM      5  C   UNL     1     -28.043   2.842   8.659  1.00  0.00     0.066 A 
ATOM      6  C   UNL     1     -27.253   1.681   8.571  1.00  0.00     0.200 A 
ATOM      7  O   UNL     1     -26.018   1.768   8.321  1.00  0.00    -0.288 OA
ATOM      8  C   UNL     1     -27.489   4.118   8.516  1.00  0.00     0.020 A 
ATOM      9  C   UNL     1     -28.293   5.245   8.632  1.00  0.00     0.047 A 
ATOM     10  C   UNL     1     -29.669   5.132   8.874  1.00  0.00     0.125 A 
ATOM     11  C   UNL     1     -30.274   3.846   8.974  1.00  0.00     0.069 A 
ENDROOT
BRANCH   1  12
ATOM     12  C   UNL     1     -27.069  -0.839   8.671  1.00  0.00    -0.011 A 
ATOM     13  C   UNL     1     -27.695  -2.042   8.302  1.00  0.00     0.013 A 
ATOM     14  C   UNL     1     -26.963  -3.232   8.243  1.00  0.00     0.047 A 
ATOM     15  C   UNL     1     -25.600  -3.237   8.555  1.00  0.00     0.115 A 
ATOM     16  C   UNL     1     -25.700  -0.852   8.992  1.00  0.00     0.013 A 
ATOM     17  C   UNL     1     -24.970  -2.043   8.932  1.00  0.00     0.047 A 
BRANCH  15  18
ATOM     18  O   UNL     1     -24.884  -4.429   8.492  1.00  0.00    -0.508 OA
ATOM     19  H   UNL     1     -24.955  -5.130   9.221  1.00  0.00     0.293 HD
ENDBRANCH  15  18
ENDBRANCH   1  12
BRANCH  11  20
ATOM     20  C   UNL     1     -31.780   3.587   9.210  1.00  0.00     0.188 C 
ATOM     21  C   UNL     1     -32.737   4.767   9.554  1.00  0.00     0.179 C 
ATOM     22  O   UNL     1     -32.338   2.813   8.153  1.00  0.00    -0.362 OA
ATOM     23  C   UNL     1     -33.039   5.608   8.292  1.00  0.00     0.177 C 
ATOM     24  C   UNL     1     -32.459   3.569   6.957  1.00  0.00     0.176 C 
ATOM     25  C   UNL     1     -33.490   4.704   7.130  1.00  0.00     0.177 C 
BRANCH  21  26
ATOM     26  O   UNL     1     -33.946   4.248  10.050  1.00  0.00    -0.387 OA
ATOM     27  H   UNL     1     -34.183   3.463   9.487  1.00  0.00     0.211 HD
ENDBRANCH  21  26
BRANCH  23  28
ATOM     28  O   UNL     1     -34.028   6.567   8.565  1.00  0.00    -0.387 OA
ATOM     29  H   UNL     1     -34.817   6.327   8.014  1.00  0.00     0.211 HD
ENDBRANCH  23  28
BRANCH  24  30
ATOM     30  C   UNL     1     -32.818   2.630   5.794  1.00  0.00     0.191 C 
BRANCH  30  31
ATOM     31  O   UNL     1     -33.394   3.334   4.725  1.00  0.00    -0.394 OA
ATOM     32  H   UNL     1     -34.161   3.843   5.097  1.00  0.00     0.210 HD
ENDBRANCH  30  31
ENDBRANCH  24  30
BRANCH  25  33
ATOM     33  O   UNL     1     -34.763   4.167   7.390  1.00  0.00    -0.388 OA
ATOM     34  H   UNL     1     -35.088   4.585   8.230  1.00  0.00     0.211 HD
ENDBRANCH  25  33
ENDBRANCH  11  20
BRANCH  10  35
ATOM     35  O   UNL     1     -30.400   6.307   9.019  1.00  0.00    -0.507 OA
ATOM     36  H   UNL     1     -29.991   7.220   8.860  1.00  0.00     0.293 HD
ENDBRANCH  10  35
TORSDOF 9
ENDMDL
MODEL 6
REMARK VINA RESULT:    -4.961      7.797     14.325
REMARK INTER + INTRA:          -6.563
REMARK INTER:                  -6.831
REMARK INTRA:                   0.268
REMARK UNBOUND:                 0.138
REMARK SMILES O=c1c(-c2ccc(O)cc2)coc2c([C@@H]3O[C@@H](CO)[C@@H](O)[C@@H](O)[C@H]3O)c(O)ccc12
REMARK SMILES IDX 3 1 11 2 12 3 13 4 30 5 2 6 1 7 29 8 28 9 26 10 14 11 4 12
REMARK SMILES IDX 5 13 6 14 7 15 10 16 9 17 8 18 15 20 24 21 16 22 22 23 17 24
REMARK SMILES IDX 20 25 25 26 23 28 18 30 19 31 21 33 27 35
REMARK H PARENT 8 19 25 27 23 29 19 32 21 34 27 36
REMARK Flexibility Score: inf
ROOT
ATOM      1  C   UNL     1     -31.334   3.532   7.699  1.00  0.00     0.065 A 
ATOM      2  C   UNL     1     -32.170   4.530   8.219  1.00  0.00     0.208 A 
ATOM      3  O   UNL     1     -33.375   4.743   7.706  1.00  0.00    -0.463 OA
ATOM      4  C   UNL     1     -33.874   4.045   6.688  1.00  0.00     0.147 A 
ATOM      5  C   UNL     1     -33.092   3.024   6.099  1.00  0.00     0.066 A 
ATOM      6  C   UNL     1     -31.812   2.764   6.623  1.00  0.00     0.200 A 
ATOM      7  O   UNL     1     -31.104   1.834   6.144  1.00  0.00    -0.288 OA
ATOM      8  C   UNL     1     -33.602   2.300   5.017  1.00  0.00     0.020 A 
ATOM      9  C   UNL     1     -34.859   2.598   4.508  1.00  0.00     0.047 A 
ATOM     10  C   UNL     1     -35.648   3.610   5.073  1.00  0.00     0.125 A 
ATOM     11  C   UNL     1     -35.180   4.332   6.208  1.00  0.00     0.069 A 
ENDROOT
BRANCH   1  12
ATOM     12  C   UNL     1     -29.989   3.313   8.289  1.00  0.00    -0.011 A 
ATOM     13  C   UNL     1     -29.018   4.328   8.236  1.00  0.00     0.013 A 
ATOM     14  C   UNL     1     -27.748   4.121   8.782  1.00  0.00     0.047 A 
ATOM     15  C   UNL     1     -27.430   2.900   9.382  1.00  0.00     0.115 A 
ATOM     16  C   UNL     1     -29.661   2.084   8.887  1.00  0.00     0.013 A 
ATOM     17  C   UNL     1     -28.389   1.880   9.432  1.00  0.00     0.047 A 
BRANCH  15  18
ATOM     18  O   UNL     1     -26.161   2.708   9.922  1.00  0.00    -0.508 OA
ATOM     19  H   UNL     1     -25.472   3.451   9.933  1.00  0.00     0.293 HD
ENDBRANCH  15  18
ENDBRANCH   1  12
BRANCH  11  20
ATOM     20  C   UNL     1     -35.965   5.447   6.938  1.00  0.00     0.188 C 
ATOM     21  C   UNL     1     -35.213   6.496   7.810  1.00  0.00     0.179 C 
ATOM     22  O   UNL     1     -36.854   6.114   6.049  1.00  0.00    -0.362 OA
ATOM     23  C   UNL     1     -34.496   7.533   6.915  1.00  0.00     0.177 C 
ATOM     24  C   UNL     1     -36.154   6.943   5.132  1.00  0.00     0.176 C 
ATOM     25  C   UNL     1     -35.465   8.112   5.868  1.00  0.00     0.177 C 
BRANCH  21  26
ATOM     26  O   UNL     1     -36.143   7.169   8.623  1.00  0.00    -0.387 OA
ATOM     27  H   UNL     1     -36.965   7.305   8.080  1.00  0.00     0.211 HD
ENDBRANCH  21  26
BRANCH  23  28
ATOM     28  O   UNL     1     -33.961   8.570   7.697  1.00  0.00    -0.387 OA
ATOM     29  H   UNL     1     -34.552   8.666   8.488  1.00  0.00     0.211 HD
ENDBRANCH  23  28
BRANCH  24  30
ATOM     30  C   UNL     1     -37.123   7.432   4.044  1.00  0.00     0.191 C 
BRANCH  30  31
ATOM     31  O   UNL     1     -37.123   6.576   2.932  1.00  0.00    -0.394 OA
ATOM     32  H   UNL     1     -36.979   5.657   3.278  1.00  0.00     0.210 HD
ENDBRANCH  30  31
ENDBRANCH  24  30
BRANCH  25  33
ATOM     33  O   UNL     1     -36.428   8.929   6.486  1.00  0.00    -0.388 OA
ATOM     34  H   UNL     1     -37.316   8.631   6.155  1.00  0.00     0.211 HD
ENDBRANCH  25  33
ENDBRANCH  11  20
BRANCH  10  35
ATOM     35  O   UNL     1     -36.879   3.877   4.481  1.00  0.00    -0.507 OA
ATOM     36  H   UNL     1     -37.433   3.154   4.038  1.00  0.00     0.293 HD
ENDBRANCH  10  35
TORSDOF 9
ENDMDL
MODEL 7
REMARK VINA RESULT:    -4.826      2.141      4.978
REMARK INTER + INTRA:          -6.381
REMARK INTER:                  -6.515
REMARK INTRA:                   0.133
REMARK UNBOUND:                 0.138
REMARK SMILES O=c1c(-c2ccc(O)cc2)coc2c([C@@H]3O[C@@H](CO)[C@@H](O)[C@@H](O)[C@H]3O)c(O)ccc12
REMARK SMILES IDX 3 1 11 2 12 3 13 4 30 5 2 6 1 7 29 8 28 9 26 10 14 11 4 12
REMARK SMILES IDX 5 13 6 14 7 15 10 16 9 17 8 18 15 20 24 21 16 22 22 23 17 24
REMARK SMILES IDX 20 25 25 26 23 28 18 30 19 31 21 33 27 35
REMARK H PARENT 8 19 25 27 23 29 19 32 21 34 27 36
REMARK Flexibility Score: inf
ROOT
ATOM      1  C   UNL     1     -23.219  -4.058   8.252  1.00  0.00     0.065 A 
ATOM      2  C   UNL     1     -22.594  -5.134   8.896  1.00  0.00     0.208 A 
ATOM      3  O   UNL     1     -21.363  -5.503   8.565  1.00  0.00    -0.463 OA
ATOM      4  C   UNL     1     -20.642  -4.897   7.623  1.00  0.00     0.147 A 
ATOM      5  C   UNL     1     -21.202  -3.806   6.919  1.00  0.00     0.066 A 
ATOM      6  C   UNL     1     -22.503  -3.381   7.250  1.00  0.00     0.200 A 
ATOM      7  O   UNL     1     -23.016  -2.386   6.665  1.00  0.00    -0.288 OA
ATOM      8  C   UNL     1     -20.459  -3.176   5.916  1.00  0.00     0.020 A 
ATOM      9  C   UNL     1     -19.187  -3.635   5.597  1.00  0.00     0.047 A 
ATOM     10  C   UNL     1     -18.616  -4.719   6.279  1.00  0.00     0.125 A 
ATOM     11  C   UNL     1     -19.326  -5.350   7.341  1.00  0.00     0.069 A 
ENDROOT
BRANCH   1  12
ATOM     12  C   UNL     1     -24.598  -3.665   8.638  1.00  0.00    -0.011 A 
ATOM     13  C   UNL     1     -25.693  -4.465   8.268  1.00  0.00     0.013 A 
ATOM     14  C   UNL     1     -26.993  -4.092   8.622  1.00  0.00     0.047 A 
ATOM     15  C   UNL     1     -27.217  -2.917   9.345  1.00  0.00     0.115 A 
ATOM     16  C   UNL     1     -24.829  -2.480   9.358  1.00  0.00     0.013 A 
ATOM     17  C   UNL     1     -26.131  -2.109   9.711  1.00  0.00     0.047 A 
BRANCH  15  18
ATOM     18  O   UNL     1     -28.517  -2.558   9.692  1.00  0.00    -0.508 OA
ATOM     19  H   UNL     1     -29.033  -3.061  10.404  1.00  0.00     0.293 HD
ENDBRANCH  15  18
ENDBRANCH   1  12
BRANCH  11  20
ATOM     20  C   UNL     1     -18.796  -6.531   8.187  1.00  0.00     0.188 C 
ATOM     21  C   UNL     1     -19.788  -7.503   8.889  1.00  0.00     0.179 C 
ATOM     22  O   UNL     1     -17.822  -7.280   7.466  1.00  0.00    -0.362 OA
ATOM     23  C   UNL     1     -20.419  -8.472   7.863  1.00  0.00     0.177 C 
ATOM     24  C   UNL     1     -18.413  -8.042   6.425  1.00  0.00     0.176 C 
ATOM     25  C   UNL     1     -19.330  -9.140   7.003  1.00  0.00     0.177 C 
BRANCH  21  26
ATOM     26  O   UNL     1     -19.090  -8.257   9.850  1.00  0.00    -0.387 OA
ATOM     27  H   UNL     1     -19.435  -9.188   9.802  1.00  0.00     0.211 HD
ENDBRANCH  21  26
BRANCH  23  28
ATOM     28  O   UNL     1     -21.182  -9.453   8.517  1.00  0.00    -0.387 OA
ATOM     29  H   UNL     1     -20.557 -10.182   8.767  1.00  0.00     0.211 HD
ENDBRANCH  23  28
BRANCH  24  30
ATOM     30  C   UNL     1     -17.309  -8.622   5.526  1.00  0.00     0.191 C 
BRANCH  30  31
ATOM     31  O   UNL     1     -17.021  -7.769   4.450  1.00  0.00    -0.394 OA
ATOM     32  H   UNL     1     -17.690  -7.037   4.477  1.00  0.00     0.210 HD
ENDBRANCH  30  31
ENDBRANCH  24  30
BRANCH  25  33
ATOM     33  O   UNL     1     -18.577 -10.042   7.776  1.00  0.00    -0.388 OA
ATOM     34  H   UNL     1     -17.784 -10.296   7.234  1.00  0.00     0.211 HD
ENDBRANCH  25  33
ENDBRANCH  11  20
BRANCH  10  35
ATOM     35  O   UNL     1     -17.355  -5.146   5.875  1.00  0.00    -0.507 OA
ATOM     36  H   UNL     1     -17.210  -6.037   5.415  1.00  0.00     0.293 HD
ENDBRANCH  10  35
TORSDOF 9
ENDMDL
MODEL 8
REMARK VINA RESULT:    -4.538      1.362      1.659
REMARK INTER + INTRA:          -5.993
REMARK INTER:                  -6.848
REMARK INTRA:                   0.855
REMARK UNBOUND:                 0.138
REMARK SMILES O=c1c(-c2ccc(O)cc2)coc2c([C@@H]3O[C@@H](CO)[C@@H](O)[C@@H](O)[C@H]3O)c(O)ccc12
REMARK SMILES IDX 3 1 11 2 12 3 13 4 30 5 2 6 1 7 29 8 28 9 26 10 14 11 4 12
REMARK SMILES IDX 5 13 6 14 7 15 10 16 9 17 8 18 15 20 24 21 16 22 22 23 17 24
REMARK SMILES IDX 20 25 25 26 23 28 18 30 19 31 21 33 27 35
REMARK H PARENT 8 19 25 27 23 29 19 32 21 34 27 36
REMARK Flexibility Score: inf
ROOT
ATOM      1  C   UNL     1     -24.801  -3.008   8.723  1.00  0.00     0.065 A 
ATOM      2  C   UNL     1     -23.461  -2.651   8.523  1.00  0.00     0.208 A 
ATOM      3  O   UNL     1     -22.494  -3.555   8.619  1.00  0.00    -0.463 OA
ATOM      4  C   UNL     1     -22.714  -4.838   8.902  1.00  0.00     0.147 A 
ATOM      5  C   UNL     1     -24.038  -5.281   9.125  1.00  0.00     0.066 A 
ATOM      6  C   UNL     1     -25.089  -4.351   9.023  1.00  0.00     0.200 A 
ATOM      7  O   UNL     1     -26.286  -4.723   9.180  1.00  0.00    -0.288 OA
ATOM      8  C   UNL     1     -24.275  -6.622   9.441  1.00  0.00     0.020 A 
ATOM      9  C   UNL     1     -23.212  -7.510   9.559  1.00  0.00     0.047 A 
ATOM     10  C   UNL     1     -21.891  -7.090   9.347  1.00  0.00     0.125 A 
ATOM     11  C   UNL     1     -21.620  -5.742   8.973  1.00  0.00     0.069 A 
ENDROOT
BRANCH   1  12
ATOM     12  C   UNL     1     -25.865  -1.979   8.612  1.00  0.00    -0.011 A 
ATOM     13  C   UNL     1     -25.561  -0.621   8.811  1.00  0.00     0.013 A 
ATOM     14  C   UNL     1     -26.563   0.349   8.716  1.00  0.00     0.047 A 
ATOM     15  C   UNL     1     -27.879  -0.022   8.426  1.00  0.00     0.115 A 
ATOM     16  C   UNL     1     -27.192  -2.348   8.328  1.00  0.00     0.013 A 
ATOM     17  C   UNL     1     -28.192  -1.375   8.234  1.00  0.00     0.047 A 
BRANCH  15  18
ATOM     18  O   UNL     1     -28.866   0.955   8.334  1.00  0.00    -0.508 OA
ATOM     19  H   UNL     1     -29.204   1.445   9.154  1.00  0.00     0.293 HD
ENDBRANCH  15  18
ENDBRANCH   1  12
BRANCH  11  20
ATOM     20  C   UNL     1     -20.215  -5.165   8.684  1.00  0.00     0.188 C 
ATOM     21  C   UNL     1     -18.985  -6.113   8.565  1.00  0.00     0.179 C 
ATOM     22  O   UNL     1     -20.245  -4.280   7.569  1.00  0.00    -0.362 OA
ATOM     23  C   UNL     1     -19.000  -6.858   7.211  1.00  0.00     0.177 C 
ATOM     24  C   UNL     1     -20.419  -4.982   6.347  1.00  0.00     0.176 C 
ATOM     25  C   UNL     1     -19.191  -5.868   6.047  1.00  0.00     0.177 C 
BRANCH  21  26
ATOM     26  O   UNL     1     -17.807  -5.347   8.645  1.00  0.00    -0.387 OA
ATOM     27  H   UNL     1     -17.486  -5.203   7.716  1.00  0.00     0.211 HD
ENDBRANCH  21  26
BRANCH  23  28
ATOM     28  O   UNL     1     -17.809  -7.581   7.034  1.00  0.00    -0.387 OA
ATOM     29  H   UNL     1     -17.465  -7.790   7.941  1.00  0.00     0.211 HD
ENDBRANCH  23  28
BRANCH  24  30
ATOM     30  C   UNL     1     -20.701  -3.979   5.217  1.00  0.00     0.191 C 
BRANCH  30  31
ATOM     31  O   UNL     1     -21.870  -3.244   5.462  1.00  0.00    -0.394 OA
ATOM     32  H   UNL     1     -21.808  -2.416   4.918  1.00  0.00     0.210 HD
ENDBRANCH  30  31
ENDBRANCH  24  30
BRANCH  25  33
ATOM     33  O   UNL     1     -18.045  -5.070   5.886  1.00  0.00    -0.388 OA
ATOM     34  H   UNL     1     -18.314  -4.285   5.339  1.00  0.00     0.211 HD
ENDBRANCH  25  33
ENDBRANCH  11  20
BRANCH  10  35
ATOM     35  O   UNL     1     -20.878  -8.028   9.523  1.00  0.00    -0.507 OA
ATOM     36  H   UNL     1     -20.784  -8.566  10.376  1.00  0.00     0.293 HD
ENDBRANCH  10  35
TORSDOF 9
ENDMDL
MODEL 9
REMARK VINA RESULT:    -4.498      1.706      2.539
REMARK INTER + INTRA:          -5.938
REMARK INTER:                  -7.130
REMARK INTRA:                   1.192
REMARK UNBOUND:                 0.138
REMARK SMILES O=c1c(-c2ccc(O)cc2)coc2c([C@@H]3O[C@@H](CO)[C@@H](O)[C@@H](O)[C@H]3O)c(O)ccc12
REMARK SMILES IDX 3 1 11 2 12 3 13 4 30 5 2 6 1 7 29 8 28 9 26 10 14 11 4 12
REMARK SMILES IDX 5 13 6 14 7 15 10 16 9 17 8 18 15 20 24 21 16 22 22 23 17 24
REMARK SMILES IDX 20 25 25 26 23 28 18 30 19 31 21 33 27 35
REMARK H PARENT 8 19 25 27 23 29 19 32 21 34 27 36
REMARK Flexibility Score: inf
ROOT
ATOM      1  C   UNL     1     -27.183   0.044   8.883  1.00  0.00     0.065 A 
ATOM      2  C   UNL     1     -25.804   0.221   9.052  1.00  0.00     0.208 A 
ATOM      3  O   UNL     1     -24.982  -0.821   9.079  1.00  0.00    -0.463 OA
ATOM      4  C   UNL     1     -25.391  -2.082   8.947  1.00  0.00     0.147 A 
ATOM      5  C   UNL     1     -26.770  -2.349   8.780  1.00  0.00     0.066 A 
ATOM      6  C   UNL     1     -27.669  -1.267   8.738  1.00  0.00     0.200 A 
ATOM      7  O   UNL     1     -28.902  -1.470   8.552  1.00  0.00    -0.288 OA
ATOM      8  C   UNL     1     -27.209  -3.671   8.660  1.00  0.00     0.020 A 
ATOM      9  C   UNL     1     -26.297  -4.718   8.731  1.00  0.00     0.047 A 
ATOM     10  C   UNL     1     -24.927  -4.475   8.902  1.00  0.00     0.125 A 
ATOM     11  C   UNL     1     -24.441  -3.138   8.976  1.00  0.00     0.069 A 
ENDROOT
BRANCH   1  12
ATOM     12  C   UNL     1     -28.083   1.225   8.858  1.00  0.00    -0.011 A 
ATOM     13  C   UNL     1     -29.354   1.135   8.265  1.00  0.00     0.013 A 
ATOM     14  C   UNL     1     -30.200   2.247   8.232  1.00  0.00     0.047 A 
ATOM     15  C   UNL     1     -29.787   3.463   8.785  1.00  0.00     0.115 A 
ATOM     16  C   UNL     1     -27.670   2.452   9.405  1.00  0.00     0.013 A 
ATOM     17  C   UNL     1     -28.518   3.564   9.371  1.00  0.00     0.047 A 
BRANCH  15  18
ATOM     18  O   UNL     1     -30.640   4.563   8.745  1.00  0.00    -0.508 OA
ATOM     19  H   UNL     1     -31.646   4.452   8.696  1.00  0.00     0.293 HD
ENDBRANCH  15  18
ENDBRANCH   1  12
BRANCH  11  20
ATOM     20  C   UNL     1     -22.956  -2.740   9.134  1.00  0.00     0.188 C 
ATOM     21  C   UNL     1     -21.942  -3.725   9.787  1.00  0.00     0.179 C 
ATOM     22  O   UNL     1     -22.424  -2.250   7.908  1.00  0.00    -0.362 OA
ATOM     23  C   UNL     1     -21.573  -4.858   8.802  1.00  0.00     0.177 C 
ATOM     24  C   UNL     1     -22.241  -3.294   6.962  1.00  0.00     0.176 C 
ATOM     25  C   UNL     1     -21.153  -4.279   7.439  1.00  0.00     0.177 C 
BRANCH  21  26
ATOM     26  O   UNL     1     -20.771  -3.022  10.125  1.00  0.00    -0.387 OA
ATOM     27  H   UNL     1     -20.023  -3.433   9.615  1.00  0.00     0.211 HD
ENDBRANCH  21  26
BRANCH  23  28
ATOM     28  O   UNL     1     -20.537  -5.648   9.327  1.00  0.00    -0.387 OA
ATOM     29  H   UNL     1     -20.580  -5.556  10.314  1.00  0.00     0.211 HD
ENDBRANCH  23  28
BRANCH  24  30
ATOM     30  C   UNL     1     -21.914  -2.687   5.588  1.00  0.00     0.191 C 
BRANCH  30  31
ATOM     31  O   UNL     1     -22.108  -1.298   5.581  1.00  0.00    -0.394 OA
ATOM     32  H   UNL     1     -21.237  -0.888   5.339  1.00  0.00     0.210 HD
ENDBRANCH  30  31
ENDBRANCH  24  30
BRANCH  25  33
ATOM     33  O   UNL     1     -19.915  -3.619   7.544  1.00  0.00    -0.388 OA
ATOM     34  H   UNL     1     -19.463  -3.979   8.352  1.00  0.00     0.211 HD
ENDBRANCH  25  33
ENDBRANCH  11  20
BRANCH  10  35
ATOM     35  O   UNL     1     -24.083  -5.577   9.004  1.00  0.00    -0.507 OA
ATOM     36  H   UNL     1     -23.237  -5.661   8.452  1.00  0.00     0.293 HD
ENDBRANCH  10  35
TORSDOF 9
ENDMDL
