MODEL 1
REMARK VINA RESULT:    -7.397      0.000      0.000
REMARK INTER + INTRA:          -9.396
REMARK INTER:                  -9.127
REMARK INTRA:                  -0.269
REMARK UNBOUND:                -0.269
REMARK SMILES Oc1cc(O)c2cc(O)c(-c3cc(O)c(O)c(O)c3)[o+]c2c1
REMARK SMILES IDX 10 1 20 2 21 3 22 4 2 5 3 6 4 7 6 8 7 9 8 10 11 11 12 12
REMARK SMILES IDX 13 13 19 14 15 15 17 16 14 17 16 19 18 21 9 23 1 25 5 27
REMARK H PARENT 14 18 16 20 18 22 9 24 1 26 5 28
REMARK Flexibility Score: inf
ROOT
ATOM      1  C   UNL     1      40.629 -11.579   9.069  1.00  0.00     0.402 A 
ATOM      2  O   UNL     1      41.023 -12.756   9.547  1.00  0.00    -0.202 OA
ATOM      3  C   UNL     1      41.928 -12.886  10.513  1.00  0.00     0.368 A 
ATOM      4  C   UNL     1      42.276 -14.165  10.951  1.00  0.00     0.162 A 
ATOM      5  C   UNL     1      43.222 -14.330  11.966  1.00  0.00     0.128 A 
ATOM      6  C   UNL     1      43.821 -13.210  12.546  1.00  0.00     0.093 A 
ATOM      7  C   UNL     1      43.490 -11.917  12.125  1.00  0.00     0.136 A 
ATOM      8  C   UNL     1      42.532 -11.744  11.092  1.00  0.00     0.125 A 
ATOM      9  C   UNL     1      42.148 -10.487  10.597  1.00  0.00     0.078 A 
ATOM     10  C   UNL     1      41.199 -10.397   9.574  1.00  0.00     0.223 A 
ENDROOT
BRANCH   1  11
ATOM     11  C   UNL     1      39.605 -11.566   7.999  1.00  0.00     0.091 A 
ATOM     12  C   UNL     1      39.978 -11.220   6.691  1.00  0.00     0.068 A 
ATOM     13  C   UNL     1      39.033 -11.219   5.656  1.00  0.00     0.162 A 
ATOM     14  C   UNL     1      38.277 -11.948   8.253  1.00  0.00     0.068 A 
ATOM     15  C   UNL     1      37.705 -11.581   5.920  1.00  0.00     0.200 A 
ATOM     16  C   UNL     1      37.327 -11.951   7.221  1.00  0.00     0.162 A 
BRANCH  13  17
ATOM     17  O   UNL     1      39.405 -10.861   4.362  1.00  0.00    -0.504 OA
ATOM     18  H   UNL     1      39.308  -9.909   4.026  1.00  0.00     0.293 HD
ENDBRANCH  13  17
BRANCH  15  19
ATOM     19  O   UNL     1      36.777 -11.572   4.877  1.00  0.00    -0.502 OA
ATOM     20  H   UNL     1      36.958 -12.030   3.992  1.00  0.00     0.293 HD
ENDBRANCH  15  19
BRANCH  16  21
ATOM     21  O   UNL     1      36.010 -12.326   7.484  1.00  0.00    -0.504 OA
ATOM     22  H   UNL     1      35.253 -11.651   7.471  1.00  0.00     0.293 HD
ENDBRANCH  16  21
ENDBRANCH   1  11
BRANCH  10  23
ATOM     23  O   UNL     1      40.855  -9.152   9.048  1.00  0.00    -0.500 OA
ATOM     24  H   UNL     1      40.284  -9.064   8.215  1.00  0.00     0.294 HD
ENDBRANCH  10  23
BRANCH   5  25
ATOM     25  O   UNL     1      43.575 -15.604  12.408  1.00  0.00    -0.507 OA
ATOM     26  H   UNL     1      43.037 -16.085  13.120  1.00  0.00     0.293 HD
ENDBRANCH   5  25
BRANCH   7  27
ATOM     27  O   UNL     1      44.133 -10.849  12.758  1.00  0.00    -0.507 OA
ATOM     28  H   UNL     1      43.997 -10.595  13.727  1.00  0.00     0.293 HD
ENDBRANCH   7  27
TORSDOF 7
ENDMDL
MODEL 2
REMARK VINA RESULT:    -7.369      0.071      1.789
REMARK INTER + INTRA:          -9.362
REMARK INTER:                  -9.105
REMARK INTRA:                  -0.257
REMARK UNBOUND:                -0.269
REMARK SMILES Oc1cc(O)c2cc(O)c(-c3cc(O)c(O)c(O)c3)[o+]c2c1
REMARK SMILES IDX 10 1 20 2 21 3 22 4 2 5 3 6 4 7 6 8 7 9 8 10 11 11 12 12
REMARK SMILES IDX 13 13 19 14 15 15 17 16 14 17 16 19 18 21 9 23 1 25 5 27
REMARK H PARENT 14 18 16 20 18 22 9 24 1 26 5 28
REMARK Flexibility Score: inf
ROOT
ATOM      1  C   UNL     1      40.691 -11.592   9.021  1.00  0.00     0.402 A 
ATOM      2  O   UNL     1      41.071 -12.761   9.529  1.00  0.00    -0.202 OA
ATOM      3  C   UNL     1      41.965 -12.877  10.507  1.00  0.00     0.368 A 
ATOM      4  C   UNL     1      42.297 -14.148  10.977  1.00  0.00     0.162 A 
ATOM      5  C   UNL     1      43.231 -14.298  12.006  1.00  0.00     0.128 A 
ATOM      6  C   UNL     1      43.834 -13.170  12.567  1.00  0.00     0.093 A 
ATOM      7  C   UNL     1      43.518 -11.884  12.114  1.00  0.00     0.136 A 
ATOM      8  C   UNL     1      42.572 -11.727  11.067  1.00  0.00     0.125 A 
ATOM      9  C   UNL     1      42.203 -10.478  10.540  1.00  0.00     0.078 A 
ATOM     10  C   UNL     1      41.266 -10.403   9.505  1.00  0.00     0.223 A 
ENDROOT
BRANCH   1  11
ATOM     11  C   UNL     1      39.679 -11.594   7.940  1.00  0.00     0.091 A 
ATOM     12  C   UNL     1      38.348 -11.921   8.240  1.00  0.00     0.068 A 
ATOM     13  C   UNL     1      37.368 -11.912   7.238  1.00  0.00     0.162 A 
ATOM     14  C   UNL     1      40.012 -11.221   6.626  1.00  0.00     0.068 A 
ATOM     15  C   UNL     1      37.710 -11.559   5.926  1.00  0.00     0.200 A 
ATOM     16  C   UNL     1      39.034 -11.208   5.620  1.00  0.00     0.162 A 
BRANCH  13  17
ATOM     17  O   UNL     1      36.050 -12.252   7.539  1.00  0.00    -0.504 OA
ATOM     18  H   UNL     1      35.759 -13.218   7.628  1.00  0.00     0.293 HD
ENDBRANCH  13  17
BRANCH  15  19
ATOM     19  O   UNL     1      36.721 -11.557   4.942  1.00  0.00    -0.502 OA
ATOM     20  H   UNL     1      35.742 -11.701   5.161  1.00  0.00     0.293 HD
ENDBRANCH  15  19
BRANCH  16  21
ATOM     21  O   UNL     1      39.376 -10.842   4.318  1.00  0.00    -0.504 OA
ATOM     22  H   UNL     1      40.110 -11.319   3.808  1.00  0.00     0.293 HD
ENDBRANCH  16  21
ENDBRANCH   1  11
BRANCH  10  23
ATOM     23  O   UNL     1      40.938  -9.168   8.948  1.00  0.00    -0.500 OA
ATOM     24  H   UNL     1      40.220  -9.077   8.238  1.00  0.00     0.294 HD
ENDBRANCH  10  23
BRANCH   5  25
ATOM     25  O   UNL     1      43.569 -15.564  12.481  1.00  0.00    -0.507 OA
ATOM     26  H   UNL     1      44.436 -15.730  12.978  1.00  0.00     0.293 HD
ENDBRANCH   5  25
BRANCH   7  27
ATOM     27  O   UNL     1      44.162 -10.808  12.730  1.00  0.00    -0.507 OA
ATOM     28  H   UNL     1      44.423 -10.781  13.705  1.00  0.00     0.293 HD
ENDBRANCH   7  27
TORSDOF 7
ENDMDL
MODEL 3
REMARK VINA RESULT:    -7.344      1.206      3.140
REMARK INTER + INTRA:          -9.330
REMARK INTER:                  -9.172
REMARK INTRA:                  -0.157
REMARK UNBOUND:                -0.269
REMARK SMILES Oc1cc(O)c2cc(O)c(-c3cc(O)c(O)c(O)c3)[o+]c2c1
REMARK SMILES IDX 10 1 20 2 21 3 22 4 2 5 3 6 4 7 6 8 7 9 8 10 11 11 12 12
REMARK SMILES IDX 13 13 19 14 15 15 17 16 14 17 16 19 18 21 9 23 1 25 5 27
REMARK H PARENT 14 18 16 20 18 22 9 24 1 26 5 28
REMARK Flexibility Score: inf
ROOT
ATOM      1  C   UNL     1      41.044 -12.519   9.258  1.00  0.00     0.402 A 
ATOM      2  O   UNL     1      41.775 -11.655   9.958  1.00  0.00    -0.202 OA
ATOM      3  C   UNL     1      42.611 -12.022  10.925  1.00  0.00     0.368 A 
ATOM      4  C   UNL     1      43.338 -11.042  11.603  1.00  0.00     0.162 A 
ATOM      5  C   UNL     1      44.226 -11.401  12.621  1.00  0.00     0.128 A 
ATOM      6  C   UNL     1      44.387 -12.746  12.961  1.00  0.00     0.093 A 
ATOM      7  C   UNL     1      43.670 -13.747  12.297  1.00  0.00     0.136 A 
ATOM      8  C   UNL     1      42.765 -13.388  11.264  1.00  0.00     0.125 A 
ATOM      9  C   UNL     1      41.994 -14.323  10.553  1.00  0.00     0.078 A 
ATOM     10  C   UNL     1      41.120 -13.892   9.551  1.00  0.00     0.223 A 
ENDROOT
BRANCH   1  11
ATOM     11  C   UNL     1      40.156 -11.986   8.199  1.00  0.00     0.091 A 
ATOM     12  C   UNL     1      38.769 -12.180   8.297  1.00  0.00     0.068 A 
ATOM     13  C   UNL     1      37.906 -11.669   7.319  1.00  0.00     0.162 A 
ATOM     14  C   UNL     1      40.667 -11.238   7.124  1.00  0.00     0.068 A 
ATOM     15  C   UNL     1      38.424 -10.943   6.238  1.00  0.00     0.200 A 
ATOM     16  C   UNL     1      39.807 -10.723   6.143  1.00  0.00     0.162 A 
BRANCH  13  17
ATOM     17  O   UNL     1      36.532 -11.878   7.414  1.00  0.00    -0.504 OA
ATOM     18  H   UNL     1      35.991 -11.510   8.188  1.00  0.00     0.293 HD
ENDBRANCH  13  17
BRANCH  15  19
ATOM     19  O   UNL     1      37.549 -10.444   5.272  1.00  0.00    -0.502 OA
ATOM     20  H   UNL     1      37.081  -9.552   5.380  1.00  0.00     0.293 HD
ENDBRANCH  15  19
BRANCH  16  21
ATOM     21  O   UNL     1      40.324  -9.989   5.076  1.00  0.00    -0.504 OA
ATOM     22  H   UNL     1      40.944 -10.409   4.392  1.00  0.00     0.293 HD
ENDBRANCH  16  21
ENDBRANCH   1  11
BRANCH  10  23
ATOM     23  O   UNL     1      40.318 -14.815   8.879  1.00  0.00    -0.500 OA
ATOM     24  H   UNL     1      40.599 -15.781   8.764  1.00  0.00     0.294 HD
ENDBRANCH  10  23
BRANCH   5  25
ATOM     25  O   UNL     1      44.956 -10.428  13.302  1.00  0.00    -0.507 OA
ATOM     26  H   UNL     1      45.085 -10.469  14.307  1.00  0.00     0.293 HD
ENDBRANCH   5  25
BRANCH   7  27
ATOM     27  O   UNL     1      43.891 -15.069  12.695  1.00  0.00    -0.507 OA
ATOM     28  H   UNL     1      44.728 -15.595  12.487  1.00  0.00     0.293 HD
ENDBRANCH   7  27
TORSDOF 7
ENDMDL
MODEL 4
REMARK VINA RESULT:    -7.183      6.497     11.970
REMARK INTER + INTRA:          -9.131
REMARK INTER:                  -8.751
REMARK INTRA:                  -0.380
REMARK UNBOUND:                -0.269
REMARK SMILES Oc1cc(O)c2cc(O)c(-c3cc(O)c(O)c(O)c3)[o+]c2c1
REMARK SMILES IDX 10 1 20 2 21 3 22 4 2 5 3 6 4 7 6 8 7 9 8 10 11 11 12 12
REMARK SMILES IDX 13 13 19 14 15 15 17 16 14 17 16 19 18 21 9 23 1 25 5 27
REMARK H PARENT 14 18 16 20 18 22 9 24 1 26 5 28
REMARK Flexibility Score: inf
ROOT
ATOM      1  C   UNL     1      34.040 -13.908   2.432  1.00  0.00     0.402 A 
ATOM      2  O   UNL     1      32.798 -13.800   2.897  1.00  0.00    -0.202 OA
ATOM      3  C   UNL     1      31.724 -14.153   2.198  1.00  0.00     0.368 A 
ATOM      4  C   UNL     1      30.460 -14.006   2.773  1.00  0.00     0.162 A 
ATOM      5  C   UNL     1      29.314 -14.372   2.061  1.00  0.00     0.128 A 
ATOM      6  C   UNL     1      29.434 -14.888   0.769  1.00  0.00     0.093 A 
ATOM      7  C   UNL     1      30.689 -15.045   0.169  1.00  0.00     0.136 A 
ATOM      8  C   UNL     1      31.856 -14.673   0.887  1.00  0.00     0.125 A 
ATOM      9  C   UNL     1      33.154 -14.782   0.362  1.00  0.00     0.078 A 
ATOM     10  C   UNL     1      34.255 -14.391   1.129  1.00  0.00     0.223 A 
ENDROOT
BRANCH   1  11
ATOM     11  C   UNL     1      35.155 -13.490   3.312  1.00  0.00     0.091 A 
ATOM     12  C   UNL     1      35.780 -14.440   4.135  1.00  0.00     0.068 A 
ATOM     13  C   UNL     1      36.850 -14.074   4.962  1.00  0.00     0.162 A 
ATOM     14  C   UNL     1      35.641 -12.171   3.301  1.00  0.00     0.068 A 
ATOM     15  C   UNL     1      37.316 -12.753   4.962  1.00  0.00     0.200 A 
ATOM     16  C   UNL     1      36.713 -11.800   4.126  1.00  0.00     0.162 A 
BRANCH  13  17
ATOM     17  O   UNL     1      37.457 -15.019   5.787  1.00  0.00    -0.504 OA
ATOM     18  H   UNL     1      38.448 -14.983   5.996  1.00  0.00     0.293 HD
ENDBRANCH  13  17
BRANCH  15  19
ATOM     19  O   UNL     1      38.381 -12.407   5.794  1.00  0.00    -0.502 OA
ATOM     20  H   UNL     1      38.771 -13.055   6.468  1.00  0.00     0.293 HD
ENDBRANCH  15  19
BRANCH  16  21
ATOM     21  O   UNL     1      37.184 -10.487   4.112  1.00  0.00    -0.504 OA
ATOM     22  H   UNL     1      37.492 -10.042   3.255  1.00  0.00     0.293 HD
ENDBRANCH  16  21
ENDBRANCH   1  11
BRANCH  10  23
ATOM     23  O   UNL     1      35.540 -14.453   0.589  1.00  0.00    -0.500 OA
ATOM     24  H   UNL     1      36.116 -15.281   0.678  1.00  0.00     0.294 HD
ENDBRANCH  10  23
BRANCH   5  25
ATOM     25  O   UNL     1      28.049 -14.228   2.628  1.00  0.00    -0.507 OA
ATOM     26  H   UNL     1      27.373 -14.983   2.616  1.00  0.00     0.293 HD
ENDBRANCH   5  25
BRANCH   7  27
ATOM     27  O   UNL     1      30.723 -15.571  -1.125  1.00  0.00    -0.507 OA
ATOM     28  H   UNL     1      30.163 -15.232  -1.894  1.00  0.00     0.293 HD
ENDBRANCH   7  27
TORSDOF 7
ENDMDL
MODEL 5
REMARK VINA RESULT:    -7.125      1.293      1.539
REMARK INTER + INTRA:          -9.060
REMARK INTER:                  -8.676
REMARK INTRA:                  -0.385
REMARK UNBOUND:                -0.269
REMARK SMILES Oc1cc(O)c2cc(O)c(-c3cc(O)c(O)c(O)c3)[o+]c2c1
REMARK SMILES IDX 10 1 20 2 21 3 22 4 2 5 3 6 4 7 6 8 7 9 8 10 11 11 12 12
REMARK SMILES IDX 13 13 19 14 15 15 17 16 14 17 16 19 18 21 9 23 1 25 5 27
REMARK H PARENT 14 18 16 20 18 22 9 24 1 26 5 28
REMARK Flexibility Score: inf
ROOT
ATOM      1  C   UNL     1      39.443 -12.024   8.293  1.00  0.00     0.402 A 
ATOM      2  O   UNL     1      40.170 -13.096   8.596  1.00  0.00    -0.202 OA
ATOM      3  C   UNL     1      41.119 -13.095   9.527  1.00  0.00     0.368 A 
ATOM      4  C   UNL     1      41.828 -14.272   9.777  1.00  0.00     0.162 A 
ATOM      5  C   UNL     1      42.828 -14.299  10.753  1.00  0.00     0.128 A 
ATOM      6  C   UNL     1      43.120 -13.144  11.482  1.00  0.00     0.093 A 
ATOM      7  C   UNL     1      42.424 -11.952  11.251  1.00  0.00     0.136 A 
ATOM      8  C   UNL     1      41.409 -11.918  10.260  1.00  0.00     0.125 A 
ATOM      9  C   UNL     1      40.669 -10.765   9.950  1.00  0.00     0.078 A 
ATOM     10  C   UNL     1      39.686 -10.808   8.957  1.00  0.00     0.223 A 
ENDROOT
BRANCH   1  11
ATOM     11  C   UNL     1      38.408 -12.155   7.242  1.00  0.00     0.091 A 
ATOM     12  C   UNL     1      38.764 -11.984   5.895  1.00  0.00     0.068 A 
ATOM     13  C   UNL     1      37.808 -12.122   4.881  1.00  0.00     0.162 A 
ATOM     14  C   UNL     1      37.084 -12.505   7.559  1.00  0.00     0.068 A 
ATOM     15  C   UNL     1      36.485 -12.449   5.205  1.00  0.00     0.200 A 
ATOM     16  C   UNL     1      36.123 -12.646   6.547  1.00  0.00     0.162 A 
BRANCH  13  17
ATOM     17  O   UNL     1      38.165 -11.936   3.547  1.00  0.00    -0.504 OA
ATOM     18  H   UNL     1      38.943 -11.342   3.283  1.00  0.00     0.293 HD
ENDBRANCH  13  17
BRANCH  15  19
ATOM     19  O   UNL     1      35.546 -12.581   4.181  1.00  0.00    -0.502 OA
ATOM     20  H   UNL     1      35.817 -12.734   3.218  1.00  0.00     0.293 HD
ENDBRANCH  15  19
BRANCH  16  21
ATOM     21  O   UNL     1      34.810 -12.987   6.873  1.00  0.00    -0.504 OA
ATOM     22  H   UNL     1      34.021 -12.605   6.364  1.00  0.00     0.293 HD
ENDBRANCH  16  21
ENDBRANCH   1  11
BRANCH  10  23
ATOM     23  O   UNL     1      38.987  -9.651   8.615  1.00  0.00    -0.500 OA
ATOM     24  H   UNL     1      39.406  -8.921   8.053  1.00  0.00     0.294 HD
ENDBRANCH  10  23
BRANCH   5  25
ATOM     25  O   UNL     1      43.540 -15.470  11.007  1.00  0.00    -0.507 OA
ATOM     26  H   UNL     1      44.087 -15.585  11.853  1.00  0.00     0.293 HD
ENDBRANCH   5  25
BRANCH   7  27
ATOM     27  O   UNL     1      42.774 -10.842  12.025  1.00  0.00    -0.507 OA
ATOM     28  H   UNL     1      42.171 -10.413  12.713  1.00  0.00     0.293 HD
ENDBRANCH   7  27
TORSDOF 7
ENDMDL
MODEL 6
REMARK VINA RESULT:    -7.076      1.244      7.272
REMARK INTER + INTRA:          -9.000
REMARK INTER:                  -9.076
REMARK INTRA:                   0.076
REMARK UNBOUND:                -0.269
REMARK SMILES Oc1cc(O)c2cc(O)c(-c3cc(O)c(O)c(O)c3)[o+]c2c1
REMARK SMILES IDX 10 1 20 2 21 3 22 4 2 5 3 6 4 7 6 8 7 9 8 10 11 11 12 12
REMARK SMILES IDX 13 13 19 14 15 15 17 16 14 17 16 19 18 21 9 23 1 25 5 27
REMARK H PARENT 14 18 16 20 18 22 9 24 1 26 5 28
REMARK Flexibility Score: inf
ROOT
ATOM      1  C   UNL     1      41.017 -12.249   9.165  1.00  0.00     0.402 A 
ATOM      2  O   UNL     1      41.320 -11.451   8.145  1.00  0.00    -0.202 OA
ATOM      3  C   UNL     1      40.504 -11.238   7.117  1.00  0.00     0.368 A 
ATOM      4  C   UNL     1      40.910 -10.380   6.093  1.00  0.00     0.162 A 
ATOM      5  C   UNL     1      40.070 -10.136   5.003  1.00  0.00     0.128 A 
ATOM      6  C   UNL     1      38.819 -10.753   4.938  1.00  0.00     0.093 A 
ATOM      7  C   UNL     1      38.388 -11.617   5.951  1.00  0.00     0.136 A 
ATOM      8  C   UNL     1      39.238 -11.870   7.059  1.00  0.00     0.125 A 
ATOM      9  C   UNL     1      38.896 -12.732   8.115  1.00  0.00     0.078 A 
ATOM     10  C   UNL     1      39.789 -12.935   9.171  1.00  0.00     0.223 A 
ENDROOT
BRANCH   1  11
ATOM     11  C   UNL     1      42.007 -12.397  10.256  1.00  0.00     0.091 A 
ATOM     12  C   UNL     1      42.664 -11.261  10.753  1.00  0.00     0.068 A 
ATOM     13  C   UNL     1      43.590 -11.372  11.798  1.00  0.00     0.162 A 
ATOM     14  C   UNL     1      42.264 -13.647  10.846  1.00  0.00     0.068 A 
ATOM     15  C   UNL     1      43.858 -12.623  12.367  1.00  0.00     0.200 A 
ATOM     16  C   UNL     1      43.190 -13.764  11.894  1.00  0.00     0.162 A 
BRANCH  13  17
ATOM     17  O   UNL     1      44.250 -10.241  12.277  1.00  0.00    -0.504 OA
ATOM     18  H   UNL     1      43.950  -9.770  13.122  1.00  0.00     0.293 HD
ENDBRANCH  13  17
BRANCH  15  19
ATOM     19  O   UNL     1      44.786 -12.715  13.406  1.00  0.00    -0.502 OA
ATOM     20  H   UNL     1      45.494 -13.438  13.433  1.00  0.00     0.293 HD
ENDBRANCH  15  19
BRANCH  16  21
ATOM     21  O   UNL     1      43.443 -15.009  12.468  1.00  0.00    -0.504 OA
ATOM     22  H   UNL     1      43.732 -15.803  11.908  1.00  0.00     0.293 HD
ENDBRANCH  16  21
ENDBRANCH   1  11
BRANCH  10  23
ATOM     23  O   UNL     1      39.470 -13.829  10.193  1.00  0.00    -0.500 OA
ATOM     24  H   UNL     1      39.002 -13.526  11.039  1.00  0.00     0.294 HD
ENDBRANCH  10  23
BRANCH   5  25
ATOM     25  O   UNL     1      40.469  -9.281   3.977  1.00  0.00    -0.507 OA
ATOM     26  H   UNL     1      40.875  -8.373   4.172  1.00  0.00     0.293 HD
ENDBRANCH   5  25
BRANCH   7  27
ATOM     27  O   UNL     1      37.121 -12.191   5.812  1.00  0.00    -0.507 OA
ATOM     28  H   UNL     1      36.450 -11.927   5.105  1.00  0.00     0.293 HD
ENDBRANCH   7  27
TORSDOF 7
ENDMDL
MODEL 7
REMARK VINA RESULT:    -6.989      7.048     10.631
REMARK INTER + INTRA:          -8.892
REMARK INTER:                  -8.514
REMARK INTRA:                  -0.378
REMARK UNBOUND:                -0.269
REMARK SMILES Oc1cc(O)c2cc(O)c(-c3cc(O)c(O)c(O)c3)[o+]c2c1
REMARK SMILES IDX 10 1 20 2 21 3 22 4 2 5 3 6 4 7 6 8 7 9 8 10 11 11 12 12
REMARK SMILES IDX 13 13 19 14 15 15 17 16 14 17 16 19 18 21 9 23 1 25 5 27
REMARK H PARENT 14 18 16 20 18 22 9 24 1 26 5 28
REMARK Flexibility Score: inf
ROOT
ATOM      1  C   UNL     1      33.380 -13.408   2.056  1.00  0.00     0.402 A 
ATOM      2  O   UNL     1      34.496 -12.925   1.516  1.00  0.00    -0.202 OA
ATOM      3  C   UNL     1      35.660 -12.887   2.157  1.00  0.00     0.368 A 
ATOM      4  C   UNL     1      36.779 -12.363   1.506  1.00  0.00     0.162 A 
ATOM      5  C   UNL     1      38.015 -12.314   2.156  1.00  0.00     0.128 A 
ATOM      6  C   UNL     1      38.133 -12.793   3.462  1.00  0.00     0.093 A 
ATOM      7  C   UNL     1      37.028 -13.323   4.138  1.00  0.00     0.136 A 
ATOM      8  C   UNL     1      35.769 -13.373   3.483  1.00  0.00     0.125 A 
ATOM      9  C   UNL     1      34.604 -13.874   4.086  1.00  0.00     0.078 A 
ATOM     10  C   UNL     1      33.398 -13.886   3.378  1.00  0.00     0.223 A 
ENDROOT
BRANCH   1  11
ATOM     11  C   UNL     1      32.148 -13.404   1.236  1.00  0.00     0.091 A 
ATOM     12  C   UNL     1      31.841 -14.521   0.443  1.00  0.00     0.068 A 
ATOM     13  C   UNL     1      30.671 -14.550  -0.327  1.00  0.00     0.162 A 
ATOM     14  C   UNL     1      31.245 -12.327   1.277  1.00  0.00     0.068 A 
ATOM     15  C   UNL     1      29.786 -13.464  -0.299  1.00  0.00     0.200 A 
ATOM     16  C   UNL     1      30.071 -12.352   0.509  1.00  0.00     0.162 A 
BRANCH  13  17
ATOM     17  O   UNL     1      30.380 -15.655  -1.124  1.00  0.00    -0.504 OA
ATOM     18  H   UNL     1      29.461 -15.790  -1.530  1.00  0.00     0.293 HD
ENDBRANCH  13  17
BRANCH  15  19
ATOM     19  O   UNL     1      28.627 -13.510  -1.074  1.00  0.00    -0.502 OA
ATOM     20  H   UNL     1      28.545 -13.008  -1.950  1.00  0.00     0.293 HD
ENDBRANCH  15  19
BRANCH  16  21
ATOM     21  O   UNL     1      29.186 -11.276   0.552  1.00  0.00    -0.504 OA
ATOM     22  H   UNL     1      28.656 -11.056   1.388  1.00  0.00     0.293 HD
ENDBRANCH  16  21
ENDBRANCH   1  11
BRANCH  10  23
ATOM     23  O   UNL     1      32.231 -14.338   3.994  1.00  0.00    -0.500 OA
ATOM     24  H   UNL     1      31.925 -15.301   3.916  1.00  0.00     0.294 HD
ENDBRANCH  10  23
BRANCH   5  25
ATOM     25  O   UNL     1      39.135 -11.792   1.512  1.00  0.00    -0.507 OA
ATOM     26  H   UNL     1      39.447 -10.842   1.678  1.00  0.00     0.293 HD
ENDBRANCH   5  25
BRANCH   7  27
ATOM     27  O   UNL     1      37.230 -13.784   5.441  1.00  0.00    -0.507 OA
ATOM     28  H   UNL     1      38.085 -13.658   5.965  1.00  0.00     0.293 HD
ENDBRANCH   7  27
TORSDOF 7
ENDMDL
MODEL 8
REMARK VINA RESULT:    -6.973      6.997     12.684
REMARK INTER + INTRA:          -8.872
REMARK INTER:                  -8.491
REMARK INTRA:                  -0.381
REMARK UNBOUND:                -0.269
REMARK SMILES Oc1cc(O)c2cc(O)c(-c3cc(O)c(O)c(O)c3)[o+]c2c1
REMARK SMILES IDX 10 1 20 2 21 3 22 4 2 5 3 6 4 7 6 8 7 9 8 10 11 11 12 12
REMARK SMILES IDX 13 13 19 14 15 15 17 16 14 17 16 19 18 21 9 23 1 25 5 27
REMARK H PARENT 14 18 16 20 18 22 9 24 1 26 5 28
REMARK Flexibility Score: inf
ROOT
ATOM      1  C   UNL     1      33.419 -13.929   1.949  1.00  0.00     0.402 A 
ATOM      2  O   UNL     1      32.676 -12.851   1.709  1.00  0.00    -0.202 OA
ATOM      3  C   UNL     1      31.590 -12.869   0.942  1.00  0.00     0.368 A 
ATOM      4  C   UNL     1      30.873 -11.687   0.752  1.00  0.00     0.162 A 
ATOM      5  C   UNL     1      29.726 -11.678  -0.047  1.00  0.00     0.128 A 
ATOM      6  C   UNL     1      29.295 -12.859  -0.657  1.00  0.00     0.093 A 
ATOM      7  C   UNL     1      29.996 -14.057  -0.482  1.00  0.00     0.136 A 
ATOM      8  C   UNL     1      31.163 -14.071   0.326  1.00  0.00     0.125 A 
ATOM      9  C   UNL     1      31.937 -15.222   0.547  1.00  0.00     0.078 A 
ATOM     10  C   UNL     1      33.077 -15.156   1.353  1.00  0.00     0.223 A 
ENDROOT
BRANCH   1  11
ATOM     11  C   UNL     1      34.601 -13.782   2.829  1.00  0.00     0.091 A 
ATOM     12  C   UNL     1      35.794 -13.261   2.304  1.00  0.00     0.068 A 
ATOM     13  C   UNL     1      36.919 -13.093   3.121  1.00  0.00     0.162 A 
ATOM     14  C   UNL     1      34.538 -14.101   4.197  1.00  0.00     0.068 A 
ATOM     15  C   UNL     1      36.857 -13.433   4.479  1.00  0.00     0.200 A 
ATOM     16  C   UNL     1      35.662 -13.934   5.020  1.00  0.00     0.162 A 
BRANCH  13  17
ATOM     17  O   UNL     1      38.105 -12.589   2.591  1.00  0.00    -0.504 OA
ATOM     18  H   UNL     1      38.848 -13.202   2.275  1.00  0.00     0.293 HD
ENDBRANCH  13  17
BRANCH  15  19
ATOM     19  O   UNL     1      37.989 -13.261   5.277  1.00  0.00    -0.502 OA
ATOM     20  H   UNL     1      38.805 -12.756   4.952  1.00  0.00     0.293 HD
ENDBRANCH  15  19
BRANCH  16  21
ATOM     21  O   UNL     1      35.591 -14.259   6.374  1.00  0.00    -0.504 OA
ATOM     22  H   UNL     1      34.731 -14.157   6.901  1.00  0.00     0.293 HD
ENDBRANCH  16  21
ENDBRANCH   1  11
BRANCH  10  23
ATOM     23  O   UNL     1      33.873 -16.287   1.532  1.00  0.00    -0.500 OA
ATOM     24  H   UNL     1      34.707 -16.446   0.978  1.00  0.00     0.294 HD
ENDBRANCH  10  23
BRANCH   5  25
ATOM     25  O   UNL     1      29.005 -10.501  -0.242  1.00  0.00    -0.507 OA
ATOM     26  H   UNL     1      28.600 -10.271  -1.142  1.00  0.00     0.293 HD
ENDBRANCH   5  25
BRANCH   7  27
ATOM     27  O   UNL     1      29.498 -15.194  -1.124  1.00  0.00    -0.507 OA
ATOM     28  H   UNL     1      29.976 -16.083  -1.163  1.00  0.00     0.293 HD
ENDBRANCH   7  27
TORSDOF 7
ENDMDL
MODEL 9
REMARK VINA RESULT:    -6.944      1.998      7.398
REMARK INTER + INTRA:          -8.836
REMARK INTER:                  -8.455
REMARK INTRA:                  -0.381
REMARK UNBOUND:                -0.269
REMARK SMILES Oc1cc(O)c2cc(O)c(-c3cc(O)c(O)c(O)c3)[o+]c2c1
REMARK SMILES IDX 10 1 20 2 21 3 22 4 2 5 3 6 4 7 6 8 7 9 8 10 11 11 12 12
REMARK SMILES IDX 13 13 19 14 15 15 17 16 14 17 16 19 18 21 9 23 1 25 5 27
REMARK H PARENT 14 18 16 20 18 22 9 24 1 26 5 28
REMARK Flexibility Score: inf
ROOT
ATOM      1  C   UNL     1      39.248 -11.425   8.457  1.00  0.00     0.402 A 
ATOM      2  O   UNL     1      39.353 -10.981   7.207  1.00  0.00    -0.202 OA
ATOM      3  C   UNL     1      38.421 -11.181   6.281  1.00  0.00     0.368 A 
ATOM      4  C   UNL     1      38.619 -10.673   4.996  1.00  0.00     0.162 A 
ATOM      5  C   UNL     1      37.653 -10.865   4.004  1.00  0.00     0.128 A 
ATOM      6  C   UNL     1      36.484 -11.569   4.300  1.00  0.00     0.093 A 
ATOM      7  C   UNL     1      36.260 -12.088   5.580  1.00  0.00     0.136 A 
ATOM      8  C   UNL     1      37.239 -11.897   6.591  1.00  0.00     0.125 A 
ATOM      9  C   UNL     1      37.107 -12.393   7.898  1.00  0.00     0.078 A 
ATOM     10  C   UNL     1      38.117 -12.168   8.838  1.00  0.00     0.223 A 
ENDROOT
BRANCH   1  11
ATOM     11  C   UNL     1      40.351 -11.129   9.400  1.00  0.00     0.091 A 
ATOM     12  C   UNL     1      41.509 -11.923   9.380  1.00  0.00     0.068 A 
ATOM     13  C   UNL     1      42.575 -11.652  10.248  1.00  0.00     0.162 A 
ATOM     14  C   UNL     1      40.290 -10.032  10.277  1.00  0.00     0.068 A 
ATOM     15  C   UNL     1      42.498 -10.571  11.135  1.00  0.00     0.200 A 
ATOM     16  C   UNL     1      41.355  -9.755  11.147  1.00  0.00     0.162 A 
BRANCH  13  17
ATOM     17  O   UNL     1      43.715 -12.453  10.235  1.00  0.00    -0.504 OA
ATOM     18  H   UNL     1      44.628 -12.073  10.012  1.00  0.00     0.293 HD
ENDBRANCH  13  17
BRANCH  15  19
ATOM     19  O   UNL     1      43.569 -10.317  11.994  1.00  0.00    -0.502 OA
ATOM     20  H   UNL     1      43.609  -9.488  12.574  1.00  0.00     0.293 HD
ENDBRANCH  15  19
BRANCH  16  21
ATOM     21  O   UNL     1      41.281  -8.669  12.018  1.00  0.00    -0.504 OA
ATOM     22  H   UNL     1      41.458  -7.722  11.702  1.00  0.00     0.293 HD
ENDBRANCH  16  21
ENDBRANCH   1  11
BRANCH  10  23
ATOM     23  O   UNL     1      38.008 -12.703  10.122  1.00  0.00    -0.500 OA
ATOM     24  H   UNL     1      37.837 -13.690  10.275  1.00  0.00     0.294 HD
ENDBRANCH  10  23
BRANCH   5  25
ATOM     25  O   UNL     1      37.845 -10.362   2.718  1.00  0.00    -0.507 OA
ATOM     26  H   UNL     1      38.747 -10.011   2.416  1.00  0.00     0.293 HD
ENDBRANCH   5  25
BRANCH   7  27
ATOM     27  O   UNL     1      35.063 -12.776   5.796  1.00  0.00    -0.507 OA
ATOM     28  H   UNL     1      34.325 -12.459   6.408  1.00  0.00     0.293 HD
ENDBRANCH   7  27
TORSDOF 7
ENDMDL
