MODEL 1
REMARK VINA RESULT:    -4.997      0.000      0.000
REMARK INTER + INTRA:          -8.791
REMARK INTER:                  -7.042
REMARK INTRA:                  -1.749
REMARK UNBOUND:                -1.749
REMARK SMILES COc1c(O[C@H]2O[C@@H](C(=O)[O-])[C@H](O)[C@@H](O)[C@H]2O)cc(O)c2c(=O)cc(-c3ccccc3)oc12
REMARK SMILES IDX 5 1 6 2 8 3 12 4 7 5 14 6 16 7 9 8 10 9 11 10 13 11 15 13
REMARK SMILES IDX 17 15 4 17 3 18 18 19 33 20 19 21 21 22 32 23 22 24 25 25
REMARK SMILES IDX 24 26 23 27 2 28 1 29 20 30 26 32 27 33 31 34 28 35 30 36
REMARK SMILES IDX 29 37
REMARK H PARENT 13 12 15 14 17 16 20 31
REMARK Flexibility Score: inf
ROOT
ATOM      1  O   UNL     1      19.918  -1.289  30.105  1.00  0.00    -0.458 OA
ENDROOT
BRANCH   1   2
ATOM      2  C   UNL     1      20.087  -2.568  30.780  1.00  0.00     0.339 C 
ATOM      3  C   UNL     1      17.793  -3.196  30.483  1.00  0.00     0.199 C 
ATOM      4  C   UNL     1      18.179  -4.202  29.337  1.00  0.00     0.180 C 
ATOM      5  O   UNL     1      18.872  -2.949  31.374  1.00  0.00    -0.328 OA
ATOM      6  C   UNL     1      19.433  -4.868  29.776  1.00  0.00     0.181 C 
ATOM      7  C   UNL     1      20.521  -3.737  29.914  1.00  0.00     0.214 C 
BRANCH   3   8
ATOM      8  C   UNL     1      17.182  -1.902  30.021  1.00  0.00     0.073 C 
ATOM      9  O   UNL     1      16.794  -1.773  28.828  1.00  0.00    -0.547 OA
ATOM     10  O   UNL     1      16.921  -0.898  30.986  1.00  0.00    -0.547 OA
ENDBRANCH   3   8
BRANCH   4  11
ATOM     11  O   UNL     1      17.276  -5.265  29.144  1.00  0.00    -0.387 OA
ATOM     12  H   UNL     1      16.856  -5.540  30.027  1.00  0.00     0.211 HD
ENDBRANCH   4  11
BRANCH   6  13
ATOM     13  O   UNL     1      19.811  -5.836  28.809  1.00  0.00    -0.387 OA
ATOM     14  H   UNL     1      20.777  -6.054  28.961  1.00  0.00     0.211 HD
ENDBRANCH   6  13
BRANCH   7  15
ATOM     15  O   UNL     1      21.036  -3.275  28.656  1.00  0.00    -0.384 OA
ATOM     16  H   UNL     1      21.449  -2.408  28.790  1.00  0.00     0.211 HD
ENDBRANCH   7  15
ENDBRANCH   1   2
BRANCH   1  17
ATOM     17  C   UNL     1      20.723  -0.189  30.461  1.00  0.00     0.172 A 
ATOM     18  C   UNL     1      22.011   0.019  29.820  1.00  0.00     0.205 A 
ATOM     19  C   UNL     1      20.193   0.762  31.334  1.00  0.00     0.097 A 
ATOM     20  C   UNL     1      22.381   1.383  29.648  1.00  0.00     0.188 A 
ATOM     21  C   UNL     1      21.127   1.746  31.663  1.00  0.00     0.134 A 
ATOM     22  C   UNL     1      21.734   2.329  30.509  1.00  0.00     0.111 A 
ATOM     23  O   UNL     1      22.799   1.742  28.405  1.00  0.00    -0.452 OA
ATOM     24  C   UNL     1      20.854   3.158  29.793  1.00  0.00     0.197 A 
ATOM     25  C   UNL     1      22.219   2.783  27.794  1.00  0.00     0.138 A 
ATOM     26  C   UNL     1      21.162   3.473  28.483  1.00  0.00     0.100 A 
ATOM     27  O   UNL     1      19.622   3.277  30.110  1.00  0.00    -0.289 OA
BRANCH  18  28
ATOM     28  O   UNL     1      22.831  -1.061  29.404  1.00  0.00    -0.490 OA
ATOM     29  C   UNL     1      23.854  -1.561  30.307  1.00  0.00     0.278 C 
ENDBRANCH  18  28
BRANCH  21  30
ATOM     30  O   UNL     1      21.736   1.549  32.900  1.00  0.00    -0.507 OA
ATOM     31  H   UNL     1      21.887   2.378  33.485  1.00  0.00     0.293 HD
ENDBRANCH  21  30
BRANCH  25  32
ATOM     32  C   UNL     1      22.457   3.045  26.361  1.00  0.00     0.017 A 
ATOM     33  C   UNL     1      23.685   2.601  25.741  1.00  0.00     0.012 A 
ATOM     34  C   UNL     1      21.525   3.738  25.529  1.00  0.00     0.012 A 
ATOM     35  C   UNL     1      24.237   3.386  24.750  1.00  0.00     0.001 A 
ATOM     36  C   UNL     1      22.045   4.409  24.369  1.00  0.00     0.001 A 
ATOM     37  C   UNL     1      23.446   4.467  24.172  1.00  0.00     0.000 A 
ENDBRANCH  25  32
ENDBRANCH   1  17
TORSDOF 9
ENDMDL
MODEL 2
REMARK VINA RESULT:    -4.994      2.186      7.493
REMARK INTER + INTRA:          -8.787
REMARK INTER:                  -7.224
REMARK INTRA:                  -1.563
REMARK UNBOUND:                -1.749
REMARK SMILES COc1c(O[C@H]2O[C@@H](C(=O)[O-])[C@H](O)[C@@H](O)[C@H]2O)cc(O)c2c(=O)cc(-c3ccccc3)oc12
REMARK SMILES IDX 5 1 6 2 8 3 12 4 7 5 14 6 16 7 9 8 10 9 11 10 13 11 15 13
REMARK SMILES IDX 17 15 4 17 3 18 18 19 33 20 19 21 21 22 32 23 22 24 25 25
REMARK SMILES IDX 24 26 23 27 2 28 1 29 20 30 26 32 27 33 31 34 28 35 30 36
REMARK SMILES IDX 29 37
REMARK H PARENT 13 12 15 14 17 16 20 31
REMARK Flexibility Score: inf
ROOT
ATOM      1  O   UNL     1      22.917   2.620  28.928  1.00  0.00    -0.458 OA
ENDROOT
BRANCH   1   2
ATOM      2  C   UNL     1      22.781   2.112  27.570  1.00  0.00     0.339 C 
ATOM      3  C   UNL     1      22.322   4.277  26.649  1.00  0.00     0.199 C 
ATOM      4  C   UNL     1      23.772   4.366  26.044  1.00  0.00     0.180 C 
ATOM      5  O   UNL     1      21.900   2.935  26.849  1.00  0.00    -0.328 OA
ATOM      6  C   UNL     1      24.084   3.012  25.516  1.00  0.00     0.181 C 
ATOM      7  C   UNL     1      24.055   2.030  26.748  1.00  0.00     0.214 C 
BRANCH   3   8
ATOM      8  C   UNL     1      22.096   5.093  27.892  1.00  0.00     0.073 C 
ATOM      9  O   UNL     1      23.010   5.838  28.338  1.00  0.00    -0.547 OA
ATOM     10  O   UNL     1      20.795   5.117  28.453  1.00  0.00    -0.547 OA
ENDBRANCH   3   8
BRANCH   4  11
ATOM     11  O   UNL     1      23.902   5.208  24.922  1.00  0.00    -0.387 OA
ATOM     12  H   UNL     1      24.856   5.545  24.839  1.00  0.00     0.211 HD
ENDBRANCH   4  11
BRANCH   6  13
ATOM     13  O   UNL     1      25.363   3.034  24.901  1.00  0.00    -0.387 OA
ATOM     14  H   UNL     1      25.645   3.991  24.823  1.00  0.00     0.211 HD
ENDBRANCH   6  13
BRANCH   7  15
ATOM     15  O   UNL     1      25.211   2.127  27.592  1.00  0.00    -0.384 OA
ATOM     16  H   UNL     1      25.164   2.958  28.088  1.00  0.00     0.211 HD
ENDBRANCH   7  15
ENDBRANCH   1   2
BRANCH   1  17
ATOM     17  C   UNL     1      22.604   1.795  30.027  1.00  0.00     0.172 A 
ATOM     18  C   UNL     1      21.221   1.468  30.331  1.00  0.00     0.205 A 
ATOM     19  C   UNL     1      23.653   1.192  30.721  1.00  0.00     0.097 A 
ATOM     20  C   UNL     1      21.018   0.171  30.880  1.00  0.00     0.188 A 
ATOM     21  C   UNL     1      23.202   0.475  31.830  1.00  0.00     0.134 A 
ATOM     22  C   UNL     1      22.157  -0.441  31.499  1.00  0.00     0.111 A 
ATOM     23  O   UNL     1      20.050  -0.586  30.298  1.00  0.00    -0.452 OA
ATOM     24  C   UNL     1      22.617  -1.541  30.756  1.00  0.00     0.197 A 
ATOM     25  C   UNL     1      20.348  -1.820  29.875  1.00  0.00     0.138 A 
ATOM     26  C   UNL     1      21.696  -2.290  30.047  1.00  0.00     0.100 A 
ATOM     27  O   UNL     1      23.826  -1.633  30.351  1.00  0.00    -0.289 OA
BRANCH  18  28
ATOM     28  O   UNL     1      20.160   2.381  30.098  1.00  0.00    -0.490 OA
ATOM     29  C   UNL     1      19.514   3.020  31.234  1.00  0.00     0.278 C 
ENDBRANCH  18  28
BRANCH  21  30
ATOM     30  O   UNL     1      23.341   1.160  33.035  1.00  0.00    -0.507 OA
ATOM     31  H   UNL     1      24.124   1.819  33.111  1.00  0.00     0.293 HD
ENDBRANCH  21  30
BRANCH  25  32
ATOM     32  C   UNL     1      19.411  -2.571  29.017  1.00  0.00     0.017 A 
ATOM     33  C   UNL     1      17.986  -2.404  29.187  1.00  0.00     0.012 A 
ATOM     34  C   UNL     1      19.840  -3.483  28.004  1.00  0.00     0.012 A 
ATOM     35  C   UNL     1      17.172  -3.501  28.987  1.00  0.00     0.001 A 
ATOM     36  C   UNL     1      18.930  -4.530  27.627  1.00  0.00     0.001 A 
ATOM     37  C   UNL     1      17.724  -4.693  28.351  1.00  0.00     0.000 A 
ENDBRANCH  25  32
ENDBRANCH   1  17
TORSDOF 9
ENDMDL
MODEL 3
REMARK VINA RESULT:    -4.695      2.137      7.855
REMARK INTER + INTRA:          -8.365
REMARK INTER:                  -6.792
REMARK INTRA:                  -1.574
REMARK UNBOUND:                -1.749
REMARK SMILES COc1c(O[C@H]2O[C@@H](C(=O)[O-])[C@H](O)[C@@H](O)[C@H]2O)cc(O)c2c(=O)cc(-c3ccccc3)oc12
REMARK SMILES IDX 5 1 6 2 8 3 12 4 7 5 14 6 16 7 9 8 10 9 11 10 13 11 15 13
REMARK SMILES IDX 17 15 4 17 3 18 18 19 33 20 19 21 21 22 32 23 22 24 25 25
REMARK SMILES IDX 24 26 23 27 2 28 1 29 20 30 26 32 27 33 31 34 28 35 30 36
REMARK SMILES IDX 29 37
REMARK H PARENT 13 12 15 14 17 16 20 31
REMARK Flexibility Score: inf
ROOT
ATOM      1  O   UNL     1      21.776   2.708  28.942  1.00  0.00    -0.458 OA
ENDROOT
BRANCH   1   2
ATOM      2  C   UNL     1      22.296   4.030  29.262  1.00  0.00     0.339 C 
ATOM      3  C   UNL     1      23.316   4.311  27.111  1.00  0.00     0.199 C 
ATOM      4  C   UNL     1      22.182   5.304  26.663  1.00  0.00     0.180 C 
ATOM      5  O   UNL     1      23.468   4.264  28.523  1.00  0.00    -0.328 OA
ATOM      6  C   UNL     1      21.893   6.162  27.842  1.00  0.00     0.181 C 
ATOM      7  C   UNL     1      21.376   5.204  28.981  1.00  0.00     0.214 C 
BRANCH   3   8
ATOM      8  C   UNL     1      23.215   2.922  26.543  1.00  0.00     0.073 C 
ATOM      9  O   UNL     1      22.326   2.648  25.692  1.00  0.00    -0.547 OA
ATOM     10  O   UNL     1      24.224   1.985  26.873  1.00  0.00    -0.547 OA
ENDBRANCH   3   8
BRANCH   4  11
ATOM     11  O   UNL     1      22.549   6.218  25.657  1.00  0.00    -0.387 OA
ATOM     12  H   UNL     1      23.278   6.841  25.991  1.00  0.00     0.211 HD
ENDBRANCH   4  11
BRANCH   6  13
ATOM     13  O   UNL     1      20.911   7.125  27.489  1.00  0.00    -0.387 OA
ATOM     14  H   UNL     1      20.020   6.768  27.777  1.00  0.00     0.211 HD
ENDBRANCH   6  13
BRANCH   7  15
ATOM     15  O   UNL     1      20.025   4.758  28.792  1.00  0.00    -0.384 OA
ATOM     16  H   UNL     1      19.797   4.148  29.510  1.00  0.00     0.211 HD
ENDBRANCH   7  15
ENDBRANCH   1   2
BRANCH   1  17
ATOM     17  C   UNL     1      21.925   1.648  29.858  1.00  0.00     0.172 A 
ATOM     18  C   UNL     1      20.756   1.016  30.448  1.00  0.00     0.205 A 
ATOM     19  C   UNL     1      23.204   1.135  30.074  1.00  0.00     0.097 A 
ATOM     20  C   UNL     1      20.897  -0.376  30.711  1.00  0.00     0.188 A 
ATOM     21  C   UNL     1      23.212   0.151  31.064  1.00  0.00     0.134 A 
ATOM     22  C   UNL     1      22.238  -0.867  30.829  1.00  0.00     0.111 A 
ATOM     23  O   UNL     1      19.897  -1.180  30.259  1.00  0.00    -0.452 OA
ATOM     24  C   UNL     1      22.577  -1.702  29.752  1.00  0.00     0.197 A 
ATOM     25  C   UNL     1      20.200  -2.234  29.492  1.00  0.00     0.138 A 
ATOM     26  C   UNL     1      21.582  -2.465  29.170  1.00  0.00     0.100 A 
ATOM     27  O   UNL     1      23.602  -1.487  29.019  1.00  0.00    -0.289 OA
BRANCH  18  28
ATOM     28  O   UNL     1      19.571   1.739  30.738  1.00  0.00    -0.490 OA
ATOM     29  C   UNL     1      19.603   2.765  31.768  1.00  0.00     0.278 C 
ENDBRANCH  18  28
BRANCH  21  30
ATOM     30  O   UNL     1      23.632   0.613  32.310  1.00  0.00    -0.507 OA
ATOM     31  H   UNL     1      24.274   1.413  32.320  1.00  0.00     0.293 HD
ENDBRANCH  21  30
BRANCH  25  32
ATOM     32  C   UNL     1      19.143  -2.974  28.775  1.00  0.00     0.017 A 
ATOM     33  C   UNL     1      17.754  -2.645  28.999  1.00  0.00     0.012 A 
ATOM     34  C   UNL     1      19.418  -4.030  27.853  1.00  0.00     0.012 A 
ATOM     35  C   UNL     1      16.828  -3.668  28.968  1.00  0.00     0.001 A 
ATOM     36  C   UNL     1      18.391  -5.013  27.647  1.00  0.00     0.001 A 
ATOM     37  C   UNL     1      17.222  -4.972  28.446  1.00  0.00     0.000 A 
ENDBRANCH  25  32
ENDBRANCH   1  17
TORSDOF 9
ENDMDL
MODEL 4
REMARK VINA RESULT:    -4.653      3.551      5.869
REMARK INTER + INTRA:          -8.306
REMARK INTER:                  -6.851
REMARK INTRA:                  -1.455
REMARK UNBOUND:                -1.749
REMARK SMILES COc1c(O[C@H]2O[C@@H](C(=O)[O-])[C@H](O)[C@@H](O)[C@H]2O)cc(O)c2c(=O)cc(-c3ccccc3)oc12
REMARK SMILES IDX 5 1 6 2 8 3 12 4 7 5 14 6 16 7 9 8 10 9 11 10 13 11 15 13
REMARK SMILES IDX 17 15 4 17 3 18 18 19 33 20 19 21 21 22 32 23 22 24 25 25
REMARK SMILES IDX 24 26 23 27 2 28 1 29 20 30 26 32 27 33 31 34 28 35 30 36
REMARK SMILES IDX 29 37
REMARK H PARENT 13 12 15 14 17 16 20 31
REMARK Flexibility Score: inf
ROOT
ATOM      1  O   UNL     1      22.603   3.318  29.528  1.00  0.00    -0.458 OA
ENDROOT
BRANCH   1   2
ATOM      2  C   UNL     1      21.696   2.208  29.785  1.00  0.00     0.339 C 
ATOM      3  C   UNL     1      22.849   0.729  28.291  1.00  0.00     0.199 C 
ATOM      4  C   UNL     1      23.497  -0.043  29.498  1.00  0.00     0.180 C 
ATOM      5  O   UNL     1      21.638   1.380  28.651  1.00  0.00    -0.328 OA
ATOM      6  C   UNL     1      22.436  -0.163  30.531  1.00  0.00     0.181 C 
ATOM      7  C   UNL     1      22.048   1.304  30.953  1.00  0.00     0.214 C 
BRANCH   3   8
ATOM      8  C   UNL     1      23.765   1.679  27.571  1.00  0.00     0.073 C 
ATOM      9  O   UNL     1      24.970   1.791  27.925  1.00  0.00    -0.547 OA
ATOM     10  O   UNL     1      23.285   2.325  26.405  1.00  0.00    -0.547 OA
ENDBRANCH   3   8
BRANCH   4  11
ATOM     11  O   UNL     1      23.865  -1.375  29.229  1.00  0.00    -0.387 OA
ATOM     12  H   UNL     1      23.246  -2.020  29.711  1.00  0.00     0.211 HD
ENDBRANCH   4  11
BRANCH   6  13
ATOM     13  O   UNL     1      22.938  -0.904  31.633  1.00  0.00    -0.387 OA
ATOM     14  H   UNL     1      23.439  -0.267  32.222  1.00  0.00     0.211 HD
ENDBRANCH   6  13
BRANCH   7  15
ATOM     15  O   UNL     1      23.012   1.933  31.809  1.00  0.00    -0.384 OA
ATOM     16  H   UNL     1      22.717   2.837  31.998  1.00  0.00     0.211 HD
ENDBRANCH   7  15
ENDBRANCH   1   2
BRANCH   1  17
ATOM     17  C   UNL     1      22.149   4.455  28.831  1.00  0.00     0.172 A 
ATOM     18  C   UNL     1      23.078   5.508  28.455  1.00  0.00     0.205 A 
ATOM     19  C   UNL     1      20.825   4.476  28.391  1.00  0.00     0.097 A 
ATOM     20  C   UNL     1      22.778   6.163  27.228  1.00  0.00     0.188 A 
ATOM     21  C   UNL     1      20.492   5.693  27.793  1.00  0.00     0.134 A 
ATOM     22  C   UNL     1      21.421   6.071  26.775  1.00  0.00     0.111 A 
ATOM     23  O   UNL     1      23.802   6.282  26.341  1.00  0.00    -0.452 OA
ATOM     24  C   UNL     1      21.316   5.276  25.622  1.00  0.00     0.197 A 
ATOM     25  C   UNL     1      23.636   5.850  25.085  1.00  0.00     0.138 A 
ATOM     26  C   UNL     1      22.372   5.263  24.731  1.00  0.00     0.100 A 
ATOM     27  O   UNL     1      20.533   4.268  25.559  1.00  0.00    -0.289 OA
BRANCH  18  28
ATOM     28  O   UNL     1      24.195   5.853  29.260  1.00  0.00    -0.490 OA
ATOM     29  C   UNL     1      25.453   5.151  29.062  1.00  0.00     0.278 C 
ENDBRANCH  18  28
BRANCH  21  30
ATOM     30  O   UNL     1      19.797   6.559  28.633  1.00  0.00    -0.507 OA
ATOM     31  H   UNL     1      20.345   7.077  29.328  1.00  0.00     0.293 HD
ENDBRANCH  21  30
BRANCH  25  32
ATOM     32  C   UNL     1      24.788   5.723  24.172  1.00  0.00     0.017 A 
ATOM     33  C   UNL     1      25.846   6.708  24.205  1.00  0.00     0.012 A 
ATOM     34  C   UNL     1      24.922   4.661  23.226  1.00  0.00     0.012 A 
ATOM     35  C   UNL     1      26.466   7.039  23.017  1.00  0.00     0.001 A 
ATOM     36  C   UNL     1      25.729   4.907  22.063  1.00  0.00     0.001 A 
ATOM     37  C   UNL     1      26.242   6.208  21.839  1.00  0.00     0.000 A 
ENDBRANCH  25  32
ENDBRANCH   1  17
TORSDOF 9
ENDMDL
MODEL 5
REMARK VINA RESULT:    -4.546      5.248     10.652
REMARK INTER + INTRA:          -8.156
REMARK INTER:                  -6.608
REMARK INTRA:                  -1.547
REMARK UNBOUND:                -1.749
REMARK SMILES COc1c(O[C@H]2O[C@@H](C(=O)[O-])[C@H](O)[C@@H](O)[C@H]2O)cc(O)c2c(=O)cc(-c3ccccc3)oc12
REMARK SMILES IDX 5 1 6 2 8 3 12 4 7 5 14 6 16 7 9 8 10 9 11 10 13 11 15 13
REMARK SMILES IDX 17 15 4 17 3 18 18 19 33 20 19 21 21 22 32 23 22 24 25 25
REMARK SMILES IDX 24 26 23 27 2 28 1 29 20 30 26 32 27 33 31 34 28 35 30 36
REMARK SMILES IDX 29 37
REMARK H PARENT 13 12 15 14 17 16 20 31
REMARK Flexibility Score: inf
ROOT
ATOM      1  O   UNL     1      17.288  -6.147  29.751  1.00  0.00    -0.458 OA
ENDROOT
BRANCH   1   2
ATOM      2  C   UNL     1      17.842  -5.588  28.525  1.00  0.00     0.339 C 
ATOM      3  C   UNL     1      17.413  -3.325  29.189  1.00  0.00     0.199 C 
ATOM      4  C   UNL     1      18.936  -3.093  29.510  1.00  0.00     0.180 C 
ATOM      5  O   UNL     1      17.211  -4.364  28.242  1.00  0.00    -0.328 OA
ATOM      6  C   UNL     1      19.695  -3.776  28.430  1.00  0.00     0.181 C 
ATOM      7  C   UNL     1      19.333  -5.307  28.523  1.00  0.00     0.214 C 
BRANCH   3   8
ATOM      8  C   UNL     1      16.529  -3.523  30.389  1.00  0.00     0.073 C 
ATOM      9  O   UNL     1      16.997  -3.389  31.552  1.00  0.00    -0.547 OA
ATOM     10  O   UNL     1      15.141  -3.712  30.178  1.00  0.00    -0.547 OA
ENDBRANCH   3   8
BRANCH   4  11
ATOM     11  O   UNL     1      19.367  -1.754  29.436  1.00  0.00    -0.387 OA
ATOM     12  H   UNL     1      18.762  -1.219  28.819  1.00  0.00     0.211 HD
ENDBRANCH   4  11
BRANCH   6  13
ATOM     13  O   UNL     1      21.084  -3.559  28.626  1.00  0.00    -0.387 OA
ATOM     14  H   UNL     1      21.188  -2.698  29.127  1.00  0.00     0.211 HD
ENDBRANCH   6  13
BRANCH   7  15
ATOM     15  O   UNL     1      19.980  -5.988  29.609  1.00  0.00    -0.384 OA
ATOM     16  H   UNL     1      20.933  -6.012  29.435  1.00  0.00     0.211 HD
ENDBRANCH   7  15
ENDBRANCH   1   2
BRANCH   1  17
ATOM     17  C   UNL     1      16.708  -7.430  29.744  1.00  0.00     0.172 A 
ATOM     18  C   UNL     1      15.606  -7.735  28.846  1.00  0.00     0.205 A 
ATOM     19  C   UNL     1      17.306  -8.430  30.511  1.00  0.00     0.097 A 
ATOM     20  C   UNL     1      15.579  -9.073  28.362  1.00  0.00     0.188 A 
ATOM     21  C   UNL     1      16.579  -9.621  30.475  1.00  0.00     0.134 A 
ATOM     22  C   UNL     1      16.291 -10.043  29.141  1.00  0.00     0.111 A 
ATOM     23  O   UNL     1      15.436  -9.226  27.019  1.00  0.00    -0.452 OA
ATOM     24  C   UNL     1      17.428 -10.513  28.463  1.00  0.00     0.197 A 
ATOM     25  C   UNL     1      16.317  -9.978  26.347  1.00  0.00     0.138 A 
ATOM     26  C   UNL     1      17.391 -10.588  27.084  1.00  0.00     0.100 A 
ATOM     27  O   UNL     1      18.597 -10.462  28.978  1.00  0.00    -0.289 OA
BRANCH  18  28
ATOM     28  O   UNL     1      14.633  -6.766  28.488  1.00  0.00    -0.490 OA
ATOM     29  C   UNL     1      13.360  -6.748  29.192  1.00  0.00     0.278 C 
ENDBRANCH  18  28
BRANCH  21  30
ATOM     30  O   UNL     1      15.769  -9.818  31.591  1.00  0.00    -0.507 OA
ATOM     31  H   UNL     1      16.236  -9.886  32.502  1.00  0.00     0.293 HD
ENDBRANCH  21  30
BRANCH  25  32
ATOM     32  C   UNL     1      16.352  -9.963  24.872  1.00  0.00     0.017 A 
ATOM     33  C   UNL     1      15.582  -8.981  24.142  1.00  0.00     0.012 A 
ATOM     34  C   UNL     1      17.116 -10.890  24.100  1.00  0.00     0.012 A 
ATOM     35  C   UNL     1      15.029  -9.352  22.934  1.00  0.00     0.001 A 
ATOM     36  C   UNL     1      16.678 -11.154  22.757  1.00  0.00     0.001 A 
ATOM     37  C   UNL     1      15.456 -10.597  22.305  1.00  0.00     0.000 A 
ENDBRANCH  25  32
ENDBRANCH   1  17
TORSDOF 9
ENDMDL
MODEL 6
REMARK VINA RESULT:    -4.492      2.745      7.876
REMARK INTER + INTRA:          -8.079
REMARK INTER:                  -6.701
REMARK INTRA:                  -1.378
REMARK UNBOUND:                -1.749
REMARK SMILES COc1c(O[C@H]2O[C@@H](C(=O)[O-])[C@H](O)[C@@H](O)[C@H]2O)cc(O)c2c(=O)cc(-c3ccccc3)oc12
REMARK SMILES IDX 5 1 6 2 8 3 12 4 7 5 14 6 16 7 9 8 10 9 11 10 13 11 15 13
REMARK SMILES IDX 17 15 4 17 3 18 18 19 33 20 19 21 21 22 32 23 22 24 25 25
REMARK SMILES IDX 24 26 23 27 2 28 1 29 20 30 26 32 27 33 31 34 28 35 30 36
REMARK SMILES IDX 29 37
REMARK H PARENT 13 12 15 14 17 16 20 31
REMARK Flexibility Score: inf
ROOT
ATOM      1  O   UNL     1      23.535   3.392  28.738  1.00  0.00    -0.458 OA
ENDROOT
BRANCH   1   2
ATOM      2  C   UNL     1      23.117   4.509  27.902  1.00  0.00     0.339 C 
ATOM      3  C   UNL     1      25.261   4.716  26.851  1.00  0.00     0.199 C 
ATOM      4  C   UNL     1      24.719   4.047  25.534  1.00  0.00     0.180 C 
ATOM      5  O   UNL     1      24.228   5.320  27.616  1.00  0.00    -0.328 OA
ATOM      6  C   UNL     1      23.355   4.597  25.321  1.00  0.00     0.181 C 
ATOM      7  C   UNL     1      22.493   4.157  26.564  1.00  0.00     0.214 C 
BRANCH   3   8
ATOM      8  C   UNL     1      26.111   3.828  27.717  1.00  0.00     0.073 C 
ATOM      9  O   UNL     1      26.409   2.664  27.335  1.00  0.00    -0.547 OA
ATOM     10  O   UNL     1      26.684   4.380  28.889  1.00  0.00    -0.547 OA
ENDBRANCH   3   8
BRANCH   4  11
ATOM     11  O   UNL     1      25.414   4.392  24.358  1.00  0.00    -0.387 OA
ATOM     12  H   UNL     1      26.412   4.248  24.479  1.00  0.00     0.211 HD
ENDBRANCH   4  11
BRANCH   6  13
ATOM     13  O   UNL     1      22.825   4.076  24.112  1.00  0.00    -0.387 OA
ATOM     14  H   UNL     1      22.748   4.835  23.463  1.00  0.00     0.211 HD
ENDBRANCH   6  13
BRANCH   7  15
ATOM     15  O   UNL     1      22.099   2.777  26.535  1.00  0.00    -0.384 OA
ATOM     16  H   UNL     1      22.885   2.228  26.677  1.00  0.00     0.211 HD
ENDBRANCH   7  15
ENDBRANCH   1   2
BRANCH   1  17
ATOM     17  C   UNL     1      22.882   3.140  29.960  1.00  0.00     0.172 A 
ATOM     18  C   UNL     1      21.467   2.806  29.984  1.00  0.00     0.205 A 
ATOM     19  C   UNL     1      23.653   3.081  31.121  1.00  0.00     0.097 A 
ATOM     20  C   UNL     1      21.083   1.900  31.012  1.00  0.00     0.188 A 
ATOM     21  C   UNL     1      22.866   2.909  32.262  1.00  0.00     0.134 A 
ATOM     22  C   UNL     1      21.962   1.810  32.140  1.00  0.00     0.111 A 
ATOM     23  O   UNL     1      20.331   0.834  30.627  1.00  0.00    -0.452 OA
ATOM     24  C   UNL     1      22.612   0.565  32.188  1.00  0.00     0.197 A 
ATOM     25  C   UNL     1      20.726  -0.401  30.959  1.00  0.00     0.138 A 
ATOM     26  C   UNL     1      21.946  -0.546  31.707  1.00  0.00     0.100 A 
ATOM     27  O   UNL     1      23.885   0.463  32.235  1.00  0.00    -0.289 OA
BRANCH  18  28
ATOM     28  O   UNL     1      20.547   3.349  29.051  1.00  0.00    -0.490 OA
ATOM     29  C   UNL     1      19.779   4.528  29.419  1.00  0.00     0.278 C 
ENDBRANCH  18  28
BRANCH  21  30
ATOM     30  O   UNL     1      22.635   4.088  32.966  1.00  0.00    -0.507 OA
ATOM     31  H   UNL     1      23.455   4.589  33.324  1.00  0.00     0.293 HD
ENDBRANCH  21  30
BRANCH  25  32
ATOM     32  C   UNL     1      20.091  -1.586  30.351  1.00  0.00     0.017 A 
ATOM     33  C   UNL     1      20.909  -2.612  29.745  1.00  0.00     0.012 A 
ATOM     34  C   UNL     1      18.676  -1.781  30.316  1.00  0.00     0.012 A 
ATOM     35  C   UNL     1      20.422  -3.261  28.629  1.00  0.00     0.001 A 
ATOM     36  C   UNL     1      18.148  -2.618  29.274  1.00  0.00     0.001 A 
ATOM     37  C   UNL     1      19.018  -3.100  28.265  1.00  0.00     0.000 A 
ENDBRANCH  25  32
ENDBRANCH   1  17
TORSDOF 9
ENDMDL
MODEL 7
REMARK VINA RESULT:    -4.448      6.899     11.281
REMARK INTER + INTRA:          -8.017
REMARK INTER:                  -6.226
REMARK INTRA:                  -1.791
REMARK UNBOUND:                -1.749
REMARK SMILES COc1c(O[C@H]2O[C@@H](C(=O)[O-])[C@H](O)[C@@H](O)[C@H]2O)cc(O)c2c(=O)cc(-c3ccccc3)oc12
REMARK SMILES IDX 5 1 6 2 8 3 12 4 7 5 14 6 16 7 9 8 10 9 11 10 13 11 15 13
REMARK SMILES IDX 17 15 4 17 3 18 18 19 33 20 19 21 21 22 32 23 22 24 25 25
REMARK SMILES IDX 24 26 23 27 2 28 1 29 20 30 26 32 27 33 31 34 28 35 30 36
REMARK SMILES IDX 29 37
REMARK H PARENT 13 12 15 14 17 16 20 31
REMARK Flexibility Score: inf
ROOT
ATOM      1  O   UNL     1      15.635 -10.467  25.452  1.00  0.00    -0.458 OA
ENDROOT
BRANCH   1   2
ATOM      2  C   UNL     1      15.766 -11.873  25.097  1.00  0.00     0.339 C 
ATOM      3  C   UNL     1      14.602 -11.608  23.018  1.00  0.00     0.199 C 
ATOM      4  C   UNL     1      15.950 -11.691  22.212  1.00  0.00     0.180 C 
ATOM      5  O   UNL     1      14.686 -12.252  24.282  1.00  0.00    -0.328 OA
ATOM      6  C   UNL     1      16.760 -12.750  22.868  1.00  0.00     0.181 C 
ATOM      7  C   UNL     1      17.024 -12.267  24.344  1.00  0.00     0.214 C 
BRANCH   3   8
ATOM      8  C   UNL     1      14.027 -10.226  23.166  1.00  0.00     0.073 C 
ATOM      9  O   UNL     1      14.568  -9.248  22.581  1.00  0.00    -0.547 OA
ATOM     10  O   UNL     1      12.794 -10.079  23.847  1.00  0.00    -0.547 OA
ENDBRANCH   3   8
BRANCH   4  11
ATOM     11  O   UNL     1      15.824 -12.133  20.880  1.00  0.00    -0.387 OA
ATOM     12  H   UNL     1      14.872 -12.432  20.692  1.00  0.00     0.211 HD
ENDBRANCH   4  11
BRANCH   6  13
ATOM     13  O   UNL     1      17.975 -12.919  22.153  1.00  0.00    -0.387 OA
ATOM     14  H   UNL     1      18.438 -13.724  22.529  1.00  0.00     0.211 HD
ENDBRANCH   6  13
BRANCH   7  15
ATOM     15  O   UNL     1      18.019 -11.238  24.446  1.00  0.00    -0.384 OA
ATOM     16  H   UNL     1      18.693 -11.391  23.766  1.00  0.00     0.211 HD
ENDBRANCH   7  15
ENDBRANCH   1   2
BRANCH   1  17
ATOM     17  C   UNL     1      15.491 -10.089  26.801  1.00  0.00     0.172 A 
ATOM     18  C   UNL     1      16.637  -9.615  27.559  1.00  0.00     0.205 A 
ATOM     19  C   UNL     1      14.206 -10.046  27.342  1.00  0.00     0.097 A 
ATOM     20  C   UNL     1      16.341  -8.623  28.537  1.00  0.00     0.188 A 
ATOM     21  C   UNL     1      14.222  -9.739  28.703  1.00  0.00     0.134 A 
ATOM     22  C   UNL     1      14.982  -8.563  28.987  1.00  0.00     0.111 A 
ATOM     23  O   UNL     1      17.121  -7.510  28.522  1.00  0.00    -0.452 OA
ATOM     24  C   UNL     1      14.347  -7.388  28.551  1.00  0.00     0.197 A 
ATOM     25  C   UNL     1      16.541  -6.304  28.462  1.00  0.00     0.138 A 
ATOM     26  C   UNL     1      15.106  -6.243  28.406  1.00  0.00     0.100 A 
ATOM     27  O   UNL     1      13.255  -7.411  27.887  1.00  0.00    -0.289 OA
BRANCH  18  28
ATOM     28  O   UNL     1      17.947 -10.112  27.337  1.00  0.00    -0.490 OA
ATOM     29  C   UNL     1      18.361 -11.337  28.002  1.00  0.00     0.278 C 
ENDBRANCH  18  28
BRANCH  21  30
ATOM     30  O   UNL     1      14.090 -10.851  29.531  1.00  0.00    -0.507 OA
ATOM     31  H   UNL     1      13.549 -10.731  30.394  1.00  0.00     0.293 HD
ENDBRANCH  21  30
BRANCH  25  32
ATOM     32  C   UNL     1      17.342  -5.095  28.186  1.00  0.00     0.017 A 
ATOM     33  C   UNL     1      18.578  -5.202  27.445  1.00  0.00     0.012 A 
ATOM     34  C   UNL     1      16.961  -3.790  28.627  1.00  0.00     0.012 A 
ATOM     35  C   UNL     1      19.616  -4.359  27.783  1.00  0.00     0.001 A 
ATOM     36  C   UNL     1      18.007  -2.820  28.802  1.00  0.00     0.001 A 
ATOM     37  C   UNL     1      19.357  -3.223  28.662  1.00  0.00     0.000 A 
ENDBRANCH  25  32
ENDBRANCH   1  17
TORSDOF 9
ENDMDL
MODEL 8
REMARK VINA RESULT:    -4.440      6.345     10.907
REMARK INTER + INTRA:          -8.006
REMARK INTER:                  -6.558
REMARK INTRA:                  -1.448
REMARK UNBOUND:                -1.749
REMARK SMILES COc1c(O[C@H]2O[C@@H](C(=O)[O-])[C@H](O)[C@@H](O)[C@H]2O)cc(O)c2c(=O)cc(-c3ccccc3)oc12
REMARK SMILES IDX 5 1 6 2 8 3 12 4 7 5 14 6 16 7 9 8 10 9 11 10 13 11 15 13
REMARK SMILES IDX 17 15 4 17 3 18 18 19 33 20 19 21 21 22 32 23 22 24 25 25
REMARK SMILES IDX 24 26 23 27 2 28 1 29 20 30 26 32 27 33 31 34 28 35 30 36
REMARK SMILES IDX 29 37
REMARK H PARENT 13 12 15 14 17 16 20 31
REMARK Flexibility Score: inf
ROOT
ATOM      1  O   UNL     1      15.881 -10.341  25.946  1.00  0.00    -0.458 OA
ENDROOT
BRANCH   1   2
ATOM      2  C   UNL     1      16.051  -9.391  24.855  1.00  0.00     0.339 C 
ATOM      3  C   UNL     1      16.939 -11.042  23.361  1.00  0.00     0.199 C 
ATOM      4  C   UNL     1      15.583 -11.103  22.566  1.00  0.00     0.180 C 
ATOM      5  O   UNL     1      17.115  -9.804  24.036  1.00  0.00    -0.328 OA
ATOM      6  C   UNL     1      15.100  -9.702  22.462  1.00  0.00     0.181 C 
ATOM      7  C   UNL     1      14.858  -9.198  23.936  1.00  0.00     0.214 C 
BRANCH   3   8
ATOM      8  C   UNL     1      17.188 -12.194  24.295  1.00  0.00     0.073 C 
ATOM      9  O   UNL     1      16.333 -13.114  24.409  1.00  0.00    -0.547 OA
ATOM     10  O   UNL     1      18.455 -12.292  24.920  1.00  0.00    -0.547 OA
ENDBRANCH   3   8
BRANCH   4  11
ATOM     11  O   UNL     1      15.693 -11.527  21.227  1.00  0.00    -0.387 OA
ATOM     12  H   UNL     1      16.389 -12.261  21.142  1.00  0.00     0.211 HD
ENDBRANCH   4  11
BRANCH   6  13
ATOM     13  O   UNL     1      13.901  -9.676  21.703  1.00  0.00    -0.387 OA
ATOM     14  H   UNL     1      14.153  -9.742  20.736  1.00  0.00     0.211 HD
ENDBRANCH   6  13
BRANCH   7  15
ATOM     15  O   UNL     1      13.664  -9.720  24.536  1.00  0.00    -0.384 OA
ATOM     16  H   UNL     1      13.076 -10.037  23.833  1.00  0.00     0.211 HD
ENDBRANCH   7  15
ENDBRANCH   1   2
BRANCH   1  17
ATOM     17  C   UNL     1      15.763  -9.880  27.272  1.00  0.00     0.172 A 
ATOM     18  C   UNL     1      16.927  -9.380  27.985  1.00  0.00     0.205 A 
ATOM     19  C   UNL     1      14.486  -9.786  27.827  1.00  0.00     0.097 A 
ATOM     20  C   UNL     1      16.660  -8.327  28.905  1.00  0.00     0.188 A 
ATOM     21  C   UNL     1      14.527  -9.398  29.168  1.00  0.00     0.134 A 
ATOM     22  C   UNL     1      15.308  -8.219  29.370  1.00  0.00     0.111 A 
ATOM     23  O   UNL     1      17.456  -7.229  28.813  1.00  0.00    -0.452 OA
ATOM     24  C   UNL     1      14.685  -7.063  28.874  1.00  0.00     0.197 A 
ATOM     25  C   UNL     1      16.893  -6.020  28.689  1.00  0.00     0.138 A 
ATOM     26  C   UNL     1      15.458  -5.940  28.649  1.00  0.00     0.100 A 
ATOM     27  O   UNL     1      13.583  -7.108  28.227  1.00  0.00    -0.289 OA
BRANCH  18  28
ATOM     28  O   UNL     1      18.226  -9.910  27.775  1.00  0.00    -0.490 OA
ATOM     29  C   UNL     1      18.521 -11.261  28.225  1.00  0.00     0.278 C 
ENDBRANCH  18  28
BRANCH  21  30
ATOM     30  O   UNL     1      14.392 -10.457  30.062  1.00  0.00    -0.507 OA
ATOM     31  H   UNL     1      14.405 -11.405  29.671  1.00  0.00     0.293 HD
ENDBRANCH  21  30
BRANCH  25  32
ATOM     32  C   UNL     1      17.707  -4.843  28.330  1.00  0.00     0.017 A 
ATOM     33  C   UNL     1      18.951  -5.016  27.614  1.00  0.00     0.012 A 
ATOM     34  C   UNL     1      17.333  -3.505  28.664  1.00  0.00     0.012 A 
ATOM     35  C   UNL     1      19.992  -4.157  27.899  1.00  0.00     0.001 A 
ATOM     36  C   UNL     1      18.385  -2.531  28.776  1.00  0.00     0.001 A 
ATOM     37  C   UNL     1      19.733  -2.955  28.684  1.00  0.00     0.000 A 
ENDBRANCH  25  32
ENDBRANCH   1  17
TORSDOF 9
ENDMDL
MODEL 9
REMARK VINA RESULT:    -4.389      4.663      8.065
REMARK INTER + INTRA:          -7.934
REMARK INTER:                  -6.730
REMARK INTRA:                  -1.204
REMARK UNBOUND:                -1.749
REMARK SMILES COc1c(O[C@H]2O[C@@H](C(=O)[O-])[C@H](O)[C@@H](O)[C@H]2O)cc(O)c2c(=O)cc(-c3ccccc3)oc12
REMARK SMILES IDX 5 1 6 2 8 3 12 4 7 5 14 6 16 7 9 8 10 9 11 10 13 11 15 13
REMARK SMILES IDX 17 15 4 17 3 18 18 19 33 20 19 21 21 22 32 23 22 24 25 25
REMARK SMILES IDX 24 26 23 27 2 28 1 29 20 30 26 32 27 33 31 34 28 35 30 36
REMARK SMILES IDX 29 37
REMARK H PARENT 13 12 15 14 17 16 20 31
REMARK Flexibility Score: inf
ROOT
ATOM      1  O   UNL     1      20.708   4.352  28.094  1.00  0.00    -0.458 OA
ENDROOT
BRANCH   1   2
ATOM      2  C   UNL     1      21.893   4.855  27.411  1.00  0.00     0.339 C 
ATOM      3  C   UNL     1      23.290   3.083  28.220  1.00  0.00     0.199 C 
ATOM      4  C   UNL     1      23.269   2.377  26.814  1.00  0.00     0.180 C 
ATOM      5  O   UNL     1      23.041   4.479  28.129  1.00  0.00    -0.328 OA
ATOM      6  C   UNL     1      23.376   3.461  25.804  1.00  0.00     0.181 C 
ATOM      7  C   UNL     1      22.106   4.375  25.987  1.00  0.00     0.214 C 
BRANCH   3   8
ATOM      8  C   UNL     1      22.411   2.456  29.266  1.00  0.00     0.073 C 
ATOM      9  O   UNL     1      21.643   1.502  28.962  1.00  0.00    -0.547 OA
ATOM     10  O   UNL     1      22.576   2.858  30.614  1.00  0.00    -0.547 OA
ENDBRANCH   3   8
BRANCH   4  11
ATOM     11  O   UNL     1      24.375   1.547  26.544  1.00  0.00    -0.387 OA
ATOM     12  H   UNL     1      24.811   1.810  25.665  1.00  0.00     0.211 HD
ENDBRANCH   4  11
BRANCH   6  13
ATOM     13  O   UNL     1      23.420   2.888  24.506  1.00  0.00    -0.387 OA
ATOM     14  H   UNL     1      24.066   3.424  23.960  1.00  0.00     0.211 HD
ENDBRANCH   6  13
BRANCH   7  15
ATOM     15  O   UNL     1      20.901   3.803  25.457  1.00  0.00    -0.384 OA
ATOM     16  H   UNL     1      20.283   3.651  26.188  1.00  0.00     0.211 HD
ENDBRANCH   7  15
ENDBRANCH   1   2
BRANCH   1  17
ATOM     17  C   UNL     1      19.947   5.209  28.913  1.00  0.00     0.172 A 
ATOM     18  C   UNL     1      19.142   6.267  28.324  1.00  0.00     0.205 A 
ATOM     19  C   UNL     1      19.876   4.928  30.278  1.00  0.00     0.097 A 
ATOM     20  C   UNL     1      17.933   6.557  29.018  1.00  0.00     0.188 A 
ATOM     21  C   UNL     1      19.161   5.903  30.975  1.00  0.00     0.134 A 
ATOM     22  C   UNL     1      17.881   6.160  30.394  1.00  0.00     0.111 A 
ATOM     23  O   UNL     1      16.803   6.610  28.264  1.00  0.00    -0.452 OA
ATOM     24  C   UNL     1      16.975   5.105  30.591  1.00  0.00     0.197 A 
ATOM     25  C   UNL     1      15.745   5.869  28.616  1.00  0.00     0.138 A 
ATOM     26  C   UNL     1      15.857   5.035  29.782  1.00  0.00     0.100 A 
ATOM     27  O   UNL     1      17.318   4.007  31.147  1.00  0.00    -0.289 OA
BRANCH  18  28
ATOM     28  O   UNL     1      19.541   6.954  27.149  1.00  0.00    -0.490 OA
ATOM     29  C   UNL     1      18.965   6.566  25.872  1.00  0.00     0.278 C 
ENDBRANCH  18  28
BRANCH  21  30
ATOM     30  O   UNL     1      19.968   6.833  31.625  1.00  0.00    -0.507 OA
ATOM     31  H   UNL     1      19.555   7.750  31.829  1.00  0.00     0.293 HD
ENDBRANCH  21  30
BRANCH  25  32
ATOM     32  C   UNL     1      14.603   5.699  27.696  1.00  0.00     0.017 A 
ATOM     33  C   UNL     1      13.854   6.854  27.255  1.00  0.00     0.012 A 
ATOM     34  C   UNL     1      14.178   4.426  27.207  1.00  0.00     0.012 A 
ATOM     35  C   UNL     1      12.495   6.712  27.056  1.00  0.00     0.001 A 
ATOM     36  C   UNL     1      12.806   4.296  26.801  1.00  0.00     0.001 A 
ATOM     37  C   UNL     1      11.914   5.374  27.021  1.00  0.00     0.000 A 
ENDBRANCH  25  32
ENDBRANCH   1  17
TORSDOF 9
ENDMDL
