MODEL 1
REMARK VINA RESULT:    -4.729      0.000      0.000
REMARK INTER + INTRA:          -4.729
REMARK INTER:                  -4.729
REMARK INTRA:                   0.000
REMARK UNBOUND:                 0.000
REMARK SMILES CC(C)=C1CC[C@H](C)CC1=O
REMARK SMILES IDX 8 1 7 2 6 3 5 4 4 5 2 6 1 7 3 8 10 9 11 10 9 11
REMARK H PARENT
REMARK Flexibility Score: inf
ROOT
ATOM      1  C   UNL     1      19.601 -10.373  68.332  1.00  0.00     0.008 C 
ATOM      2  C   UNL     1      18.784 -10.726  67.083  1.00  0.00    -0.006 C 
ATOM      3  C   UNL     1      17.286 -10.494  67.334  1.00  0.00     0.008 C 
ATOM      4  C   UNL     1      16.443 -10.939  66.131  1.00  0.00     0.039 C 
ATOM      5  C   UNL     1      16.920 -10.321  64.824  1.00  0.00    -0.006 C 
ATOM      6  C   UNL     1      16.047 -10.035  63.814  1.00  0.00    -0.070 C 
ATOM      7  C   UNL     1      14.572 -10.337  63.945  1.00  0.00     0.039 C 
ATOM      8  C   UNL     1      16.500  -9.370  62.535  1.00  0.00     0.039 C 
ATOM      9  C   UNL     1      18.398 -10.160  64.676  1.00  0.00     0.159 C 
ATOM     10  O   UNL     1      18.957 -10.250  63.549  1.00  0.00    -0.295 OA
ATOM     11  C   UNL     1      19.250  -9.892  65.881  1.00  0.00     0.084 C 
ENDROOT
TORSDOF 0
ENDMDL
MODEL 2
REMARK VINA RESULT:    -4.718     15.977     17.254
REMARK INTER + INTRA:          -4.718
REMARK INTER:                  -4.718
REMARK INTRA:                   0.000
REMARK UNBOUND:                 0.000
REMARK SMILES CC(C)=C1CC[C@H](C)CC1=O
REMARK SMILES IDX 8 1 7 2 6 3 5 4 4 5 2 6 1 7 3 8 10 9 11 10 9 11
REMARK H PARENT
REMARK Flexibility Score: inf
ROOT
ATOM      1  C   UNL     1       4.875   0.086  66.944  1.00  0.00     0.008 C 
ATOM      2  C   UNL     1       4.904   0.966  65.688  1.00  0.00    -0.006 C 
ATOM      3  C   UNL     1       5.297   2.407  66.047  1.00  0.00     0.008 C 
ATOM      4  C   UNL     1       5.230   3.325  64.818  1.00  0.00     0.039 C 
ATOM      5  C   UNL     1       6.023   2.779  63.639  1.00  0.00    -0.006 C 
ATOM      6  C   UNL     1       6.631   3.614  62.745  1.00  0.00    -0.070 C 
ATOM      7  C   UNL     1       6.527   5.116  62.880  1.00  0.00     0.039 C 
ATOM      8  C   UNL     1       7.466   3.084  61.603  1.00  0.00     0.039 C 
ATOM      9  C   UNL     1       5.993   1.297  63.459  1.00  0.00     0.159 C 
ATOM     10  O   UNL     1       6.052   0.775  62.312  1.00  0.00    -0.295 OA
ATOM     11  C   UNL     1       5.886   0.396  64.654  1.00  0.00     0.084 C 
ENDROOT
TORSDOF 0
ENDMDL
MODEL 3
REMARK VINA RESULT:    -4.658      1.912      2.873
REMARK INTER + INTRA:          -4.658
REMARK INTER:                  -4.658
REMARK INTRA:                   0.000
REMARK UNBOUND:                 0.000
REMARK SMILES CC(C)=C1CC[C@H](C)CC1=O
REMARK SMILES IDX 8 1 7 2 6 3 5 4 4 5 2 6 1 7 3 8 10 9 11 10 9 11
REMARK H PARENT
REMARK Flexibility Score: inf
ROOT
ATOM      1  C   UNL     1      20.442 -10.086  64.772  1.00  0.00     0.008 C 
ATOM      2  C   UNL     1      18.934  -9.910  64.989  1.00  0.00    -0.006 C 
ATOM      3  C   UNL     1      18.233  -9.570  63.665  1.00  0.00     0.008 C 
ATOM      4  C   UNL     1      16.740  -9.289  63.881  1.00  0.00     0.039 C 
ATOM      5  C   UNL     1      16.040 -10.406  64.642  1.00  0.00    -0.006 C 
ATOM      6  C   UNL     1      14.729 -10.709  64.411  1.00  0.00    -0.070 C 
ATOM      7  C   UNL     1      13.912  -9.936  63.402  1.00  0.00     0.039 C 
ATOM      8  C   UNL     1      14.039 -11.852  65.121  1.00  0.00     0.039 C 
ATOM      9  C   UNL     1      16.835 -11.059  65.725  1.00  0.00     0.159 C 
ATOM     10  O   UNL     1      16.281 -11.511  66.763  1.00  0.00    -0.295 OA
ATOM     11  C   UNL     1      18.325 -11.184  65.593  1.00  0.00     0.084 C 
ENDROOT
TORSDOF 0
ENDMDL
MODEL 4
REMARK VINA RESULT:    -4.643      1.323      3.896
REMARK INTER + INTRA:          -4.643
REMARK INTER:                  -4.643
REMARK INTRA:                   0.000
REMARK UNBOUND:                 0.000
REMARK SMILES CC(C)=C1CC[C@H](C)CC1=O
REMARK SMILES IDX 8 1 7 2 6 3 5 4 4 5 2 6 1 7 3 8 10 9 11 10 9 11
REMARK H PARENT
REMARK Flexibility Score: inf
ROOT
ATOM      1  C   UNL     1      14.290 -11.879  64.767  1.00  0.00     0.008 C 
ATOM      2  C   UNL     1      15.589 -11.095  64.989  1.00  0.00    -0.006 C 
ATOM      3  C   UNL     1      16.170 -11.394  66.379  1.00  0.00     0.008 C 
ATOM      4  C   UNL     1      17.414 -10.540  66.660  1.00  0.00     0.039 C 
ATOM      5  C   UNL     1      18.456 -10.647  65.555  1.00  0.00    -0.006 C 
ATOM      6  C   UNL     1      19.791 -10.546  65.826  1.00  0.00    -0.070 C 
ATOM      7  C   UNL     1      20.289 -10.304  67.233  1.00  0.00     0.039 C 
ATOM      8  C   UNL     1      20.837 -10.706  64.747  1.00  0.00     0.039 C 
ATOM      9  C   UNL     1      17.927 -10.751  64.163  1.00  0.00     0.159 C 
ATOM     10  O   UNL     1      18.556 -10.263  63.185  1.00  0.00    -0.295 OA
ATOM     11  C   UNL     1      16.619 -11.441  63.904  1.00  0.00     0.084 C 
ENDROOT
TORSDOF 0
ENDMDL
MODEL 5
REMARK VINA RESULT:    -4.639     15.473     17.187
REMARK INTER + INTRA:          -4.639
REMARK INTER:                  -4.639
REMARK INTRA:                   0.000
REMARK UNBOUND:                 0.000
REMARK SMILES CC(C)=C1CC[C@H](C)CC1=O
REMARK SMILES IDX 8 1 7 2 6 3 5 4 4 5 2 6 1 7 3 8 10 9 11 10 9 11
REMARK H PARENT
REMARK Flexibility Score: inf
ROOT
ATOM      1  C   UNL     1       6.710  -1.365  62.912  1.00  0.00     0.008 C 
ATOM      2  C   UNL     1       6.919   0.085  63.363  1.00  0.00    -0.006 C 
ATOM      3  C   UNL     1       7.597   0.904  62.254  1.00  0.00     0.008 C 
ATOM      4  C   UNL     1       7.908   2.331  62.725  1.00  0.00     0.039 C 
ATOM      5  C   UNL     1       6.688   3.032  63.306  1.00  0.00    -0.006 C 
ATOM      6  C   UNL     1       6.524   4.383  63.192  1.00  0.00    -0.070 C 
ATOM      7  C   UNL     1       7.557   5.242  62.499  1.00  0.00     0.039 C 
ATOM      8  C   UNL     1       5.291   5.082  63.716  1.00  0.00     0.039 C 
ATOM      9  C   UNL     1       5.756   2.176  64.100  1.00  0.00     0.159 C 
ATOM     10  O   UNL     1       5.109   2.642  65.077  1.00  0.00    -0.295 OA
ATOM     11  C   UNL     1       5.578   0.728  63.745  1.00  0.00     0.084 C 
ENDROOT
TORSDOF 0
ENDMDL
MODEL 6
REMARK VINA RESULT:    -4.627      2.226      3.376
REMARK INTER + INTRA:          -4.627
REMARK INTER:                  -4.627
REMARK INTRA:                   0.000
REMARK UNBOUND:                 0.000
REMARK SMILES CC(C)=C1CC[C@H](C)CC1=O
REMARK SMILES IDX 8 1 7 2 6 3 5 4 4 5 2 6 1 7 3 8 10 9 11 10 9 11
REMARK H PARENT
REMARK Flexibility Score: inf
ROOT
ATOM      1  C   UNL     1      17.181 -11.706  66.834  1.00  0.00     0.008 C 
ATOM      2  C   UNL     1      16.449 -10.733  65.903  1.00  0.00    -0.006 C 
ATOM      3  C   UNL     1      17.432 -10.087  64.915  1.00  0.00     0.008 C 
ATOM      4  C   UNL     1      16.735  -9.033  64.043  1.00  0.00     0.039 C 
ATOM      5  C   UNL     1      15.489  -9.576  63.357  1.00  0.00    -0.006 C 
ATOM      6  C   UNL     1      15.098  -9.119  62.131  1.00  0.00    -0.070 C 
ATOM      7  C   UNL     1      15.877  -8.041  61.412  1.00  0.00     0.039 C 
ATOM      8  C   UNL     1      13.895  -9.689  61.415  1.00  0.00     0.039 C 
ATOM      9  C   UNL     1      14.671 -10.540  64.151  1.00  0.00     0.159 C 
ATOM     10  O   UNL     1      13.418 -10.600  64.019  1.00  0.00    -0.295 OA
ATOM     11  C   UNL     1      15.334 -11.459  65.134  1.00  0.00     0.084 C 
ENDROOT
TORSDOF 0
ENDMDL
MODEL 7
REMARK VINA RESULT:    -4.620      2.312      3.968
REMARK INTER + INTRA:          -4.620
REMARK INTER:                  -4.620
REMARK INTRA:                   0.000
REMARK UNBOUND:                 0.000
REMARK SMILES CC(C)=C1CC[C@H](C)CC1=O
REMARK SMILES IDX 8 1 7 2 6 3 5 4 4 5 2 6 1 7 3 8 10 9 11 10 9 11
REMARK H PARENT
REMARK Flexibility Score: inf
ROOT
ATOM      1  C   UNL     1      21.447  -9.602  63.227  1.00  0.00     0.008 C 
ATOM      2  C   UNL     1      20.493  -9.643  64.427  1.00  0.00    -0.006 C 
ATOM      3  C   UNL     1      19.093 -10.102  63.989  1.00  0.00     0.008 C 
ATOM      4  C   UNL     1      18.099 -10.050  65.157  1.00  0.00     0.039 C 
ATOM      5  C   UNL     1      18.601 -10.796  66.385  1.00  0.00    -0.006 C 
ATOM      6  C   UNL     1      17.738 -11.421  67.238  1.00  0.00    -0.070 C 
ATOM      7  C   UNL     1      16.244 -11.382  67.009  1.00  0.00     0.039 C 
ATOM      8  C   UNL     1      18.228 -12.211  68.430  1.00  0.00     0.039 C 
ATOM      9  C   UNL     1      20.067 -10.702  66.655  1.00  0.00     0.159 C 
ATOM     10  O   UNL     1      20.519 -10.717  67.832  1.00  0.00    -0.295 OA
ATOM     11  C   UNL     1      21.036 -10.581  65.515  1.00  0.00     0.084 C 
ENDROOT
TORSDOF 0
ENDMDL
MODEL 8
REMARK VINA RESULT:    -4.596      1.921      4.583
REMARK INTER + INTRA:          -4.596
REMARK INTER:                  -4.596
REMARK INTRA:                   0.000
REMARK UNBOUND:                 0.000
REMARK SMILES CC(C)=C1CC[C@H](C)CC1=O
REMARK SMILES IDX 8 1 7 2 6 3 5 4 4 5 2 6 1 7 3 8 10 9 11 10 9 11
REMARK H PARENT
REMARK Flexibility Score: inf
ROOT
ATOM      1  C   UNL     1      13.879 -11.490  64.705  1.00  0.00     0.008 C 
ATOM      2  C   UNL     1      15.354 -11.527  65.122  1.00  0.00    -0.006 C 
ATOM      3  C   UNL     1      16.102 -10.303  64.571  1.00  0.00     0.008 C 
ATOM      4  C   UNL     1      17.602 -10.375  64.891  1.00  0.00     0.039 C 
ATOM      5  C   UNL     1      17.871 -10.607  66.372  1.00  0.00    -0.006 C 
ATOM      6  C   UNL     1      18.982 -10.096  66.980  1.00  0.00    -0.070 C 
ATOM      7  C   UNL     1      20.000  -9.293  66.203  1.00  0.00     0.039 C 
ATOM      8  C   UNL     1      19.232 -10.272  68.459  1.00  0.00     0.039 C 
ATOM      9  C   UNL     1      16.918 -11.515  67.077  1.00  0.00     0.159 C 
ATOM     10  O   UNL     1      17.296 -12.249  68.031  1.00  0.00    -0.295 OA
ATOM     11  C   UNL     1      15.479 -11.573  66.652  1.00  0.00     0.084 C 
ENDROOT
TORSDOF 0
ENDMDL
MODEL 9
REMARK VINA RESULT:    -4.592     12.642     14.019
REMARK INTER + INTRA:          -4.592
REMARK INTER:                  -4.592
REMARK INTRA:                   0.000
REMARK UNBOUND:                 0.000
REMARK SMILES CC(C)=C1CC[C@H](C)CC1=O
REMARK SMILES IDX 8 1 7 2 6 3 5 4 4 5 2 6 1 7 3 8 10 9 11 10 9 11
REMARK H PARENT
REMARK Flexibility Score: inf
ROOT
ATOM      1  C   UNL     1      10.593  -9.653  54.196  1.00  0.00     0.008 C 
ATOM      2  C   UNL     1       9.241  -9.629  54.920  1.00  0.00    -0.006 C 
ATOM      3  C   UNL     1       9.443  -9.469  56.435  1.00  0.00     0.008 C 
ATOM      4  C   UNL     1       8.106  -9.546  57.186  1.00  0.00     0.039 C 
ATOM      5  C   UNL     1       7.068  -8.582  56.630  1.00  0.00    -0.006 C 
ATOM      6  C   UNL     1       6.124  -8.013  57.435  1.00  0.00    -0.070 C 
ATOM      7  C   UNL     1       6.059  -8.331  58.912  1.00  0.00     0.039 C 
ATOM      8  C   UNL     1       5.123  -7.013  56.905  1.00  0.00     0.039 C 
ATOM      9  C   UNL     1       7.076  -8.395  55.148  1.00  0.00     0.159 C 
ATOM     10  O   UNL     1       6.012  -8.161  54.512  1.00  0.00    -0.295 OA
ATOM     11  C   UNL     1       8.364  -8.488  54.384  1.00  0.00     0.084 C 
ENDROOT
TORSDOF 0
ENDMDL
