MODEL 1
REMARK VINA RESULT:    -3.961      0.000      0.000
REMARK INTER + INTRA:          -9.000
REMARK INTER:                  -6.971
REMARK INTRA:                  -2.029
REMARK UNBOUND:                -2.029
REMARK SMILES CCCCCCC=CCCCCCCCC(=O)[O-]
REMARK SMILES IDX 10 1 11 2 12 3 13 4 14 5 15 6 16 7 17 8 18 9 9 10 8 11 7 12
REMARK SMILES IDX 6 13 5 14 4 15 3 16 2 17 1 18
REMARK H PARENT
REMARK Flexibility Score: inf
ROOT
ATOM      1  C   UNL     1      20.447  17.556  30.828  1.00  0.00     0.004 C 
ENDROOT
BRANCH   1   2
ATOM      2  C   UNL     1      19.228  16.657  30.572  1.00  0.00     0.000 C 
BRANCH   2   3
ATOM      3  C   UNL     1      19.195  16.087  29.143  1.00  0.00     0.000 C 
BRANCH   3   4
ATOM      4  C   UNL     1      18.534  17.000  28.090  1.00  0.00     0.000 C 
BRANCH   4   5
ATOM      5  C   UNL     1      19.511  17.825  27.236  1.00  0.00     0.006 C 
BRANCH   5   6
ATOM      6  C   UNL     1      20.716  17.009  26.752  1.00  0.00     0.053 C 
BRANCH   6   7
ATOM      7  C   UNL     1      21.942  17.863  26.710  1.00  0.00     0.041 C 
ATOM      8  O   UNL     1      22.132  18.744  27.590  1.00  0.00    -0.550 OA
ATOM      9  O   UNL     1      22.853  17.723  25.671  1.00  0.00    -0.550 OA
ENDBRANCH   6   7
ENDBRANCH   5   6
ENDBRANCH   4   5
ENDBRANCH   3   4
ENDBRANCH   2   3
ENDBRANCH   1   2
BRANCH   1  10
ATOM     10  C   UNL     1      20.020  18.907  31.411  1.00  0.00     0.027 C 
BRANCH  10  11
ATOM     11  C   UNL     1      19.807  19.917  30.312  1.00  0.00    -0.031 C 
ATOM     12  C   UNL     1      18.604  20.269  29.820  1.00  0.00    -0.031 C 
BRANCH  12  13
ATOM     13  C   UNL     1      17.279  19.786  30.361  1.00  0.00     0.027 C 
BRANCH  13  14
ATOM     14  C   UNL     1      16.686  20.767  31.381  1.00  0.00     0.004 C 
BRANCH  14  15
ATOM     15  C   UNL     1      16.841  20.266  32.827  1.00  0.00     0.000 C 
BRANCH  15  16
ATOM     16  C   UNL     1      17.421  21.350  33.759  1.00  0.00    -0.000 C 
BRANCH  16  17
ATOM     17  C   UNL     1      18.880  21.088  34.172  1.00  0.00    -0.003 C 
ATOM     18  C   UNL     1      19.292  21.849  35.430  1.00  0.00     0.004 C 
ENDBRANCH  16  17
ENDBRANCH  15  16
ENDBRANCH  14  15
ENDBRANCH  13  14
ENDBRANCH  12  13
ENDBRANCH  10  11
ENDBRANCH   1  10
TORSDOF 13
ENDMDL
MODEL 2
REMARK VINA RESULT:    -3.902     12.721     13.966
REMARK INTER + INTRA:          -8.896
REMARK INTER:                  -7.405
REMARK INTRA:                  -1.492
REMARK UNBOUND:                -2.029
REMARK SMILES CCCCCCC=CCCCCCCCC(=O)[O-]
REMARK SMILES IDX 10 1 11 2 12 3 13 4 14 5 15 6 16 7 17 8 18 9 9 10 8 11 7 12
REMARK SMILES IDX 6 13 5 14 4 15 3 16 2 17 1 18
REMARK H PARENT
REMARK Flexibility Score: inf
ROOT
ATOM      1  C   UNL     1      20.723  31.320  29.053  1.00  0.00     0.004 C 
ENDROOT
BRANCH   1   2
ATOM      2  C   UNL     1      21.478  31.520  27.731  1.00  0.00     0.000 C 
BRANCH   2   3
ATOM      3  C   UNL     1      21.855  32.990  27.474  1.00  0.00     0.000 C 
BRANCH   3   4
ATOM      4  C   UNL     1      21.929  33.397  25.988  1.00  0.00     0.000 C 
BRANCH   4   5
ATOM      5  C   UNL     1      20.966  32.641  25.056  1.00  0.00     0.006 C 
BRANCH   5   6
ATOM      6  C   UNL     1      21.661  32.082  23.809  1.00  0.00     0.053 C 
BRANCH   6   7
ATOM      7  C   UNL     1      21.435  30.607  23.702  1.00  0.00     0.041 C 
ATOM      8  O   UNL     1      21.592  29.867  24.708  1.00  0.00    -0.550 OA
ATOM      9  O   UNL     1      21.099  30.042  22.478  1.00  0.00    -0.550 OA
ENDBRANCH   6   7
ENDBRANCH   5   6
ENDBRANCH   4   5
ENDBRANCH   3   4
ENDBRANCH   2   3
ENDBRANCH   1   2
BRANCH   1  10
ATOM     10  C   UNL     1      19.588  32.339  29.196  1.00  0.00     0.027 C 
BRANCH  10  11
ATOM     11  C   UNL     1      19.257  32.568  30.649  1.00  0.00    -0.031 C 
ATOM     12  C   UNL     1      19.871  33.468  31.440  1.00  0.00    -0.031 C 
BRANCH  12  13
ATOM     13  C   UNL     1      20.909  34.459  30.969  1.00  0.00     0.027 C 
BRANCH  13  14
ATOM     14  C   UNL     1      22.331  33.891  31.078  1.00  0.00     0.004 C 
BRANCH  14  15
ATOM     15  C   UNL     1      22.610  33.285  32.463  1.00  0.00     0.000 C 
BRANCH  15  16
ATOM     16  C   UNL     1      23.134  31.836  32.369  1.00  0.00    -0.000 C 
BRANCH  16  17
ATOM     17  C   UNL     1      23.808  31.342  33.661  1.00  0.00    -0.003 C 
ATOM     18  C   UNL     1      24.122  32.471  34.641  1.00  0.00     0.004 C 
ENDBRANCH  16  17
ENDBRANCH  15  16
ENDBRANCH  14  15
ENDBRANCH  13  14
ENDBRANCH  12  13
ENDBRANCH  10  11
ENDBRANCH   1  10
TORSDOF 13
ENDMDL
MODEL 3
REMARK VINA RESULT:    -3.885     12.964     15.039
REMARK INTER + INTRA:          -8.866
REMARK INTER:                  -7.641
REMARK INTRA:                  -1.225
REMARK UNBOUND:                -2.029
REMARK SMILES CCCCCCC=CCCCCCCCC(=O)[O-]
REMARK SMILES IDX 10 1 11 2 12 3 13 4 14 5 15 6 16 7 17 8 18 9 9 10 8 11 7 12
REMARK SMILES IDX 6 13 5 14 4 15 3 16 2 17 1 18
REMARK H PARENT
REMARK Flexibility Score: inf
ROOT
ATOM      1  C   UNL     1      19.335  33.019  31.227  1.00  0.00     0.004 C 
ENDROOT
BRANCH   1   2
ATOM      2  C   UNL     1      20.610  33.820  31.527  1.00  0.00     0.000 C 
BRANCH   2   3
ATOM      3  C   UNL     1      21.510  33.141  32.574  1.00  0.00     0.000 C 
BRANCH   3   4
ATOM      4  C   UNL     1      22.675  32.310  31.996  1.00  0.00     0.000 C 
BRANCH   4   5
ATOM      5  C   UNL     1      23.982  32.369  32.804  1.00  0.00     0.006 C 
BRANCH   5   6
ATOM      6  C   UNL     1      23.847  31.753  34.202  1.00  0.00     0.053 C 
BRANCH   6   7
ATOM      7  C   UNL     1      24.098  30.280  34.150  1.00  0.00     0.041 C 
ATOM      8  O   UNL     1      23.313  29.482  34.729  1.00  0.00    -0.550 OA
ATOM      9  O   UNL     1      25.225  29.788  33.505  1.00  0.00    -0.550 OA
ENDBRANCH   6   7
ENDBRANCH   5   6
ENDBRANCH   4   5
ENDBRANCH   3   4
ENDBRANCH   2   3
ENDBRANCH   1   2
BRANCH   1  10
ATOM     10  C   UNL     1      19.216  32.717  29.729  1.00  0.00     0.027 C 
BRANCH  10  11
ATOM     11  C   UNL     1      20.076  31.537  29.354  1.00  0.00    -0.031 C 
ATOM     12  C   UNL     1      21.231  31.621  28.667  1.00  0.00    -0.031 C 
BRANCH  12  13
ATOM     13  C   UNL     1      21.896  32.914  28.259  1.00  0.00     0.027 C 
BRANCH  13  14
ATOM     14  C   UNL     1      21.594  33.276  26.798  1.00  0.00     0.004 C 
BRANCH  14  15
ATOM     15  C   UNL     1      21.607  32.042  25.880  1.00  0.00     0.000 C 
BRANCH  15  16
ATOM     16  C   UNL     1      21.044  32.355  24.478  1.00  0.00    -0.000 C 
BRANCH  16  17
ATOM     17  C   UNL     1      21.575  31.417  23.380  1.00  0.00    -0.003 C 
ATOM     18  C   UNL     1      21.926  32.149  22.085  1.00  0.00     0.004 C 
ENDBRANCH  16  17
ENDBRANCH  15  16
ENDBRANCH  14  15
ENDBRANCH  13  14
ENDBRANCH  12  13
ENDBRANCH  10  11
ENDBRANCH   1  10
TORSDOF 13
ENDMDL
MODEL 4
REMARK VINA RESULT:    -3.806     13.083     14.411
REMARK INTER + INTRA:          -8.728
REMARK INTER:                  -6.741
REMARK INTRA:                  -1.986
REMARK UNBOUND:                -2.029
REMARK SMILES CCCCCCC=CCCCCCCCC(=O)[O-]
REMARK SMILES IDX 10 1 11 2 12 3 13 4 14 5 15 6 16 7 17 8 18 9 9 10 8 11 7 12
REMARK SMILES IDX 6 13 5 14 4 15 3 16 2 17 1 18
REMARK H PARENT
REMARK Flexibility Score: inf
ROOT
ATOM      1  C   UNL     1      21.903  33.496  27.510  1.00  0.00     0.004 C 
ENDROOT
BRANCH   1   2
ATOM      2  C   UNL     1      21.009  34.572  26.877  1.00  0.00     0.000 C 
BRANCH   2   3
ATOM      3  C   UNL     1      20.389  34.124  25.542  1.00  0.00     0.000 C 
BRANCH   3   4
ATOM      4  C   UNL     1      21.240  34.426  24.291  1.00  0.00     0.000 C 
BRANCH   4   5
ATOM      5  C   UNL     1      21.894  33.198  23.634  1.00  0.00     0.006 C 
BRANCH   5   6
ATOM      6  C   UNL     1      20.873  32.254  22.987  1.00  0.00     0.053 C 
BRANCH   6   7
ATOM      7  C   UNL     1      21.202  30.831  23.305  1.00  0.00     0.041 C 
ATOM      8  O   UNL     1      22.086  30.561  24.161  1.00  0.00    -0.550 OA
ATOM      9  O   UNL     1      20.569  29.801  22.621  1.00  0.00    -0.550 OA
ENDBRANCH   6   7
ENDBRANCH   5   6
ENDBRANCH   4   5
ENDBRANCH   3   4
ENDBRANCH   2   3
ENDBRANCH   1   2
BRANCH   1  10
ATOM     10  C   UNL     1      21.372  32.092  27.206  1.00  0.00     0.027 C 
BRANCH  10  11
ATOM     11  C   UNL     1      21.328  31.255  28.459  1.00  0.00    -0.031 C 
ATOM     12  C   UNL     1      20.359  31.325  29.391  1.00  0.00    -0.031 C 
BRANCH  12  13
ATOM     13  C   UNL     1      19.115  32.173  29.276  1.00  0.00     0.027 C 
BRANCH  13  14
ATOM     14  C   UNL     1      19.254  33.499  30.036  1.00  0.00     0.004 C 
BRANCH  14  15
ATOM     15  C   UNL     1      20.200  33.379  31.243  1.00  0.00     0.000 C 
BRANCH  15  16
ATOM     16  C   UNL     1      21.374  34.377  31.162  1.00  0.00    -0.000 C 
BRANCH  16  17
ATOM     17  C   UNL     1      22.710  33.793  31.653  1.00  0.00    -0.003 C 
ATOM     18  C   UNL     1      22.624  32.307  31.996  1.00  0.00     0.004 C 
ENDBRANCH  16  17
ENDBRANCH  15  16
ENDBRANCH  14  15
ENDBRANCH  13  14
ENDBRANCH  12  13
ENDBRANCH  10  11
ENDBRANCH   1  10
TORSDOF 13
ENDMDL
MODEL 5
REMARK VINA RESULT:    -3.793     11.735     13.951
REMARK INTER + INTRA:          -8.704
REMARK INTER:                  -7.370
REMARK INTRA:                  -1.334
REMARK UNBOUND:                -2.029
REMARK SMILES CCCCCCC=CCCCCCCCC(=O)[O-]
REMARK SMILES IDX 10 1 11 2 12 3 13 4 14 5 15 6 16 7 17 8 18 9 9 10 8 11 7 12
REMARK SMILES IDX 6 13 5 14 4 15 3 16 2 17 1 18
REMARK H PARENT
REMARK Flexibility Score: inf
ROOT
ATOM      1  C   UNL     1      24.380  31.876  33.110  1.00  0.00     0.004 C 
ENDROOT
BRANCH   1   2
ATOM      2  C   UNL     1      24.181  32.193  34.599  1.00  0.00     0.000 C 
BRANCH   2   3
ATOM      3  C   UNL     1      24.821  31.144  35.525  1.00  0.00     0.000 C 
BRANCH   3   4
ATOM      4  C   UNL     1      23.877  30.015  35.986  1.00  0.00     0.000 C 
BRANCH   4   5
ATOM      5  C   UNL     1      23.741  28.836  35.006  1.00  0.00     0.006 C 
BRANCH   5   6
ATOM      6  C   UNL     1      24.598  27.629  35.405  1.00  0.00     0.053 C 
BRANCH   6   7
ATOM      7  C   UNL     1      25.681  27.402  34.399  1.00  0.00     0.041 C 
ATOM      8  O   UNL     1      26.002  28.318  33.595  1.00  0.00    -0.550 OA
ATOM      9  O   UNL     1      26.303  26.163  34.313  1.00  0.00    -0.550 OA
ENDBRANCH   6   7
ENDBRANCH   5   6
ENDBRANCH   4   5
ENDBRANCH   3   4
ENDBRANCH   2   3
ENDBRANCH   1   2
BRANCH   1  10
ATOM     10  C   UNL     1      23.053  31.956  32.349  1.00  0.00     0.027 C 
BRANCH  10  11
ATOM     11  C   UNL     1      22.131  32.962  32.991  1.00  0.00    -0.031 C 
ATOM     12  C   UNL     1      21.240  33.718  32.322  1.00  0.00    -0.031 C 
BRANCH  12  13
ATOM     13  C   UNL     1      20.952  33.601  30.844  1.00  0.00     0.027 C 
BRANCH  13  14
ATOM     14  C   UNL     1      19.607  32.912  30.576  1.00  0.00     0.004 C 
BRANCH  14  15
ATOM     15  C   UNL     1      19.739  31.755  29.571  1.00  0.00     0.000 C 
BRANCH  15  16
ATOM     16  C   UNL     1      21.203  31.516  29.148  1.00  0.00    -0.000 C 
BRANCH  16  17
ATOM     17  C   UNL     1      21.442  31.692  27.638  1.00  0.00    -0.003 C 
ATOM     18  C   UNL     1      21.169  33.113  27.149  1.00  0.00     0.004 C 
ENDBRANCH  16  17
ENDBRANCH  15  16
ENDBRANCH  14  15
ENDBRANCH  13  14
ENDBRANCH  12  13
ENDBRANCH  10  11
ENDBRANCH   1  10
TORSDOF 13
ENDMDL
MODEL 6
REMARK VINA RESULT:    -3.744     12.400     14.594
REMARK INTER + INTRA:          -8.618
REMARK INTER:                  -7.215
REMARK INTRA:                  -1.403
REMARK UNBOUND:                -2.029
REMARK SMILES CCCCCCC=CCCCCCCCC(=O)[O-]
REMARK SMILES IDX 10 1 11 2 12 3 13 4 14 5 15 6 16 7 17 8 18 9 9 10 8 11 7 12
REMARK SMILES IDX 6 13 5 14 4 15 3 16 2 17 1 18
REMARK H PARENT
REMARK Flexibility Score: inf
ROOT
ATOM      1  C   UNL     1      21.717  33.058  32.788  1.00  0.00     0.004 C 
ENDROOT
BRANCH   1   2
ATOM      2  C   UNL     1      23.021  32.854  32.002  1.00  0.00     0.000 C 
BRANCH   2   3
ATOM      3  C   UNL     1      24.020  31.939  32.731  1.00  0.00     0.000 C 
BRANCH   3   4
ATOM      4  C   UNL     1      24.189  32.224  34.238  1.00  0.00     0.000 C 
BRANCH   4   5
ATOM      5  C   UNL     1      24.989  31.166  35.017  1.00  0.00     0.006 C 
BRANCH   5   6
ATOM      6  C   UNL     1      25.317  29.927  34.174  1.00  0.00     0.053 C 
BRANCH   6   7
ATOM      7  C   UNL     1      24.500  28.758  34.624  1.00  0.00     0.041 C 
ATOM      8  O   UNL     1      25.061  27.677  34.944  1.00  0.00    -0.550 OA
ATOM      9  O   UNL     1      23.113  28.845  34.641  1.00  0.00    -0.550 OA
ENDBRANCH   6   7
ENDBRANCH   5   6
ENDBRANCH   4   5
ENDBRANCH   3   4
ENDBRANCH   2   3
ENDBRANCH   1   2
BRANCH   1  10
ATOM     10  C   UNL     1      20.821  34.096  32.103  1.00  0.00     0.027 C 
BRANCH  10  11
ATOM     11  C   UNL     1      19.387  33.631  32.084  1.00  0.00    -0.031 C 
ATOM     12  C   UNL     1      18.742  33.185  30.989  1.00  0.00    -0.031 C 
BRANCH  12  13
ATOM     13  C   UNL     1      19.384  32.981  29.637  1.00  0.00     0.027 C 
BRANCH  13  14
ATOM     14  C   UNL     1      19.922  31.554  29.468  1.00  0.00     0.004 C 
BRANCH  14  15
ATOM     15  C   UNL     1      21.392  31.537  29.018  1.00  0.00     0.000 C 
BRANCH  15  16
ATOM     16  C   UNL     1      21.731  32.728  28.096  1.00  0.00    -0.000 C 
BRANCH  16  17
ATOM     17  C   UNL     1      21.374  32.483  26.620  1.00  0.00    -0.003 C 
ATOM     18  C   UNL     1      22.082  33.442  25.665  1.00  0.00     0.004 C 
ENDBRANCH  16  17
ENDBRANCH  15  16
ENDBRANCH  14  15
ENDBRANCH  13  14
ENDBRANCH  12  13
ENDBRANCH  10  11
ENDBRANCH   1  10
TORSDOF 13
ENDMDL
MODEL 7
REMARK VINA RESULT:    -3.690      1.518      2.909
REMARK INTER + INTRA:          -8.523
REMARK INTER:                  -6.238
REMARK INTRA:                  -2.284
REMARK UNBOUND:                -2.029
REMARK SMILES CCCCCCC=CCCCCCCCC(=O)[O-]
REMARK SMILES IDX 10 1 11 2 12 3 13 4 14 5 15 6 16 7 17 8 18 9 9 10 8 11 7 12
REMARK SMILES IDX 6 13 5 14 4 15 3 16 2 17 1 18
REMARK H PARENT
REMARK Flexibility Score: inf
ROOT
ATOM      1  C   UNL     1      20.540  19.224  30.117  1.00  0.00     0.004 C 
ENDROOT
BRANCH   1   2
ATOM      2  C   UNL     1      19.293  19.420  29.242  1.00  0.00     0.000 C 
BRANCH   2   3
ATOM      3  C   UNL     1      18.564  18.100  28.935  1.00  0.00     0.000 C 
BRANCH   3   4
ATOM      4  C   UNL     1      19.434  17.011  28.274  1.00  0.00     0.000 C 
BRANCH   4   5
ATOM      5  C   UNL     1      19.797  17.270  26.801  1.00  0.00     0.006 C 
BRANCH   5   6
ATOM      6  C   UNL     1      21.108  16.593  26.383  1.00  0.00     0.053 C 
BRANCH   6   7
ATOM      7  C   UNL     1      22.199  17.607  26.246  1.00  0.00     0.041 C 
ATOM      8  O   UNL     1      22.924  17.623  25.217  1.00  0.00    -0.550 OA
ATOM      9  O   UNL     1      22.449  18.503  27.278  1.00  0.00    -0.550 OA
ENDBRANCH   6   7
ENDBRANCH   5   6
ENDBRANCH   4   5
ENDBRANCH   3   4
ENDBRANCH   2   3
ENDBRANCH   1   2
BRANCH   1  10
ATOM     10  C   UNL     1      20.152  18.796  31.536  1.00  0.00     0.027 C 
BRANCH  10  11
ATOM     11  C   UNL     1      20.690  17.422  31.844  1.00  0.00    -0.031 C 
ATOM     12  C   UNL     1      19.932  16.362  32.182  1.00  0.00    -0.031 C 
BRANCH  12  13
ATOM     13  C   UNL     1      18.422  16.357  32.204  1.00  0.00     0.027 C 
BRANCH  13  14
ATOM     14  C   UNL     1      17.868  16.864  33.542  1.00  0.00     0.004 C 
BRANCH  14  15
ATOM     15  C   UNL     1      16.911  18.054  33.360  1.00  0.00     0.000 C 
BRANCH  15  16
ATOM     16  C   UNL     1      16.444  18.207  31.897  1.00  0.00    -0.000 C 
BRANCH  16  17
ATOM     17  C   UNL     1      16.224  19.669  31.472  1.00  0.00    -0.003 C 
ATOM     18  C   UNL     1      17.100  20.655  32.243  1.00  0.00     0.004 C 
ENDBRANCH  16  17
ENDBRANCH  15  16
ENDBRANCH  14  15
ENDBRANCH  13  14
ENDBRANCH  12  13
ENDBRANCH  10  11
ENDBRANCH   1  10
TORSDOF 13
ENDMDL
MODEL 8
REMARK VINA RESULT:    -3.683     18.180     20.386
REMARK INTER + INTRA:          -8.510
REMARK INTER:                  -6.042
REMARK INTRA:                  -2.468
REMARK UNBOUND:                -2.029
REMARK SMILES CCCCCCC=CCCCCCCCC(=O)[O-]
REMARK SMILES IDX 10 1 11 2 12 3 13 4 14 5 15 6 16 7 17 8 18 9 9 10 8 11 7 12
REMARK SMILES IDX 6 13 5 14 4 15 3 16 2 17 1 18
REMARK H PARENT
REMARK Flexibility Score: inf
ROOT
ATOM      1  C   UNL     1      32.679  23.316  17.624  1.00  0.00     0.004 C 
ENDROOT
BRANCH   1   2
ATOM      2  C   UNL     1      34.103  23.011  17.135  1.00  0.00     0.000 C 
BRANCH   2   3
ATOM      3  C   UNL     1      35.178  23.822  17.880  1.00  0.00     0.000 C 
BRANCH   3   4
ATOM      4  C   UNL     1      35.086  23.771  19.418  1.00  0.00     0.000 C 
BRANCH   4   5
ATOM      5  C   UNL     1      35.262  25.125  20.127  1.00  0.00     0.006 C 
BRANCH   5   6
ATOM      6  C   UNL     1      33.942  25.692  20.665  1.00  0.00     0.053 C 
BRANCH   6   7
ATOM      7  C   UNL     1      33.962  25.731  22.160  1.00  0.00     0.041 C 
ATOM      8  O   UNL     1      33.190  24.989  22.824  1.00  0.00    -0.550 OA
ATOM      9  O   UNL     1      34.796  26.624  22.822  1.00  0.00    -0.550 OA
ENDBRANCH   6   7
ENDBRANCH   5   6
ENDBRANCH   4   5
ENDBRANCH   3   4
ENDBRANCH   2   3
ENDBRANCH   1   2
BRANCH   1  10
ATOM     10  C   UNL     1      32.036  24.423  16.782  1.00  0.00     0.027 C 
BRANCH  10  11
ATOM     11  C   UNL     1      31.891  25.689  17.588  1.00  0.00    -0.031 C 
ATOM     12  C   UNL     1      32.665  26.781  17.444  1.00  0.00    -0.031 C 
BRANCH  12  13
ATOM     13  C   UNL     1      33.728  26.946  16.384  1.00  0.00     0.027 C 
BRANCH  13  14
ATOM     14  C   UNL     1      35.073  27.377  16.985  1.00  0.00     0.004 C 
BRANCH  14  15
ATOM     15  C   UNL     1      35.162  28.900  17.175  1.00  0.00     0.000 C 
BRANCH  15  16
ATOM     16  C   UNL     1      35.881  29.282  18.486  1.00  0.00    -0.000 C 
BRANCH  16  17
ATOM     17  C   UNL     1      35.095  28.898  19.751  1.00  0.00    -0.003 C 
ATOM     18  C   UNL     1      33.687  29.489  19.784  1.00  0.00     0.004 C 
ENDBRANCH  16  17
ENDBRANCH  15  16
ENDBRANCH  14  15
ENDBRANCH  13  14
ENDBRANCH  12  13
ENDBRANCH  10  11
ENDBRANCH   1  10
TORSDOF 13
ENDMDL
MODEL 9
REMARK VINA RESULT:    -3.657     12.918     15.041
REMARK INTER + INTRA:          -8.465
REMARK INTER:                  -6.258
REMARK INTRA:                  -2.207
REMARK UNBOUND:                -2.029
REMARK SMILES CCCCCCC=CCCCCCCCC(=O)[O-]
REMARK SMILES IDX 10 1 11 2 12 3 13 4 14 5 15 6 16 7 17 8 18 9 9 10 8 11 7 12
REMARK SMILES IDX 6 13 5 14 4 15 3 16 2 17 1 18
REMARK H PARENT
REMARK Flexibility Score: inf
ROOT
ATOM      1  C   UNL     1      21.240  35.342  31.571  1.00  0.00     0.004 C 
ENDROOT
BRANCH   1   2
ATOM      2  C   UNL     1      22.332  34.442  32.168  1.00  0.00     0.000 C 
BRANCH   2   3
ATOM      3  C   UNL     1      21.919  32.961  32.230  1.00  0.00     0.000 C 
BRANCH   3   4
ATOM      4  C   UNL     1      23.087  31.961  32.353  1.00  0.00     0.000 C 
BRANCH   4   5
ATOM      5  C   UNL     1      24.109  32.283  33.456  1.00  0.00     0.006 C 
BRANCH   5   6
ATOM      6  C   UNL     1      23.986  31.357  34.672  1.00  0.00     0.053 C 
BRANCH   6   7
ATOM      7  C   UNL     1      24.126  29.927  34.256  1.00  0.00     0.041 C 
ATOM      8  O   UNL     1      23.175  29.120  34.432  1.00  0.00    -0.550 OA
ATOM      9  O   UNL     1      25.323  29.473  33.719  1.00  0.00    -0.550 OA
ENDBRANCH   6   7
ENDBRANCH   5   6
ENDBRANCH   4   5
ENDBRANCH   3   4
ENDBRANCH   2   3
ENDBRANCH   1   2
BRANCH   1  10
ATOM     10  C   UNL     1      21.700  35.956  30.245  1.00  0.00     0.027 C 
BRANCH  10  11
ATOM     11  C   UNL     1      20.688  35.695  29.158  1.00  0.00    -0.031 C 
ATOM     12  C   UNL     1      20.718  34.640  28.322  1.00  0.00    -0.031 C 
BRANCH  12  13
ATOM     13  C   UNL     1      21.707  33.502  28.410  1.00  0.00     0.027 C 
BRANCH  13  14
ATOM     14  C   UNL     1      21.029  32.185  28.810  1.00  0.00     0.004 C 
BRANCH  14  15
ATOM     15  C   UNL     1      19.495  32.287  28.775  1.00  0.00     0.000 C 
BRANCH  15  16
ATOM     16  C   UNL     1      18.847  31.755  30.070  1.00  0.00    -0.000 C 
BRANCH  16  17
ATOM     17  C   UNL     1      18.503  32.861  31.083  1.00  0.00    -0.003 C 
ATOM     18  C   UNL     1      17.712  34.013  30.467  1.00  0.00     0.004 C 
ENDBRANCH  16  17
ENDBRANCH  15  16
ENDBRANCH  14  15
ENDBRANCH  13  14
ENDBRANCH  12  13
ENDBRANCH  10  11
ENDBRANCH   1  10
TORSDOF 13
ENDMDL
