MODEL 1
REMARK VINA RESULT:    -3.992      0.000      0.000
REMARK INTER + INTRA:          -5.324
REMARK INTER:                  -4.809
REMARK INTRA:                  -0.515
REMARK UNBOUND:                -0.515
REMARK SMILES NC(=O)C[C@H]([NH3+])C(=O)[O-]
REMARK SMILES IDX 4 1 5 2 6 3 7 7 8 8 9 9 2 10 3 11 1 12
REMARK H PARENT 6 4 6 5 6 6 1 13 1 14
REMARK Flexibility Score: inf
ROOT
ATOM      1  C   UNL     1     -21.551  28.364  -9.075  1.00  0.00     0.171 C 
ENDROOT
BRANCH   1   2
ATOM      2  C   UNL     1     -21.844  27.950 -10.532  1.00  0.00     0.237 C 
BRANCH   2   3
ATOM      3  N   UNL     1     -21.624  26.509 -10.711  1.00  0.00    -0.350 N 
ATOM      4  H   UNL     1     -20.645  26.262 -10.440  1.00  0.00     0.345 HD
ATOM      5  H   UNL     1     -22.294  25.957 -10.126  1.00  0.00     0.345 HD
ATOM      6  H   UNL     1     -21.759  26.254 -11.716  1.00  0.00     0.345 HD
ENDBRANCH   2   3
BRANCH   2   7
ATOM      7  C   UNL     1     -20.993  28.730 -11.500  1.00  0.00     0.100 C 
ATOM      8  O   UNL     1     -21.481  29.695 -12.148  1.00  0.00    -0.544 OA
ATOM      9  O   UNL     1     -19.664  28.375 -11.699  1.00  0.00    -0.544 OA
ENDBRANCH   2   7
ENDBRANCH   1   2
BRANCH   1  10
ATOM     10  C   UNL     1     -20.490  27.499  -8.457  1.00  0.00     0.223 C 
ATOM     11  O   UNL     1     -20.821  26.484  -7.789  1.00  0.00    -0.275 OA
ATOM     12  N   UNL     1     -19.110  27.840  -8.589  1.00  0.00    -0.369 N 
ATOM     13  H   UNL     1     -18.818  28.688  -9.123  1.00  0.00     0.159 HD
ATOM     14  H   UNL     1     -18.376  27.245  -8.145  1.00  0.00     0.159 HD
ENDBRANCH   1  10
TORSDOF 4
ENDMDL
MODEL 2
REMARK VINA RESULT:    -3.902      1.768      2.100
REMARK INTER + INTRA:          -5.215
REMARK INTER:                  -4.698
REMARK INTRA:                  -0.517
REMARK UNBOUND:                -0.515
REMARK SMILES NC(=O)C[C@H]([NH3+])C(=O)[O-]
REMARK SMILES IDX 4 1 5 2 6 3 7 7 8 8 9 9 2 10 3 11 1 12
REMARK H PARENT 6 4 6 5 6 6 1 13 1 14
REMARK Flexibility Score: inf
ROOT
ATOM      1  C   UNL     1     -19.662  27.211  -9.352  1.00  0.00     0.171 C 
ENDROOT
BRANCH   1   2
ATOM      2  C   UNL     1     -20.180  28.381 -10.213  1.00  0.00     0.237 C 
BRANCH   2   3
ATOM      3  N   UNL     1     -21.575  28.690  -9.876  1.00  0.00    -0.350 N 
ATOM      4  H   UNL     1     -22.006  29.265 -10.636  1.00  0.00     0.345 HD
ATOM      5  H   UNL     1     -22.130  27.811  -9.753  1.00  0.00     0.345 HD
ATOM      6  H   UNL     1     -21.611  29.242  -8.989  1.00  0.00     0.345 HD
ENDBRANCH   2   3
BRANCH   2   7
ATOM      7  C   UNL     1     -20.056  28.070 -11.682  1.00  0.00     0.100 C 
ATOM      8  O   UNL     1     -19.159  28.616 -12.379  1.00  0.00    -0.544 OA
ATOM      9  O   UNL     1     -20.948  27.190 -12.283  1.00  0.00    -0.544 OA
ENDBRANCH   2   7
ENDBRANCH   1   2
BRANCH   1  10
ATOM     10  C   UNL     1     -20.769  26.266  -8.980  1.00  0.00     0.223 C 
ATOM     11  O   UNL     1     -21.387  26.422  -7.894  1.00  0.00    -0.275 OA
ATOM     12  N   UNL     1     -21.100  25.168  -9.831  1.00  0.00    -0.369 N 
ATOM     13  H   UNL     1     -20.585  25.012 -10.725  1.00  0.00     0.159 HD
ATOM     14  H   UNL     1     -21.859  24.504  -9.561  1.00  0.00     0.159 HD
ENDBRANCH   1  10
TORSDOF 4
ENDMDL
MODEL 3
REMARK VINA RESULT:    -3.807      1.562      2.441
REMARK INTER + INTRA:          -5.101
REMARK INTER:                  -4.774
REMARK INTRA:                  -0.326
REMARK UNBOUND:                -0.515
REMARK SMILES NC(=O)C[C@H]([NH3+])C(=O)[O-]
REMARK SMILES IDX 4 1 5 2 6 3 7 7 8 8 9 9 2 10 3 11 1 12
REMARK H PARENT 6 4 6 5 6 6 1 13 1 14
REMARK Flexibility Score: inf
ROOT
ATOM      1  C   UNL     1     -20.425  26.163  -9.662  1.00  0.00     0.171 C 
ENDROOT
BRANCH   1   2
ATOM      2  C   UNL     1     -21.719  26.514 -10.424  1.00  0.00     0.237 C 
BRANCH   2   3
ATOM      3  N   UNL     1     -21.493  26.463 -11.874  1.00  0.00    -0.350 N 
ATOM      4  H   UNL     1     -21.926  27.297 -12.331  1.00  0.00     0.345 HD
ATOM      5  H   UNL     1     -20.469  26.445 -12.088  1.00  0.00     0.345 HD
ATOM      6  H   UNL     1     -21.940  25.604 -12.271  1.00  0.00     0.345 HD
ENDBRANCH   2   3
BRANCH   2   7
ATOM      7  C   UNL     1     -22.233  27.873 -10.025  1.00  0.00     0.100 C 
ATOM      8  O   UNL     1     -22.495  28.131  -8.820  1.00  0.00    -0.544 OA
ATOM      9  O   UNL     1     -22.440  28.849 -10.993  1.00  0.00    -0.544 OA
ENDBRANCH   2   7
ENDBRANCH   1   2
BRANCH   1  10
ATOM     10  C   UNL     1     -19.459  27.313  -9.655  1.00  0.00     0.223 C 
ATOM     11  O   UNL     1     -18.908  27.673 -10.729  1.00  0.00    -0.275 OA
ATOM     12  N   UNL     1     -19.130  27.975  -8.434  1.00  0.00    -0.369 N 
ATOM     13  H   UNL     1     -19.562  27.677  -7.532  1.00  0.00     0.159 HD
ATOM     14  H   UNL     1     -18.446  28.764  -8.431  1.00  0.00     0.159 HD
ENDBRANCH   1  10
TORSDOF 4
ENDMDL
MODEL 4
REMARK VINA RESULT:    -3.800     12.076     13.460
REMARK INTER + INTRA:          -5.092
REMARK INTER:                  -4.824
REMARK INTRA:                  -0.268
REMARK UNBOUND:                -0.515
REMARK SMILES NC(=O)C[C@H]([NH3+])C(=O)[O-]
REMARK SMILES IDX 4 1 5 2 6 3 7 7 8 8 9 9 2 10 3 11 1 12
REMARK H PARENT 6 4 6 5 6 6 1 13 1 14
REMARK Flexibility Score: inf
ROOT
ATOM      1  C   UNL     1     -26.519  18.067  -3.378  1.00  0.00     0.171 C 
ENDROOT
BRANCH   1   2
ATOM      2  C   UNL     1     -27.138  17.511  -4.677  1.00  0.00     0.237 C 
BRANCH   2   3
ATOM      3  N   UNL     1     -27.724  18.597  -5.473  1.00  0.00    -0.350 N 
ATOM      4  H   UNL     1     -27.029  18.935  -6.178  1.00  0.00     0.345 HD
ATOM      5  H   UNL     1     -28.585  18.269  -5.969  1.00  0.00     0.345 HD
ATOM      6  H   UNL     1     -27.973  19.398  -4.849  1.00  0.00     0.345 HD
ENDBRANCH   2   3
BRANCH   2   7
ATOM      7  C   UNL     1     -28.180  16.465  -4.377  1.00  0.00     0.100 C 
ATOM      8  O   UNL     1     -29.108  16.701  -3.557  1.00  0.00    -0.544 OA
ATOM      9  O   UNL     1     -28.112  15.221  -4.993  1.00  0.00    -0.544 OA
ENDBRANCH   2   7
ENDBRANCH   1   2
BRANCH   1  10
ATOM     10  C   UNL     1     -25.543  19.172  -3.660  1.00  0.00     0.223 C 
ATOM     11  O   UNL     1     -25.915  20.373  -3.574  1.00  0.00    -0.275 OA
ATOM     12  N   UNL     1     -24.206  18.872  -4.062  1.00  0.00    -0.369 N 
ATOM     13  H   UNL     1     -23.887  17.883  -4.157  1.00  0.00     0.159 HD
ATOM     14  H   UNL     1     -23.535  19.644  -4.272  1.00  0.00     0.159 HD
ENDBRANCH   1  10
TORSDOF 4
ENDMDL
MODEL 5
REMARK VINA RESULT:    -3.773      2.176      3.085
REMARK INTER + INTRA:          -5.060
REMARK INTER:                  -4.738
REMARK INTRA:                  -0.322
REMARK UNBOUND:                -0.515
REMARK SMILES NC(=O)C[C@H]([NH3+])C(=O)[O-]
REMARK SMILES IDX 4 1 5 2 6 3 7 7 8 8 9 9 2 10 3 11 1 12
REMARK H PARENT 6 4 6 5 6 6 1 13 1 14
REMARK Flexibility Score: inf
ROOT
ATOM      1  C   UNL     1     -21.276  28.582 -10.109  1.00  0.00     0.171 C 
ENDROOT
BRANCH   1   2
ATOM      2  C   UNL     1     -21.724  27.439  -9.176  1.00  0.00     0.237 C 
BRANCH   2   3
ATOM      3  N   UNL     1     -21.147  27.612  -7.836  1.00  0.00    -0.350 N 
ATOM      4  H   UNL     1     -21.910  27.756  -7.136  1.00  0.00     0.345 HD
ATOM      5  H   UNL     1     -20.584  26.773  -7.565  1.00  0.00     0.345 HD
ATOM      6  H   UNL     1     -20.530  28.457  -7.824  1.00  0.00     0.345 HD
ENDBRANCH   2   3
BRANCH   2   7
ATOM      7  C   UNL     1     -21.339  26.095  -9.738  1.00  0.00     0.100 C 
ATOM      8  O   UNL     1     -21.893  25.655 -10.781  1.00  0.00    -0.544 OA
ATOM      9  O   UNL     1     -20.381  25.322  -9.094  1.00  0.00    -0.544 OA
ENDBRANCH   2   7
ENDBRANCH   1   2
BRANCH   1  10
ATOM     10  C   UNL     1     -19.839  28.429 -10.519  1.00  0.00     0.223 C 
ATOM     11  O   UNL     1     -18.939  28.386  -9.640  1.00  0.00    -0.275 OA
ATOM     12  N   UNL     1     -19.482  28.372 -11.901  1.00  0.00    -0.369 N 
ATOM     13  H   UNL     1     -20.214  28.425 -12.643  1.00  0.00     0.159 HD
ATOM     14  H   UNL     1     -18.481  28.281 -12.182  1.00  0.00     0.159 HD
ENDBRANCH   1  10
TORSDOF 4
ENDMDL
MODEL 6
REMARK VINA RESULT:    -3.698      1.324      3.826
REMARK INTER + INTRA:          -4.970
REMARK INTER:                  -4.753
REMARK INTRA:                  -0.217
REMARK UNBOUND:                -0.515
REMARK SMILES NC(=O)C[C@H]([NH3+])C(=O)[O-]
REMARK SMILES IDX 4 1 5 2 6 3 7 7 8 8 9 9 2 10 3 11 1 12
REMARK H PARENT 6 4 6 5 6 6 1 13 1 14
REMARK Flexibility Score: inf
ROOT
ATOM      1  C   UNL     1     -19.948  27.994 -10.891  1.00  0.00     0.171 C 
ENDROOT
BRANCH   1   2
ATOM      2  C   UNL     1     -20.210  27.832  -9.380  1.00  0.00     0.237 C 
BRANCH   2   3
ATOM      3  N   UNL     1     -18.946  27.856  -8.632  1.00  0.00    -0.350 N 
ATOM      4  H   UNL     1     -18.453  26.941  -8.740  1.00  0.00     0.345 HD
ATOM      5  H   UNL     1     -18.326  28.625  -8.979  1.00  0.00     0.345 HD
ATOM      6  H   UNL     1     -19.140  28.006  -7.616  1.00  0.00     0.345 HD
ENDBRANCH   2   3
BRANCH   2   7
ATOM      7  C   UNL     1     -20.960  26.557  -9.092  1.00  0.00     0.100 C 
ATOM      8  O   UNL     1     -21.642  26.439  -8.039  1.00  0.00    -0.544 OA
ATOM      9  O   UNL     1     -20.887  25.493  -9.983  1.00  0.00    -0.544 OA
ENDBRANCH   2   7
ENDBRANCH   1   2
BRANCH   1  10
ATOM     10  C   UNL     1     -21.206  28.335 -11.637  1.00  0.00     0.223 C 
ATOM     11  O   UNL     1     -21.717  29.480 -11.511  1.00  0.00    -0.275 OA
ATOM     12  N   UNL     1     -21.849  27.359 -12.457  1.00  0.00    -0.369 N 
ATOM     13  H   UNL     1     -21.449  26.400 -12.557  1.00  0.00     0.159 HD
ATOM     14  H   UNL     1     -22.732  27.596 -12.962  1.00  0.00     0.159 HD
ENDBRANCH   1  10
TORSDOF 4
ENDMDL
MODEL 7
REMARK VINA RESULT:    -3.572     11.763     13.127
REMARK INTER + INTRA:          -4.818
REMARK INTER:                  -4.349
REMARK INTRA:                  -0.469
REMARK UNBOUND:                -0.515
REMARK SMILES NC(=O)C[C@H]([NH3+])C(=O)[O-]
REMARK SMILES IDX 4 1 5 2 6 3 7 7 8 8 9 9 2 10 3 11 1 12
REMARK H PARENT 6 4 6 5 6 6 1 13 1 14
REMARK Flexibility Score: inf
ROOT
ATOM      1  C   UNL     1     -27.931  18.129  -3.906  1.00  0.00     0.171 C 
ENDROOT
BRANCH   1   2
ATOM      2  C   UNL     1     -26.941  18.990  -4.717  1.00  0.00     0.237 C 
BRANCH   2   3
ATOM      3  N   UNL     1     -26.374  18.214  -5.827  1.00  0.00    -0.350 N 
ATOM      4  H   UNL     1     -27.106  17.587  -6.233  1.00  0.00     0.345 HD
ATOM      5  H   UNL     1     -26.012  18.850  -6.575  1.00  0.00     0.345 HD
ATOM      6  H   UNL     1     -25.590  17.617  -5.477  1.00  0.00     0.345 HD
ENDBRANCH   2   3
BRANCH   2   7
ATOM      7  C   UNL     1     -25.839  19.523  -3.838  1.00  0.00     0.100 C 
ATOM      8  O   UNL     1     -24.795  18.845  -3.639  1.00  0.00    -0.544 OA
ATOM      9  O   UNL     1     -25.978  20.762  -3.225  1.00  0.00    -0.544 OA
ENDBRANCH   2   7
ENDBRANCH   1   2
BRANCH   1  10
ATOM     10  C   UNL     1     -27.564  16.673  -3.952  1.00  0.00     0.223 C 
ATOM     11  O   UNL     1     -28.144  15.908  -4.768  1.00  0.00    -0.275 OA
ATOM     12  N   UNL     1     -26.592  16.142  -3.052  1.00  0.00    -0.369 N 
ATOM     13  H   UNL     1     -26.116  16.759  -2.357  1.00  0.00     0.159 HD
ATOM     14  H   UNL     1     -26.351  15.127  -3.077  1.00  0.00     0.159 HD
ENDBRANCH   1  10
TORSDOF 4
ENDMDL
MODEL 8
REMARK VINA RESULT:    -3.562      1.899      2.047
REMARK INTER + INTRA:          -4.805
REMARK INTER:                  -4.756
REMARK INTRA:                  -0.049
REMARK UNBOUND:                -0.515
REMARK SMILES NC(=O)C[C@H]([NH3+])C(=O)[O-]
REMARK SMILES IDX 4 1 5 2 6 3 7 7 8 8 9 9 2 10 3 11 1 12
REMARK H PARENT 6 4 6 5 6 6 1 13 1 14
REMARK Flexibility Score: inf
ROOT
ATOM      1  C   UNL     1     -21.333  28.176  -9.564  1.00  0.00     0.171 C 
ENDROOT
BRANCH   1   2
ATOM      2  C   UNL     1     -20.898  27.869 -11.011  1.00  0.00     0.237 C 
BRANCH   2   3
ATOM      3  N   UNL     1     -21.145  29.027 -11.880  1.00  0.00    -0.350 N 
ATOM      4  H   UNL     1     -20.958  29.911 -11.355  1.00  0.00     0.345 HD
ATOM      5  H   UNL     1     -20.532  28.991 -12.727  1.00  0.00     0.345 HD
ATOM      6  H   UNL     1     -22.146  29.033 -12.184  1.00  0.00     0.345 HD
ENDBRANCH   2   3
BRANCH   2   7
ATOM      7  C   UNL     1     -21.613  26.655 -11.547  1.00  0.00     0.100 C 
ATOM      8  O   UNL     1     -22.059  26.643 -12.725  1.00  0.00    -0.544 OA
ATOM      9  O   UNL     1     -21.802  25.545 -10.732  1.00  0.00    -0.544 OA
ENDBRANCH   2   7
ENDBRANCH   1   2
BRANCH   1  10
ATOM     10  C   UNL     1     -20.390  27.573  -8.563  1.00  0.00     0.223 C 
ATOM     11  O   UNL     1     -20.832  26.793  -7.678  1.00  0.00    -0.275 OA
ATOM     12  N   UNL     1     -19.002  27.906  -8.583  1.00  0.00    -0.369 N 
ATOM     13  H   UNL     1     -18.622  28.566  -9.298  1.00  0.00     0.159 HD
ATOM     14  H   UNL     1     -18.352  27.496  -7.876  1.00  0.00     0.159 HD
ENDBRANCH   1  10
TORSDOF 4
ENDMDL
MODEL 9
REMARK VINA RESULT:    -3.472     11.288     12.507
REMARK INTER + INTRA:          -4.696
REMARK INTER:                  -4.561
REMARK INTRA:                  -0.136
REMARK UNBOUND:                -0.515
REMARK SMILES NC(=O)C[C@H]([NH3+])C(=O)[O-]
REMARK SMILES IDX 4 1 5 2 6 3 7 7 8 8 9 9 2 10 3 11 1 12
REMARK H PARENT 6 4 6 5 6 6 1 13 1 14
REMARK Flexibility Score: inf
ROOT
ATOM      1  C   UNL     1     -26.583  18.272  -3.203  1.00  0.00     0.171 C 
ENDROOT
BRANCH   1   2
ATOM      2  C   UNL     1     -25.518  19.222  -3.786  1.00  0.00     0.237 C 
BRANCH   2   3
ATOM      3  N   UNL     1     -24.194  18.588  -3.763  1.00  0.00    -0.350 N 
ATOM      4  H   UNL     1     -23.639  18.951  -2.954  1.00  0.00     0.345 HD
ATOM      5  H   UNL     1     -24.283  17.548  -3.680  1.00  0.00     0.345 HD
ATOM      6  H   UNL     1     -23.677  18.817  -4.643  1.00  0.00     0.345 HD
ENDBRANCH   2   3
BRANCH   2   7
ATOM      7  C   UNL     1     -25.483  20.527  -3.033  1.00  0.00     0.100 C 
ATOM      8  O   UNL     1     -26.552  21.126  -2.740  1.00  0.00    -0.544 OA
ATOM      9  O   UNL     1     -24.264  21.089  -2.675  1.00  0.00    -0.544 OA
ENDBRANCH   2   7
ENDBRANCH   1   2
BRANCH   1  10
ATOM     10  C   UNL     1     -27.661  17.968  -4.203  1.00  0.00     0.223 C 
ATOM     11  O   UNL     1     -28.555  17.126  -3.923  1.00  0.00    -0.275 OA
ATOM     12  N   UNL     1     -27.659  18.599  -5.484  1.00  0.00    -0.369 N 
ATOM     13  H   UNL     1     -26.916  19.285  -5.739  1.00  0.00     0.159 HD
ATOM     14  H   UNL     1     -28.402  18.373  -6.182  1.00  0.00     0.159 HD
ENDBRANCH   1  10
TORSDOF 4
ENDMDL
