MODEL 1
REMARK VINA RESULT:    -6.423      0.000      0.000
REMARK INTER + INTRA:          -6.423
REMARK INTER:                  -6.423
REMARK INTRA:                   0.000
REMARK UNBOUND:                 0.000
REMARK SMILES C=C1CCC[C@@]2(C)CC(=O)C(=C(C)C)C[C@H]12
REMARK SMILES IDX 13 1 12 2 11 3 15 4 16 5 2 6 1 7 3 8 4 9 5 10 6 11 8 12 9 13
REMARK SMILES IDX 10 14 7 15 14 16
REMARK H PARENT
REMARK Flexibility Score: inf
ROOT
ATOM      1  C   UNL     1      12.396 -16.422 -24.397  1.00  0.00     0.039 C 
ATOM      2  C   UNL     1      11.617 -16.896 -23.190  1.00  0.00    -0.070 C 
ATOM      3  C   UNL     1      12.251 -17.430 -22.103  1.00  0.00    -0.006 C 
ATOM      4  C   UNL     1      13.768 -17.547 -22.058  1.00  0.00     0.047 C 
ATOM      5  C   UNL     1      14.350 -17.500 -20.620  1.00  0.00     0.025 C 
ATOM      6  C   UNL     1      15.863 -17.732 -20.535  1.00  0.00    -0.073 C 
ATOM      7  C   UNL     1      16.671 -17.807 -21.608  1.00  0.00     0.008 C 
ATOM      8  C   UNL     1      16.485 -17.858 -19.164  1.00  0.00     0.031 C 
ATOM      9  C   UNL     1      15.485 -17.518 -18.057  1.00  0.00     0.005 C 
ATOM     10  C   UNL     1      14.196 -18.350 -18.173  1.00  0.00     0.008 C 
ATOM     11  C   UNL     1      13.611 -18.464 -19.632  1.00  0.00    -0.018 C 
ATOM     12  C   UNL     1      12.112 -18.070 -19.597  1.00  0.00     0.088 C 
ATOM     13  C   UNL     1      11.503 -18.038 -20.966  1.00  0.00     0.159 C 
ATOM     14  O   UNL     1      10.363 -18.550 -21.131  1.00  0.00    -0.295 OA
ATOM     15  C   UNL     1      13.739 -19.941 -20.097  1.00  0.00     0.012 C 
ATOM     16  C   UNL     1      10.117 -16.716 -23.229  1.00  0.00     0.039 C 
ENDROOT
TORSDOF 0
ENDMDL
MODEL 2
REMARK VINA RESULT:    -6.144      1.835      5.402
REMARK INTER + INTRA:          -6.144
REMARK INTER:                  -6.144
REMARK INTRA:                   0.000
REMARK UNBOUND:                 0.000
REMARK SMILES C=C1CCC[C@@]2(C)CC(=O)C(=C(C)C)C[C@H]12
REMARK SMILES IDX 13 1 12 2 11 3 15 4 16 5 2 6 1 7 3 8 4 9 5 10 6 11 8 12 9 13
REMARK SMILES IDX 10 14 7 15 14 16
REMARK H PARENT
REMARK Flexibility Score: inf
ROOT
ATOM      1  C   UNL     1      14.761 -18.232 -17.683  1.00  0.00     0.039 C 
ATOM      2  C   UNL     1      15.377 -17.846 -19.010  1.00  0.00    -0.070 C 
ATOM      3  C   UNL     1      14.638 -17.839 -20.159  1.00  0.00    -0.006 C 
ATOM      4  C   UNL     1      13.158 -18.197 -20.142  1.00  0.00     0.047 C 
ATOM      5  C   UNL     1      12.343 -17.513 -21.272  1.00  0.00     0.025 C 
ATOM      6  C   UNL     1      10.874 -17.944 -21.353  1.00  0.00    -0.073 C 
ATOM      7  C   UNL     1      10.271 -18.722 -20.435  1.00  0.00     0.008 C 
ATOM      8  C   UNL     1      10.051 -17.447 -22.518  1.00  0.00     0.031 C 
ATOM      9  C   UNL     1      10.807 -16.396 -23.334  1.00  0.00     0.005 C 
ATOM     10  C   UNL     1      12.184 -16.906 -23.791  1.00  0.00     0.008 C 
ATOM     11  C   UNL     1      13.014 -17.655 -22.680  1.00  0.00    -0.018 C 
ATOM     12  C   UNL     1      14.430 -17.029 -22.610  1.00  0.00     0.088 C 
ATOM     13  C   UNL     1      15.251 -17.606 -21.497  1.00  0.00     0.159 C 
ATOM     14  O   UNL     1      16.454 -17.904 -21.726  1.00  0.00    -0.295 OA
ATOM     15  C   UNL     1      13.137 -19.151 -23.087  1.00  0.00     0.012 C 
ATOM     16  C   UNL     1      16.832 -17.436 -18.995  1.00  0.00     0.039 C 
ENDROOT
TORSDOF 0
ENDMDL
MODEL 3
REMARK VINA RESULT:    -5.932      1.680      3.187
REMARK INTER + INTRA:          -5.932
REMARK INTER:                  -5.932
REMARK INTRA:                   0.000
REMARK UNBOUND:                 0.000
REMARK SMILES C=C1CCC[C@@]2(C)CC(=O)C(=C(C)C)C[C@H]12
REMARK SMILES IDX 13 1 12 2 11 3 15 4 16 5 2 6 1 7 3 8 4 9 5 10 6 11 8 12 9 13
REMARK SMILES IDX 10 14 7 15 14 16
REMARK H PARENT
REMARK Flexibility Score: inf
ROOT
ATOM      1  C   UNL     1      10.809 -17.609 -18.526  1.00  0.00     0.039 C 
ATOM      2  C   UNL     1      10.963 -18.036 -19.969  1.00  0.00    -0.070 C 
ATOM      3  C   UNL     1      12.193 -18.105 -20.560  1.00  0.00    -0.006 C 
ATOM      4  C   UNL     1      13.458 -17.775 -19.780  1.00  0.00     0.047 C 
ATOM      5  C   UNL     1      14.717 -18.520 -20.298  1.00  0.00     0.025 C 
ATOM      6  C   UNL     1      16.026 -18.120 -19.609  1.00  0.00    -0.073 C 
ATOM      7  C   UNL     1      16.090 -17.317 -18.530  1.00  0.00     0.008 C 
ATOM      8  C   UNL     1      17.318 -18.681 -20.157  1.00  0.00     0.031 C 
ATOM      9  C   UNL     1      17.061 -19.749 -21.222  1.00  0.00     0.005 C 
ATOM     10  C   UNL     1      16.146 -19.232 -22.345  1.00  0.00     0.008 C 
ATOM     11  C   UNL     1      14.887 -18.422 -21.852  1.00  0.00    -0.018 C 
ATOM     12  C   UNL     1      13.621 -19.018 -22.518  1.00  0.00     0.088 C 
ATOM     13  C   UNL     1      12.361 -18.380 -22.015  1.00  0.00     0.159 C 
ATOM     14  O   UNL     1      11.467 -18.069 -22.847  1.00  0.00    -0.295 OA
ATOM     15  C   UNL     1      15.051 -16.943 -22.300  1.00  0.00     0.012 C 
ATOM     16  C   UNL     1       9.700 -18.418 -20.707  1.00  0.00     0.039 C 
ENDROOT
TORSDOF 0
ENDMDL
MODEL 4
REMARK VINA RESULT:    -5.923      2.119      3.274
REMARK INTER + INTRA:          -5.923
REMARK INTER:                  -5.923
REMARK INTRA:                   0.000
REMARK UNBOUND:                 0.000
REMARK SMILES C=C1CCC[C@@]2(C)CC(=O)C(=C(C)C)C[C@H]12
REMARK SMILES IDX 13 1 12 2 11 3 15 4 16 5 2 6 1 7 3 8 4 9 5 10 6 11 8 12 9 13
REMARK SMILES IDX 10 14 7 15 14 16
REMARK H PARENT
REMARK Flexibility Score: inf
ROOT
ATOM      1  C   UNL     1      10.103 -16.546 -23.377  1.00  0.00     0.039 C 
ATOM      2  C   UNL     1      10.973 -17.530 -24.126  1.00  0.00    -0.070 C 
ATOM      3  C   UNL     1      12.052 -18.118 -23.529  1.00  0.00    -0.006 C 
ATOM      4  C   UNL     1      12.406 -17.820 -22.079  1.00  0.00     0.047 C 
ATOM      5  C   UNL     1      13.145 -18.987 -21.370  1.00  0.00     0.025 C 
ATOM      6  C   UNL     1      13.616 -18.673 -19.946  1.00  0.00    -0.073 C 
ATOM      7  C   UNL     1      13.290 -17.551 -19.278  1.00  0.00     0.008 C 
ATOM      8  C   UNL     1      14.479 -19.695 -19.242  1.00  0.00     0.031 C 
ATOM      9  C   UNL     1      14.564 -21.002 -20.034  1.00  0.00     0.005 C 
ATOM     10  C   UNL     1      15.030 -20.767 -21.481  1.00  0.00     0.008 C 
ATOM     11  C   UNL     1      14.339 -19.553 -22.210  1.00  0.00    -0.018 C 
ATOM     12  C   UNL     1      13.787 -20.041 -23.573  1.00  0.00     0.088 C 
ATOM     13  C   UNL     1      13.009 -18.976 -24.285  1.00  0.00     0.159 C 
ATOM     14  O   UNL     1      13.198 -18.814 -25.521  1.00  0.00    -0.295 OA
ATOM     15  C   UNL     1      15.412 -18.455 -22.458  1.00  0.00     0.012 C 
ATOM     16  C   UNL     1      10.569 -17.859 -25.546  1.00  0.00     0.039 C 
ENDROOT
TORSDOF 0
ENDMDL
MODEL 5
REMARK VINA RESULT:    -5.882      3.321      5.452
REMARK INTER + INTRA:          -5.882
REMARK INTER:                  -5.882
REMARK INTRA:                   0.000
REMARK UNBOUND:                 0.000
REMARK SMILES C=C1CCC[C@@]2(C)CC(=O)C(=C(C)C)C[C@H]12
REMARK SMILES IDX 13 1 12 2 11 3 15 4 16 5 2 6 1 7 3 8 4 9 5 10 6 11 8 12 9 13
REMARK SMILES IDX 10 14 7 15 14 16
REMARK H PARENT
REMARK Flexibility Score: inf
ROOT
ATOM      1  C   UNL     1      15.724 -22.915 -23.156  1.00  0.00     0.039 C 
ATOM      2  C   UNL     1      16.909 -22.001 -22.941  1.00  0.00    -0.070 C 
ATOM      3  C   UNL     1      16.785 -20.834 -22.240  1.00  0.00    -0.006 C 
ATOM      4  C   UNL     1      15.453 -20.423 -21.629  1.00  0.00     0.047 C 
ATOM      5  C   UNL     1      15.599 -19.532 -20.366  1.00  0.00     0.025 C 
ATOM      6  C   UNL     1      14.277 -19.007 -19.797  1.00  0.00    -0.073 C 
ATOM      7  C   UNL     1      13.065 -19.400 -20.232  1.00  0.00     0.008 C 
ATOM      8  C   UNL     1      14.338 -18.008 -18.665  1.00  0.00     0.031 C 
ATOM      9  C   UNL     1      15.764 -17.844 -18.135  1.00  0.00     0.005 C 
ATOM     10  C   UNL     1      16.757 -17.492 -19.255  1.00  0.00     0.008 C 
ATOM     11  C   UNL     1      16.596 -18.342 -20.573  1.00  0.00    -0.018 C 
ATOM     12  C   UNL     1      17.979 -18.927 -20.957  1.00  0.00     0.088 C 
ATOM     13  C   UNL     1      17.897 -19.847 -22.138  1.00  0.00     0.159 C 
ATOM     14  O   UNL     1      18.772 -19.750 -23.040  1.00  0.00    -0.295 OA
ATOM     15  C   UNL     1      16.107 -17.399 -21.707  1.00  0.00     0.012 C 
ATOM     16  C   UNL     1      18.236 -22.456 -23.504  1.00  0.00     0.039 C 
ENDROOT
TORSDOF 0
ENDMDL
MODEL 6
REMARK VINA RESULT:    -5.846      5.888      7.339
REMARK INTER + INTRA:          -5.846
REMARK INTER:                  -5.846
REMARK INTRA:                   0.000
REMARK UNBOUND:                 0.000
REMARK SMILES C=C1CCC[C@@]2(C)CC(=O)C(=C(C)C)C[C@H]12
REMARK SMILES IDX 13 1 12 2 11 3 15 4 16 5 2 6 1 7 3 8 4 9 5 10 6 11 8 12 9 13
REMARK SMILES IDX 10 14 7 15 14 16
REMARK H PARENT
REMARK Flexibility Score: inf
ROOT
ATOM      1  C   UNL     1      13.891 -19.583 -25.769  1.00  0.00     0.039 C 
ATOM      2  C   UNL     1      15.129 -20.145 -26.430  1.00  0.00    -0.070 C 
ATOM      3  C   UNL     1      15.978 -20.975 -25.754  1.00  0.00    -0.006 C 
ATOM      4  C   UNL     1      15.696 -21.383 -24.315  1.00  0.00     0.047 C 
ATOM      5  C   UNL     1      16.286 -22.768 -23.937  1.00  0.00     0.025 C 
ATOM      6  C   UNL     1      16.119 -23.155 -22.464  1.00  0.00    -0.073 C 
ATOM      7  C   UNL     1      15.383 -22.451 -21.584  1.00  0.00     0.008 C 
ATOM      8  C   UNL     1      16.800 -24.413 -21.978  1.00  0.00     0.031 C 
ATOM      9  C   UNL     1      17.394 -25.215 -23.137  1.00  0.00     0.005 C 
ATOM     10  C   UNL     1      18.334 -24.362 -24.005  1.00  0.00     0.008 C 
ATOM     11  C   UNL     1      17.786 -22.927 -24.359  1.00  0.00    -0.018 C 
ATOM     12  C   UNL     1      17.886 -22.722 -25.891  1.00  0.00     0.088 C 
ATOM     13  C   UNL     1      17.277 -21.424 -26.330  1.00  0.00     0.159 C 
ATOM     14  O   UNL     1      17.896 -20.723 -27.176  1.00  0.00    -0.295 OA
ATOM     15  C   UNL     1      18.678 -21.873 -23.644  1.00  0.00     0.012 C 
ATOM     16  C   UNL     1      15.360 -19.776 -27.878  1.00  0.00     0.039 C 
ENDROOT
TORSDOF 0
ENDMDL
MODEL 7
REMARK VINA RESULT:    -5.786      2.972      5.226
REMARK INTER + INTRA:          -5.786
REMARK INTER:                  -5.786
REMARK INTRA:                   0.000
REMARK UNBOUND:                 0.000
REMARK SMILES C=C1CCC[C@@]2(C)CC(=O)C(=C(C)C)C[C@H]12
REMARK SMILES IDX 13 1 12 2 11 3 15 4 16 5 2 6 1 7 3 8 4 9 5 10 6 11 8 12 9 13
REMARK SMILES IDX 10 14 7 15 14 16
REMARK H PARENT
REMARK Flexibility Score: inf
ROOT
ATOM      1  C   UNL     1      17.292 -17.413 -18.884  1.00  0.00     0.039 C 
ATOM      2  C   UNL     1      16.033 -18.251 -18.931  1.00  0.00    -0.070 C 
ATOM      3  C   UNL     1      15.783 -19.094 -19.977  1.00  0.00    -0.006 C 
ATOM      4  C   UNL     1      16.774 -19.237 -21.124  1.00  0.00     0.047 C 
ATOM      5  C   UNL     1      16.723 -20.626 -21.816  1.00  0.00     0.025 C 
ATOM      6  C   UNL     1      17.626 -20.761 -23.047  1.00  0.00    -0.073 C 
ATOM      7  C   UNL     1      18.522 -19.829 -23.424  1.00  0.00     0.008 C 
ATOM      8  C   UNL     1      17.521 -22.023 -23.870  1.00  0.00     0.031 C 
ATOM      9  C   UNL     1      16.639 -23.070 -23.185  1.00  0.00     0.005 C 
ATOM     10  C   UNL     1      15.252 -22.509 -22.829  1.00  0.00     0.008 C 
ATOM     11  C   UNL     1      15.266 -21.075 -22.176  1.00  0.00    -0.018 C 
ATOM     12  C   UNL     1      14.433 -21.115 -20.871  1.00  0.00     0.088 C 
ATOM     13  C   UNL     1      14.488 -19.818 -20.122  1.00  0.00     0.159 C 
ATOM     14  O   UNL     1      13.421 -19.353 -19.640  1.00  0.00    -0.295 OA
ATOM     15  C   UNL     1      14.609 -20.077 -23.171  1.00  0.00     0.012 C 
ATOM     16  C   UNL     1      15.092 -18.139 -17.754  1.00  0.00     0.039 C 
ENDROOT
TORSDOF 0
ENDMDL
MODEL 8
REMARK VINA RESULT:    -5.724      2.118      5.192
REMARK INTER + INTRA:          -5.724
REMARK INTER:                  -5.724
REMARK INTRA:                   0.000
REMARK UNBOUND:                 0.000
REMARK SMILES C=C1CCC[C@@]2(C)CC(=O)C(=C(C)C)C[C@H]12
REMARK SMILES IDX 13 1 12 2 11 3 15 4 16 5 2 6 1 7 3 8 4 9 5 10 6 11 8 12 9 13
REMARK SMILES IDX 10 14 7 15 14 16
REMARK H PARENT
REMARK Flexibility Score: inf
ROOT
ATOM      1  C   UNL     1      15.629 -21.062 -21.500  1.00  0.00     0.039 C 
ATOM      2  C   UNL     1      14.632 -20.244 -20.712  1.00  0.00    -0.070 C 
ATOM      3  C   UNL     1      13.798 -19.355 -21.330  1.00  0.00    -0.006 C 
ATOM      4  C   UNL     1      13.827 -19.173 -22.841  1.00  0.00     0.047 C 
ATOM      5  C   UNL     1      12.468 -18.716 -23.437  1.00  0.00     0.025 C 
ATOM      6  C   UNL     1      12.497 -18.412 -24.938  1.00  0.00    -0.073 C 
ATOM      7  C   UNL     1      13.553 -18.667 -25.734  1.00  0.00     0.008 C 
ATOM      8  C   UNL     1      11.260 -17.814 -25.566  1.00  0.00     0.031 C 
ATOM      9  C   UNL     1      10.082 -17.805 -24.590  1.00  0.00     0.005 C 
ATOM     10  C   UNL     1      10.438 -17.108 -23.266  1.00  0.00     0.008 C 
ATOM     11  C   UNL     1      11.839 -17.508 -22.664  1.00  0.00    -0.018 C 
ATOM     12  C   UNL     1      11.643 -17.925 -21.184  1.00  0.00     0.088 C 
ATOM     13  C   UNL     1      12.911 -18.433 -20.566  1.00  0.00     0.159 C 
ATOM     14  O   UNL     1      13.211 -18.049 -19.404  1.00  0.00    -0.295 OA
ATOM     15  C   UNL     1      12.771 -16.265 -22.725  1.00  0.00     0.012 C 
ATOM     16  C   UNL     1      14.576 -20.484 -19.220  1.00  0.00     0.039 C 
ENDROOT
TORSDOF 0
ENDMDL
MODEL 9
REMARK VINA RESULT:    -5.723      4.372      6.457
REMARK INTER + INTRA:          -5.723
REMARK INTER:                  -5.723
REMARK INTRA:                   0.000
REMARK UNBOUND:                 0.000
REMARK SMILES C=C1CCC[C@@]2(C)CC(=O)C(=C(C)C)C[C@H]12
REMARK SMILES IDX 13 1 12 2 11 3 15 4 16 5 2 6 1 7 3 8 4 9 5 10 6 11 8 12 9 13
REMARK SMILES IDX 10 14 7 15 14 16
REMARK H PARENT
REMARK Flexibility Score: inf
ROOT
ATOM      1  C   UNL     1      16.862 -24.631 -21.990  1.00  0.00     0.039 C 
ATOM      2  C   UNL     1      17.071 -23.709 -23.171  1.00  0.00    -0.070 C 
ATOM      3  C   UNL     1      16.344 -22.561 -23.310  1.00  0.00    -0.006 C 
ATOM      4  C   UNL     1      15.311 -22.155 -22.268  1.00  0.00     0.047 C 
ATOM      5  C   UNL     1      15.094 -20.621 -22.175  1.00  0.00     0.025 C 
ATOM      6  C   UNL     1      13.977 -20.189 -21.219  1.00  0.00    -0.073 C 
ATOM      7  C   UNL     1      13.332 -21.032 -20.391  1.00  0.00     0.008 C 
ATOM      8  C   UNL     1      13.596 -18.727 -21.186  1.00  0.00     0.031 C 
ATOM      9  C   UNL     1      14.569 -17.873 -22.001  1.00  0.00     0.005 C 
ATOM     10  C   UNL     1      14.717 -18.387 -23.443  1.00  0.00     0.008 C 
ATOM     11  C   UNL     1      14.881 -19.949 -23.574  1.00  0.00    -0.018 C 
ATOM     12  C   UNL     1      16.125 -20.245 -24.450  1.00  0.00     0.088 C 
ATOM     13  C   UNL     1      16.425 -21.712 -24.532  1.00  0.00     0.159 C 
ATOM     14  O   UNL     1      16.725 -22.205 -25.653  1.00  0.00    -0.295 OA
ATOM     15  C   UNL     1      13.616 -20.518 -24.276  1.00  0.00     0.012 C 
ATOM     16  C   UNL     1      18.144 -24.099 -24.162  1.00  0.00     0.039 C 
ENDROOT
TORSDOF 0
ENDMDL
