MODEL 1
REMARK VINA RESULT:    -4.023      0.000      0.000
REMARK INTER + INTRA:          -6.016
REMARK INTER:                  -5.434
REMARK INTRA:                  -0.582
REMARK UNBOUND:                -0.582
REMARK SMILES O=C[C@@H](O)[C@@H](O)[C@@H](O)CO
REMARK SMILES IDX 7 1 9 2 10 3 5 5 3 6 2 7 1 8 4 9 6 11 8 13
REMARK H PARENT 10 4 4 10 6 12 8 14
REMARK Flexibility Score: inf
ROOT
ATOM      1  C   UNL     1      16.488 -15.633  13.747  1.00  0.00     0.171 C 
ENDROOT
BRANCH   1   2
ATOM      2  C   UNL     1      15.854 -16.854  13.057  1.00  0.00     0.190 C 
BRANCH   2   3
ATOM      3  O   UNL     1      14.504 -16.996  13.408  1.00  0.00    -0.394 OA
ATOM      4  H   UNL     1      14.144 -16.079  13.530  1.00  0.00     0.210 HD
ENDBRANCH   2   3
ENDBRANCH   1   2
BRANCH   1   5
ATOM      5  C   UNL     1      17.454 -14.820  12.838  1.00  0.00     0.181 C 
BRANCH   5   6
ATOM      6  C   UNL     1      16.889 -14.549  11.420  1.00  0.00     0.209 C 
BRANCH   6   7
ATOM      7  C   UNL     1      16.346 -13.148  11.316  1.00  0.00     0.258 C 
ATOM      8  O   UNL     1      15.374 -12.807  11.971  1.00  0.00    -0.300 OA
ENDBRANCH   6   7
BRANCH   6   9
ATOM      9  O   UNL     1      17.896 -14.715  10.458  1.00  0.00    -0.383 OA
ATOM     10  H   UNL     1      17.505 -14.457   9.582  1.00  0.00     0.211 HD
ENDBRANCH   6   9
ENDBRANCH   5   6
BRANCH   5  11
ATOM     11  O   UNL     1      17.731 -13.590  13.464  1.00  0.00    -0.387 OA
ATOM     12  H   UNL     1      17.023 -13.445  14.145  1.00  0.00     0.211 HD
ENDBRANCH   5  11
ENDBRANCH   1   5
BRANCH   1  13
ATOM     13  O   UNL     1      15.463 -14.811  14.244  1.00  0.00    -0.388 OA
ATOM     14  H   UNL     1      14.933 -14.504  13.463  1.00  0.00     0.211 HD
ENDBRANCH   1  13
TORSDOF 8
ENDMDL
MODEL 2
REMARK VINA RESULT:    -4.009     14.986     16.381
REMARK INTER + INTRA:          -5.997
REMARK INTER:                  -5.411
REMARK INTRA:                  -0.586
REMARK UNBOUND:                -0.582
REMARK SMILES O=C[C@@H](O)[C@@H](O)[C@@H](O)CO
REMARK SMILES IDX 7 1 9 2 10 3 5 5 3 6 2 7 1 8 4 9 6 11 8 13
REMARK H PARENT 10 4 4 10 6 12 8 14
REMARK Flexibility Score: inf
ROOT
ATOM      1  C   UNL     1       3.019  -8.519  11.269  1.00  0.00     0.171 C 
ENDROOT
BRANCH   1   2
ATOM      2  C   UNL     1       3.824  -8.496   9.958  1.00  0.00     0.190 C 
BRANCH   2   3
ATOM      3  O   UNL     1       5.028  -7.794  10.109  1.00  0.00    -0.394 OA
ATOM      4  H   UNL     1       5.236  -7.393   9.225  1.00  0.00     0.210 HD
ENDBRANCH   2   3
ENDBRANCH   1   2
BRANCH   1   5
ATOM      5  C   UNL     1       1.761  -7.603  11.257  1.00  0.00     0.181 C 
BRANCH   5   6
ATOM      6  C   UNL     1       1.002  -7.610   9.906  1.00  0.00     0.209 C 
BRANCH   6   7
ATOM      7  C   UNL     1      -0.207  -8.506   9.972  1.00  0.00     0.258 C 
ATOM      8  O   UNL     1      -0.080  -9.714  10.101  1.00  0.00    -0.300 OA
ENDBRANCH   6   7
BRANCH   6   9
ATOM      9  O   UNL     1       0.584  -6.312   9.580  1.00  0.00    -0.383 OA
ATOM     10  H   UNL     1       1.398  -5.744   9.551  1.00  0.00     0.211 HD
ENDBRANCH   6   9
ENDBRANCH   5   6
BRANCH   5  11
ATOM     11  O   UNL     1       0.886  -8.028  12.276  1.00  0.00    -0.387 OA
ATOM     12  H   UNL     1       0.031  -8.278  11.838  1.00  0.00     0.211 HD
ENDBRANCH   5  11
ENDBRANCH   1   5
BRANCH   1  13
ATOM     13  O   UNL     1       2.664  -9.847  11.561  1.00  0.00    -0.388 OA
ATOM     14  H   UNL     1       2.987 -10.406  10.806  1.00  0.00     0.211 HD
ENDBRANCH   1  13
TORSDOF 8
ENDMDL
MODEL 3
REMARK VINA RESULT:    -3.990      2.194      4.403
REMARK INTER + INTRA:          -5.971
REMARK INTER:                  -5.276
REMARK INTRA:                  -0.695
REMARK UNBOUND:                -0.582
REMARK SMILES O=C[C@@H](O)[C@@H](O)[C@@H](O)CO
REMARK SMILES IDX 7 1 9 2 10 3 5 5 3 6 2 7 1 8 4 9 6 11 8 13
REMARK H PARENT 10 4 4 10 6 12 8 14
REMARK Flexibility Score: inf
ROOT
ATOM      1  C   UNL     1      16.940 -16.233  12.671  1.00  0.00     0.171 C 
ENDROOT
BRANCH   1   2
ATOM      2  C   UNL     1      16.841 -15.483  14.011  1.00  0.00     0.190 C 
BRANCH   2   3
ATOM      3  O   UNL     1      15.542 -15.007  14.236  1.00  0.00    -0.394 OA
ATOM      4  H   UNL     1      15.472 -14.820  15.208  1.00  0.00     0.210 HD
ENDBRANCH   2   3
ENDBRANCH   1   2
BRANCH   1   5
ATOM      5  C   UNL     1      16.497 -17.722  12.742  1.00  0.00     0.181 C 
BRANCH   5   6
ATOM      6  C   UNL     1      15.056 -17.965  12.226  1.00  0.00     0.209 C 
BRANCH   6   7
ATOM      7  C   UNL     1      14.807 -19.433  11.995  1.00  0.00     0.258 C 
ATOM      8  O   UNL     1      15.064 -19.946  10.917  1.00  0.00    -0.300 OA
ENDBRANCH   6   7
BRANCH   6   9
ATOM      9  O   UNL     1      14.122 -17.491  13.158  1.00  0.00    -0.383 OA
ATOM     10  H   UNL     1      14.426 -17.796  14.053  1.00  0.00     0.211 HD
ENDBRANCH   6   9
ENDBRANCH   5   6
BRANCH   5  11
ATOM     11  O   UNL     1      17.394 -18.495  11.980  1.00  0.00    -0.387 OA
ATOM     12  H   UNL     1      16.846 -19.064  11.377  1.00  0.00     0.211 HD
ENDBRANCH   5  11
ENDBRANCH   1   5
BRANCH   1  13
ATOM     13  O   UNL     1      16.192 -15.537  11.706  1.00  0.00    -0.388 OA
ATOM     14  H   UNL     1      15.537 -14.975  12.197  1.00  0.00     0.211 HD
ENDBRANCH   1  13
TORSDOF 8
ENDMDL
MODEL 4
REMARK VINA RESULT:    -3.968     14.722     16.142
REMARK INTER + INTRA:          -5.942
REMARK INTER:                  -5.224
REMARK INTRA:                  -0.718
REMARK UNBOUND:                -0.582
REMARK SMILES O=C[C@@H](O)[C@@H](O)[C@@H](O)CO
REMARK SMILES IDX 7 1 9 2 10 3 5 5 3 6 2 7 1 8 4 9 6 11 8 13
REMARK H PARENT 10 4 4 10 6 12 8 14
REMARK Flexibility Score: inf
ROOT
ATOM      1  C   UNL     1       3.074  -8.762  10.977  1.00  0.00     0.171 C 
ENDROOT
BRANCH   1   2
ATOM      2  C   UNL     1       4.362  -8.969  10.160  1.00  0.00     0.190 C 
BRANCH   2   3
ATOM      3  O   UNL     1       5.092  -7.778  10.046  1.00  0.00    -0.394 OA
ATOM      4  H   UNL     1       4.507  -7.131   9.572  1.00  0.00     0.210 HD
ENDBRANCH   2   3
ENDBRANCH   1   2
BRANCH   1   5
ATOM      5  C   UNL     1       1.846  -8.324  10.126  1.00  0.00     0.181 C 
BRANCH   5   6
ATOM      6  C   UNL     1       0.616  -7.920  10.977  1.00  0.00     0.209 C 
BRANCH   6   7
ATOM      7  C   UNL     1      -0.500  -8.920  10.818  1.00  0.00     0.258 C 
ATOM      8  O   UNL     1      -0.268 -10.118  10.834  1.00  0.00    -0.300 OA
ENDBRANCH   6   7
BRANCH   6   9
ATOM      9  O   UNL     1       0.967  -7.849  12.333  1.00  0.00    -0.383 OA
ATOM     10  H   UNL     1       0.738  -6.934  12.644  1.00  0.00     0.211 HD
ENDBRANCH   6   9
ENDBRANCH   5   6
BRANCH   5  11
ATOM     11  O   UNL     1       2.224  -7.234   9.320  1.00  0.00    -0.387 OA
ATOM     12  H   UNL     1       1.542  -7.154   8.603  1.00  0.00     0.211 HD
ENDBRANCH   5  11
ENDBRANCH   1   5
BRANCH   1  13
ATOM     13  O   UNL     1       2.792  -9.942  11.685  1.00  0.00    -0.388 OA
ATOM     14  H   UNL     1       2.576  -9.676  12.618  1.00  0.00     0.211 HD
ENDBRANCH   1  13
TORSDOF 8
ENDMDL
MODEL 5
REMARK VINA RESULT:    -3.951     15.382     16.668
REMARK INTER + INTRA:          -5.919
REMARK INTER:                  -5.142
REMARK INTRA:                  -0.777
REMARK UNBOUND:                -0.582
REMARK SMILES O=C[C@@H](O)[C@@H](O)[C@@H](O)CO
REMARK SMILES IDX 7 1 9 2 10 3 5 5 3 6 2 7 1 8 4 9 6 11 8 13
REMARK H PARENT 10 4 4 10 6 12 8 14
REMARK Flexibility Score: inf
ROOT
ATOM      1  C   UNL     1      -0.123  -8.817  11.001  1.00  0.00     0.171 C 
ENDROOT
BRANCH   1   2
ATOM      2  C   UNL     1      -0.253  -8.497   9.501  1.00  0.00     0.190 C 
BRANCH   2   3
ATOM      3  O   UNL     1       0.144  -7.181   9.224  1.00  0.00    -0.394 OA
ATOM      4  H   UNL     1       0.672  -7.215   8.383  1.00  0.00     0.210 HD
ENDBRANCH   2   3
ENDBRANCH   1   2
BRANCH   1   5
ATOM      5  C   UNL     1       1.295  -8.559  11.585  1.00  0.00     0.181 C 
BRANCH   5   6
ATOM      6  C   UNL     1       2.420  -9.322  10.842  1.00  0.00     0.209 C 
BRANCH   6   7
ATOM      7  C   UNL     1       3.408  -8.364  10.230  1.00  0.00     0.258 C 
ATOM      8  O   UNL     1       3.144  -7.777   9.193  1.00  0.00    -0.300 OA
ENDBRANCH   6   7
BRANCH   6   9
ATOM      9  O   UNL     1       3.102 -10.166  11.731  1.00  0.00    -0.383 OA
ATOM     10  H   UNL     1       3.444  -9.593  12.468  1.00  0.00     0.211 HD
ENDBRANCH   6   9
ENDBRANCH   5   6
BRANCH   5  11
ATOM     11  O   UNL     1       1.562  -7.177  11.525  1.00  0.00    -0.387 OA
ATOM     12  H   UNL     1       0.881  -6.777  10.923  1.00  0.00     0.211 HD
ENDBRANCH   5  11
ENDBRANCH   1   5
BRANCH   1  13
ATOM     13  O   UNL     1      -1.092  -8.084  11.706  1.00  0.00    -0.388 OA
ATOM     14  H   UNL     1      -0.665  -7.233  11.987  1.00  0.00     0.211 HD
ENDBRANCH   1  13
TORSDOF 8
ENDMDL
MODEL 6
REMARK VINA RESULT:    -3.938     14.144     15.535
REMARK INTER + INTRA:          -5.902
REMARK INTER:                  -5.118
REMARK INTRA:                  -0.784
REMARK UNBOUND:                -0.582
REMARK SMILES O=C[C@@H](O)[C@@H](O)[C@@H](O)CO
REMARK SMILES IDX 7 1 9 2 10 3 5 5 3 6 2 7 1 8 4 9 6 11 8 13
REMARK H PARENT 10 4 4 10 6 12 8 14
REMARK Flexibility Score: inf
ROOT
ATOM      1  C   UNL     1       3.817  -8.486   9.892  1.00  0.00     0.171 C 
ENDROOT
BRANCH   1   2
ATOM      2  C   UNL     1       4.140  -9.883   9.332  1.00  0.00     0.190 C 
BRANCH   2   3
ATOM      3  O   UNL     1       3.012 -10.473   8.746  1.00  0.00    -0.394 OA
ATOM      4  H   UNL     1       2.854  -9.996   7.889  1.00  0.00     0.210 HD
ENDBRANCH   2   3
ENDBRANCH   1   2
BRANCH   1   5
ATOM      5  C   UNL     1       3.017  -8.507  11.227  1.00  0.00     0.181 C 
BRANCH   5   6
ATOM      6  C   UNL     1       1.685  -7.719  11.163  1.00  0.00     0.209 C 
BRANCH   6   7
ATOM      7  C   UNL     1       0.900  -8.087   9.931  1.00  0.00     0.258 C 
ATOM      8  O   UNL     1       0.461  -9.217   9.789  1.00  0.00    -0.300 OA
ENDBRANCH   6   7
BRANCH   6   9
ATOM      9  O   UNL     1       0.904  -7.997  12.295  1.00  0.00    -0.383 OA
ATOM     10  H   UNL     1       0.688  -8.966  12.266  1.00  0.00     0.211 HD
ENDBRANCH   6   9
ENDBRANCH   5   6
BRANCH   5  11
ATOM     11  O   UNL     1       2.743  -9.846  11.566  1.00  0.00    -0.387 OA
ATOM     12  H   UNL     1       3.609 -10.331  11.555  1.00  0.00     0.211 HD
ENDBRANCH   5  11
ENDBRANCH   1   5
BRANCH   1  13
ATOM     13  O   UNL     1       5.015  -7.769  10.042  1.00  0.00    -0.388 OA
ATOM     14  H   UNL     1       5.399  -7.652   9.133  1.00  0.00     0.211 HD
ENDBRANCH   1  13
TORSDOF 8
ENDMDL
MODEL 7
REMARK VINA RESULT:    -3.885     14.443     15.784
REMARK INTER + INTRA:          -5.830
REMARK INTER:                  -5.105
REMARK INTRA:                  -0.725
REMARK UNBOUND:                -0.582
REMARK SMILES O=C[C@@H](O)[C@@H](O)[C@@H](O)CO
REMARK SMILES IDX 7 1 9 2 10 3 5 5 3 6 2 7 1 8 4 9 6 11 8 13
REMARK H PARENT 10 4 4 10 6 12 8 14
REMARK Flexibility Score: inf
ROOT
ATOM      1  C   UNL     1       0.664  -9.556  10.511  1.00  0.00     0.171 C 
ENDROOT
BRANCH   1   2
ATOM      2  C   UNL     1      -0.217  -8.475   9.860  1.00  0.00     0.190 C 
BRANCH   2   3
ATOM      3  O   UNL     1       0.244  -7.187  10.165  1.00  0.00    -0.394 OA
ATOM      4  H   UNL     1       0.898  -7.287  10.906  1.00  0.00     0.210 HD
ENDBRANCH   2   3
ENDBRANCH   1   2
BRANCH   1   5
ATOM      5  C   UNL     1       2.165  -9.480  10.106  1.00  0.00     0.181 C 
BRANCH   5   6
ATOM      6  C   UNL     1       3.093  -9.007  11.254  1.00  0.00     0.209 C 
BRANCH   6   7
ATOM      7  C   UNL     1       4.542  -9.130  10.859  1.00  0.00     0.258 C 
ATOM      8  O   UNL     1       5.226 -10.047  11.284  1.00  0.00    -0.300 OA
ENDBRANCH   6   7
BRANCH   6   9
ATOM      9  O   UNL     1       2.825  -7.668  11.573  1.00  0.00    -0.383 OA
ATOM     10  H   UNL     1       1.946  -7.652  12.036  1.00  0.00     0.211 HD
ENDBRANCH   6   9
ENDBRANCH   5   6
BRANCH   5  11
ATOM     11  O   UNL     1       2.580 -10.755   9.677  1.00  0.00    -0.387 OA
ATOM     12  H   UNL     1       1.796 -11.184   9.243  1.00  0.00     0.211 HD
ENDBRANCH   5  11
ENDBRANCH   1   5
BRANCH   1  13
ATOM     13  O   UNL     1       0.522  -9.477  11.907  1.00  0.00    -0.388 OA
ATOM     14  H   UNL     1       0.668  -8.528  12.160  1.00  0.00     0.211 HD
ENDBRANCH   1  13
TORSDOF 8
ENDMDL
MODEL 8
REMARK VINA RESULT:    -3.847     15.208     16.525
REMARK INTER + INTRA:          -5.778
REMARK INTER:                  -5.198
REMARK INTRA:                  -0.580
REMARK UNBOUND:                -0.582
REMARK SMILES O=C[C@@H](O)[C@@H](O)[C@@H](O)CO
REMARK SMILES IDX 7 1 9 2 10 3 5 5 3 6 2 7 1 8 4 9 6 11 8 13
REMARK H PARENT 10 4 4 10 6 12 8 14
REMARK Flexibility Score: inf
ROOT
ATOM      1  C   UNL     1       0.084  -8.232  10.429  1.00  0.00     0.171 C 
ENDROOT
BRANCH   1   2
ATOM      2  C   UNL     1       1.145  -7.118  10.463  1.00  0.00     0.190 C 
BRANCH   2   3
ATOM      3  O   UNL     1       1.922  -7.187  11.628  1.00  0.00    -0.394 OA
ATOM      4  H   UNL     1       2.153  -8.144  11.760  1.00  0.00     0.210 HD
ENDBRANCH   2   3
ENDBRANCH   1   2
BRANCH   1   5
ATOM      5  C   UNL     1       0.674  -9.671  10.399  1.00  0.00     0.181 C 
BRANCH   5   6
ATOM      6  C   UNL     1       1.566  -9.949   9.163  1.00  0.00     0.209 C 
BRANCH   6   7
ATOM      7  C   UNL     1       2.878 -10.566   9.574  1.00  0.00     0.258 C 
ATOM      8  O   UNL     1       3.818  -9.863   9.906  1.00  0.00    -0.300 OA
ENDBRANCH   6   7
BRANCH   6   9
ATOM      9  O   UNL     1       0.913 -10.824   8.282  1.00  0.00    -0.383 OA
ATOM     10  H   UNL     1       0.458 -11.509   8.840  1.00  0.00     0.211 HD
ENDBRANCH   6   9
ENDBRANCH   5   6
BRANCH   5  11
ATOM     11  O   UNL     1       1.435  -9.870  11.568  1.00  0.00    -0.387 OA
ATOM     12  H   UNL     1       1.343 -10.827  11.815  1.00  0.00     0.211 HD
ENDBRANCH   5  11
ENDBRANCH   1   5
BRANCH   1  13
ATOM     13  O   UNL     1      -0.777  -8.071  11.528  1.00  0.00    -0.388 OA
ATOM     14  H   UNL     1      -0.217  -8.125  12.346  1.00  0.00     0.211 HD
ENDBRANCH   1  13
TORSDOF 8
ENDMDL
MODEL 9
REMARK VINA RESULT:    -3.839     14.988     16.194
REMARK INTER + INTRA:          -5.767
REMARK INTER:                  -5.068
REMARK INTRA:                  -0.699
REMARK UNBOUND:                -0.582
REMARK SMILES O=C[C@@H](O)[C@@H](O)[C@@H](O)CO
REMARK SMILES IDX 7 1 9 2 10 3 5 5 3 6 2 7 1 8 4 9 6 11 8 13
REMARK H PARENT 10 4 4 10 6 12 8 14
REMARK Flexibility Score: inf
ROOT
ATOM      1  C   UNL     1       0.493  -9.336  10.479  1.00  0.00     0.171 C 
ENDROOT
BRANCH   1   2
ATOM      2  C   UNL     1      -0.882  -9.530  11.143  1.00  0.00     0.190 C 
BRANCH   2   3
ATOM      3  O   UNL     1      -1.362  -8.330  11.686  1.00  0.00    -0.394 OA
ATOM      4  H   UNL     1      -0.655  -7.991  12.294  1.00  0.00     0.210 HD
ENDBRANCH   2   3
ENDBRANCH   1   2
BRANCH   1   5
ATOM      5  C   UNL     1       1.638  -8.995  11.476  1.00  0.00     0.181 C 
BRANCH   5   6
ATOM      6  C   UNL     1       2.986  -8.672  10.784  1.00  0.00     0.209 C 
BRANCH   6   7
ATOM      7  C   UNL     1       3.970  -9.797  10.970  1.00  0.00     0.258 C 
ATOM      8  O   UNL     1       3.653 -10.948  10.713  1.00  0.00    -0.300 OA
ENDBRANCH   6   7
BRANCH   6   9
ATOM      9  O   UNL     1       2.788  -8.468   9.411  1.00  0.00    -0.383 OA
ATOM     10  H   UNL     1       2.504  -9.339   9.027  1.00  0.00     0.211 HD
ENDBRANCH   6   9
ENDBRANCH   5   6
BRANCH   5  11
ATOM     11  O   UNL     1       1.243  -7.889  12.253  1.00  0.00    -0.387 OA
ATOM     12  H   UNL     1       2.047  -7.581  12.747  1.00  0.00     0.211 HD
ENDBRANCH   5  11
ENDBRANCH   1   5
BRANCH   1  13
ATOM     13  O   UNL     1       0.806 -10.487   9.738  1.00  0.00    -0.388 OA
ATOM     14  H   UNL     1       0.375 -11.255  10.198  1.00  0.00     0.211 HD
ENDBRANCH   1  13
TORSDOF 8
ENDMDL
