MODEL 1
REMARK VINA RESULT:    -3.894      0.000      0.000
REMARK INTER + INTRA:          -4.900
REMARK INTER:                  -4.804
REMARK INTRA:                  -0.096
REMARK UNBOUND:                -0.096
REMARK SMILES CCCCCC(=O)[O-]
REMARK SMILES IDX 4 1 5 2 6 3 7 4 8 5 3 6 2 7 1 8
REMARK H PARENT
REMARK Flexibility Score: inf
ROOT
ATOM      1  C   UNL     1    -118.226 -36.965 -56.169  1.00  0.00     0.006 C 
ENDROOT
BRANCH   1   2
ATOM      2  C   UNL     1    -119.244 -35.822 -56.323  1.00  0.00     0.053 C 
BRANCH   2   3
ATOM      3  C   UNL     1    -120.649 -36.321 -56.481  1.00  0.00     0.041 C 
ATOM      4  O   UNL     1    -121.423 -35.778 -57.313  1.00  0.00    -0.550 OA
ATOM      5  O   UNL     1    -121.093 -37.405 -55.737  1.00  0.00    -0.550 OA
ENDBRANCH   2   3
ENDBRANCH   1   2
BRANCH   1   6
ATOM      6  C   UNL     1    -116.768 -36.544 -56.431  1.00  0.00     0.000 C 
BRANCH   6   7
ATOM      7  C   UNL     1    -116.650 -35.161 -57.088  1.00  0.00    -0.003 C 
ATOM      8  C   UNL     1    -115.379 -35.058 -57.925  1.00  0.00     0.004 C 
ENDBRANCH   6   7
ENDBRANCH   1   6
TORSDOF 4
ENDMDL
MODEL 2
REMARK VINA RESULT:    -3.717      2.818      4.222
REMARK INTER + INTRA:          -4.682
REMARK INTER:                  -4.525
REMARK INTRA:                  -0.156
REMARK UNBOUND:                -0.096
REMARK SMILES CCCCCC(=O)[O-]
REMARK SMILES IDX 4 1 5 2 6 3 7 4 8 5 3 6 2 7 1 8
REMARK H PARENT
REMARK Flexibility Score: inf
ROOT
ATOM      1  C   UNL     1    -118.873 -36.523 -55.842  1.00  0.00     0.006 C 
ENDROOT
BRANCH   1   2
ATOM      2  C   UNL     1    -117.484 -37.035 -56.259  1.00  0.00     0.053 C 
BRANCH   2   3
ATOM      3  C   UNL     1    -116.564 -35.927 -56.676  1.00  0.00     0.041 C 
ATOM      4  O   UNL     1    -117.035 -34.841 -57.105  1.00  0.00    -0.550 OA
ATOM      5  O   UNL     1    -115.189 -36.080 -56.560  1.00  0.00    -0.550 OA
ENDBRANCH   2   3
ENDBRANCH   1   2
BRANCH   1   6
ATOM      6  C   UNL     1    -120.036 -37.163 -56.623  1.00  0.00     0.000 C 
BRANCH   6   7
ATOM      7  C   UNL     1    -121.230 -36.214 -56.807  1.00  0.00    -0.003 C 
ATOM      8  C   UNL     1    -120.762 -34.800 -57.136  1.00  0.00     0.004 C 
ENDBRANCH   6   7
ENDBRANCH   1   6
TORSDOF 4
ENDMDL
MODEL 3
REMARK VINA RESULT:    -3.627      1.294      2.216
REMARK INTER + INTRA:          -4.571
REMARK INTER:                  -4.461
REMARK INTRA:                  -0.111
REMARK UNBOUND:                -0.096
REMARK SMILES CCCCCC(=O)[O-]
REMARK SMILES IDX 4 1 5 2 6 3 7 4 8 5 3 6 2 7 1 8
REMARK H PARENT
REMARK Flexibility Score: inf
ROOT
ATOM      1  C   UNL     1    -119.111 -35.361 -56.542  1.00  0.00     0.006 C 
ENDROOT
BRANCH   1   2
ATOM      2  C   UNL     1    -120.528 -34.944 -56.111  1.00  0.00     0.053 C 
BRANCH   2   3
ATOM      3  C   UNL     1    -121.520 -35.035 -57.231  1.00  0.00     0.041 C 
ATOM      4  O   UNL     1    -122.184 -36.090 -57.405  1.00  0.00    -0.550 OA
ATOM      5  O   UNL     1    -121.736 -33.944 -58.062  1.00  0.00    -0.550 OA
ENDBRANCH   2   3
ENDBRANCH   1   2
BRANCH   1   6
ATOM      6  C   UNL     1    -118.713 -36.780 -56.095  1.00  0.00     0.000 C 
BRANCH   6   7
ATOM      7  C   UNL     1    -117.222 -37.081 -56.309  1.00  0.00    -0.003 C 
ATOM      8  C   UNL     1    -116.454 -35.817 -56.684  1.00  0.00     0.004 C 
ENDBRANCH   6   7
ENDBRANCH   1   6
TORSDOF 4
ENDMDL
MODEL 4
REMARK VINA RESULT:    -3.593      3.549      4.881
REMARK INTER + INTRA:          -4.529
REMARK INTER:                  -4.445
REMARK INTRA:                  -0.084
REMARK UNBOUND:                -0.096
REMARK SMILES CCCCCC(=O)[O-]
REMARK SMILES IDX 4 1 5 2 6 3 7 4 8 5 3 6 2 7 1 8
REMARK H PARENT
REMARK Flexibility Score: inf
ROOT
ATOM      1  C   UNL     1    -117.190 -35.794 -56.454  1.00  0.00     0.006 C 
ENDROOT
BRANCH   1   2
ATOM      2  C   UNL     1    -115.709 -36.204 -56.505  1.00  0.00     0.053 C 
BRANCH   2   3
ATOM      3  C   UNL     1    -114.942 -35.462 -57.558  1.00  0.00     0.041 C 
ATOM      4  O   UNL     1    -113.751 -35.114 -57.346  1.00  0.00    -0.550 OA
ATOM      5  O   UNL     1    -115.531 -35.184 -58.784  1.00  0.00    -0.550 OA
ENDBRANCH   2   3
ENDBRANCH   1   2
BRANCH   1   6
ATOM      6  C   UNL     1    -118.160 -36.973 -56.252  1.00  0.00     0.000 C 
BRANCH   6   7
ATOM      7  C   UNL     1    -119.594 -36.525 -55.938  1.00  0.00    -0.003 C 
ATOM      8  C   UNL     1    -119.948 -35.246 -56.691  1.00  0.00     0.004 C 
ENDBRANCH   6   7
ENDBRANCH   1   6
TORSDOF 4
ENDMDL
MODEL 5
REMARK VINA RESULT:    -3.516     11.961     12.548
REMARK INTER + INTRA:          -4.434
REMARK INTER:                  -4.290
REMARK INTRA:                  -0.144
REMARK UNBOUND:                -0.096
REMARK SMILES CCCCCC(=O)[O-]
REMARK SMILES IDX 4 1 5 2 6 3 7 4 8 5 3 6 2 7 1 8
REMARK H PARENT
REMARK Flexibility Score: inf
ROOT
ATOM      1  C   UNL     1    -111.800 -41.253 -65.526  1.00  0.00     0.006 C 
ENDROOT
BRANCH   1   2
ATOM      2  C   UNL     1    -113.267 -40.827 -65.703  1.00  0.00     0.053 C 
BRANCH   2   3
ATOM      3  C   UNL     1    -113.816 -41.199 -67.048  1.00  0.00     0.041 C 
ATOM      4  O   UNL     1    -114.641 -42.144 -67.155  1.00  0.00    -0.550 OA
ATOM      5  O   UNL     1    -113.443 -40.482 -68.177  1.00  0.00    -0.550 OA
ENDBRANCH   2   3
ENDBRANCH   1   2
BRANCH   1   6
ATOM      6  C   UNL     1    -111.623 -42.692 -65.009  1.00  0.00     0.000 C 
BRANCH   6   7
ATOM      7  C   UNL     1    -112.537 -43.020 -63.819  1.00  0.00    -0.003 C 
ATOM      8  C   UNL     1    -111.799 -43.848 -62.771  1.00  0.00     0.004 C 
ENDBRANCH   6   7
ENDBRANCH   1   6
TORSDOF 4
ENDMDL
MODEL 6
REMARK VINA RESULT:    -3.350     11.984     12.780
REMARK INTER + INTRA:          -4.229
REMARK INTER:                  -4.010
REMARK INTRA:                  -0.219
REMARK UNBOUND:                -0.096
REMARK SMILES CCCCCC(=O)[O-]
REMARK SMILES IDX 4 1 5 2 6 3 7 4 8 5 3 6 2 7 1 8
REMARK H PARENT
REMARK Flexibility Score: inf
ROOT
ATOM      1  C   UNL     1    -113.531 -41.474 -65.087  1.00  0.00     0.006 C 
ENDROOT
BRANCH   1   2
ATOM      2  C   UNL     1    -114.516 -41.959 -66.163  1.00  0.00     0.053 C 
BRANCH   2   3
ATOM      3  C   UNL     1    -113.968 -41.818 -67.551  1.00  0.00     0.041 C 
ATOM      4  O   UNL     1    -113.638 -40.684 -67.989  1.00  0.00    -0.550 OA
ATOM      5  O   UNL     1    -113.789 -42.940 -68.349  1.00  0.00    -0.550 OA
ENDBRANCH   2   3
ENDBRANCH   1   2
BRANCH   1   6
ATOM      6  C   UNL     1    -112.664 -42.593 -64.482  1.00  0.00     0.000 C 
BRANCH   6   7
ATOM      7  C   UNL     1    -111.271 -42.689 -65.122  1.00  0.00    -0.003 C 
ATOM      8  C   UNL     1    -110.832 -41.340 -65.684  1.00  0.00     0.004 C 
ENDBRANCH   6   7
ENDBRANCH   1   6
TORSDOF 4
ENDMDL
MODEL 7
REMARK VINA RESULT:    -3.300     12.200     13.145
REMARK INTER + INTRA:          -4.167
REMARK INTER:                  -3.931
REMARK INTRA:                  -0.236
REMARK UNBOUND:                -0.096
REMARK SMILES CCCCCC(=O)[O-]
REMARK SMILES IDX 4 1 5 2 6 3 7 4 8 5 3 6 2 7 1 8
REMARK H PARENT
REMARK Flexibility Score: inf
ROOT
ATOM      1  C   UNL     1    -113.759 -41.111 -65.606  1.00  0.00     0.006 C 
ENDROOT
BRANCH   1   2
ATOM      2  C   UNL     1    -112.233 -41.248 -65.470  1.00  0.00     0.053 C 
BRANCH   2   3
ATOM      3  C   UNL     1    -111.822 -42.583 -64.925  1.00  0.00     0.041 C 
ATOM      4  O   UNL     1    -110.880 -43.223 -65.464  1.00  0.00    -0.550 OA
ATOM      5  O   UNL     1    -112.453 -43.105 -63.804  1.00  0.00    -0.550 OA
ENDBRANCH   2   3
ENDBRANCH   1   2
BRANCH   1   6
ATOM      6  C   UNL     1    -114.390 -42.096 -66.607  1.00  0.00     0.000 C 
BRANCH   6   7
ATOM      7  C   UNL     1    -113.757 -42.021 -68.004  1.00  0.00    -0.003 C 
ATOM      8  C   UNL     1    -113.339 -43.405 -68.493  1.00  0.00     0.004 C 
ENDBRANCH   6   7
ENDBRANCH   1   6
TORSDOF 4
ENDMDL
MODEL 8
REMARK VINA RESULT:    -3.252     12.692     13.616
REMARK INTER + INTRA:          -4.108
REMARK INTER:                  -3.911
REMARK INTRA:                  -0.197
REMARK UNBOUND:                -0.096
REMARK SMILES CCCCCC(=O)[O-]
REMARK SMILES IDX 4 1 5 2 6 3 7 4 8 5 3 6 2 7 1 8
REMARK H PARENT
REMARK Flexibility Score: inf
ROOT
ATOM      1  C   UNL     1    -113.404 -41.087 -66.771  1.00  0.00     0.006 C 
ENDROOT
BRANCH   1   2
ATOM      2  C   UNL     1    -114.213 -42.107 -67.589  1.00  0.00     0.053 C 
BRANCH   2   3
ATOM      3  C   UNL     1    -113.372 -42.836 -68.593  1.00  0.00     0.041 C 
ATOM      4  O   UNL     1    -112.234 -43.268 -68.271  1.00  0.00    -0.550 OA
ATOM      5  O   UNL     1    -113.856 -43.068 -69.873  1.00  0.00    -0.550 OA
ENDBRANCH   2   3
ENDBRANCH   1   2
BRANCH   1   6
ATOM      6  C   UNL     1    -113.645 -41.170 -65.252  1.00  0.00     0.000 C 
BRANCH   6   7
ATOM      7  C   UNL     1    -112.988 -42.397 -64.604  1.00  0.00    -0.003 C 
ATOM      8  C   UNL     1    -111.519 -42.507 -65.002  1.00  0.00     0.004 C 
ENDBRANCH   6   7
ENDBRANCH   1   6
TORSDOF 4
ENDMDL
MODEL 9
REMARK VINA RESULT:    -3.182     12.463     13.484
REMARK INTER + INTRA:          -4.021
REMARK INTER:                  -3.749
REMARK INTRA:                  -0.273
REMARK UNBOUND:                -0.096
REMARK SMILES CCCCCC(=O)[O-]
REMARK SMILES IDX 4 1 5 2 6 3 7 4 8 5 3 6 2 7 1 8
REMARK H PARENT
REMARK Flexibility Score: inf
ROOT
ATOM      1  C   UNL     1    -111.973 -40.718 -65.796  1.00  0.00     0.006 C 
ENDROOT
BRANCH   1   2
ATOM      2  C   UNL     1    -110.576 -41.357 -65.723  1.00  0.00     0.053 C 
BRANCH   2   3
ATOM      3  C   UNL     1    -110.601 -42.829 -66.008  1.00  0.00     0.041 C 
ATOM      4  O   UNL     1    -110.829 -43.244 -67.174  1.00  0.00    -0.550 OA
ATOM      5  O   UNL     1    -110.340 -43.741 -64.994  1.00  0.00    -0.550 OA
ENDBRANCH   2   3
ENDBRANCH   1   2
BRANCH   1   6
ATOM      6  C   UNL     1    -113.060 -41.500 -65.036  1.00  0.00     0.000 C 
BRANCH   6   7
ATOM      7  C   UNL     1    -114.271 -41.851 -65.912  1.00  0.00    -0.003 C 
ATOM      8  C   UNL     1    -113.999 -41.534 -67.380  1.00  0.00     0.004 C 
ENDBRANCH   6   7
ENDBRANCH   1   6
TORSDOF 4
ENDMDL
