MODEL 1
REMARK VINA RESULT:    -4.928      0.000      0.000
REMARK INTER + INTRA:          -5.818
REMARK INTER:                  -5.648
REMARK INTRA:                  -0.170
REMARK UNBOUND:                -0.170
REMARK SMILES CC=Cc1ccc(O)c(OC)c1
REMARK SMILES IDX 4 1 12 2 9 3 7 4 6 5 5 6 3 7 1 8 2 9 10 10 11 11 8 12
REMARK H PARENT 8 13
REMARK Flexibility Score: inf
ROOT
ATOM      1  C   UNL     1     -14.753  44.418  31.226  1.00  0.00    -0.022 A 
ATOM      2  C   UNL     1     -15.385  43.876  32.359  1.00  0.00     0.058 A 
ATOM      3  C   UNL     1     -16.785  43.724  32.403  1.00  0.00     0.161 A 
ATOM      4  C   UNL     1     -17.555  44.131  31.300  1.00  0.00     0.157 A 
ATOM      5  C   UNL     1     -16.932  44.683  30.179  1.00  0.00     0.051 A 
ATOM      6  C   UNL     1     -15.544  44.833  30.139  1.00  0.00     0.012 A 
ENDROOT
BRANCH   1   7
ATOM      7  C   UNL     1     -13.276  44.564  31.239  1.00  0.00     0.003 C 
ATOM      8  C   UNL     1     -11.031  44.709  30.235  1.00  0.00     0.035 C 
ATOM      9  C   UNL     1     -12.516  44.571  30.137  1.00  0.00    -0.030 C 
ENDBRANCH   1   7
BRANCH   3  10
ATOM     10  O   UNL     1     -17.438  43.176  33.519  1.00  0.00    -0.493 OA
ATOM     11  C   UNL     1     -17.095  41.936  34.129  1.00  0.00     0.278 C 
ENDBRANCH   3  10
BRANCH   4  12
ATOM     12  O   UNL     1     -18.943  43.997  31.301  1.00  0.00    -0.504 OA
ATOM     13  H   UNL     1     -19.549  44.659  31.771  1.00  0.00     0.293 HD
ENDBRANCH   4  12
TORSDOF 3
ENDMDL
MODEL 2
REMARK VINA RESULT:    -4.779      2.790      4.804
REMARK INTER + INTRA:          -5.648
REMARK INTER:                  -5.493
REMARK INTRA:                  -0.155
REMARK UNBOUND:                -0.170
REMARK SMILES CC=Cc1ccc(O)c(OC)c1
REMARK SMILES IDX 4 1 12 2 9 3 7 4 6 5 5 6 3 7 1 8 2 9 10 10 11 11 8 12
REMARK H PARENT 8 13
REMARK Flexibility Score: inf
ROOT
ATOM      1  C   UNL     1     -17.904  41.332  32.374  1.00  0.00    -0.022 A 
ATOM      2  C   UNL     1     -17.348  42.425  31.687  1.00  0.00     0.058 A 
ATOM      3  C   UNL     1     -17.680  43.748  32.042  1.00  0.00     0.161 A 
ATOM      4  C   UNL     1     -18.589  43.970  33.091  1.00  0.00     0.157 A 
ATOM      5  C   UNL     1     -19.155  42.886  33.766  1.00  0.00     0.051 A 
ATOM      6  C   UNL     1     -18.823  41.577  33.411  1.00  0.00     0.012 A 
ENDROOT
BRANCH   1   7
ATOM      7  C   UNL     1     -17.526  39.961  31.951  1.00  0.00     0.003 C 
ATOM      8  C   UNL     1     -16.391  38.283  30.548  1.00  0.00     0.035 C 
ATOM      9  C   UNL     1     -16.713  39.695  30.921  1.00  0.00    -0.030 C 
ENDBRANCH   1   7
BRANCH   3  10
ATOM     10  O   UNL     1     -17.130  44.856  31.377  1.00  0.00    -0.493 OA
ATOM     11  C   UNL     1     -16.759  44.873  30.003  1.00  0.00     0.278 C 
ENDBRANCH   3  10
BRANCH   4  12
ATOM     12  O   UNL     1     -18.944  45.262  33.476  1.00  0.00    -0.504 OA
ATOM     13  H   UNL     1     -19.185  45.494  34.431  1.00  0.00     0.293 HD
ENDBRANCH   4  12
TORSDOF 3
ENDMDL
MODEL 3
REMARK VINA RESULT:    -4.730      3.460      5.354
REMARK INTER + INTRA:          -5.591
REMARK INTER:                  -5.412
REMARK INTRA:                  -0.180
REMARK UNBOUND:                -0.170
REMARK SMILES CC=Cc1ccc(O)c(OC)c1
REMARK SMILES IDX 4 1 12 2 9 3 7 4 6 5 5 6 3 7 1 8 2 9 10 10 11 11 8 12
REMARK H PARENT 8 13
REMARK Flexibility Score: inf
ROOT
ATOM      1  C   UNL     1     -15.567  43.654  33.410  1.00  0.00    -0.022 A 
ATOM      2  C   UNL     1     -14.748  42.570  33.051  1.00  0.00     0.058 A 
ATOM      3  C   UNL     1     -13.347  42.709  32.987  1.00  0.00     0.161 A 
ATOM      4  C   UNL     1     -12.768  43.956  33.279  1.00  0.00     0.157 A 
ATOM      5  C   UNL     1     -13.580  45.041  33.622  1.00  0.00     0.051 A 
ATOM      6  C   UNL     1     -14.967  44.897  33.684  1.00  0.00     0.012 A 
ENDROOT
BRANCH   1   7
ATOM      7  C   UNL     1     -17.036  43.451  33.451  1.00  0.00     0.003 C 
ATOM      8  C   UNL     1     -19.396  44.161  33.473  1.00  0.00     0.035 C 
ATOM      9  C   UNL     1     -17.930  44.448  33.413  1.00  0.00    -0.030 C 
ENDBRANCH   1   7
BRANCH   3  10
ATOM     10  O   UNL     1     -12.508  41.638  32.641  1.00  0.00    -0.493 OA
ATOM     11  C   UNL     1     -12.472  41.021  31.358  1.00  0.00     0.278 C 
ENDBRANCH   3  10
BRANCH   4  12
ATOM     12  O   UNL     1     -11.387  44.139  33.229  1.00  0.00    -0.504 OA
ATOM     13  H   UNL     1     -10.792  43.979  34.033  1.00  0.00     0.293 HD
ENDBRANCH   4  12
TORSDOF 3
ENDMDL
MODEL 4
REMARK VINA RESULT:    -4.694      1.808      3.664
REMARK INTER + INTRA:          -5.550
REMARK INTER:                  -5.392
REMARK INTRA:                  -0.158
REMARK UNBOUND:                -0.170
REMARK SMILES CC=Cc1ccc(O)c(OC)c1
REMARK SMILES IDX 4 1 12 2 9 3 7 4 6 5 5 6 3 7 1 8 2 9 10 10 11 11 8 12
REMARK H PARENT 8 13
REMARK Flexibility Score: inf
ROOT
ATOM      1  C   UNL     1     -14.848  44.518  31.109  1.00  0.00    -0.022 A 
ATOM      2  C   UNL     1     -15.685  43.914  32.062  1.00  0.00     0.058 A 
ATOM      3  C   UNL     1     -15.214  43.617  33.356  1.00  0.00     0.161 A 
ATOM      4  C   UNL     1     -13.883  43.922  33.689  1.00  0.00     0.157 A 
ATOM      5  C   UNL     1     -13.043  44.510  32.739  1.00  0.00     0.051 A 
ATOM      6  C   UNL     1     -13.515  44.802  31.458  1.00  0.00     0.012 A 
ENDROOT
BRANCH   1   7
ATOM      7  C   UNL     1     -15.395  44.799  29.758  1.00  0.00     0.003 C 
ATOM      8  C   UNL     1     -16.916  44.476  27.847  1.00  0.00     0.035 C 
ATOM      9  C   UNL     1     -16.432  44.143  29.221  1.00  0.00    -0.030 C 
ENDBRANCH   1   7
BRANCH   3  10
ATOM     10  O   UNL     1     -16.035  43.023  34.328  1.00  0.00    -0.493 OA
ATOM     11  C   UNL     1     -16.872  41.894  34.100  1.00  0.00     0.278 C 
ENDBRANCH   3  10
BRANCH   4  12
ATOM     12  O   UNL     1     -13.375  43.647  34.958  1.00  0.00    -0.504 OA
ATOM     13  H   UNL     1     -12.481  43.192  35.095  1.00  0.00     0.293 HD
ENDBRANCH   4  12
TORSDOF 3
ENDMDL
MODEL 5
REMARK VINA RESULT:    -4.651      1.998      2.193
REMARK INTER + INTRA:          -5.501
REMARK INTER:                  -5.323
REMARK INTRA:                  -0.178
REMARK UNBOUND:                -0.170
REMARK SMILES CC=Cc1ccc(O)c(OC)c1
REMARK SMILES IDX 4 1 12 2 9 3 7 4 6 5 5 6 3 7 1 8 2 9 10 10 11 11 8 12
REMARK H PARENT 8 13
REMARK Flexibility Score: inf
ROOT
ATOM      1  C   UNL     1     -14.375  43.217  31.895  1.00  0.00    -0.022 A 
ATOM      2  C   UNL     1     -15.510  43.477  32.682  1.00  0.00     0.058 A 
ATOM      3  C   UNL     1     -16.570  44.263  32.188  1.00  0.00     0.161 A 
ATOM      4  C   UNL     1     -16.480  44.800  30.892  1.00  0.00     0.157 A 
ATOM      5  C   UNL     1     -15.347  44.556  30.112  1.00  0.00     0.051 A 
ATOM      6  C   UNL     1     -14.299  43.776  30.606  1.00  0.00     0.012 A 
ENDROOT
BRANCH   1   7
ATOM      7  C   UNL     1     -13.285  42.391  32.471  1.00  0.00     0.003 C 
ATOM      8  C   UNL     1     -11.130  41.197  32.450  1.00  0.00     0.035 C 
ATOM      9  C   UNL     1     -12.177  42.045  31.804  1.00  0.00    -0.030 C 
ENDBRANCH   1   7
BRANCH   3  10
ATOM     10  O   UNL     1     -17.718  44.528  32.952  1.00  0.00    -0.493 OA
ATOM     11  C   UNL     1     -18.859  43.679  33.019  1.00  0.00     0.278 C 
ENDBRANCH   3  10
BRANCH   4  12
ATOM     12  O   UNL     1     -17.506  45.582  30.363  1.00  0.00    -0.504 OA
ATOM     13  H   UNL     1     -17.609  46.564  30.589  1.00  0.00     0.293 HD
ENDBRANCH   4  12
TORSDOF 3
ENDMDL
MODEL 6
REMARK VINA RESULT:    -4.623      1.933      2.737
REMARK INTER + INTRA:          -5.468
REMARK INTER:                  -5.298
REMARK INTRA:                  -0.170
REMARK UNBOUND:                -0.170
REMARK SMILES CC=Cc1ccc(O)c(OC)c1
REMARK SMILES IDX 4 1 12 2 9 3 7 4 6 5 5 6 3 7 1 8 2 9 10 10 11 11 8 12
REMARK H PARENT 8 13
REMARK Flexibility Score: inf
ROOT
ATOM      1  C   UNL     1     -16.472  43.680  31.934  1.00  0.00    -0.022 A 
ATOM      2  C   UNL     1     -16.450  42.280  32.058  1.00  0.00     0.058 A 
ATOM      3  C   UNL     1     -17.516  41.590  32.669  1.00  0.00     0.161 A 
ATOM      4  C   UNL     1     -18.609  42.319  33.167  1.00  0.00     0.157 A 
ATOM      5  C   UNL     1     -18.629  43.712  33.059  1.00  0.00     0.051 A 
ATOM      6  C   UNL     1     -17.570  44.391  32.453  1.00  0.00     0.012 A 
ENDROOT
BRANCH   1   7
ATOM      7  C   UNL     1     -15.318  44.355  31.290  1.00  0.00     0.003 C 
ATOM      8  C   UNL     1     -13.078  44.474  30.268  1.00  0.00     0.035 C 
ATOM      9  C   UNL     1     -14.206  43.720  30.898  1.00  0.00    -0.030 C 
ENDBRANCH   1   7
BRANCH   3  10
ATOM     10  O   UNL     1     -17.520  40.192  32.796  1.00  0.00    -0.493 OA
ATOM     11  C   UNL     1     -17.569  39.280  31.703  1.00  0.00     0.278 C 
ENDBRANCH   3  10
BRANCH   4  12
ATOM     12  O   UNL     1     -19.686  41.677  33.778  1.00  0.00    -0.504 OA
ATOM     13  H   UNL     1     -20.267  41.010  33.285  1.00  0.00     0.293 HD
ENDBRANCH   4  12
TORSDOF 3
ENDMDL
MODEL 7
REMARK VINA RESULT:    -4.593      2.938      4.696
REMARK INTER + INTRA:          -5.434
REMARK INTER:                  -5.273
REMARK INTRA:                  -0.161
REMARK UNBOUND:                -0.170
REMARK SMILES CC=Cc1ccc(O)c(OC)c1
REMARK SMILES IDX 4 1 12 2 9 3 7 4 6 5 5 6 3 7 1 8 2 9 10 10 11 11 8 12
REMARK H PARENT 8 13
REMARK Flexibility Score: inf
ROOT
ATOM      1  C   UNL     1     -14.789  44.207  31.217  1.00  0.00    -0.022 A 
ATOM      2  C   UNL     1     -13.392  44.114  31.338  1.00  0.00     0.058 A 
ATOM      3  C   UNL     1     -12.761  44.268  32.588  1.00  0.00     0.161 A 
ATOM      4  C   UNL     1     -13.546  44.528  33.725  1.00  0.00     0.157 A 
ATOM      5  C   UNL     1     -14.934  44.635  33.607  1.00  0.00     0.051 A 
ATOM      6  C   UNL     1     -15.554  44.481  32.365  1.00  0.00     0.012 A 
ENDROOT
BRANCH   1   7
ATOM      7  C   UNL     1     -15.398  44.045  29.873  1.00  0.00     0.003 C 
ATOM      8  C   UNL     1     -16.976  44.562  28.052  1.00  0.00     0.035 C 
ATOM      9  C   UNL     1     -16.408  44.796  29.415  1.00  0.00    -0.030 C 
ENDBRANCH   1   7
BRANCH   3  10
ATOM     10  O   UNL     1     -11.368  44.170  32.735  1.00  0.00    -0.493 OA
ATOM     11  C   UNL     1     -10.537  43.283  31.994  1.00  0.00     0.278 C 
ENDBRANCH   3  10
BRANCH   4  12
ATOM     12  O   UNL     1     -12.964  44.686  34.982  1.00  0.00    -0.504 OA
ATOM     13  H   UNL     1     -12.003  44.425  35.169  1.00  0.00     0.293 HD
ENDBRANCH   4  12
TORSDOF 3
ENDMDL
MODEL 8
REMARK VINA RESULT:    -4.588      2.579      3.408
REMARK INTER + INTRA:          -5.428
REMARK INTER:                  -5.262
REMARK INTRA:                  -0.166
REMARK UNBOUND:                -0.170
REMARK SMILES CC=Cc1ccc(O)c(OC)c1
REMARK SMILES IDX 4 1 12 2 9 3 7 4 6 5 5 6 3 7 1 8 2 9 10 10 11 11 8 12
REMARK H PARENT 8 13
REMARK Flexibility Score: inf
ROOT
ATOM      1  C   UNL     1     -14.729  44.878  33.561  1.00  0.00    -0.022 A 
ATOM      2  C   UNL     1     -16.002  44.353  33.842  1.00  0.00     0.058 A 
ATOM      3  C   UNL     1     -16.743  43.680  32.851  1.00  0.00     0.161 A 
ATOM      4  C   UNL     1     -16.200  43.543  31.562  1.00  0.00     0.157 A 
ATOM      5  C   UNL     1     -14.941  44.076  31.274  1.00  0.00     0.051 A 
ATOM      6  C   UNL     1     -14.210  44.743  32.260  1.00  0.00     0.012 A 
ENDROOT
BRANCH   1   7
ATOM      7  C   UNL     1     -13.998  45.586  34.641  1.00  0.00     0.003 C 
ATOM      8  C   UNL     1     -13.733  47.213  36.473  1.00  0.00     0.035 C 
ATOM      9  C   UNL     1     -14.541  46.536  35.413  1.00  0.00    -0.030 C 
ENDBRANCH   1   7
BRANCH   3  10
ATOM     10  O   UNL     1     -18.012  43.139  33.111  1.00  0.00    -0.493 OA
ATOM     11  C   UNL     1     -19.171  43.907  33.420  1.00  0.00     0.278 C 
ENDBRANCH   3  10
BRANCH   4  12
ATOM     12  O   UNL     1     -16.898  42.883  30.551  1.00  0.00    -0.504 OA
ATOM     13  H   UNL     1     -17.756  42.375  30.730  1.00  0.00     0.293 HD
ENDBRANCH   4  12
TORSDOF 3
ENDMDL
MODEL 9
REMARK VINA RESULT:    -4.504      1.466      2.739
REMARK INTER + INTRA:          -5.332
REMARK INTER:                  -5.180
REMARK INTRA:                  -0.152
REMARK UNBOUND:                -0.170
REMARK SMILES CC=Cc1ccc(O)c(OC)c1
REMARK SMILES IDX 4 1 12 2 9 3 7 4 6 5 5 6 3 7 1 8 2 9 10 10 11 11 8 12
REMARK H PARENT 8 13
REMARK Flexibility Score: inf
ROOT
ATOM      1  C   UNL     1     -14.136  44.547  32.431  1.00  0.00    -0.022 A 
ATOM      2  C   UNL     1     -14.917  44.586  31.263  1.00  0.00     0.058 A 
ATOM      3  C   UNL     1     -16.324  44.615  31.334  1.00  0.00     0.161 A 
ATOM      4  C   UNL     1     -16.949  44.594  32.592  1.00  0.00     0.157 A 
ATOM      5  C   UNL     1     -16.177  44.541  33.755  1.00  0.00     0.051 A 
ATOM      6  C   UNL     1     -14.782  44.512  33.680  1.00  0.00     0.012 A 
ENDROOT
BRANCH   1   7
ATOM      7  C   UNL     1     -12.659  44.508  32.296  1.00  0.00     0.003 C 
ATOM      8  C   UNL     1     -10.522  44.483  31.070  1.00  0.00     0.035 C 
ATOM      9  C   UNL     1     -12.015  44.541  31.123  1.00  0.00    -0.030 C 
ENDBRANCH   1   7
BRANCH   3  10
ATOM     10  O   UNL     1     -17.125  44.664  30.182  1.00  0.00    -0.493 OA
ATOM     11  C   UNL     1     -16.628  44.624  28.848  1.00  0.00     0.278 C 
ENDBRANCH   3  10
BRANCH   4  12
ATOM     12  O   UNL     1     -18.338  44.623  32.709  1.00  0.00    -0.504 OA
ATOM     13  H   UNL     1     -18.829  44.130  33.444  1.00  0.00     0.293 HD
ENDBRANCH   4  12
TORSDOF 3
ENDMDL
