MODEL 1
REMARK VINA RESULT:    -4.904      0.000      0.000
REMARK INTER + INTRA:          -5.952
REMARK INTER:                  -5.620
REMARK INTRA:                  -0.332
REMARK UNBOUND:                -0.332
REMARK SMILES COc1ccc(C(C)=O)c(O)c1
REMARK SMILES IDX 6 1 10 2 12 3 3 4 4 5 5 6 7 7 8 8 9 9 11 10 2 12 1 13
REMARK H PARENT 11 11
REMARK Flexibility Score: inf
ROOT
ATOM      1  C   UNL     1      -4.870  -2.137  -0.736  1.00  0.00     0.059 A 
ATOM      2  C   UNL     1      -4.481  -1.084  -1.598  1.00  0.00     0.130 A 
ATOM      3  C   UNL     1      -3.323  -1.206  -2.379  1.00  0.00     0.093 A 
ATOM      4  C   UNL     1      -2.533  -2.357  -2.319  1.00  0.00     0.122 A 
ATOM      5  C   UNL     1      -2.913  -3.402  -1.462  1.00  0.00     0.047 A 
ATOM      6  C   UNL     1      -4.066  -3.293  -0.682  1.00  0.00     0.019 A 
ENDROOT
BRANCH   1   7
ATOM      7  C   UNL     1      -6.102  -2.040   0.099  1.00  0.00     0.163 C 
ATOM      8  C   UNL     1      -7.067  -3.181   0.217  1.00  0.00     0.093 C 
ATOM      9  O   UNL     1      -6.371  -0.968   0.706  1.00  0.00    -0.294 OA
ENDBRANCH   1   7
BRANCH   2  10
ATOM     10  O   UNL     1      -5.235   0.087  -1.674  1.00  0.00    -0.507 OA
ATOM     11  H   UNL     1      -6.183   0.135  -1.321  1.00  0.00     0.293 HD
ENDBRANCH   2  10
BRANCH   4  12
ATOM     12  O   UNL     1      -1.385  -2.421  -3.123  1.00  0.00    -0.497 OA
ATOM     13  C   UNL     1      -1.004  -3.557  -3.892  1.00  0.00     0.278 C 
ENDBRANCH   4  12
TORSDOF 3
ENDMDL
MODEL 2
REMARK VINA RESULT:    -4.499      2.461      3.596
REMARK INTER + INTRA:          -5.489
REMARK INTER:                  -5.155
REMARK INTRA:                  -0.334
REMARK UNBOUND:                -0.332
REMARK SMILES COc1ccc(C(C)=O)c(O)c1
REMARK SMILES IDX 6 1 10 2 12 3 3 4 4 5 5 6 7 7 8 8 9 9 11 10 2 12 1 13
REMARK H PARENT 11 11
REMARK Flexibility Score: inf
ROOT
ATOM      1  C   UNL     1      -6.631  -3.064   2.259  1.00  0.00     0.059 A 
ATOM      2  C   UNL     1      -6.280  -2.064   1.323  1.00  0.00     0.130 A 
ATOM      3  C   UNL     1      -5.356  -2.345   0.306  1.00  0.00     0.093 A 
ATOM      4  C   UNL     1      -4.764  -3.606   0.203  1.00  0.00     0.122 A 
ATOM      5  C   UNL     1      -5.105  -4.600   1.133  1.00  0.00     0.047 A 
ATOM      6  C   UNL     1      -6.027  -4.332   2.148  1.00  0.00     0.019 A 
ENDROOT
BRANCH   1   7
ATOM      7  C   UNL     1      -7.618  -2.797   3.345  1.00  0.00     0.163 C 
ATOM      8  C   UNL     1      -8.681  -3.790   3.707  1.00  0.00     0.093 C 
ATOM      9  O   UNL     1      -7.594  -1.700   3.967  1.00  0.00    -0.294 OA
ENDBRANCH   1   7
BRANCH   2  10
ATOM     10  O   UNL     1      -6.839  -0.788   1.402  1.00  0.00    -0.507 OA
ATOM     11  H   UNL     1      -6.404   0.013   0.959  1.00  0.00     0.293 HD
ENDBRANCH   2  10
BRANCH   4  12
ATOM     12  O   UNL     1      -3.845  -3.828  -0.835  1.00  0.00    -0.497 OA
ATOM     13  C   UNL     1      -3.189  -2.795  -1.563  1.00  0.00     0.278 C 
ENDBRANCH   4  12
TORSDOF 3
ENDMDL
MODEL 3
REMARK VINA RESULT:    -4.458     11.018     11.671
REMARK INTER + INTRA:          -5.442
REMARK INTER:                  -5.110
REMARK INTRA:                  -0.332
REMARK UNBOUND:                -0.332
REMARK SMILES COc1ccc(C(C)=O)c(O)c1
REMARK SMILES IDX 6 1 10 2 12 3 3 4 4 5 5 6 7 7 8 8 9 9 11 10 2 12 1 13
REMARK H PARENT 11 11
REMARK Flexibility Score: inf
ROOT
ATOM      1  C   UNL     1       0.675  -0.470   8.340  1.00  0.00     0.059 A 
ATOM      2  C   UNL     1       1.392   0.578   7.717  1.00  0.00     0.130 A 
ATOM      3  C   UNL     1       0.861   1.877   7.694  1.00  0.00     0.093 A 
ATOM      4  C   UNL     1      -0.377   2.157   8.276  1.00  0.00     0.122 A 
ATOM      5  C   UNL     1      -1.093   1.119   8.893  1.00  0.00     0.047 A 
ATOM      6  C   UNL     1      -0.573  -0.177   8.923  1.00  0.00     0.019 A 
ENDROOT
BRANCH   1   7
ATOM      7  C   UNL     1       1.219  -1.858   8.388  1.00  0.00     0.163 C 
ATOM      8  C   UNL     1       1.190  -2.674   9.646  1.00  0.00     0.093 C 
ATOM      9  O   UNL     1       1.748  -2.367   7.362  1.00  0.00    -0.294 OA
ENDBRANCH   1   7
BRANCH   2  10
ATOM     10  O   UNL     1       2.625   0.335   7.110  1.00  0.00    -0.507 OA
ATOM     11  H   UNL     1       3.498   0.481   7.601  1.00  0.00     0.293 HD
ENDBRANCH   2  10
BRANCH   4  12
ATOM     12  O   UNL     1      -0.857   3.474   8.221  1.00  0.00    -0.497 OA
ATOM     13  C   UNL     1      -2.103   3.853   7.646  1.00  0.00     0.278 C 
ENDBRANCH   4  12
TORSDOF 3
ENDMDL
MODEL 4
REMARK VINA RESULT:    -4.435      3.382      5.174
REMARK INTER + INTRA:          -5.415
REMARK INTER:                  -5.073
REMARK INTRA:                  -0.342
REMARK UNBOUND:                -0.332
REMARK SMILES COc1ccc(C(C)=O)c(O)c1
REMARK SMILES IDX 6 1 10 2 12 3 3 4 4 5 5 6 7 7 8 8 9 9 11 10 2 12 1 13
REMARK H PARENT 11 11
REMARK Flexibility Score: inf
ROOT
ATOM      1  C   UNL     1      -2.796  -0.116  -2.977  1.00  0.00     0.059 A 
ATOM      2  C   UNL     1      -1.668   0.728  -2.854  1.00  0.00     0.130 A 
ATOM      3  C   UNL     1      -1.659   1.985  -3.476  1.00  0.00     0.093 A 
ATOM      4  C   UNL     1      -2.753   2.422  -4.228  1.00  0.00     0.122 A 
ATOM      5  C   UNL     1      -3.873   1.585  -4.356  1.00  0.00     0.047 A 
ATOM      6  C   UNL     1      -3.893   0.333  -3.738  1.00  0.00     0.019 A 
ENDROOT
BRANCH   1   7
ATOM      7  C   UNL     1      -2.837  -1.454  -2.318  1.00  0.00     0.163 C 
ATOM      8  C   UNL     1      -4.010  -1.891  -1.493  1.00  0.00     0.093 C 
ATOM      9  O   UNL     1      -1.857  -2.241  -2.421  1.00  0.00    -0.294 OA
ENDBRANCH   1   7
BRANCH   2  10
ATOM     10  O   UNL     1      -0.550   0.321  -2.125  1.00  0.00    -0.507 OA
ATOM     11  H   UNL     1      -0.428  -0.640  -1.829  1.00  0.00     0.293 HD
ENDBRANCH   2  10
BRANCH   4  12
ATOM     12  O   UNL     1      -2.686   3.688  -4.828  1.00  0.00    -0.497 OA
ATOM     13  C   UNL     1      -3.693   4.230  -5.678  1.00  0.00     0.278 C 
ENDBRANCH   4  12
TORSDOF 3
ENDMDL
MODEL 5
REMARK VINA RESULT:    -4.415     11.217     11.791
REMARK INTER + INTRA:          -5.392
REMARK INTER:                  -5.071
REMARK INTRA:                  -0.321
REMARK UNBOUND:                -0.332
REMARK SMILES COc1ccc(C(C)=O)c(O)c1
REMARK SMILES IDX 6 1 10 2 12 3 3 4 4 5 5 6 7 7 8 8 9 9 11 10 2 12 1 13
REMARK H PARENT 11 11
REMARK Flexibility Score: inf
ROOT
ATOM      1  C   UNL     1      -1.409   4.683   7.474  1.00  0.00     0.059 A 
ATOM      2  C   UNL     1      -0.119   5.081   7.893  1.00  0.00     0.130 A 
ATOM      3  C   UNL     1       0.856   4.116   8.185  1.00  0.00     0.093 A 
ATOM      4  C   UNL     1       0.572   2.753   8.073  1.00  0.00     0.122 A 
ATOM      5  C   UNL     1      -0.709   2.352   7.662  1.00  0.00     0.047 A 
ATOM      6  C   UNL     1      -1.686   3.306   7.367  1.00  0.00     0.019 A 
ENDROOT
BRANCH   1   7
ATOM      7  C   UNL     1      -2.462   5.687   7.148  1.00  0.00     0.163 C 
ATOM      8  C   UNL     1      -3.913   5.430   7.429  1.00  0.00     0.093 C 
ATOM      9  O   UNL     1      -2.149   6.777   6.596  1.00  0.00    -0.294 OA
ENDBRANCH   1   7
BRANCH   2  10
ATOM     10  O   UNL     1       0.199   6.433   8.032  1.00  0.00    -0.507 OA
ATOM     11  H   UNL     1      -0.387   7.067   8.562  1.00  0.00     0.293 HD
ENDBRANCH   2  10
BRANCH   4  12
ATOM     12  O   UNL     1       1.587   1.833   8.379  1.00  0.00    -0.497 OA
ATOM     13  C   UNL     1       1.564   0.458   8.012  1.00  0.00     0.278 C 
ENDBRANCH   4  12
TORSDOF 3
ENDMDL
MODEL 6
REMARK VINA RESULT:    -4.405      6.892      8.826
REMARK INTER + INTRA:          -5.380
REMARK INTER:                  -5.054
REMARK INTRA:                  -0.326
REMARK UNBOUND:                -0.332
REMARK SMILES COc1ccc(C(C)=O)c(O)c1
REMARK SMILES IDX 6 1 10 2 12 3 3 4 4 5 5 6 7 7 8 8 9 9 11 10 2 12 1 13
REMARK H PARENT 11 11
REMARK Flexibility Score: inf
ROOT
ATOM      1  C   UNL     1       0.571   4.861  -2.760  1.00  0.00     0.059 A 
ATOM      2  C   UNL     1       0.202   3.585  -2.273  1.00  0.00     0.130 A 
ATOM      3  C   UNL     1      -0.917   2.926  -2.804  1.00  0.00     0.093 A 
ATOM      4  C   UNL     1      -1.685   3.513  -3.812  1.00  0.00     0.122 A 
ATOM      5  C   UNL     1      -1.324   4.781  -4.295  1.00  0.00     0.047 A 
ATOM      6  C   UNL     1      -0.211   5.445  -3.775  1.00  0.00     0.019 A 
ENDROOT
BRANCH   1   7
ATOM      7  C   UNL     1       1.761   5.581  -2.220  1.00  0.00     0.163 C 
ATOM      8  C   UNL     1       2.967   5.856  -3.067  1.00  0.00     0.093 C 
ATOM      9  O   UNL     1       1.784   5.951  -1.015  1.00  0.00    -0.294 OA
ENDBRANCH   1   7
BRANCH   2  10
ATOM     10  O   UNL     1       0.935   2.972  -1.256  1.00  0.00    -0.507 OA
ATOM     11  H   UNL     1       0.511   2.719  -0.371  1.00  0.00     0.293 HD
ENDBRANCH   2  10
BRANCH   4  12
ATOM     12  O   UNL     1      -2.793   2.806  -4.303  1.00  0.00    -0.497 OA
ATOM     13  C   UNL     1      -3.679   3.295  -5.305  1.00  0.00     0.278 C 
ENDBRANCH   4  12
TORSDOF 3
ENDMDL
MODEL 7
REMARK VINA RESULT:    -4.341      6.203      8.039
REMARK INTER + INTRA:          -5.307
REMARK INTER:                  -5.014
REMARK INTRA:                  -0.293
REMARK UNBOUND:                -0.332
REMARK SMILES COc1ccc(C(C)=O)c(O)c1
REMARK SMILES IDX 6 1 10 2 12 3 3 4 4 5 5 6 7 7 8 8 9 9 11 10 2 12 1 13
REMARK H PARENT 11 11
REMARK Flexibility Score: inf
ROOT
ATOM      1  C   UNL     1      -0.095   2.324  -3.378  1.00  0.00     0.059 A 
ATOM      2  C   UNL     1       0.322   3.287  -2.430  1.00  0.00     0.130 A 
ATOM      3  C   UNL     1       0.163   4.654  -2.699  1.00  0.00     0.093 A 
ATOM      4  C   UNL     1      -0.401   5.089  -3.901  1.00  0.00     0.122 A 
ATOM      5  C   UNL     1      -0.812   4.136  -4.847  1.00  0.00     0.047 A 
ATOM      6  C   UNL     1      -0.661   2.772  -4.588  1.00  0.00     0.019 A 
ENDROOT
BRANCH   1   7
ATOM      7  C   UNL     1       0.053   0.863  -3.114  1.00  0.00     0.163 C 
ATOM      8  C   UNL     1       1.006   0.012  -3.899  1.00  0.00     0.093 C 
ATOM      9  O   UNL     1      -0.653   0.304  -2.232  1.00  0.00    -0.294 OA
ENDBRANCH   1   7
BRANCH   2  10
ATOM     10  O   UNL     1       0.904   2.893  -1.224  1.00  0.00    -0.507 OA
ATOM     11  H   UNL     1       0.368   2.430  -0.500  1.00  0.00     0.293 HD
ENDBRANCH   2  10
BRANCH   4  12
ATOM     12  O   UNL     1      -0.533   6.469  -4.115  1.00  0.00    -0.497 OA
ATOM     13  C   UNL     1       0.272   7.225  -5.014  1.00  0.00     0.278 C 
ENDBRANCH   4  12
TORSDOF 3
ENDMDL
MODEL 8
REMARK VINA RESULT:    -4.310      1.671      2.297
REMARK INTER + INTRA:          -5.272
REMARK INTER:                  -4.948
REMARK INTRA:                  -0.324
REMARK UNBOUND:                -0.332
REMARK SMILES COc1ccc(C(C)=O)c(O)c1
REMARK SMILES IDX 6 1 10 2 12 3 3 4 4 5 5 6 7 7 8 8 9 9 11 10 2 12 1 13
REMARK H PARENT 11 11
REMARK Flexibility Score: inf
ROOT
ATOM      1  C   UNL     1      -3.248  -2.018  -1.977  1.00  0.00     0.059 A 
ATOM      2  C   UNL     1      -2.571  -0.804  -2.240  1.00  0.00     0.130 A 
ATOM      3  C   UNL     1      -1.532  -0.767  -3.181  1.00  0.00     0.093 A 
ATOM      4  C   UNL     1      -1.145  -1.919  -3.869  1.00  0.00     0.122 A 
ATOM      5  C   UNL     1      -1.811  -3.127  -3.608  1.00  0.00     0.047 A 
ATOM      6  C   UNL     1      -2.849  -3.175  -2.675  1.00  0.00     0.019 A 
ENDROOT
BRANCH   1   7
ATOM      7  C   UNL     1      -4.363  -2.084  -0.989  1.00  0.00     0.163 C 
ATOM      8  C   UNL     1      -4.556  -3.274  -0.097  1.00  0.00     0.093 C 
ATOM      9  O   UNL     1      -5.193  -1.139  -0.905  1.00  0.00    -0.294 OA
ENDBRANCH   1   7
BRANCH   2  10
ATOM     10  O   UNL     1      -2.919   0.366  -1.562  1.00  0.00    -0.507 OA
ATOM     11  H   UNL     1      -3.783   0.857  -1.756  1.00  0.00     0.293 HD
ENDBRANCH   2  10
BRANCH   4  12
ATOM     12  O   UNL     1      -0.098  -1.821  -4.798  1.00  0.00    -0.497 OA
ATOM     13  C   UNL     1       1.205  -1.336  -4.493  1.00  0.00     0.278 C 
ENDBRANCH   4  12
TORSDOF 3
ENDMDL
MODEL 9
REMARK VINA RESULT:    -4.286      5.999      7.530
REMARK INTER + INTRA:          -5.244
REMARK INTER:                  -4.908
REMARK INTRA:                  -0.336
REMARK UNBOUND:                -0.332
REMARK SMILES COc1ccc(C(C)=O)c(O)c1
REMARK SMILES IDX 6 1 10 2 12 3 3 4 4 5 5 6 7 7 8 8 9 9 11 10 2 12 1 13
REMARK H PARENT 11 11
REMARK Flexibility Score: inf
ROOT
ATOM      1  C   UNL     1       1.054  -1.158  -4.517  1.00  0.00     0.059 A 
ATOM      2  C   UNL     1       2.374  -0.721  -4.261  1.00  0.00     0.130 A 
ATOM      3  C   UNL     1       2.600   0.542  -3.693  1.00  0.00     0.093 A 
ATOM      4  C   UNL     1       1.534   1.387  -3.376  1.00  0.00     0.122 A 
ATOM      5  C   UNL     1       0.222   0.959  -3.633  1.00  0.00     0.047 A 
ATOM      6  C   UNL     1      -0.014  -0.297  -4.196  1.00  0.00     0.019 A 
ENDROOT
BRANCH   1   7
ATOM      7  C   UNL     1       0.784  -2.499  -5.111  1.00  0.00     0.163 C 
ATOM      8  C   UNL     1      -0.270  -3.410  -4.557  1.00  0.00     0.093 C 
ATOM      9  O   UNL     1       1.468  -2.908  -6.088  1.00  0.00    -0.294 OA
ENDBRANCH   1   7
BRANCH   2  10
ATOM     10  O   UNL     1       3.466  -1.530  -4.577  1.00  0.00    -0.507 OA
ATOM     11  H   UNL     1       3.489  -2.087  -5.423  1.00  0.00     0.293 HD
ENDBRANCH   2  10
BRANCH   4  12
ATOM     12  O   UNL     1       1.821   2.639  -2.811  1.00  0.00    -0.497 OA
ATOM     13  C   UNL     1       0.986   3.307  -1.870  1.00  0.00     0.278 C 
ENDBRANCH   4  12
TORSDOF 3
ENDMDL
