MODEL 1
REMARK VINA RESULT:    -5.316      0.000      0.000
REMARK INTER + INTRA:         -12.262
REMARK INTER:                  -9.667
REMARK INTRA:                  -2.595
REMARK UNBOUND:                -2.595
REMARK SMILES CCCCCCCCCCCCCC[C@H](C)C(=O)[O-]
REMARK SMILES IDX 9 1 10 2 11 3 12 4 13 5 14 6 15 7 16 8 17 9 18 10 19 11 8 12
REMARK SMILES IDX 7 13 6 14 5 15 4 16 3 17 2 18 1 19
REMARK H PARENT
REMARK Flexibility Score: inf
ROOT
ATOM      1  C   UNL     1      45.253   9.961  -9.993  1.00  0.00     0.000 C 
ENDROOT
BRANCH   1   2
ATOM      2  C   UNL     1      46.403  10.938 -10.298  1.00  0.00     0.000 C 
BRANCH   2   3
ATOM      3  C   UNL     1      46.305  12.234  -9.478  1.00  0.00     0.000 C 
BRANCH   3   4
ATOM      4  C   UNL     1      45.099  12.242  -8.526  1.00  0.00     0.000 C 
BRANCH   4   5
ATOM      5  C   UNL     1      45.495  12.780  -7.147  1.00  0.00     0.001 C 
BRANCH   5   6
ATOM      6  C   UNL     1      46.864  12.223  -6.713  1.00  0.00     0.009 C 
BRANCH   6   7
ATOM      7  C   UNL     1      46.989  11.953  -5.197  1.00  0.00     0.032 C 
ATOM      8  C   UNL     1      48.373  12.323  -4.640  1.00  0.00     0.014 C 
BRANCH   7   9
ATOM      9  C   UNL     1      46.602  10.540  -4.845  1.00  0.00     0.044 C 
ATOM     10  O   UNL     1      45.401  10.236  -4.610  1.00  0.00    -0.550 OA
ATOM     11  O   UNL     1      47.586   9.567  -4.727  1.00  0.00    -0.550 OA
ENDBRANCH   7   9
ENDBRANCH   6   7
ENDBRANCH   5   6
ENDBRANCH   4   5
ENDBRANCH   3   4
ENDBRANCH   2   3
ENDBRANCH   1   2
BRANCH   1  12
ATOM     12  C   UNL     1      45.743   8.628  -9.403  1.00  0.00     0.000 C 
BRANCH  12  13
ATOM     13  C   UNL     1      46.486   8.742  -8.057  1.00  0.00    -0.000 C 
BRANCH  13  14
ATOM     14  C   UNL     1      47.587   7.679  -7.860  1.00  0.00    -0.000 C 
BRANCH  14  15
ATOM     15  C   UNL     1      48.994   8.303  -7.816  1.00  0.00    -0.000 C 
BRANCH  15  16
ATOM     16  C   UNL     1      48.976   9.821  -8.048  1.00  0.00    -0.000 C 
BRANCH  16  17
ATOM     17  C   UNL     1      50.215  10.518  -7.456  1.00  0.00    -0.000 C 
BRANCH  17  18
ATOM     18  C   UNL     1      50.259  12.017  -7.791  1.00  0.00    -0.003 C 
ATOM     19  C   UNL     1      50.016  12.301  -9.274  1.00  0.00     0.004 C 
ENDBRANCH  17  18
ENDBRANCH  16  17
ENDBRANCH  15  16
ENDBRANCH  14  15
ENDBRANCH  13  14
ENDBRANCH  12  13
ENDBRANCH   1  12
TORSDOF 14
ENDMDL
MODEL 2
REMARK VINA RESULT:    -5.297     17.887     20.264
REMARK INTER + INTRA:         -12.227
REMARK INTER:                  -9.550
REMARK INTRA:                  -2.677
REMARK UNBOUND:                -2.595
REMARK SMILES CCCCCCCCCCCCCC[C@H](C)C(=O)[O-]
REMARK SMILES IDX 9 1 10 2 11 3 12 4 13 5 14 6 15 7 16 8 17 9 18 10 19 11 8 12
REMARK SMILES IDX 7 13 6 14 5 15 4 16 3 17 2 18 1 19
REMARK H PARENT
REMARK Flexibility Score: inf
ROOT
ATOM      1  C   UNL     1      35.581   4.556   8.245  1.00  0.00     0.000 C 
ENDROOT
BRANCH   1   2
ATOM      2  C   UNL     1      34.463   5.021   7.295  1.00  0.00     0.000 C 
BRANCH   2   3
ATOM      3  C   UNL     1      33.580   3.858   6.816  1.00  0.00     0.000 C 
BRANCH   3   4
ATOM      4  C   UNL     1      33.300   3.909   5.307  1.00  0.00     0.000 C 
BRANCH   4   5
ATOM      5  C   UNL     1      33.708   2.596   4.630  1.00  0.00     0.001 C 
BRANCH   5   6
ATOM      6  C   UNL     1      34.883   2.820   3.660  1.00  0.00     0.009 C 
BRANCH   6   7
ATOM      7  C   UNL     1      35.341   1.550   2.910  1.00  0.00     0.032 C 
ATOM      8  C   UNL     1      34.396   0.358   3.128  1.00  0.00     0.014 C 
BRANCH   7   9
ATOM      9  C   UNL     1      36.771   1.198   3.225  1.00  0.00     0.044 C 
ATOM     10  O   UNL     1      37.085   0.041   3.614  1.00  0.00    -0.550 OA
ATOM     11  O   UNL     1      37.755   2.175   3.138  1.00  0.00    -0.550 OA
ENDBRANCH   7   9
ENDBRANCH   6   7
ENDBRANCH   5   6
ENDBRANCH   4   5
ENDBRANCH   3   4
ENDBRANCH   2   3
ENDBRANCH   1   2
BRANCH   1  12
ATOM     12  C   UNL     1      36.945   4.427   7.544  1.00  0.00     0.000 C 
BRANCH  12  13
ATOM     13  C   UNL     1      37.012   3.355   6.438  1.00  0.00    -0.000 C 
BRANCH  13  14
ATOM     14  C   UNL     1      38.083   2.271   6.684  1.00  0.00    -0.000 C 
BRANCH  14  15
ATOM     15  C   UNL     1      37.460   0.914   7.056  1.00  0.00    -0.000 C 
BRANCH  15  16
ATOM     16  C   UNL     1      35.930   0.977   7.175  1.00  0.00    -0.000 C 
BRANCH  16  17
ATOM     17  C   UNL     1      35.243  -0.253   6.554  1.00  0.00    -0.000 C 
BRANCH  17  18
ATOM     18  C   UNL     1      33.764  -0.363   6.954  1.00  0.00    -0.003 C 
ATOM     19  C   UNL     1      33.412   0.501   8.166  1.00  0.00     0.004 C 
ENDBRANCH  17  18
ENDBRANCH  16  17
ENDBRANCH  15  16
ENDBRANCH  14  15
ENDBRANCH  13  14
ENDBRANCH  12  13
ENDBRANCH   1  12
TORSDOF 14
ENDMDL
MODEL 3
REMARK VINA RESULT:    -5.209      2.054      4.820
REMARK INTER + INTRA:         -12.068
REMARK INTER:                  -9.539
REMARK INTRA:                  -2.529
REMARK UNBOUND:                -2.595
REMARK SMILES CCCCCCCCCCCCCC[C@H](C)C(=O)[O-]
REMARK SMILES IDX 9 1 10 2 11 3 12 4 13 5 14 6 15 7 16 8 17 9 18 10 19 11 8 12
REMARK SMILES IDX 7 13 6 14 5 15 4 16 3 17 2 18 1 19
REMARK H PARENT
REMARK Flexibility Score: inf
ROOT
ATOM      1  C   UNL     1      50.364   9.733  -5.912  1.00  0.00     0.000 C 
ENDROOT
BRANCH   1   2
ATOM      2  C   UNL     1      49.954   9.891  -7.388  1.00  0.00     0.000 C 
BRANCH   2   3
ATOM      3  C   UNL     1      49.076   8.729  -7.879  1.00  0.00     0.000 C 
BRANCH   3   4
ATOM      4  C   UNL     1      47.809   9.210  -8.602  1.00  0.00     0.000 C 
BRANCH   4   5
ATOM      5  C   UNL     1      46.558   8.556  -8.005  1.00  0.00     0.001 C 
BRANCH   5   6
ATOM      6  C   UNL     1      46.936   7.562  -6.892  1.00  0.00     0.009 C 
BRANCH   6   7
ATOM      7  C   UNL     1      46.197   7.791  -5.555  1.00  0.00     0.032 C 
ATOM      8  C   UNL     1      47.141   8.220  -4.421  1.00  0.00     0.014 C 
BRANCH   7   9
ATOM      9  C   UNL     1      45.358   6.601  -5.168  1.00  0.00     0.044 C 
ATOM     10  O   UNL     1      44.252   6.749  -4.582  1.00  0.00    -0.550 OA
ATOM     11  O   UNL     1      45.832   5.318  -5.412  1.00  0.00    -0.550 OA
ENDBRANCH   7   9
ENDBRANCH   6   7
ENDBRANCH   5   6
ENDBRANCH   4   5
ENDBRANCH   3   4
ENDBRANCH   2   3
ENDBRANCH   1   2
BRANCH   1  12
ATOM     12  C   UNL     1      50.063  10.987  -5.073  1.00  0.00     0.000 C 
BRANCH  12  13
ATOM     13  C   UNL     1      49.002  11.933  -5.670  1.00  0.00    -0.000 C 
BRANCH  13  14
ATOM     14  C   UNL     1      47.669  11.946  -4.890  1.00  0.00    -0.000 C 
BRANCH  14  15
ATOM     15  C   UNL     1      46.465  11.629  -5.795  1.00  0.00    -0.000 C 
BRANCH  15  16
ATOM     16  C   UNL     1      45.577  12.854  -6.052  1.00  0.00    -0.000 C 
BRANCH  16  17
ATOM     17  C   UNL     1      45.836  13.486  -7.432  1.00  0.00    -0.000 C 
BRANCH  17  18
ATOM     18  C   UNL     1      46.279  12.451  -8.477  1.00  0.00    -0.003 C 
ATOM     19  C   UNL     1      45.121  11.944  -9.337  1.00  0.00     0.004 C 
ENDBRANCH  17  18
ENDBRANCH  16  17
ENDBRANCH  15  16
ENDBRANCH  14  15
ENDBRANCH  13  14
ENDBRANCH  12  13
ENDBRANCH   1  12
TORSDOF 14
ENDMDL
MODEL 4
REMARK VINA RESULT:    -5.199     16.620     19.220
REMARK INTER + INTRA:         -12.049
REMARK INTER:                  -9.611
REMARK INTRA:                  -2.438
REMARK UNBOUND:                -2.595
REMARK SMILES CCCCCCCCCCCCCC[C@H](C)C(=O)[O-]
REMARK SMILES IDX 9 1 10 2 11 3 12 4 13 5 14 6 15 7 16 8 17 9 18 10 19 11 8 12
REMARK SMILES IDX 7 13 6 14 5 15 4 16 3 17 2 18 1 19
REMARK H PARENT
REMARK Flexibility Score: inf
ROOT
ATOM      1  C   UNL     1      34.648   4.986   7.217  1.00  0.00     0.000 C 
ENDROOT
BRANCH   1   2
ATOM      2  C   UNL     1      33.487   4.035   6.877  1.00  0.00     0.000 C 
BRANCH   2   3
ATOM      3  C   UNL     1      33.395   3.738   5.372  1.00  0.00     0.000 C 
BRANCH   3   4
ATOM      4  C   UNL     1      33.715   2.273   5.038  1.00  0.00     0.000 C 
BRANCH   4   5
ATOM      5  C   UNL     1      34.637   2.180   3.817  1.00  0.00     0.001 C 
BRANCH   5   6
ATOM      6  C   UNL     1      34.806   3.558   3.151  1.00  0.00     0.009 C 
BRANCH   6   7
ATOM      7  C   UNL     1      36.269   4.045   3.056  1.00  0.00     0.032 C 
ATOM      8  C   UNL     1      36.603   5.127   4.094  1.00  0.00     0.014 C 
BRANCH   7   9
ATOM      9  C   UNL     1      36.625   4.478   1.658  1.00  0.00     0.044 C 
ATOM     10  O   UNL     1      37.730   4.159   1.140  1.00  0.00    -0.550 OA
ATOM     11  O   UNL     1      35.749   5.287   0.944  1.00  0.00    -0.550 OA
ENDBRANCH   7   9
ENDBRANCH   6   7
ENDBRANCH   5   6
ENDBRANCH   4   5
ENDBRANCH   3   4
ENDBRANCH   2   3
ENDBRANCH   1   2
BRANCH   1  12
ATOM     12  C   UNL     1      35.613   4.398   8.262  1.00  0.00     0.000 C 
BRANCH  12  13
ATOM     13  C   UNL     1      37.107   4.488   7.895  1.00  0.00    -0.000 C 
BRANCH  13  14
ATOM     14  C   UNL     1      37.626   3.276   7.091  1.00  0.00    -0.000 C 
BRANCH  14  15
ATOM     15  C   UNL     1      36.690   2.060   7.208  1.00  0.00    -0.000 C 
BRANCH  15  16
ATOM     16  C   UNL     1      37.219   0.830   6.457  1.00  0.00    -0.000 C 
BRANCH  16  17
ATOM     17  C   UNL     1      36.178  -0.301   6.379  1.00  0.00    -0.000 C 
BRANCH  17  18
ATOM     18  C   UNL     1      36.335  -1.156   5.112  1.00  0.00    -0.003 C 
ATOM     19  C   UNL     1      37.281  -0.528   4.087  1.00  0.00     0.004 C 
ENDBRANCH  17  18
ENDBRANCH  16  17
ENDBRANCH  15  16
ENDBRANCH  14  15
ENDBRANCH  13  14
ENDBRANCH  12  13
ENDBRANCH   1  12
TORSDOF 14
ENDMDL
MODEL 5
REMARK VINA RESULT:    -5.190      1.672      4.158
REMARK INTER + INTRA:         -12.033
REMARK INTER:                  -9.205
REMARK INTRA:                  -2.828
REMARK UNBOUND:                -2.595
REMARK SMILES CCCCCCCCCCCCCC[C@H](C)C(=O)[O-]
REMARK SMILES IDX 9 1 10 2 11 3 12 4 13 5 14 6 15 7 16 8 17 9 18 10 19 11 8 12
REMARK SMILES IDX 7 13 6 14 5 15 4 16 3 17 2 18 1 19
REMARK H PARENT
REMARK Flexibility Score: inf
ROOT
ATOM      1  C   UNL     1      45.594  12.345  -8.597  1.00  0.00     0.000 C 
ENDROOT
BRANCH   1   2
ATOM      2  C   UNL     1      46.569  12.441  -9.785  1.00  0.00     0.000 C 
BRANCH   2   3
ATOM      3  C   UNL     1      47.764  11.486  -9.641  1.00  0.00     0.000 C 
BRANCH   3   4
ATOM      4  C   UNL     1      49.115  12.200  -9.800  1.00  0.00     0.000 C 
BRANCH   4   5
ATOM      5  C   UNL     1      49.910  12.164  -8.491  1.00  0.00     0.001 C 
BRANCH   5   6
ATOM      6  C   UNL     1      49.190  11.304  -7.435  1.00  0.00     0.009 C 
BRANCH   6   7
ATOM      7  C   UNL     1      50.025  10.118  -6.903  1.00  0.00     0.032 C 
ATOM      8  C   UNL     1      49.597   8.772  -7.507  1.00  0.00     0.014 C 
BRANCH   7   9
ATOM      9  C   UNL     1      50.042  10.077  -5.397  1.00  0.00     0.044 C 
ATOM     10  O   UNL     1      49.995  11.139  -4.718  1.00  0.00    -0.550 OA
ATOM     11  O   UNL     1      50.166   8.858  -4.744  1.00  0.00    -0.550 OA
ENDBRANCH   7   9
ENDBRANCH   6   7
ENDBRANCH   5   6
ENDBRANCH   4   5
ENDBRANCH   3   4
ENDBRANCH   2   3
ENDBRANCH   1   2
BRANCH   1  12
ATOM     12  C   UNL     1      45.875  13.395  -7.510  1.00  0.00     0.000 C 
BRANCH  12  13
ATOM     13  C   UNL     1      46.156  12.824  -6.105  1.00  0.00    -0.000 C 
BRANCH  13  14
ATOM     14  C   UNL     1      45.427  11.494  -5.817  1.00  0.00    -0.000 C 
BRANCH  14  15
ATOM     15  C   UNL     1      46.352  10.459  -5.151  1.00  0.00    -0.000 C 
BRANCH  15  16
ATOM     16  C   UNL     1      46.288   9.083  -5.829  1.00  0.00    -0.000 C 
BRANCH  16  17
ATOM     17  C   UNL     1      45.430   9.101  -7.108  1.00  0.00    -0.000 C 
BRANCH  17  18
ATOM     18  C   UNL     1      46.192   8.569  -8.332  1.00  0.00    -0.003 C 
ATOM     19  C   UNL     1      45.390   8.691  -9.628  1.00  0.00     0.004 C 
ENDBRANCH  17  18
ENDBRANCH  16  17
ENDBRANCH  15  16
ENDBRANCH  14  15
ENDBRANCH  13  14
ENDBRANCH  12  13
ENDBRANCH   1  12
TORSDOF 14
ENDMDL
MODEL 6
REMARK VINA RESULT:    -5.150     16.660     19.244
REMARK INTER + INTRA:         -11.960
REMARK INTER:                  -9.333
REMARK INTRA:                  -2.627
REMARK UNBOUND:                -2.595
REMARK SMILES CCCCCCCCCCCCCC[C@H](C)C(=O)[O-]
REMARK SMILES IDX 9 1 10 2 11 3 12 4 13 5 14 6 15 7 16 8 17 9 18 10 19 11 8 12
REMARK SMILES IDX 7 13 6 14 5 15 4 16 3 17 2 18 1 19
REMARK H PARENT
REMARK Flexibility Score: inf
ROOT
ATOM      1  C   UNL     1      33.833   4.007   6.401  1.00  0.00     0.000 C 
ENDROOT
BRANCH   1   2
ATOM      2  C   UNL     1      34.554   3.204   7.500  1.00  0.00     0.000 C 
BRANCH   2   3
ATOM      3  C   UNL     1      35.938   3.782   7.836  1.00  0.00     0.000 C 
BRANCH   3   4
ATOM      4  C   UNL     1      37.087   2.905   7.317  1.00  0.00     0.000 C 
BRANCH   4   5
ATOM      5  C   UNL     1      37.576   3.396   5.950  1.00  0.00     0.001 C 
BRANCH   5   6
ATOM      6  C   UNL     1      38.783   2.570   5.470  1.00  0.00     0.009 C 
BRANCH   6   7
ATOM      7  C   UNL     1      39.107   2.729   3.968  1.00  0.00     0.032 C 
ATOM      8  C   UNL     1      38.560   1.573   3.116  1.00  0.00     0.014 C 
BRANCH   7   9
ATOM      9  C   UNL     1      40.579   2.952   3.733  1.00  0.00     0.044 C 
ATOM     10  O   UNL     1      41.408   2.862   4.679  1.00  0.00    -0.550 OA
ATOM     11  O   UNL     1      41.026   3.315   2.469  1.00  0.00    -0.550 OA
ENDBRANCH   7   9
ENDBRANCH   6   7
ENDBRANCH   5   6
ENDBRANCH   4   5
ENDBRANCH   3   4
ENDBRANCH   2   3
ENDBRANCH   1   2
BRANCH   1  12
ATOM     12  C   UNL     1      33.372   3.127   5.227  1.00  0.00     0.000 C 
BRANCH  12  13
ATOM     13  C   UNL     1      34.141   3.342   3.908  1.00  0.00    -0.000 C 
BRANCH  13  14
ATOM     14  C   UNL     1      35.114   2.196   3.559  1.00  0.00    -0.000 C 
BRANCH  14  15
ATOM     15  C   UNL     1      34.373   0.919   3.125  1.00  0.00    -0.000 C 
BRANCH  15  16
ATOM     16  C   UNL     1      34.692  -0.285   4.023  1.00  0.00    -0.000 C 
BRANCH  16  17
ATOM     17  C   UNL     1      35.736   0.051   5.103  1.00  0.00    -0.000 C 
BRANCH  17  18
ATOM     18  C   UNL     1      35.214  -0.207   6.525  1.00  0.00    -0.003 C 
ATOM     19  C   UNL     1      33.693  -0.361   6.578  1.00  0.00     0.004 C 
ENDBRANCH  17  18
ENDBRANCH  16  17
ENDBRANCH  15  16
ENDBRANCH  14  15
ENDBRANCH  13  14
ENDBRANCH  12  13
ENDBRANCH   1  12
TORSDOF 14
ENDMDL
MODEL 7
REMARK VINA RESULT:    -5.136     17.189     19.356
REMARK INTER + INTRA:         -11.934
REMARK INTER:                  -9.358
REMARK INTRA:                  -2.577
REMARK UNBOUND:                -2.595
REMARK SMILES CCCCCCCCCCCCCC[C@H](C)C(=O)[O-]
REMARK SMILES IDX 9 1 10 2 11 3 12 4 13 5 14 6 15 7 16 8 17 9 18 10 19 11 8 12
REMARK SMILES IDX 7 13 6 14 5 15 4 16 3 17 2 18 1 19
REMARK H PARENT
REMARK Flexibility Score: inf
ROOT
ATOM      1  C   UNL     1      35.262  -0.942   3.580  1.00  0.00     0.000 C 
ENDROOT
BRANCH   1   2
ATOM      2  C   UNL     1      34.630   0.320   2.966  1.00  0.00     0.000 C 
BRANCH   2   3
ATOM      3  C   UNL     1      35.480   1.578   3.207  1.00  0.00     0.000 C 
BRANCH   3   4
ATOM      4  C   UNL     1      34.670   2.732   3.816  1.00  0.00     0.000 C 
BRANCH   4   5
ATOM      5  C   UNL     1      33.895   2.263   5.052  1.00  0.00     0.001 C 
BRANCH   5   6
ATOM      6  C   UNL     1      33.667   3.430   6.032  1.00  0.00     0.009 C 
BRANCH   6   7
ATOM      7  C   UNL     1      34.669   3.480   7.206  1.00  0.00     0.032 C 
ATOM      8  C   UNL     1      34.249   2.587   8.384  1.00  0.00     0.014 C 
BRANCH   7   9
ATOM      9  C   UNL     1      34.948   4.894   7.644  1.00  0.00     0.044 C 
ATOM     10  O   UNL     1      35.481   5.135   8.761  1.00  0.00    -0.550 OA
ATOM     11  O   UNL     1      34.565   5.953   6.831  1.00  0.00    -0.550 OA
ENDBRANCH   7   9
ENDBRANCH   6   7
ENDBRANCH   5   6
ENDBRANCH   4   5
ENDBRANCH   3   4
ENDBRANCH   2   3
ENDBRANCH   1   2
BRANCH   1  12
ATOM     12  C   UNL     1      36.411  -0.621   4.551  1.00  0.00     0.000 C 
BRANCH  12  13
ATOM     13  C   UNL     1      36.018  -0.590   6.042  1.00  0.00    -0.000 C 
BRANCH  13  14
ATOM     14  C   UNL     1      36.842   0.407   6.884  1.00  0.00    -0.000 C 
BRANCH  14  15
ATOM     15  C   UNL     1      37.907   1.134   6.043  1.00  0.00    -0.000 C 
BRANCH  15  16
ATOM     16  C   UNL     1      37.934   2.647   6.299  1.00  0.00    -0.000 C 
BRANCH  16  17
ATOM     17  C   UNL     1      38.176   3.455   5.011  1.00  0.00    -0.000 C 
BRANCH  17  18
ATOM     18  C   UNL     1      39.140   2.746   4.047  1.00  0.00    -0.003 C 
ATOM     19  C   UNL     1      40.607   3.080   4.324  1.00  0.00     0.004 C 
ENDBRANCH  17  18
ENDBRANCH  16  17
ENDBRANCH  15  16
ENDBRANCH  14  15
ENDBRANCH  13  14
ENDBRANCH  12  13
ENDBRANCH   1  12
TORSDOF 14
ENDMDL
MODEL 8
REMARK VINA RESULT:    -5.132     17.208     19.811
REMARK INTER + INTRA:         -11.928
REMARK INTER:                  -8.912
REMARK INTRA:                  -3.016
REMARK UNBOUND:                -2.595
REMARK SMILES CCCCCCCCCCCCCC[C@H](C)C(=O)[O-]
REMARK SMILES IDX 9 1 10 2 11 3 12 4 13 5 14 6 15 7 16 8 17 9 18 10 19 11 8 12
REMARK SMILES IDX 7 13 6 14 5 15 4 16 3 17 2 18 1 19
REMARK H PARENT
REMARK Flexibility Score: inf
ROOT
ATOM      1  C   UNL     1      35.001  -0.351   3.589  1.00  0.00     0.000 C 
ENDROOT
BRANCH   1   2
ATOM      2  C   UNL     1      35.040  -0.680   5.092  1.00  0.00     0.000 C 
BRANCH   2   3
ATOM      3  C   UNL     1      36.474  -0.729   5.644  1.00  0.00     0.000 C 
BRANCH   3   4
ATOM      4  C   UNL     1      36.753   0.385   6.665  1.00  0.00     0.000 C 
BRANCH   4   5
ATOM      5  C   UNL     1      37.947   1.240   6.228  1.00  0.00     0.001 C 
BRANCH   5   6
ATOM      6  C   UNL     1      37.482   2.629   5.752  1.00  0.00     0.009 C 
BRANCH   6   7
ATOM      7  C   UNL     1      37.570   2.841   4.224  1.00  0.00     0.032 C 
ATOM      8  C   UNL     1      38.577   1.896   3.550  1.00  0.00     0.014 C 
BRANCH   7   9
ATOM      9  C   UNL     1      37.831   4.283   3.874  1.00  0.00     0.044 C 
ATOM     10  O   UNL     1      37.451   5.215   4.633  1.00  0.00    -0.550 OA
ATOM     11  O   UNL     1      38.452   4.597   2.672  1.00  0.00    -0.550 OA
ENDBRANCH   7   9
ENDBRANCH   6   7
ENDBRANCH   5   6
ENDBRANCH   4   5
ENDBRANCH   3   4
ENDBRANCH   2   3
ENDBRANCH   1   2
BRANCH   1  12
ATOM     12  C   UNL     1      34.482   1.069   3.304  1.00  0.00     0.000 C 
BRANCH  12  13
ATOM     13  C   UNL     1      34.009   1.854   4.544  1.00  0.00    -0.000 C 
BRANCH  13  14
ATOM     14  C   UNL     1      33.971   3.383   4.337  1.00  0.00    -0.000 C 
BRANCH  14  15
ATOM     15  C   UNL     1      34.113   4.151   5.663  1.00  0.00    -0.000 C 
BRANCH  15  16
ATOM     16  C   UNL     1      33.538   3.379   6.859  1.00  0.00    -0.000 C 
BRANCH  16  17
ATOM     17  C   UNL     1      34.571   3.189   7.985  1.00  0.00    -0.000 C 
BRANCH  17  18
ATOM     18  C   UNL     1      34.282   1.947   8.842  1.00  0.00    -0.003 C 
ATOM     19  C   UNL     1      33.419   0.914   8.117  1.00  0.00     0.004 C 
ENDBRANCH  17  18
ENDBRANCH  16  17
ENDBRANCH  15  16
ENDBRANCH  14  15
ENDBRANCH  13  14
ENDBRANCH  12  13
ENDBRANCH   1  12
TORSDOF 14
ENDMDL
MODEL 9
REMARK VINA RESULT:    -5.115      1.708      2.299
REMARK INTER + INTRA:         -11.897
REMARK INTER:                  -9.216
REMARK INTRA:                  -2.681
REMARK UNBOUND:                -2.595
REMARK SMILES CCCCCCCCCCCCCC[C@H](C)C(=O)[O-]
REMARK SMILES IDX 9 1 10 2 11 3 12 4 13 5 14 6 15 7 16 8 17 9 18 10 19 11 8 12
REMARK SMILES IDX 7 13 6 14 5 15 4 16 3 17 2 18 1 19
REMARK H PARENT
REMARK Flexibility Score: inf
ROOT
ATOM      1  C   UNL     1      44.699   9.775  -9.208  1.00  0.00     0.000 C 
ENDROOT
BRANCH   1   2
ATOM      2  C   UNL     1      44.422  11.209  -8.723  1.00  0.00     0.000 C 
BRANCH   2   3
ATOM      3  C   UNL     1      45.565  12.176  -9.069  1.00  0.00     0.000 C 
BRANCH   3   4
ATOM      4  C   UNL     1      45.911  13.123  -7.910  1.00  0.00     0.000 C 
BRANCH   4   5
ATOM      5  C   UNL     1      46.705  12.390  -6.824  1.00  0.00     0.001 C 
BRANCH   5   6
ATOM      6  C   UNL     1      46.070  12.609  -5.438  1.00  0.00     0.009 C 
BRANCH   6   7
ATOM      7  C   UNL     1      45.562  11.318  -4.759  1.00  0.00     0.032 C 
ATOM      8  C   UNL     1      46.080  10.043  -5.442  1.00  0.00     0.014 C 
BRANCH   7   9
ATOM      9  C   UNL     1      44.062  11.312  -4.621  1.00  0.00     0.044 C 
ATOM     10  O   UNL     1      43.342  10.622  -5.392  1.00  0.00    -0.550 OA
ATOM     11  O   UNL     1      43.456  12.118  -3.665  1.00  0.00    -0.550 OA
ENDBRANCH   7   9
ENDBRANCH   6   7
ENDBRANCH   5   6
ENDBRANCH   4   5
ENDBRANCH   3   4
ENDBRANCH   2   3
ENDBRANCH   1   2
BRANCH   1  12
ATOM     12  C   UNL     1      46.201   9.451  -9.285  1.00  0.00     0.000 C 
BRANCH  12  13
ATOM     13  C   UNL     1      46.645   8.213  -8.482  1.00  0.00    -0.000 C 
BRANCH  13  14
ATOM     14  C   UNL     1      48.111   8.273  -8.002  1.00  0.00    -0.000 C 
BRANCH  14  15
ATOM     15  C   UNL     1      48.723   9.674  -8.183  1.00  0.00    -0.000 C 
BRANCH  15  16
ATOM     16  C   UNL     1      49.946   9.906  -7.285  1.00  0.00    -0.000 C 
BRANCH  16  17
ATOM     17  C   UNL     1      49.715   9.418  -5.843  1.00  0.00    -0.000 C 
BRANCH  17  18
ATOM     18  C   UNL     1      49.834  10.553  -4.814  1.00  0.00    -0.003 C 
ATOM     19  C   UNL     1      50.231  11.887  -5.446  1.00  0.00     0.004 C 
ENDBRANCH  17  18
ENDBRANCH  16  17
ENDBRANCH  15  16
ENDBRANCH  14  15
ENDBRANCH  13  14
ENDBRANCH  12  13
ENDBRANCH   1  12
TORSDOF 14
ENDMDL
