MODEL 1
REMARK VINA RESULT:    -4.116      0.000      0.000
REMARK INTER + INTRA:          -5.214
REMARK INTER:                  -5.078
REMARK INTRA:                  -0.136
REMARK UNBOUND:                -0.136
REMARK SMILES CCCCC=CC(C)=O
REMARK SMILES IDX 4 1 3 2 2 3 1 4 5 5 6 6 7 7 9 8 8 9
REMARK H PARENT
REMARK Flexibility Score: inf
ROOT
ATOM      1  C   UNL     1     100.010 115.683 126.717  1.00  0.00     0.027 C 
ENDROOT
BRANCH   1   2
ATOM      2  C   UNL     1     101.283 114.823 126.775  1.00  0.00     0.004 C 
BRANCH   2   3
ATOM      3  C   UNL     1     101.016 113.308 126.809  1.00  0.00    -0.003 C 
ATOM      4  C   UNL     1      99.710 112.920 126.117  1.00  0.00     0.004 C 
ENDBRANCH   2   3
ENDBRANCH   1   2
BRANCH   1   5
ATOM      5  C   UNL     1     100.239 116.964 125.965  1.00  0.00    -0.023 C 
ATOM      6  C   UNL     1      99.853 118.146 126.458  1.00  0.00     0.042 C 
BRANCH   6   7
ATOM      7  C   UNL     1     100.102 119.415 125.751  1.00  0.00     0.152 C 
ATOM      8  O   UNL     1     100.217 119.442 124.495  1.00  0.00    -0.295 OA
ATOM      9  C   UNL     1     100.219 120.685 126.529  1.00  0.00     0.093 C 
ENDBRANCH   6   7
ENDBRANCH   1   5
TORSDOF 4
ENDMDL
MODEL 2
REMARK VINA RESULT:    -4.110      1.252      1.974
REMARK INTER + INTRA:          -5.208
REMARK INTER:                  -5.027
REMARK INTRA:                  -0.181
REMARK UNBOUND:                -0.136
REMARK SMILES CCCCC=CC(C)=O
REMARK SMILES IDX 4 1 3 2 2 3 1 4 5 5 6 6 7 7 9 8 8 9
REMARK H PARENT
REMARK Flexibility Score: inf
ROOT
ATOM      1  C   UNL     1     100.557 114.152 126.883  1.00  0.00     0.027 C 
ENDROOT
BRANCH   1   2
ATOM      2  C   UNL     1     100.003 112.972 126.066  1.00  0.00     0.004 C 
BRANCH   2   3
ATOM      3  C   UNL     1     100.834 112.629 124.817  1.00  0.00    -0.003 C 
ATOM      4  C   UNL     1     102.138 111.906 125.153  1.00  0.00     0.004 C 
ENDBRANCH   2   3
ENDBRANCH   1   2
BRANCH   1   5
ATOM      5  C   UNL     1      99.950 115.458 126.452  1.00  0.00    -0.023 C 
ATOM      6  C   UNL     1     100.709 116.510 126.126  1.00  0.00     0.042 C 
BRANCH   6   7
ATOM      7  C   UNL     1     100.132 117.787 125.667  1.00  0.00     0.152 C 
ATOM      8  O   UNL     1      99.916 117.994 124.442  1.00  0.00    -0.295 OA
ATOM      9  C   UNL     1      99.799 118.849 126.664  1.00  0.00     0.093 C 
ENDBRANCH   6   7
ENDBRANCH   1   5
TORSDOF 4
ENDMDL
MODEL 3
REMARK VINA RESULT:    -4.092      2.066      5.489
REMARK INTER + INTRA:          -5.185
REMARK INTER:                  -5.047
REMARK INTRA:                  -0.139
REMARK UNBOUND:                -0.136
REMARK SMILES CCCCC=CC(C)=O
REMARK SMILES IDX 4 1 3 2 2 3 1 4 5 5 6 6 7 7 9 8 8 9
REMARK H PARENT
REMARK Flexibility Score: inf
ROOT
ATOM      1  C   UNL     1      99.897 118.302 126.182  1.00  0.00     0.027 C 
ENDROOT
BRANCH   1   2
ATOM      2  C   UNL     1     100.035 118.968 124.803  1.00  0.00     0.004 C 
BRANCH   2   3
ATOM      3  C   UNL     1     100.126 120.504 124.854  1.00  0.00    -0.003 C 
ATOM      4  C   UNL     1     100.220 121.045 126.280  1.00  0.00     0.004 C 
ENDBRANCH   2   3
ENDBRANCH   1   2
BRANCH   1   5
ATOM      5  C   UNL     1     100.594 116.971 126.227  1.00  0.00    -0.023 C 
ATOM      6  C   UNL     1      99.943 115.850 126.554  1.00  0.00     0.042 C 
BRANCH   6   7
ATOM      7  C   UNL     1     100.601 114.531 126.568  1.00  0.00     0.152 C 
ATOM      8  O   UNL     1     101.789 114.407 126.977  1.00  0.00    -0.295 OA
ATOM      9  C   UNL     1      99.856 113.326 126.094  1.00  0.00     0.093 C 
ENDBRANCH   6   7
ENDBRANCH   1   5
TORSDOF 4
ENDMDL
MODEL 4
REMARK VINA RESULT:    -4.010      2.892      5.237
REMARK INTER + INTRA:          -5.084
REMARK INTER:                  -4.866
REMARK INTRA:                  -0.218
REMARK UNBOUND:                -0.136
REMARK SMILES CCCCC=CC(C)=O
REMARK SMILES IDX 4 1 3 2 2 3 1 4 5 5 6 6 7 7 9 8 8 9
REMARK H PARENT
REMARK Flexibility Score: inf
ROOT
ATOM      1  C   UNL     1     100.211 117.218 126.375  1.00  0.00     0.027 C 
ENDROOT
BRANCH   1   2
ATOM      2  C   UNL     1      99.974 117.966 125.052  1.00  0.00     0.004 C 
BRANCH   2   3
ATOM      3  C   UNL     1      99.443 117.076 123.915  1.00  0.00    -0.003 C 
ATOM      4  C   UNL     1      99.050 117.874 122.672  1.00  0.00     0.004 C 
ENDBRANCH   2   3
ENDBRANCH   1   2
BRANCH   1   5
ATOM      5  C   UNL     1     100.074 115.732 126.204  1.00  0.00    -0.023 C 
ATOM      6  C   UNL     1     100.911 114.876 126.802  1.00  0.00     0.042 C 
BRANCH   6   7
ATOM      7  C   UNL     1     100.769 113.415 126.674  1.00  0.00     0.152 C 
ATOM      8  O   UNL     1     101.711 112.643 127.007  1.00  0.00    -0.295 OA
ATOM      9  C   UNL     1      99.497 112.838 126.143  1.00  0.00     0.093 C 
ENDBRANCH   6   7
ENDBRANCH   1   5
TORSDOF 4
ENDMDL
MODEL 5
REMARK VINA RESULT:    -3.930      2.552      5.524
REMARK INTER + INTRA:          -4.985
REMARK INTER:                  -4.840
REMARK INTRA:                  -0.146
REMARK UNBOUND:                -0.136
REMARK SMILES CCCCC=CC(C)=O
REMARK SMILES IDX 4 1 3 2 2 3 1 4 5 5 6 6 7 7 9 8 8 9
REMARK H PARENT
REMARK Flexibility Score: inf
ROOT
ATOM      1  C   UNL     1     100.244 117.056 125.529  1.00  0.00     0.027 C 
ENDROOT
BRANCH   1   2
ATOM      2  C   UNL     1      99.882 118.188 126.504  1.00  0.00     0.004 C 
BRANCH   2   3
ATOM      3  C   UNL     1      99.790 119.576 125.848  1.00  0.00    -0.003 C 
ATOM      4  C   UNL     1     100.206 119.566 124.377  1.00  0.00     0.004 C 
ENDBRANCH   2   3
ENDBRANCH   1   2
BRANCH   1   5
ATOM      5  C   UNL     1     100.368 115.734 126.233  1.00  0.00    -0.023 C 
ATOM      6  C   UNL     1      99.958 114.595 125.665  1.00  0.00     0.042 C 
BRANCH   6   7
ATOM      7  C   UNL     1     100.104 113.286 126.327  1.00  0.00     0.152 C 
ATOM      8  O   UNL     1      99.107 112.530 126.490  1.00  0.00    -0.295 OA
ATOM      9  C   UNL     1     101.447 112.848 126.812  1.00  0.00     0.093 C 
ENDBRANCH   6   7
ENDBRANCH   1   5
TORSDOF 4
ENDMDL
MODEL 6
REMARK VINA RESULT:    -3.901      2.163      2.348
REMARK INTER + INTRA:          -4.950
REMARK INTER:                  -4.698
REMARK INTRA:                  -0.252
REMARK UNBOUND:                -0.136
REMARK SMILES CCCCC=CC(C)=O
REMARK SMILES IDX 4 1 3 2 2 3 1 4 5 5 6 6 7 7 9 8 8 9
REMARK H PARENT
REMARK Flexibility Score: inf
ROOT
ATOM      1  C   UNL     1      99.997 115.579 126.623  1.00  0.00     0.027 C 
ENDROOT
BRANCH   1   2
ATOM      2  C   UNL     1     101.211 114.662 126.842  1.00  0.00     0.004 C 
BRANCH   2   3
ATOM      3  C   UNL     1     100.881 113.160 126.793  1.00  0.00    -0.003 C 
ATOM      4  C   UNL     1      99.548 112.868 126.104  1.00  0.00     0.004 C 
ENDBRANCH   2   3
ENDBRANCH   1   2
BRANCH   1   5
ATOM      5  C   UNL     1     100.207 116.511 125.464  1.00  0.00    -0.023 C 
ATOM      6  C   UNL     1      99.567 116.342 124.302  1.00  0.00     0.042 C 
BRANCH   6   7
ATOM      7  C   UNL     1      99.734 117.267 123.166  1.00  0.00     0.152 C 
ATOM      8  O   UNL     1     100.621 117.063 122.292  1.00  0.00    -0.295 OA
ATOM      9  C   UNL     1      98.845 118.462 123.048  1.00  0.00     0.093 C 
ENDBRANCH   6   7
ENDBRANCH   1   5
TORSDOF 4
ENDMDL
MODEL 7
REMARK VINA RESULT:    -3.857      7.619      8.565
REMARK INTER + INTRA:          -4.895
REMARK INTER:                  -4.676
REMARK INTRA:                  -0.219
REMARK UNBOUND:                -0.136
REMARK SMILES CCCCC=CC(C)=O
REMARK SMILES IDX 4 1 3 2 2 3 1 4 5 5 6 6 7 7 9 8 8 9
REMARK H PARENT
REMARK Flexibility Score: inf
ROOT
ATOM      1  C   UNL     1      94.980 119.167 119.658  1.00  0.00     0.027 C 
ENDROOT
BRANCH   1   2
ATOM      2  C   UNL     1      93.806 118.378 119.055  1.00  0.00     0.004 C 
BRANCH   2   3
ATOM      3  C   UNL     1      94.061 116.864 118.941  1.00  0.00    -0.003 C 
ATOM      4  C   UNL     1      92.776 116.059 118.751  1.00  0.00     0.004 C 
ENDBRANCH   2   3
ENDBRANCH   1   2
BRANCH   1   5
ATOM      5  C   UNL     1      96.247 118.361 119.662  1.00  0.00    -0.023 C 
ATOM      6  C   UNL     1      97.195 118.547 120.587  1.00  0.00     0.042 C 
BRANCH   6   7
ATOM      7  C   UNL     1      98.429 117.741 120.627  1.00  0.00     0.152 C 
ATOM      8  O   UNL     1      99.169 117.743 121.649  1.00  0.00    -0.295 OA
ATOM      9  C   UNL     1      98.809 116.911 119.444  1.00  0.00     0.093 C 
ENDBRANCH   6   7
ENDBRANCH   1   5
TORSDOF 4
ENDMDL
MODEL 8
REMARK VINA RESULT:    -3.742      3.522      6.248
REMARK INTER + INTRA:          -4.754
REMARK INTER:                  -4.499
REMARK INTRA:                  -0.255
REMARK UNBOUND:                -0.136
REMARK SMILES CCCCC=CC(C)=O
REMARK SMILES IDX 4 1 3 2 2 3 1 4 5 5 6 6 7 7 9 8 8 9
REMARK H PARENT
REMARK Flexibility Score: inf
ROOT
ATOM      1  C   UNL     1      99.877 113.347 125.983  1.00  0.00     0.027 C 
ENDROOT
BRANCH   1   2
ATOM      2  C   UNL     1     100.563 114.444 126.813  1.00  0.00     0.004 C 
BRANCH   2   3
ATOM      3  C   UNL     1     100.095 115.871 126.476  1.00  0.00    -0.003 C 
ATOM      4  C   UNL     1     100.573 116.342 125.102  1.00  0.00     0.004 C 
ENDBRANCH   2   3
ENDBRANCH   1   2
BRANCH   1   5
ATOM      5  C   UNL     1     100.879 112.419 125.354  1.00  0.00    -0.023 C 
ATOM      6  C   UNL     1     102.168 112.433 125.711  1.00  0.00     0.042 C 
BRANCH   6   7
ATOM      7  C   UNL     1     103.157 111.506 125.131  1.00  0.00     0.152 C 
ATOM      8  O   UNL     1     103.675 111.738 124.004  1.00  0.00    -0.295 OA
ATOM      9  C   UNL     1     103.551 110.278 125.884  1.00  0.00     0.093 C 
ENDBRANCH   6   7
ENDBRANCH   1   5
TORSDOF 4
ENDMDL
MODEL 9
REMARK VINA RESULT:    -3.679      3.129      5.856
REMARK INTER + INTRA:          -4.675
REMARK INTER:                  -4.426
REMARK INTRA:                  -0.249
REMARK UNBOUND:                -0.136
REMARK SMILES CCCCC=CC(C)=O
REMARK SMILES IDX 4 1 3 2 2 3 1 4 5 5 6 6 7 7 9 8 8 9
REMARK H PARENT
REMARK Flexibility Score: inf
ROOT
ATOM      1  C   UNL     1     100.716 113.156 126.808  1.00  0.00     0.027 C 
ENDROOT
BRANCH   1   2
ATOM      2  C   UNL     1     101.196 114.616 126.826  1.00  0.00     0.004 C 
BRANCH   2   3
ATOM      3  C   UNL     1     100.066 115.650 126.679  1.00  0.00    -0.003 C 
ATOM      4  C   UNL     1     100.360 116.704 125.612  1.00  0.00     0.004 C 
ENDBRANCH   2   3
ENDBRANCH   1   2
BRANCH   1   5
ATOM      5  C   UNL     1     101.141 112.448 125.552  1.00  0.00    -0.023 C 
ATOM      6  C   UNL     1     100.648 112.784 124.355  1.00  0.00     0.042 C 
BRANCH   6   7
ATOM      7  C   UNL     1     101.080 112.125 123.110  1.00  0.00     0.152 C 
ATOM      8  O   UNL     1     100.897 112.677 121.990  1.00  0.00    -0.295 OA
ATOM      9  C   UNL     1     101.741 110.787 123.172  1.00  0.00     0.093 C 
ENDBRANCH   6   7
ENDBRANCH   1   5
TORSDOF 4
ENDMDL
