MODEL 1
REMARK VINA RESULT:    -6.844      0.000      0.000
REMARK INTER + INTRA:          -8.557
REMARK INTER:                  -8.244
REMARK INTRA:                  -0.313
REMARK UNBOUND:                -0.313
REMARK SMILES O=c1c(O)c(-c2ccc(O)c(O)c2)oc2cc(O)cc(O)c12
REMARK SMILES IDX 5 1 3 2 2 3 1 4 22 5 20 6 19 7 17 8 16 9 15 10 14 11 6 12
REMARK SMILES IDX 7 13 8 14 9 15 13 16 11 17 10 18 12 20 4 22 21 24 18 26
REMARK H PARENT 10 19 12 21 4 23 21 25 18 27
REMARK Flexibility Score: inf
ROOT
ATOM      1  C   UNL     1      86.344 -37.503  80.153  1.00  0.00     0.180 A 
ATOM      2  C   UNL     1      85.719 -36.995  79.001  1.00  0.00     0.208 A 
ATOM      3  C   UNL     1      84.376 -36.594  79.075  1.00  0.00     0.238 A 
ATOM      4  O   UNL     1      83.839 -36.090  78.054  1.00  0.00    -0.285 OA
ATOM      5  C   UNL     1      83.669 -36.721  80.294  1.00  0.00     0.111 A 
ATOM      6  C   UNL     1      82.294 -36.383  80.473  1.00  0.00     0.134 A 
ATOM      7  C   UNL     1      81.732 -36.426  81.755  1.00  0.00     0.093 A 
ATOM      8  C   UNL     1      82.477 -36.857  82.853  1.00  0.00     0.123 A 
ATOM      9  C   UNL     1      83.806 -37.246  82.680  1.00  0.00     0.094 A 
ATOM     10  C   UNL     1      84.404 -37.178  81.419  1.00  0.00     0.146 A 
ATOM     11  O   UNL     1      85.673 -37.547  81.299  1.00  0.00    -0.452 OA
ENDROOT
BRANCH   1  12
ATOM     12  C   UNL     1      87.750 -37.968  80.147  1.00  0.00     0.025 A 
ATOM     13  C   UNL     1      88.046 -39.266  79.702  1.00  0.00     0.016 A 
ATOM     14  C   UNL     1      89.368 -39.718  79.668  1.00  0.00     0.051 A 
ATOM     15  C   UNL     1      90.414 -38.874  80.062  1.00  0.00     0.157 A 
ATOM     16  C   UNL     1      88.804 -37.116  80.524  1.00  0.00     0.062 A 
ATOM     17  C   UNL     1      90.129 -37.566  80.488  1.00  0.00     0.158 A 
BRANCH  15  18
ATOM     18  O   UNL     1      91.732 -39.329  80.029  1.00  0.00    -0.504 OA
ATOM     19  H   UNL     1      92.409 -38.944  79.383  1.00  0.00     0.293 HD
ENDBRANCH  15  18
BRANCH  17  20
ATOM     20  O   UNL     1      91.150 -36.697  80.874  1.00  0.00    -0.504 OA
ATOM     21  H   UNL     1      92.055 -36.694  80.420  1.00  0.00     0.293 HD
ENDBRANCH  17  20
ENDBRANCH   1  12
BRANCH   2  22
ATOM     22  O   UNL     1      86.443 -36.857  77.812  1.00  0.00    -0.502 OA
ATOM     23  H   UNL     1      86.328 -36.063  77.195  1.00  0.00     0.293 HD
ENDBRANCH   2  22
BRANCH   6  24
ATOM     24  O   UNL     1      81.435 -36.030  79.428  1.00  0.00    -0.507 OA
ATOM     25  H   UNL     1      80.625 -36.560  79.145  1.00  0.00     0.293 HD
ENDBRANCH   6  24
BRANCH   8  26
ATOM     26  O   UNL     1      81.882 -36.901  84.112  1.00  0.00    -0.508 OA
ATOM     27  H   UNL     1      82.299 -36.440  84.911  1.00  0.00     0.293 HD
ENDBRANCH   8  26
TORSDOF 6
ENDMDL
MODEL 2
REMARK VINA RESULT:    -6.376     16.144     18.331
REMARK INTER + INTRA:          -7.993
REMARK INTER:                  -7.696
REMARK INTRA:                  -0.297
REMARK UNBOUND:                -0.313
REMARK SMILES O=c1c(O)c(-c2ccc(O)c(O)c2)oc2cc(O)cc(O)c12
REMARK SMILES IDX 5 1 3 2 2 3 1 4 22 5 20 6 19 7 17 8 16 9 15 10 14 11 6 12
REMARK SMILES IDX 7 13 8 14 9 15 13 16 11 17 10 18 12 20 4 22 21 24 18 26
REMARK H PARENT 10 19 12 21 4 23 21 25 18 27
REMARK Flexibility Score: inf
ROOT
ATOM      1  C   UNL     1      91.640 -24.890  69.263  1.00  0.00     0.180 A 
ATOM      2  C   UNL     1      92.096 -23.707  69.871  1.00  0.00     0.208 A 
ATOM      3  C   UNL     1      92.913 -23.798  71.009  1.00  0.00     0.238 A 
ATOM      4  O   UNL     1      93.362 -22.737  71.516  1.00  0.00    -0.285 OA
ATOM      5  C   UNL     1      93.250 -25.067  71.536  1.00  0.00     0.111 A 
ATOM      6  C   UNL     1      94.037 -25.276  72.707  1.00  0.00     0.134 A 
ATOM      7  C   UNL     1      94.418 -26.577  73.062  1.00  0.00     0.093 A 
ATOM      8  C   UNL     1      93.985 -27.679  72.326  1.00  0.00     0.123 A 
ATOM      9  C   UNL     1      93.165 -27.491  71.212  1.00  0.00     0.094 A 
ATOM     10  C   UNL     1      92.800 -26.204  70.813  1.00  0.00     0.146 A 
ATOM     11  O   UNL     1      92.028 -26.067  69.741  1.00  0.00    -0.452 OA
ENDROOT
BRANCH   1  12
ATOM     12  C   UNL     1      90.756 -24.875  68.075  1.00  0.00     0.025 A 
ATOM     13  C   UNL     1      91.317 -24.707  66.799  1.00  0.00     0.016 A 
ATOM     14  C   UNL     1      90.504 -24.712  65.663  1.00  0.00     0.051 A 
ATOM     15  C   UNL     1      89.121 -24.900  65.783  1.00  0.00     0.157 A 
ATOM     16  C   UNL     1      89.370 -25.084  68.191  1.00  0.00     0.062 A 
ATOM     17  C   UNL     1      88.553 -25.091  67.054  1.00  0.00     0.158 A 
BRANCH  15  18
ATOM     18  O   UNL     1      88.312 -24.902  64.648  1.00  0.00    -0.504 OA
ATOM     19  H   UNL     1      87.372 -24.525  64.665  1.00  0.00     0.293 HD
ENDBRANCH  15  18
BRANCH  17  20
ATOM     20  O   UNL     1      87.182 -25.295  67.206  1.00  0.00    -0.504 OA
ATOM     21  H   UNL     1      86.516 -25.035  66.490  1.00  0.00     0.293 HD
ENDBRANCH  17  20
ENDBRANCH   1  12
BRANCH   2  22
ATOM     22  O   UNL     1      91.769 -22.464  69.322  1.00  0.00    -0.502 OA
ATOM     23  H   UNL     1      91.167 -22.369  68.513  1.00  0.00     0.293 HD
ENDBRANCH   2  22
BRANCH   6  24
ATOM     24  O   UNL     1      94.445 -24.251  73.566  1.00  0.00    -0.507 OA
ATOM     25  H   UNL     1      94.631 -23.302  73.281  1.00  0.00     0.293 HD
ENDBRANCH   6  24
BRANCH   8  26
ATOM     26  O   UNL     1      94.369 -28.960  72.716  1.00  0.00    -0.508 OA
ATOM     27  H   UNL     1      93.968 -29.786  72.290  1.00  0.00     0.293 HD
ENDBRANCH   8  26
TORSDOF 6
ENDMDL
MODEL 3
REMARK VINA RESULT:    -6.357     11.978     13.464
REMARK INTER + INTRA:          -7.971
REMARK INTER:                  -7.704
REMARK INTRA:                  -0.267
REMARK UNBOUND:                -0.313
REMARK SMILES O=c1c(O)c(-c2ccc(O)c(O)c2)oc2cc(O)cc(O)c12
REMARK SMILES IDX 5 1 3 2 2 3 1 4 22 5 20 6 19 7 17 8 16 9 15 10 14 11 6 12
REMARK SMILES IDX 7 13 8 14 9 15 13 16 11 17 10 18 12 20 4 22 21 24 18 26
REMARK H PARENT 10 19 12 21 4 23 21 25 18 27
REMARK Flexibility Score: inf
ROOT
ATOM      1  C   UNL     1      89.569 -28.173  71.702  1.00  0.00     0.180 A 
ATOM      2  C   UNL     1      88.982 -28.050  72.974  1.00  0.00     0.208 A 
ATOM      3  C   UNL     1      87.745 -28.668  73.215  1.00  0.00     0.238 A 
ATOM      4  O   UNL     1      87.251 -28.600  74.370  1.00  0.00    -0.285 OA
ATOM      5  C   UNL     1      87.102 -29.386  72.178  1.00  0.00     0.111 A 
ATOM      6  C   UNL     1      85.828 -30.018  72.299  1.00  0.00     0.134 A 
ATOM      7  C   UNL     1      85.348 -30.812  71.250  1.00  0.00     0.093 A 
ATOM      8  C   UNL     1      86.064 -30.943  70.060  1.00  0.00     0.123 A 
ATOM      9  C   UNL     1      87.284 -30.281  69.909  1.00  0.00     0.094 A 
ATOM     10  C   UNL     1      87.805 -29.513  70.951  1.00  0.00     0.146 A 
ATOM     11  O   UNL     1      88.973 -28.908  70.771  1.00  0.00    -0.452 OA
ENDROOT
BRANCH   1  12
ATOM     12  C   UNL     1      90.860 -27.529  71.365  1.00  0.00     0.025 A 
ATOM     13  C   UNL     1      90.865 -26.338  70.623  1.00  0.00     0.016 A 
ATOM     14  C   UNL     1      92.070 -25.703  70.313  1.00  0.00     0.051 A 
ATOM     15  C   UNL     1      93.287 -26.240  70.753  1.00  0.00     0.157 A 
ATOM     16  C   UNL     1      92.082 -28.055  71.824  1.00  0.00     0.062 A 
ATOM     17  C   UNL     1      93.290 -27.420  71.516  1.00  0.00     0.158 A 
BRANCH  15  18
ATOM     18  O   UNL     1      94.488 -25.605  70.440  1.00  0.00    -0.504 OA
ATOM     19  H   UNL     1      94.861 -25.612  69.498  1.00  0.00     0.293 HD
ENDBRANCH  15  18
BRANCH  17  20
ATOM     20  O   UNL     1      94.483 -27.972  71.981  1.00  0.00    -0.504 OA
ATOM     21  H   UNL     1      95.382 -27.542  71.802  1.00  0.00     0.293 HD
ENDBRANCH  17  20
ENDBRANCH   1  12
BRANCH   2  22
ATOM     22  O   UNL     1      89.645 -27.355  73.990  1.00  0.00    -0.502 OA
ATOM     23  H   UNL     1      89.941 -27.801  74.849  1.00  0.00     0.293 HD
ENDBRANCH   2  22
BRANCH   6  24
ATOM     24  O   UNL     1      84.989 -29.876  73.408  1.00  0.00    -0.507 OA
ATOM     25  H   UNL     1      85.252 -30.085  74.359  1.00  0.00     0.293 HD
ENDBRANCH   6  24
BRANCH   8  26
ATOM     26  O   UNL     1      85.549 -31.729  69.031  1.00  0.00    -0.508 OA
ATOM     27  H   UNL     1      86.088 -31.926  68.197  1.00  0.00     0.293 HD
ENDBRANCH   8  26
TORSDOF 6
ENDMDL
MODEL 4
REMARK VINA RESULT:    -6.040     10.563     11.827
REMARK INTER + INTRA:          -7.589
REMARK INTER:                  -7.278
REMARK INTRA:                  -0.311
REMARK UNBOUND:                -0.313
REMARK SMILES O=c1c(O)c(-c2ccc(O)c(O)c2)oc2cc(O)cc(O)c12
REMARK SMILES IDX 5 1 3 2 2 3 1 4 22 5 20 6 19 7 17 8 16 9 15 10 14 11 6 12
REMARK SMILES IDX 7 13 8 14 9 15 13 16 11 17 10 18 12 20 4 22 21 24 18 26
REMARK H PARENT 10 19 12 21 4 23 21 25 18 27
REMARK Flexibility Score: inf
ROOT
ATOM      1  C   UNL     1      87.356 -29.561  72.444  1.00  0.00     0.180 A 
ATOM      2  C   UNL     1      86.315 -29.363  73.369  1.00  0.00     0.208 A 
ATOM      3  C   UNL     1      85.034 -29.852  73.067  1.00  0.00     0.238 A 
ATOM      4  O   UNL     1      84.121 -29.719  73.923  1.00  0.00    -0.285 OA
ATOM      5  C   UNL     1      84.804 -30.516  71.839  1.00  0.00     0.111 A 
ATOM      6  C   UNL     1      83.538 -31.016  71.412  1.00  0.00     0.134 A 
ATOM      7  C   UNL     1      83.453 -31.772  70.236  1.00  0.00     0.093 A 
ATOM      8  C   UNL     1      84.576 -31.990  69.438  1.00  0.00     0.123 A 
ATOM      9  C   UNL     1      85.809 -31.455  69.816  1.00  0.00     0.094 A 
ATOM     10  C   UNL     1      85.932 -30.729  71.002  1.00  0.00     0.146 A 
ATOM     11  O   UNL     1      87.124 -30.246  71.330  1.00  0.00    -0.452 OA
ENDROOT
BRANCH   1  12
ATOM     12  C   UNL     1      88.727 -29.054  72.680  1.00  0.00     0.025 A 
ATOM     13  C   UNL     1      89.095 -27.796  72.179  1.00  0.00     0.016 A 
ATOM     14  C   UNL     1      90.376 -27.289  72.410  1.00  0.00     0.051 A 
ATOM     15  C   UNL     1      91.304 -28.026  73.158  1.00  0.00     0.157 A 
ATOM     16  C   UNL     1      89.654 -29.783  73.448  1.00  0.00     0.062 A 
ATOM     17  C   UNL     1      90.938 -29.276  73.682  1.00  0.00     0.158 A 
BRANCH  15  18
ATOM     18  O   UNL     1      92.583 -27.518  73.383  1.00  0.00    -0.504 OA
ATOM     19  H   UNL     1      92.736 -26.710  73.974  1.00  0.00     0.293 HD
ENDBRANCH  15  18
BRANCH  17  20
ATOM     20  O   UNL     1      91.834 -30.028  74.442  1.00  0.00    -0.504 OA
ATOM     21  H   UNL     1      92.358 -30.799  74.050  1.00  0.00     0.293 HD
ENDBRANCH  17  20
ENDBRANCH   1  12
BRANCH   2  22
ATOM     22  O   UNL     1      86.569 -28.724  74.586  1.00  0.00    -0.502 OA
ATOM     23  H   UNL     1      86.296 -27.765  74.763  1.00  0.00     0.293 HD
ENDBRANCH   2  22
BRANCH   6  24
ATOM     24  O   UNL     1      82.337 -30.776  72.086  1.00  0.00    -0.507 OA
ATOM     25  H   UNL     1      82.239 -30.173  72.890  1.00  0.00     0.293 HD
ENDBRANCH   6  24
BRANCH   8  26
ATOM     26  O   UNL     1      84.453 -32.734  68.267  1.00  0.00    -0.508 OA
ATOM     27  H   UNL     1      84.046 -33.661  68.269  1.00  0.00     0.293 HD
ENDBRANCH   8  26
TORSDOF 6
ENDMDL
MODEL 5
REMARK VINA RESULT:    -5.995     16.627     18.354
REMARK INTER + INTRA:          -7.534
REMARK INTER:                  -7.211
REMARK INTRA:                  -0.323
REMARK UNBOUND:                -0.313
REMARK SMILES O=c1c(O)c(-c2ccc(O)c(O)c2)oc2cc(O)cc(O)c12
REMARK SMILES IDX 5 1 3 2 2 3 1 4 22 5 20 6 19 7 17 8 16 9 15 10 14 11 6 12
REMARK SMILES IDX 7 13 8 14 9 15 13 16 11 17 10 18 12 20 4 22 21 24 18 26
REMARK H PARENT 10 19 12 21 4 23 21 25 18 27
REMARK Flexibility Score: inf
ROOT
ATOM      1  C   UNL     1      91.932 -25.089  69.792  1.00  0.00     0.180 A 
ATOM      2  C   UNL     1      92.541 -23.834  69.968  1.00  0.00     0.208 A 
ATOM      3  C   UNL     1      92.536 -22.919  68.903  1.00  0.00     0.238 A 
ATOM      4  O   UNL     1      93.035 -21.778  69.085  1.00  0.00    -0.285 OA
ATOM      5  C   UNL     1      91.937 -23.275  67.671  1.00  0.00     0.111 A 
ATOM      6  C   UNL     1      91.909 -22.443  66.513  1.00  0.00     0.134 A 
ATOM      7  C   UNL     1      91.175 -22.844  65.390  1.00  0.00     0.093 A 
ATOM      8  C   UNL     1      90.523 -24.077  65.359  1.00  0.00     0.123 A 
ATOM      9  C   UNL     1      90.594 -24.926  66.465  1.00  0.00     0.094 A 
ATOM     10  C   UNL     1      91.287 -24.536  67.613  1.00  0.00     0.146 A 
ATOM     11  O   UNL     1      91.321 -25.368  68.647  1.00  0.00    -0.452 OA
ENDROOT
BRANCH   1  12
ATOM     12  C   UNL     1      91.919 -26.115  70.860  1.00  0.00     0.025 A 
ATOM     13  C   UNL     1      90.769 -26.276  71.649  1.00  0.00     0.016 A 
ATOM     14  C   UNL     1      90.727 -27.253  72.647  1.00  0.00     0.051 A 
ATOM     15  C   UNL     1      91.828 -28.093  72.862  1.00  0.00     0.157 A 
ATOM     16  C   UNL     1      93.015 -26.973  71.064  1.00  0.00     0.062 A 
ATOM     17  C   UNL     1      92.975 -27.954  72.063  1.00  0.00     0.158 A 
BRANCH  15  18
ATOM     18  O   UNL     1      91.784 -29.064  73.861  1.00  0.00    -0.504 OA
ATOM     19  H   UNL     1      91.814 -30.053  73.641  1.00  0.00     0.293 HD
ENDBRANCH  15  18
BRANCH  17  20
ATOM     20  O   UNL     1      94.081 -28.784  72.242  1.00  0.00    -0.504 OA
ATOM     21  H   UNL     1      94.551 -29.230  71.464  1.00  0.00     0.293 HD
ENDBRANCH  17  20
ENDBRANCH   1  12
BRANCH   2  22
ATOM     22  O   UNL     1      93.108 -23.495  71.200  1.00  0.00    -0.502 OA
ATOM     23  H   UNL     1      93.007 -22.574  71.609  1.00  0.00     0.293 HD
ENDBRANCH   2  22
BRANCH   6  24
ATOM     24  O   UNL     1      92.602 -21.234  66.404  1.00  0.00    -0.507 OA
ATOM     25  H   UNL     1      93.557 -21.089  66.699  1.00  0.00     0.293 HD
ENDBRANCH   6  24
BRANCH   8  26
ATOM     26  O   UNL     1      89.815 -24.452  64.220  1.00  0.00    -0.508 OA
ATOM     27  H   UNL     1      89.271 -25.306  64.192  1.00  0.00     0.293 HD
ENDBRANCH   8  26
TORSDOF 6
ENDMDL
MODEL 6
REMARK VINA RESULT:    -5.929      1.190      2.946
REMARK INTER + INTRA:          -7.455
REMARK INTER:                  -7.121
REMARK INTRA:                  -0.334
REMARK UNBOUND:                -0.313
REMARK SMILES O=c1c(O)c(-c2ccc(O)c(O)c2)oc2cc(O)cc(O)c12
REMARK SMILES IDX 5 1 3 2 2 3 1 4 22 5 20 6 19 7 17 8 16 9 15 10 14 11 6 12
REMARK SMILES IDX 7 13 8 14 9 15 13 16 11 17 10 18 12 20 4 22 21 24 18 26
REMARK H PARENT 10 19 12 21 4 23 21 25 18 27
REMARK Flexibility Score: inf
ROOT
ATOM      1  C   UNL     1      86.259 -37.655  80.325  1.00  0.00     0.180 A 
ATOM      2  C   UNL     1      85.492 -37.794  81.495  1.00  0.00     0.208 A 
ATOM      3  C   UNL     1      84.152 -37.373  81.484  1.00  0.00     0.238 A 
ATOM      4  O   UNL     1      83.456 -37.551  82.517  1.00  0.00    -0.285 OA
ATOM      5  C   UNL     1      83.602 -36.803  80.312  1.00  0.00     0.111 A 
ATOM      6  C   UNL     1      82.269 -36.306  80.200  1.00  0.00     0.134 A 
ATOM      7  C   UNL     1      81.790 -35.883  78.954  1.00  0.00     0.093 A 
ATOM      8  C   UNL     1      82.616 -35.878  77.830  1.00  0.00     0.123 A 
ATOM      9  C   UNL     1      83.940 -36.307  77.940  1.00  0.00     0.094 A 
ATOM     10  C   UNL     1      84.434 -36.769  79.161  1.00  0.00     0.146 A 
ATOM     11  O   UNL     1      85.696 -37.178  79.222  1.00  0.00    -0.452 OA
ENDROOT
BRANCH   1  12
ATOM     12  C   UNL     1      87.685 -38.054  80.266  1.00  0.00     0.025 A 
ATOM     13  C   UNL     1      88.025 -39.334  79.801  1.00  0.00     0.016 A 
ATOM     14  C   UNL     1      89.364 -39.723  79.716  1.00  0.00     0.051 A 
ATOM     15  C   UNL     1      90.384 -38.833  80.081  1.00  0.00     0.157 A 
ATOM     16  C   UNL     1      88.711 -37.156  80.612  1.00  0.00     0.062 A 
ATOM     17  C   UNL     1      90.053 -37.543  80.526  1.00  0.00     0.158 A 
BRANCH  15  18
ATOM     18  O   UNL     1      91.719 -39.226  79.998  1.00  0.00    -0.504 OA
ATOM     19  H   UNL     1      92.284 -39.361  80.827  1.00  0.00     0.293 HD
ENDBRANCH  15  18
BRANCH  17  20
ATOM     20  O   UNL     1      91.045 -36.629  80.883  1.00  0.00    -0.504 OA
ATOM     21  H   UNL     1      91.874 -36.906  81.393  1.00  0.00     0.293 HD
ENDBRANCH  17  20
ENDBRANCH   1  12
BRANCH   2  22
ATOM     22  O   UNL     1      86.049 -38.380  82.635  1.00  0.00    -0.502 OA
ATOM     23  H   UNL     1      85.792 -39.308  82.950  1.00  0.00     0.293 HD
ENDBRANCH   2  22
BRANCH   6  24
ATOM     24  O   UNL     1      81.391 -36.180  81.280  1.00  0.00    -0.507 OA
ATOM     25  H   UNL     1      81.607 -35.708  82.146  1.00  0.00     0.293 HD
ENDBRANCH   6  24
BRANCH   8  26
ATOM     26  O   UNL     1      82.112 -35.437  76.608  1.00  0.00    -0.508 OA
ATOM     27  H   UNL     1      82.458 -35.803  75.730  1.00  0.00     0.293 HD
ENDBRANCH   8  26
TORSDOF 6
ENDMDL
MODEL 7
REMARK VINA RESULT:    -5.834     12.484     14.886
REMARK INTER + INTRA:          -7.340
REMARK INTER:                  -7.009
REMARK INTRA:                  -0.331
REMARK UNBOUND:                -0.313
REMARK SMILES O=c1c(O)c(-c2ccc(O)c(O)c2)oc2cc(O)cc(O)c12
REMARK SMILES IDX 5 1 3 2 2 3 1 4 22 5 20 6 19 7 17 8 16 9 15 10 14 11 6 12
REMARK SMILES IDX 7 13 8 14 9 15 13 16 11 17 10 18 12 20 4 22 21 24 18 26
REMARK H PARENT 10 19 12 21 4 23 21 25 18 27
REMARK Flexibility Score: inf
ROOT
ATOM      1  C   UNL     1      89.582 -27.907  71.788  1.00  0.00     0.180 A 
ATOM      2  C   UNL     1      89.401 -26.931  70.792  1.00  0.00     0.208 A 
ATOM      3  C   UNL     1      90.516 -26.210  70.335  1.00  0.00     0.238 A 
ATOM      4  O   UNL     1      90.356 -25.377  69.406  1.00  0.00    -0.285 OA
ATOM      5  C   UNL     1      91.793 -26.462  70.889  1.00  0.00     0.111 A 
ATOM      6  C   UNL     1      92.985 -25.764  70.530  1.00  0.00     0.134 A 
ATOM      7  C   UNL     1      94.216 -26.185  71.048  1.00  0.00     0.093 A 
ATOM      8  C   UNL     1      94.291 -27.236  71.962  1.00  0.00     0.123 A 
ATOM      9  C   UNL     1      93.124 -27.888  72.366  1.00  0.00     0.094 A 
ATOM     10  C   UNL     1      91.887 -27.514  71.838  1.00  0.00     0.146 A 
ATOM     11  O   UNL     1      90.803 -28.166  72.241  1.00  0.00    -0.452 OA
ENDROOT
BRANCH   1  12
ATOM     12  C   UNL     1      88.451 -28.690  72.338  1.00  0.00     0.025 A 
ATOM     13  C   UNL     1      88.134 -29.935  71.773  1.00  0.00     0.016 A 
ATOM     14  C   UNL     1      87.086 -30.700  72.290  1.00  0.00     0.051 A 
ATOM     15  C   UNL     1      86.348 -30.239  73.389  1.00  0.00     0.157 A 
ATOM     16  C   UNL     1      87.722 -28.239  73.454  1.00  0.00     0.062 A 
ATOM     17  C   UNL     1      86.673 -29.005  73.975  1.00  0.00     0.158 A 
BRANCH  15  18
ATOM     18  O   UNL     1      85.301 -31.004  73.900  1.00  0.00    -0.504 OA
ATOM     19  H   UNL     1      84.333 -30.746  73.750  1.00  0.00     0.293 HD
ENDBRANCH  15  18
BRANCH  17  20
ATOM     20  O   UNL     1      85.967 -28.525  75.078  1.00  0.00    -0.504 OA
ATOM     21  H   UNL     1      84.972 -28.345  75.044  1.00  0.00     0.293 HD
ENDBRANCH  17  20
ENDBRANCH   1  12
BRANCH   2  22
ATOM     22  O   UNL     1      88.134 -26.713  70.243  1.00  0.00    -0.502 OA
ATOM     23  H   UNL     1      87.292 -26.707  70.805  1.00  0.00     0.293 HD
ENDBRANCH   2  22
BRANCH   6  24
ATOM     24  O   UNL     1      93.010 -24.642  69.697  1.00  0.00    -0.507 OA
ATOM     25  H   UNL     1      92.729 -23.714  69.974  1.00  0.00     0.293 HD
ENDBRANCH   6  24
BRANCH   8  26
ATOM     26  O   UNL     1      95.531 -27.620  72.469  1.00  0.00    -0.508 OA
ATOM     27  H   UNL     1      96.333 -27.750  71.864  1.00  0.00     0.293 HD
ENDBRANCH   8  26
TORSDOF 6
ENDMDL
MODEL 8
REMARK VINA RESULT:    -5.777     12.658     15.098
REMARK INTER + INTRA:          -7.272
REMARK INTER:                  -7.007
REMARK INTRA:                  -0.265
REMARK UNBOUND:                -0.313
REMARK SMILES O=c1c(O)c(-c2ccc(O)c(O)c2)oc2cc(O)cc(O)c12
REMARK SMILES IDX 5 1 3 2 2 3 1 4 22 5 20 6 19 7 17 8 16 9 15 10 14 11 6 12
REMARK SMILES IDX 7 13 8 14 9 15 13 16 11 17 10 18 12 20 4 22 21 24 18 26
REMARK H PARENT 10 19 12 21 4 23 21 25 18 27
REMARK Flexibility Score: inf
ROOT
ATOM      1  C   UNL     1      90.161 -27.595  72.887  1.00  0.00     0.180 A 
ATOM      2  C   UNL     1      91.384 -28.250  73.116  1.00  0.00     0.208 A 
ATOM      3  C   UNL     1      92.558 -27.709  72.569  1.00  0.00     0.238 A 
ATOM      4  O   UNL     1      93.656 -28.270  72.822  1.00  0.00    -0.285 OA
ATOM      5  C   UNL     1      92.494 -26.531  71.787  1.00  0.00     0.111 A 
ATOM      6  C   UNL     1      93.614 -25.918  71.151  1.00  0.00     0.134 A 
ATOM      7  C   UNL     1      93.456 -24.682  70.511  1.00  0.00     0.093 A 
ATOM      8  C   UNL     1      92.205 -24.070  70.427  1.00  0.00     0.123 A 
ATOM      9  C   UNL     1      91.090 -24.690  70.995  1.00  0.00     0.094 A 
ATOM     10  C   UNL     1      91.225 -25.904  71.671  1.00  0.00     0.146 A 
ATOM     11  O   UNL     1      90.142 -26.456  72.206  1.00  0.00    -0.452 OA
ENDROOT
BRANCH   1  12
ATOM     12  C   UNL     1      88.878 -28.118  73.411  1.00  0.00     0.025 A 
ATOM     13  C   UNL     1      88.225 -27.434  74.448  1.00  0.00     0.016 A 
ATOM     14  C   UNL     1      87.003 -27.897  74.942  1.00  0.00     0.051 A 
ATOM     15  C   UNL     1      86.408 -29.042  74.397  1.00  0.00     0.157 A 
ATOM     16  C   UNL     1      88.268 -29.256  72.852  1.00  0.00     0.062 A 
ATOM     17  C   UNL     1      87.043 -29.721  73.344  1.00  0.00     0.158 A 
BRANCH  15  18
ATOM     18  O   UNL     1      85.190 -29.503  74.894  1.00  0.00    -0.504 OA
ATOM     19  H   UNL     1      85.145 -30.239  75.588  1.00  0.00     0.293 HD
ENDBRANCH  15  18
BRANCH  17  20
ATOM     20  O   UNL     1      86.469 -30.856  72.770  1.00  0.00    -0.504 OA
ATOM     21  H   UNL     1      85.968 -30.819  71.891  1.00  0.00     0.293 HD
ENDBRANCH  17  20
ENDBRANCH   1  12
BRANCH   2  22
ATOM     22  O   UNL     1      91.428 -29.401  73.909  1.00  0.00    -0.502 OA
ATOM     23  H   UNL     1      90.592 -29.899  74.190  1.00  0.00     0.293 HD
ENDBRANCH   2  22
BRANCH   6  24
ATOM     24  O   UNL     1      94.889 -26.489  71.095  1.00  0.00    -0.507 OA
ATOM     25  H   UNL     1      95.106 -27.439  71.359  1.00  0.00     0.293 HD
ENDBRANCH   6  24
BRANCH   8  26
ATOM     26  O   UNL     1      92.080 -22.848  69.770  1.00  0.00    -0.508 OA
ATOM     27  H   UNL     1      92.797 -22.136  69.836  1.00  0.00     0.293 HD
ENDBRANCH   8  26
TORSDOF 6
ENDMDL
MODEL 9
REMARK VINA RESULT:    -5.657     12.552     15.070
REMARK INTER + INTRA:          -7.127
REMARK INTER:                  -6.811
REMARK INTRA:                  -0.316
REMARK UNBOUND:                -0.313
REMARK SMILES O=c1c(O)c(-c2ccc(O)c(O)c2)oc2cc(O)cc(O)c12
REMARK SMILES IDX 5 1 3 2 2 3 1 4 22 5 20 6 19 7 17 8 16 9 15 10 14 11 6 12
REMARK SMILES IDX 7 13 8 14 9 15 13 16 11 17 10 18 12 20 4 22 21 24 18 26
REMARK H PARENT 10 19 12 21 4 23 21 25 18 27
REMARK Flexibility Score: inf
ROOT
ATOM      1  C   UNL     1      89.629 -27.887  71.580  1.00  0.00     0.180 A 
ATOM      2  C   UNL     1      89.628 -26.811  70.675  1.00  0.00     0.208 A 
ATOM      3  C   UNL     1      90.835 -26.145  70.409  1.00  0.00     0.238 A 
ATOM      4  O   UNL     1      90.838 -25.218  69.557  1.00  0.00    -0.285 OA
ATOM      5  C   UNL     1      92.022 -26.550  71.063  1.00  0.00     0.111 A 
ATOM      6  C   UNL     1      93.293 -25.921  70.900  1.00  0.00     0.134 A 
ATOM      7  C   UNL     1      94.427 -26.487  71.496  1.00  0.00     0.093 A 
ATOM      8  C   UNL     1      94.326 -27.621  72.301  1.00  0.00     0.123 A 
ATOM      9  C   UNL     1      93.079 -28.211  72.516  1.00  0.00     0.094 A 
ATOM     10  C   UNL     1      91.936 -27.690  71.905  1.00  0.00     0.146 A 
ATOM     11  O   UNL     1      90.771 -28.286  72.126  1.00  0.00    -0.452 OA
ENDROOT
BRANCH   1  12
ATOM     12  C   UNL     1      88.392 -28.623  71.929  1.00  0.00     0.025 A 
ATOM     13  C   UNL     1      87.635 -28.216  73.038  1.00  0.00     0.016 A 
ATOM     14  C   UNL     1      86.453 -28.882  73.372  1.00  0.00     0.051 A 
ATOM     15  C   UNL     1      86.003 -29.956  72.593  1.00  0.00     0.157 A 
ATOM     16  C   UNL     1      87.926 -29.689  71.137  1.00  0.00     0.062 A 
ATOM     17  C   UNL     1      86.742 -30.357  71.468  1.00  0.00     0.158 A 
BRANCH  15  18
ATOM     18  O   UNL     1      84.825 -30.621  72.931  1.00  0.00    -0.504 OA
ATOM     19  H   UNL     1      84.043 -30.134  73.353  1.00  0.00     0.293 HD
ENDBRANCH  15  18
BRANCH  17  20
ATOM     20  O   UNL     1      86.312 -31.413  70.664  1.00  0.00    -0.504 OA
ATOM     21  H   UNL     1      86.383 -32.378  70.961  1.00  0.00     0.293 HD
ENDBRANCH  17  20
ENDBRANCH   1  12
BRANCH   2  22
ATOM     22  O   UNL     1      88.448 -26.441  70.023  1.00  0.00    -0.502 OA
ATOM     23  H   UNL     1      87.542 -26.804  70.293  1.00  0.00     0.293 HD
ENDBRANCH   2  22
BRANCH   6  24
ATOM     24  O   UNL     1      93.489 -24.731  70.192  1.00  0.00    -0.507 OA
ATOM     25  H   UNL     1      93.652 -24.674  69.198  1.00  0.00     0.293 HD
ENDBRANCH   6  24
BRANCH   8  26
ATOM     26  O   UNL     1      95.472 -28.150  72.891  1.00  0.00    -0.508 OA
ATOM     27  H   UNL     1      96.024 -27.614  73.550  1.00  0.00     0.293 HD
ENDBRANCH   8  26
TORSDOF 6
ENDMDL
