MODEL 1
REMARK VINA RESULT:    -4.575      0.000      0.000
REMARK INTER + INTRA:          -9.061
REMARK INTER:                  -6.983
REMARK INTRA:                  -2.078
REMARK UNBOUND:                -2.078
REMARK SMILES CC(=O)CCC=C(C)CCC=C(C)CCC=C(C)C
REMARK SMILES IDX 10 1 11 2 12 3 13 4 14 5 15 6 16 7 18 8 17 9 19 10 9 11 7 12
REMARK SMILES IDX 6 13 8 14 5 15 4 16 2 17 3 18 1 19
REMARK H PARENT
REMARK Flexibility Score: inf
ROOT
ATOM      1  C   UNL     1      55.111  69.676  34.018  1.00  0.00     0.032 C 
ENDROOT
BRANCH   1   2
ATOM      2  C   UNL     1      54.101  69.542  32.906  1.00  0.00    -0.028 C 
ATOM      3  C   UNL     1      53.124  70.441  32.646  1.00  0.00    -0.077 C 
ATOM      4  C   UNL     1      52.990  71.723  33.436  1.00  0.00     0.039 C 
BRANCH   3   5
ATOM      5  C   UNL     1      52.151  70.163  31.522  1.00  0.00     0.034 C 
BRANCH   5   6
ATOM      6  C   UNL     1      52.893  69.735  30.252  1.00  0.00     0.032 C 
BRANCH   6   7
ATOM      7  C   UNL     1      52.916  70.856  29.242  1.00  0.00    -0.028 C 
ATOM      8  C   UNL     1      53.787  72.840  28.085  1.00  0.00     0.039 C 
ATOM      9  C   UNL     1      53.922  71.748  29.114  1.00  0.00    -0.080 C 
ATOM     10  C   UNL     1      55.174  71.670  29.958  1.00  0.00     0.039 C 
ENDBRANCH   6   7
ENDBRANCH   5   6
ENDBRANCH   3   5
ENDBRANCH   1   2
BRANCH   1  11
ATOM     11  C   UNL     1      54.851  68.637  35.115  1.00  0.00     0.034 C 
BRANCH  11  12
ATOM     12  C   UNL     1      53.675  69.052  35.975  1.00  0.00    -0.077 C 
ATOM     13  C   UNL     1      52.495  68.391  35.981  1.00  0.00    -0.028 C 
ATOM     14  C   UNL     1      53.850  70.212  36.922  1.00  0.00     0.039 C 
BRANCH  13  15
ATOM     15  C   UNL     1      52.161  67.219  35.093  1.00  0.00     0.035 C 
BRANCH  15  16
ATOM     16  C   UNL     1      52.239  65.904  35.875  1.00  0.00     0.079 C 
BRANCH  16  17
ATOM     17  C   UNL     1      53.536  65.192  35.594  1.00  0.00     0.130 C 
ATOM     18  O   UNL     1      54.142  64.663  36.513  1.00  0.00    -0.300 OA
ATOM     19  C   UNL     1      54.107  65.127  34.209  1.00  0.00     0.087 C 
ENDBRANCH  16  17
ENDBRANCH  15  16
ENDBRANCH  13  15
ENDBRANCH  11  12
ENDBRANCH   1  11
TORSDOF 9
ENDMDL
MODEL 2
REMARK VINA RESULT:    -4.442     15.009     17.094
REMARK INTER + INTRA:          -8.857
REMARK INTER:                  -6.668
REMARK INTRA:                  -2.189
REMARK UNBOUND:                -2.078
REMARK SMILES CC(=O)CCC=C(C)CCC=C(C)CCC=C(C)C
REMARK SMILES IDX 10 1 11 2 12 3 13 4 14 5 15 6 16 7 18 8 17 9 19 10 9 11 7 12
REMARK SMILES IDX 6 13 8 14 5 15 4 16 2 17 3 18 1 19
REMARK H PARENT
REMARK Flexibility Score: inf
ROOT
ATOM      1  C   UNL     1      69.361  71.233  30.591  1.00  0.00     0.032 C 
ENDROOT
BRANCH   1   2
ATOM      2  C   UNL     1      68.611  69.928  30.498  1.00  0.00    -0.028 C 
ATOM      3  C   UNL     1      68.755  68.898  31.365  1.00  0.00    -0.077 C 
ATOM      4  C   UNL     1      69.665  68.991  32.569  1.00  0.00     0.039 C 
BRANCH   3   5
ATOM      5  C   UNL     1      67.970  67.627  31.131  1.00  0.00     0.034 C 
BRANCH   5   6
ATOM      6  C   UNL     1      68.326  67.006  29.777  1.00  0.00     0.032 C 
BRANCH   6   7
ATOM      7  C   UNL     1      67.081  66.614  29.023  1.00  0.00    -0.028 C 
ATOM      8  C   UNL     1      65.487  66.572  27.153  1.00  0.00     0.039 C 
ATOM      9  C   UNL     1      66.792  67.012  27.764  1.00  0.00    -0.080 C 
ATOM     10  C   UNL     1      67.744  67.864  26.956  1.00  0.00     0.039 C 
ENDBRANCH   6   7
ENDBRANCH   5   6
ENDBRANCH   3   5
ENDBRANCH   1   2
BRANCH   1  11
ATOM     11  C   UNL     1      70.659  71.172  29.779  1.00  0.00     0.034 C 
BRANCH  11  12
ATOM     12  C   UNL     1      70.359  70.970  28.307  1.00  0.00    -0.077 C 
ATOM     13  C   UNL     1      70.704  69.851  27.631  1.00  0.00    -0.028 C 
ATOM     14  C   UNL     1      69.576  72.032  27.580  1.00  0.00     0.039 C 
BRANCH  13  15
ATOM     15  C   UNL     1      71.491  68.702  28.212  1.00  0.00     0.035 C 
BRANCH  15  16
ATOM     16  C   UNL     1      71.642  67.573  27.188  1.00  0.00     0.079 C 
BRANCH  16  17
ATOM     17  C   UNL     1      71.346  66.238  27.820  1.00  0.00     0.130 C 
ATOM     18  O   UNL     1      71.888  65.939  28.873  1.00  0.00    -0.300 OA
ATOM     19  C   UNL     1      70.407  65.260  27.179  1.00  0.00     0.087 C 
ENDBRANCH  16  17
ENDBRANCH  15  16
ENDBRANCH  13  15
ENDBRANCH  11  12
ENDBRANCH   1  11
TORSDOF 9
ENDMDL
MODEL 3
REMARK VINA RESULT:    -4.405     14.377     16.817
REMARK INTER + INTRA:          -8.800
REMARK INTER:                  -6.922
REMARK INTRA:                  -1.878
REMARK UNBOUND:                -2.078
REMARK SMILES CC(=O)CCC=C(C)CCC=C(C)CCC=C(C)C
REMARK SMILES IDX 10 1 11 2 12 3 13 4 14 5 15 6 16 7 18 8 17 9 19 10 9 11 7 12
REMARK SMILES IDX 6 13 8 14 5 15 4 16 2 17 3 18 1 19
REMARK H PARENT
REMARK Flexibility Score: inf
ROOT
ATOM      1  C   UNL     1      69.720  71.820  29.733  1.00  0.00     0.032 C 
ENDROOT
BRANCH   1   2
ATOM      2  C   UNL     1      69.282  70.654  30.583  1.00  0.00    -0.028 C 
ATOM      3  C   UNL     1      70.097  69.962  31.413  1.00  0.00    -0.077 C 
ATOM      4  C   UNL     1      71.547  70.343  31.607  1.00  0.00     0.039 C 
BRANCH   3   5
ATOM      5  C   UNL     1      69.535  68.786  32.180  1.00  0.00     0.034 C 
BRANCH   5   6
ATOM      6  C   UNL     1      68.043  68.604  31.884  1.00  0.00     0.032 C 
BRANCH   6   7
ATOM      7  C   UNL     1      67.455  67.516  32.747  1.00  0.00    -0.028 C 
ATOM      8  C   UNL     1      66.720  65.248  33.341  1.00  0.00     0.039 C 
ATOM      9  C   UNL     1      67.372  66.216  32.389  1.00  0.00    -0.080 C 
ATOM     10  C   UNL     1      67.926  65.711  31.076  1.00  0.00     0.039 C 
ENDBRANCH   6   7
ENDBRANCH   5   6
ENDBRANCH   3   5
ENDBRANCH   1   2
BRANCH   1  11
ATOM     11  C   UNL     1      69.553  71.498  28.244  1.00  0.00     0.034 C 
BRANCH  11  12
ATOM     12  C   UNL     1      70.539  70.430  27.815  1.00  0.00    -0.077 C 
ATOM     13  C   UNL     1      70.160  69.257  27.259  1.00  0.00    -0.028 C 
ATOM     14  C   UNL     1      72.013  70.717  27.946  1.00  0.00     0.039 C 
BRANCH  13  15
ATOM     15  C   UNL     1      68.730  68.819  27.064  1.00  0.00     0.035 C 
BRANCH  15  16
ATOM     16  C   UNL     1      68.329  67.783  28.119  1.00  0.00     0.079 C 
BRANCH  16  17
ATOM     17  C   UNL     1      67.391  66.761  27.533  1.00  0.00     0.130 C 
ATOM     18  O   UNL     1      67.686  65.577  27.583  1.00  0.00    -0.300 OA
ATOM     19  C   UNL     1      66.105  67.165  26.876  1.00  0.00     0.087 C 
ENDBRANCH  16  17
ENDBRANCH  15  16
ENDBRANCH  13  15
ENDBRANCH  11  12
ENDBRANCH   1  11
TORSDOF 9
ENDMDL
MODEL 4
REMARK VINA RESULT:    -4.383     14.722     16.331
REMARK INTER + INTRA:          -8.767
REMARK INTER:                  -6.071
REMARK INTRA:                  -2.696
REMARK UNBOUND:                -2.078
REMARK SMILES CC(=O)CCC=C(C)CCC=C(C)CCC=C(C)C
REMARK SMILES IDX 10 1 11 2 12 3 13 4 14 5 15 6 16 7 18 8 17 9 19 10 9 11 7 12
REMARK SMILES IDX 6 13 8 14 5 15 4 16 2 17 3 18 1 19
REMARK H PARENT
REMARK Flexibility Score: inf
ROOT
ATOM      1  C   UNL     1      71.333  70.474  31.450  1.00  0.00     0.032 C 
ENDROOT
BRANCH   1   2
ATOM      2  C   UNL     1      71.039  70.942  30.047  1.00  0.00    -0.028 C 
ATOM      3  C   UNL     1      69.873  71.506  29.657  1.00  0.00    -0.077 C 
ATOM      4  C   UNL     1      68.751  71.776  30.633  1.00  0.00     0.039 C 
BRANCH   3   5
ATOM      5  C   UNL     1      69.696  71.895  28.206  1.00  0.00     0.034 C 
BRANCH   5   6
ATOM      6  C   UNL     1      70.072  70.734  27.280  1.00  0.00     0.032 C 
BRANCH   6   7
ATOM      7  C   UNL     1      68.975  69.699  27.246  1.00  0.00    -0.028 C 
ATOM      8  C   UNL     1      67.960  67.471  27.454  1.00  0.00     0.039 C 
ATOM      9  C   UNL     1      69.141  68.399  27.576  1.00  0.00    -0.080 C 
ATOM     10  C   UNL     1      70.463  67.862  28.074  1.00  0.00     0.039 C 
ENDBRANCH   6   7
ENDBRANCH   5   6
ENDBRANCH   3   5
ENDBRANCH   1   2
BRANCH   1  11
ATOM     11  C   UNL     1      71.092  68.966  31.581  1.00  0.00     0.034 C 
BRANCH  11  12
ATOM     12  C   UNL     1      70.130  68.675  32.715  1.00  0.00    -0.077 C 
ATOM     13  C   UNL     1      68.848  68.293  32.516  1.00  0.00    -0.028 C 
ATOM     14  C   UNL     1      70.644  68.745  34.130  1.00  0.00     0.039 C 
BRANCH  13  15
ATOM     15  C   UNL     1      68.183  68.181  31.167  1.00  0.00     0.035 C 
BRANCH  15  16
ATOM     16  C   UNL     1      67.312  66.923  31.092  1.00  0.00     0.079 C 
BRANCH  16  17
ATOM     17  C   UNL     1      68.139  65.687  31.333  1.00  0.00     0.130 C 
ATOM     18  O   UNL     1      67.899  64.984  32.302  1.00  0.00    -0.300 OA
ATOM     19  C   UNL     1      69.261  65.306  30.413  1.00  0.00     0.087 C 
ENDBRANCH  16  17
ENDBRANCH  15  16
ENDBRANCH  13  15
ENDBRANCH  11  12
ENDBRANCH   1  11
TORSDOF 9
ENDMDL
MODEL 5
REMARK VINA RESULT:    -4.273     14.265     16.372
REMARK INTER + INTRA:          -8.599
REMARK INTER:                  -6.805
REMARK INTRA:                  -1.794
REMARK UNBOUND:                -2.078
REMARK SMILES CC(=O)CCC=C(C)CCC=C(C)CCC=C(C)C
REMARK SMILES IDX 10 1 11 2 12 3 13 4 14 5 15 6 16 7 18 8 17 9 19 10 9 11 7 12
REMARK SMILES IDX 6 13 8 14 5 15 4 16 2 17 3 18 1 19
REMARK H PARENT
REMARK Flexibility Score: inf
ROOT
ATOM      1  C   UNL     1      68.654  68.651  26.875  1.00  0.00     0.032 C 
ENDROOT
BRANCH   1   2
ATOM      2  C   UNL     1      69.867  69.036  27.684  1.00  0.00    -0.028 C 
ATOM      3  C   UNL     1      70.287  70.307  27.876  1.00  0.00    -0.077 C 
ATOM      4  C   UNL     1      69.524  71.491  27.329  1.00  0.00     0.039 C 
BRANCH   3   5
ATOM      5  C   UNL     1      71.546  70.551  28.679  1.00  0.00     0.034 C 
BRANCH   5   6
ATOM      6  C   UNL     1      71.232  71.317  29.968  1.00  0.00     0.032 C 
BRANCH   6   7
ATOM      7  C   UNL     1      71.276  70.397  31.162  1.00  0.00    -0.028 C 
ATOM      8  C   UNL     1      70.385  68.982  32.962  1.00  0.00     0.039 C 
ATOM      9  C   UNL     1      70.188  69.851  31.747  1.00  0.00    -0.080 C 
ATOM     10  C   UNL     1      68.793  70.074  31.209  1.00  0.00     0.039 C 
ENDBRANCH   6   7
ENDBRANCH   5   6
ENDBRANCH   3   5
ENDBRANCH   1   2
BRANCH   1  11
ATOM     11  C   UNL     1      68.380  67.147  26.989  1.00  0.00     0.034 C 
BRANCH  11  12
ATOM     12  C   UNL     1      67.073  66.896  27.713  1.00  0.00    -0.077 C 
ATOM     13  C   UNL     1      66.985  66.772  29.057  1.00  0.00    -0.028 C 
ATOM     14  C   UNL     1      65.800  66.855  26.907  1.00  0.00     0.039 C 
BRANCH  13  15
ATOM     15  C   UNL     1      68.161  66.785  30.001  1.00  0.00     0.035 C 
BRANCH  15  16
ATOM     16  C   UNL     1      68.021  65.689  31.062  1.00  0.00     0.079 C 
BRANCH  16  17
ATOM     17  C   UNL     1      67.051  66.108  32.135  1.00  0.00     0.130 C 
ATOM     18  O   UNL     1      65.936  65.610  32.165  1.00  0.00    -0.300 OA
ATOM     19  C   UNL     1      67.420  67.134  33.166  1.00  0.00     0.087 C 
ENDBRANCH  16  17
ENDBRANCH  15  16
ENDBRANCH  13  15
ENDBRANCH  11  12
ENDBRANCH   1  11
TORSDOF 9
ENDMDL
MODEL 6
REMARK VINA RESULT:    -4.273      1.997      3.365
REMARK INTER + INTRA:          -8.599
REMARK INTER:                  -7.627
REMARK INTRA:                  -0.973
REMARK UNBOUND:                -2.078
REMARK SMILES CC(=O)CCC=C(C)CCC=C(C)CCC=C(C)C
REMARK SMILES IDX 10 1 11 2 12 3 13 4 14 5 15 6 16 7 18 8 17 9 19 10 9 11 7 12
REMARK SMILES IDX 6 13 8 14 5 15 4 16 2 17 3 18 1 19
REMARK H PARENT
REMARK Flexibility Score: inf
ROOT
ATOM      1  C   UNL     1      54.358  67.716  35.101  1.00  0.00     0.032 C 
ENDROOT
BRANCH   1   2
ATOM      2  C   UNL     1      53.929  68.829  34.179  1.00  0.00    -0.028 C 
ATOM      3  C   UNL     1      54.780  69.665  33.540  1.00  0.00    -0.077 C 
ATOM      4  C   UNL     1      56.280  69.515  33.653  1.00  0.00     0.039 C 
BRANCH   3   5
ATOM      5  C   UNL     1      54.213  70.767  32.673  1.00  0.00     0.034 C 
BRANCH   5   6
ATOM      6  C   UNL     1      55.283  71.321  31.727  1.00  0.00     0.032 C 
BRANCH   6   7
ATOM      7  C   UNL     1      54.679  72.297  30.748  1.00  0.00    -0.028 C 
ATOM      8  C   UNL     1      53.833  73.103  28.586  1.00  0.00     0.039 C 
ATOM      9  C   UNL     1      54.398  72.011  29.458  1.00  0.00    -0.080 C 
ATOM     10  C   UNL     1      54.619  70.633  28.877  1.00  0.00     0.039 C 
ENDBRANCH   6   7
ENDBRANCH   5   6
ENDBRANCH   3   5
ENDBRANCH   1   2
BRANCH   1  11
ATOM     11  C   UNL     1      53.146  66.904  35.572  1.00  0.00     0.034 C 
BRANCH  11  12
ATOM     12  C   UNL     1      53.417  65.418  35.445  1.00  0.00    -0.077 C 
ATOM     13  C   UNL     1      52.844  64.492  36.248  1.00  0.00    -0.028 C 
ATOM     14  C   UNL     1      54.310  64.942  34.328  1.00  0.00     0.039 C 
BRANCH  13  15
ATOM     15  C   UNL     1      51.934  64.805  37.409  1.00  0.00     0.035 C 
BRANCH  15  16
ATOM     16  C   UNL     1      52.634  64.519  38.741  1.00  0.00     0.079 C 
BRANCH  16  17
ATOM     17  C   UNL     1      52.652  65.750  39.609  1.00  0.00     0.130 C 
ATOM     18  O   UNL     1      53.136  65.689  40.729  1.00  0.00    -0.300 OA
ATOM     19  C   UNL     1      52.077  67.051  39.132  1.00  0.00     0.087 C 
ENDBRANCH  16  17
ENDBRANCH  15  16
ENDBRANCH  13  15
ENDBRANCH  11  12
ENDBRANCH   1  11
TORSDOF 9
ENDMDL
MODEL 7
REMARK VINA RESULT:    -4.270      1.288      2.286
REMARK INTER + INTRA:          -8.594
REMARK INTER:                  -7.113
REMARK INTRA:                  -1.481
REMARK UNBOUND:                -2.078
REMARK SMILES CC(=O)CCC=C(C)CCC=C(C)CCC=C(C)C
REMARK SMILES IDX 10 1 11 2 12 3 13 4 14 5 15 6 16 7 18 8 17 9 19 10 9 11 7 12
REMARK SMILES IDX 6 13 8 14 5 15 4 16 2 17 3 18 1 19
REMARK H PARENT
REMARK Flexibility Score: inf
ROOT
ATOM      1  C   UNL     1      52.892  70.413  35.105  1.00  0.00     0.032 C 
ENDROOT
BRANCH   1   2
ATOM      2  C   UNL     1      53.053  71.462  34.034  1.00  0.00    -0.028 C 
ATOM      3  C   UNL     1      52.685  71.301  32.742  1.00  0.00    -0.077 C 
ATOM      4  C   UNL     1      52.011  70.038  32.256  1.00  0.00     0.039 C 
BRANCH   3   5
ATOM      5  C   UNL     1      52.940  72.423  31.761  1.00  0.00     0.034 C 
BRANCH   5   6
ATOM      6  C   UNL     1      54.407  72.440  31.320  1.00  0.00     0.032 C 
BRANCH   6   7
ATOM      7  C   UNL     1      54.719  71.248  30.449  1.00  0.00    -0.028 C 
ATOM      8  C   UNL     1      54.862  69.937  28.377  1.00  0.00     0.039 C 
ATOM      9  C   UNL     1      54.545  71.214  29.110  1.00  0.00    -0.080 C 
ATOM     10  C   UNL     1      54.061  72.418  28.334  1.00  0.00     0.039 C 
ENDBRANCH   6   7
ENDBRANCH   5   6
ENDBRANCH   3   5
ENDBRANCH   1   2
BRANCH   1  11
ATOM     11  C   UNL     1      54.259  69.902  35.574  1.00  0.00     0.034 C 
BRANCH  11  12
ATOM     12  C   UNL     1      54.917  69.068  34.493  1.00  0.00    -0.077 C 
ATOM     13  C   UNL     1      54.529  67.807  34.195  1.00  0.00    -0.028 C 
ATOM     14  C   UNL     1      56.006  69.697  33.662  1.00  0.00     0.039 C 
BRANCH  13  15
ATOM     15  C   UNL     1      53.461  67.038  34.932  1.00  0.00     0.035 C 
BRANCH  15  16
ATOM     16  C   UNL     1      53.327  65.619  34.371  1.00  0.00     0.079 C 
BRANCH  16  17
ATOM     17  C   UNL     1      53.773  64.600  35.386  1.00  0.00     0.130 C 
ATOM     18  O   UNL     1      54.956  64.306  35.462  1.00  0.00    -0.300 OA
ATOM     19  C   UNL     1      52.793  63.928  36.302  1.00  0.00     0.087 C 
ENDBRANCH  16  17
ENDBRANCH  15  16
ENDBRANCH  13  15
ENDBRANCH  11  12
ENDBRANCH   1  11
TORSDOF 9
ENDMDL
MODEL 8
REMARK VINA RESULT:    -4.241     15.030     16.999
REMARK INTER + INTRA:          -8.550
REMARK INTER:                  -5.901
REMARK INTRA:                  -2.649
REMARK UNBOUND:                -2.078
REMARK SMILES CC(=O)CCC=C(C)CCC=C(C)CCC=C(C)C
REMARK SMILES IDX 10 1 11 2 12 3 13 4 14 5 15 6 16 7 18 8 17 9 19 10 9 11 7 12
REMARK SMILES IDX 6 13 8 14 5 15 4 16 2 17 3 18 1 19
REMARK H PARENT
REMARK Flexibility Score: inf
ROOT
ATOM      1  C   UNL     1      69.490  66.230  26.875  1.00  0.00     0.032 C 
ENDROOT
BRANCH   1   2
ATOM      2  C   UNL     1      70.529  66.994  27.657  1.00  0.00    -0.028 C 
ATOM      3  C   UNL     1      70.529  68.337  27.821  1.00  0.00    -0.077 C 
ATOM      4  C   UNL     1      69.426  69.209  27.267  1.00  0.00     0.039 C 
BRANCH   3   5
ATOM      5  C   UNL     1      71.657  68.981  28.598  1.00  0.00     0.034 C 
BRANCH   5   6
ATOM      6  C   UNL     1      71.426  70.489  28.744  1.00  0.00     0.032 C 
BRANCH   6   7
ATOM      7  C   UNL     1      71.505  70.904  30.192  1.00  0.00    -0.028 C 
ATOM      8  C   UNL     1      70.694  71.759  32.348  1.00  0.00     0.039 C 
ATOM      9  C   UNL     1      70.454  71.338  30.921  1.00  0.00    -0.080 C 
ATOM     10  C   UNL     1      69.055  71.396  30.353  1.00  0.00     0.039 C 
ENDBRANCH   6   7
ENDBRANCH   5   6
ENDBRANCH   3   5
ENDBRANCH   1   2
BRANCH   1  11
ATOM     11  C   UNL     1      68.523  65.508  27.820  1.00  0.00     0.034 C 
BRANCH  11  12
ATOM     12  C   UNL     1      67.349  66.400  28.168  1.00  0.00    -0.077 C 
ATOM     13  C   UNL     1      67.185  66.963  29.387  1.00  0.00    -0.028 C 
ATOM     14  C   UNL     1      66.355  66.737  27.086  1.00  0.00     0.039 C 
BRANCH  13  15
ATOM     15  C   UNL     1      68.086  66.723  30.573  1.00  0.00     0.035 C 
BRANCH  15  16
ATOM     16  C   UNL     1      68.223  67.994  31.418  1.00  0.00     0.079 C 
BRANCH  16  17
ATOM     17  C   UNL     1      69.526  67.992  32.175  1.00  0.00     0.130 C 
ATOM     18  O   UNL     1      69.574  68.492  33.288  1.00  0.00    -0.300 OA
ATOM     19  C   UNL     1      70.771  67.399  31.586  1.00  0.00     0.087 C 
ENDBRANCH  16  17
ENDBRANCH  15  16
ENDBRANCH  13  15
ENDBRANCH  11  12
ENDBRANCH   1  11
TORSDOF 9
ENDMDL
