MODEL 1
REMARK VINA RESULT:    -7.331      0.000      0.000
REMARK INTER + INTRA:         -12.129
REMARK INTER:                 -10.974
REMARK INTRA:                  -1.155
REMARK UNBOUND:                -1.155
REMARK SMILES O=c1c(O[C@H]2O[C@H](CO)[C@H](O)[C@@H](O)[C@@H]2O)c(-c2cc(O)c(O)c(O)c2)oc2cc(O)cc(O)c12
REMARK SMILES IDX 4 1 3 2 16 3 26 4 2 5 27 6 1 7 34 8 28 9 32 10 29 11 31 12
REMARK SMILES IDX 17 13 18 14 19 15 25 16 21 17 23 18 20 19 22 21 24 23 33 25
REMARK SMILES IDX 30 27 5 29 14 30 6 31 12 32 7 33 10 34 15 35 13 37 8 39 9 40
REMARK SMILES IDX 11 42
REMARK H PARENT 20 20 22 22 24 24 33 26 30 28 15 36 13 38 9 41 11 43
REMARK Flexibility Score: inf
ROOT
ATOM      1  O   UNL     1      54.625   6.459  81.429  1.00  0.00    -0.454 OA
ENDROOT
BRANCH   1   2
ATOM      2  C   UNL     1      53.814   5.778  80.495  1.00  0.00     0.214 A 
ATOM      3  C   UNL     1      54.264   5.715  79.162  1.00  0.00     0.181 A 
ATOM      4  O   UNL     1      53.570   5.048  78.252  1.00  0.00    -0.452 OA
ATOM      5  C   UNL     1      52.583   5.156  80.812  1.00  0.00     0.239 A 
ATOM      6  C   UNL     1      52.413   4.454  78.504  1.00  0.00     0.146 A 
ATOM      7  O   UNL     1      52.166   5.168  81.996  1.00  0.00    -0.285 OA
ATOM      8  C   UNL     1      51.833   4.512  79.796  1.00  0.00     0.111 A 
ATOM      9  C   UNL     1      51.777   3.772  77.467  1.00  0.00     0.094 A 
ATOM     10  C   UNL     1      50.554   3.904  79.992  1.00  0.00     0.134 A 
ATOM     11  C   UNL     1      50.558   3.131  77.686  1.00  0.00     0.123 A 
ATOM     12  C   UNL     1      49.959   3.195  78.942  1.00  0.00     0.093 A 
BRANCH   3  13
ATOM     13  C   UNL     1      55.533   6.351  78.734  1.00  0.00     0.029 A 
ATOM     14  C   UNL     1      56.771   5.732  78.965  1.00  0.00     0.062 A 
ATOM     15  C   UNL     1      57.961   6.363  78.583  1.00  0.00     0.162 A 
ATOM     16  C   UNL     1      55.503   7.618  78.134  1.00  0.00     0.062 A 
ATOM     17  C   UNL     1      57.930   7.627  77.976  1.00  0.00     0.200 A 
ATOM     18  C   UNL     1      56.683   8.257  77.738  1.00  0.00     0.162 A 
BRANCH  15  19
ATOM     19  O   UNL     1      59.187   5.739  78.810  1.00  0.00    -0.504 OA
ATOM     20  H   UNL     1      59.758   5.398  78.044  1.00  0.00     0.293 HD
ENDBRANCH  15  19
BRANCH  17  21
ATOM     21  O   UNL     1      59.149   8.220  77.633  1.00  0.00    -0.502 OA
ATOM     22  H   UNL     1      59.239   9.002  76.999  1.00  0.00     0.293 HD
ENDBRANCH  17  21
BRANCH  18  23
ATOM     23  O   UNL     1      56.575   9.504  77.120  1.00  0.00    -0.504 OA
ATOM     24  H   UNL     1      55.850   9.748  76.462  1.00  0.00     0.293 HD
ENDBRANCH  18  23
ENDBRANCH   3  13
BRANCH  10  25
ATOM     25  O   UNL     1      49.819   3.988  81.179  1.00  0.00    -0.507 OA
ATOM     26  H   UNL     1      49.938   4.700  81.883  1.00  0.00     0.293 HD
ENDBRANCH  10  25
BRANCH  11  27
ATOM     27  O   UNL     1      49.925   2.439  76.657  1.00  0.00    -0.508 OA
ATOM     28  H   UNL     1      49.704   2.887  75.775  1.00  0.00     0.293 HD
ENDBRANCH  11  27
ENDBRANCH   1   2
BRANCH   1  29
ATOM     29  C   UNL     1      55.654   5.937  82.277  1.00  0.00     0.339 C 
ATOM     30  C   UNL     1      56.879   6.879  82.297  1.00  0.00     0.214 C 
ATOM     31  O   UNL     1      55.975   4.611  81.883  1.00  0.00    -0.332 OA
ATOM     32  C   UNL     1      57.965   6.286  83.206  1.00  0.00     0.180 C 
ATOM     33  C   UNL     1      56.942   4.002  82.731  1.00  0.00     0.179 C 
ATOM     34  C   UNL     1      58.249   4.830  82.799  1.00  0.00     0.177 C 
BRANCH  30  35
ATOM     35  O   UNL     1      56.505   8.141  82.789  1.00  0.00    -0.384 OA
ATOM     36  H   UNL     1      55.973   7.984  83.610  1.00  0.00     0.211 HD
ENDBRANCH  30  35
BRANCH  32  37
ATOM     37  O   UNL     1      59.138   7.061  83.148  1.00  0.00    -0.387 OA
ATOM     38  H   UNL     1      59.101   7.727  83.884  1.00  0.00     0.211 HD
ENDBRANCH  32  37
BRANCH  33  39
ATOM     39  C   UNL     1      56.333   3.615  84.098  1.00  0.00     0.191 C 
BRANCH  39  40
ATOM     40  O   UNL     1      55.311   2.665  83.932  1.00  0.00    -0.394 OA
ATOM     41  H   UNL     1      55.341   2.060  84.717  1.00  0.00     0.210 HD
ENDBRANCH  39  40
ENDBRANCH  33  39
BRANCH  34  42
ATOM     42  O   UNL     1      59.157   4.250  83.704  1.00  0.00    -0.387 OA
ATOM     43  H   UNL     1      59.974   4.816  83.711  1.00  0.00     0.211 HD
ENDBRANCH  34  42
ENDBRANCH   1  29
TORSDOF 13
ENDMDL
MODEL 2
REMARK VINA RESULT:    -7.004      2.551      8.012
REMARK INTER + INTRA:         -11.639
REMARK INTER:                 -10.598
REMARK INTRA:                  -1.041
REMARK UNBOUND:                -1.155
REMARK SMILES O=c1c(O[C@H]2O[C@H](CO)[C@H](O)[C@@H](O)[C@@H]2O)c(-c2cc(O)c(O)c(O)c2)oc2cc(O)cc(O)c12
REMARK SMILES IDX 4 1 3 2 16 3 26 4 2 5 27 6 1 7 34 8 28 9 32 10 29 11 31 12
REMARK SMILES IDX 17 13 18 14 19 15 25 16 21 17 23 18 20 19 22 21 24 23 33 25
REMARK SMILES IDX 30 27 5 29 14 30 6 31 12 32 7 33 10 34 15 35 13 37 8 39 9 40
REMARK SMILES IDX 11 42
REMARK H PARENT 20 20 22 22 24 24 33 26 30 28 15 36 13 38 9 41 11 43
REMARK Flexibility Score: inf
ROOT
ATOM      1  O   UNL     1      53.850   6.282  77.562  1.00  0.00    -0.454 OA
ENDROOT
BRANCH   1   2
ATOM      2  C   UNL     1      54.668   5.796  78.605  1.00  0.00     0.214 A 
ATOM      3  C   UNL     1      54.094   4.892  79.520  1.00  0.00     0.181 A 
ATOM      4  O   UNL     1      54.827   4.366  80.490  1.00  0.00    -0.452 OA
ATOM      5  C   UNL     1      56.025   6.158  78.789  1.00  0.00     0.239 A 
ATOM      6  C   UNL     1      56.097   4.678  80.700  1.00  0.00     0.146 A 
ATOM      7  O   UNL     1      56.576   6.938  77.975  1.00  0.00    -0.285 OA
ATOM      8  C   UNL     1      56.757   5.627  79.881  1.00  0.00     0.111 A 
ATOM      9  C   UNL     1      56.771   4.050  81.748  1.00  0.00     0.094 A 
ATOM     10  C   UNL     1      58.110   5.968  80.193  1.00  0.00     0.134 A 
ATOM     11  C   UNL     1      58.109   4.346  82.006  1.00  0.00     0.123 A 
ATOM     12  C   UNL     1      58.769   5.294  81.228  1.00  0.00     0.093 A 
BRANCH   3  13
ATOM     13  C   UNL     1      52.677   4.470  79.416  1.00  0.00     0.029 A 
ATOM     14  C   UNL     1      51.793   4.616  80.497  1.00  0.00     0.062 A 
ATOM     15  C   UNL     1      50.466   4.181  80.390  1.00  0.00     0.162 A 
ATOM     16  C   UNL     1      52.221   3.866  78.236  1.00  0.00     0.062 A 
ATOM     17  C   UNL     1      50.009   3.584  79.207  1.00  0.00     0.200 A 
ATOM     18  C   UNL     1      50.895   3.436  78.111  1.00  0.00     0.162 A 
BRANCH  15  19
ATOM     19  O   UNL     1      49.592   4.335  81.466  1.00  0.00    -0.504 OA
ATOM     20  H   UNL     1      49.025   3.565  81.802  1.00  0.00     0.293 HD
ENDBRANCH  15  19
BRANCH  17  21
ATOM     21  O   UNL     1      48.680   3.150  79.162  1.00  0.00    -0.502 OA
ATOM     22  H   UNL     1      48.380   2.221  79.422  1.00  0.00     0.293 HD
ENDBRANCH  17  21
BRANCH  18  23
ATOM     23  O   UNL     1      50.504   2.870  76.897  1.00  0.00    -0.504 OA
ATOM     24  H   UNL     1      51.064   2.214  76.372  1.00  0.00     0.293 HD
ENDBRANCH  18  23
ENDBRANCH   3  13
BRANCH  10  25
ATOM     25  O   UNL     1      58.836   6.970  79.543  1.00  0.00    -0.507 OA
ATOM     26  H   UNL     1      59.837   7.081  79.589  1.00  0.00     0.293 HD
ENDBRANCH  10  25
BRANCH  11  27
ATOM     27  O   UNL     1      58.788   3.713  83.043  1.00  0.00    -0.508 OA
ATOM     28  H   UNL     1      58.295   3.315  83.834  1.00  0.00     0.293 HD
ENDBRANCH  11  27
ENDBRANCH   1   2
BRANCH   1  29
ATOM     29  C   UNL     1      53.462   7.629  77.275  1.00  0.00     0.339 C 
ATOM     30  C   UNL     1      52.126   7.976  77.970  1.00  0.00     0.214 C 
ATOM     31  O   UNL     1      53.431   7.832  75.870  1.00  0.00    -0.332 OA
ATOM     32  C   UNL     1      51.735   9.422  77.633  1.00  0.00     0.180 C 
ATOM     33  C   UNL     1      53.124   9.174  75.513  1.00  0.00     0.179 C 
ATOM     34  C   UNL     1      51.770   9.632  76.110  1.00  0.00     0.177 C 
BRANCH  30  35
ATOM     35  O   UNL     1      52.261   7.847  79.362  1.00  0.00    -0.384 OA
ATOM     36  H   UNL     1      51.380   7.556  79.711  1.00  0.00     0.211 HD
ENDBRANCH  30  35
BRANCH  32  37
ATOM     37  O   UNL     1      50.463   9.726  78.153  1.00  0.00    -0.387 OA
ATOM     38  H   UNL     1      50.060  10.430  77.582  1.00  0.00     0.211 HD
ENDBRANCH  32  37
BRANCH  33  39
ATOM     39  C   UNL     1      54.317  10.119  75.779  1.00  0.00     0.191 C 
BRANCH  39  40
ATOM     40  O   UNL     1      54.379  11.125  74.799  1.00  0.00    -0.394 OA
ATOM     41  H   UNL     1      54.769  10.718  73.983  1.00  0.00     0.210 HD
ENDBRANCH  39  40
ENDBRANCH  33  39
BRANCH  34  42
ATOM     42  O   UNL     1      51.527  10.985  75.810  1.00  0.00    -0.387 OA
ATOM     43  H   UNL     1      52.410  11.431  75.709  1.00  0.00     0.211 HD
ENDBRANCH  34  42
ENDBRANCH   1  29
TORSDOF 13
ENDMDL
MODEL 3
REMARK VINA RESULT:    -6.686      2.137      6.687
REMARK INTER + INTRA:         -11.163
REMARK INTER:                 -10.091
REMARK INTRA:                  -1.072
REMARK UNBOUND:                -1.155
REMARK SMILES O=c1c(O[C@H]2O[C@H](CO)[C@H](O)[C@@H](O)[C@@H]2O)c(-c2cc(O)c(O)c(O)c2)oc2cc(O)cc(O)c12
REMARK SMILES IDX 4 1 3 2 16 3 26 4 2 5 27 6 1 7 34 8 28 9 32 10 29 11 31 12
REMARK SMILES IDX 17 13 18 14 19 15 25 16 21 17 23 18 20 19 22 21 24 23 33 25
REMARK SMILES IDX 30 27 5 29 14 30 6 31 12 32 7 33 10 34 15 35 13 37 8 39 9 40
REMARK SMILES IDX 11 42
REMARK H PARENT 20 20 22 22 24 24 33 26 30 28 15 36 13 38 9 41 11 43
REMARK Flexibility Score: inf
ROOT
ATOM      1  O   UNL     1      56.040   4.712  81.352  1.00  0.00    -0.454 OA
ENDROOT
BRANCH   1   2
ATOM      2  C   UNL     1      56.511   5.685  80.443  1.00  0.00     0.214 A 
ATOM      3  C   UNL     1      55.887   5.760  79.183  1.00  0.00     0.181 A 
ATOM      4  O   UNL     1      56.253   6.685  78.309  1.00  0.00    -0.452 OA
ATOM      5  C   UNL     1      57.568   6.587  80.718  1.00  0.00     0.239 A 
ATOM      6  C   UNL     1      57.237   7.546  78.523  1.00  0.00     0.146 A 
ATOM      7  O   UNL     1      58.127   6.567  81.841  1.00  0.00    -0.285 OA
ATOM      8  C   UNL     1      57.979   7.517  79.729  1.00  0.00     0.111 A 
ATOM      9  C   UNL     1      57.527   8.483  77.530  1.00  0.00     0.094 A 
ATOM     10  C   UNL     1      59.068   8.430  79.878  1.00  0.00     0.134 A 
ATOM     11  C   UNL     1      58.553   9.410  77.711  1.00  0.00     0.123 A 
ATOM     12  C   UNL     1      59.310   9.382  78.880  1.00  0.00     0.093 A 
BRANCH   3  13
ATOM     13  C   UNL     1      54.784   4.846  78.802  1.00  0.00     0.029 A 
ATOM     14  C   UNL     1      53.447   5.273  78.817  1.00  0.00     0.062 A 
ATOM     15  C   UNL     1      52.416   4.385  78.485  1.00  0.00     0.162 A 
ATOM     16  C   UNL     1      55.074   3.515  78.469  1.00  0.00     0.062 A 
ATOM     17  C   UNL     1      52.708   3.056  78.145  1.00  0.00     0.200 A 
ATOM     18  C   UNL     1      54.055   2.619  78.125  1.00  0.00     0.162 A 
BRANCH  15  19
ATOM     19  O   UNL     1      51.091   4.818  78.496  1.00  0.00    -0.504 OA
ATOM     20  H   UNL     1      50.345   4.230  78.851  1.00  0.00     0.293 HD
ENDBRANCH  15  19
BRANCH  17  21
ATOM     21  O   UNL     1      51.638   2.207  77.842  1.00  0.00    -0.502 OA
ATOM     22  H   UNL     1      51.548   1.700  76.973  1.00  0.00     0.293 HD
ENDBRANCH  17  21
BRANCH  18  23
ATOM     23  O   UNL     1      54.420   1.318  77.777  1.00  0.00    -0.504 OA
ATOM     24  H   UNL     1      55.168   0.803  78.218  1.00  0.00     0.293 HD
ENDBRANCH  18  23
ENDBRANCH   3  13
BRANCH  10  25
ATOM     25  O   UNL     1      59.951   8.429  80.962  1.00  0.00    -0.507 OA
ATOM     26  H   UNL     1      60.859   8.867  80.969  1.00  0.00     0.293 HD
ENDBRANCH  10  25
BRANCH  11  27
ATOM     27  O   UNL     1      58.838  10.354  76.729  1.00  0.00    -0.508 OA
ATOM     28  H   UNL     1      58.112  10.735  76.134  1.00  0.00     0.293 HD
ENDBRANCH  11  27
ENDBRANCH   1   2
BRANCH   1  29
ATOM     29  C   UNL     1      54.980   4.813  82.309  1.00  0.00     0.339 C 
ATOM     30  C   UNL     1      54.300   3.441  82.521  1.00  0.00     0.214 C 
ATOM     31  O   UNL     1      54.073   5.832  81.916  1.00  0.00    -0.332 OA
ATOM     32  C   UNL     1      53.164   3.587  83.543  1.00  0.00     0.180 C 
ATOM     33  C   UNL     1      53.030   6.038  82.862  1.00  0.00     0.179 C 
ATOM     34  C   UNL     1      52.232   4.737  83.128  1.00  0.00     0.177 C 
BRANCH  30  35
ATOM     35  O   UNL     1      55.237   2.511  83.002  1.00  0.00    -0.384 OA
ATOM     36  H   UNL     1      55.558   1.995  82.219  1.00  0.00     0.211 HD
ENDBRANCH  30  35
BRANCH  32  37
ATOM     37  O   UNL     1      52.450   2.381  83.665  1.00  0.00    -0.387 OA
ATOM     38  H   UNL     1      52.719   1.789  82.916  1.00  0.00     0.211 HD
ENDBRANCH  32  37
BRANCH  33  39
ATOM     39  C   UNL     1      53.545   6.767  84.123  1.00  0.00     0.191 C 
BRANCH  39  40
ATOM     40  O   UNL     1      53.663   8.146  83.883  1.00  0.00    -0.394 OA
ATOM     41  H   UNL     1      54.031   8.558  84.707  1.00  0.00     0.210 HD
ENDBRANCH  39  40
ENDBRANCH  33  39
BRANCH  34  42
ATOM     42  O   UNL     1      51.260   4.947  84.123  1.00  0.00    -0.387 OA
ATOM     43  H   UNL     1      50.626   4.182  84.088  1.00  0.00     0.211 HD
ENDBRANCH  34  42
ENDBRANCH   1  29
TORSDOF 13
ENDMDL
MODEL 4
REMARK VINA RESULT:    -6.661      2.011      6.123
REMARK INTER + INTRA:         -11.125
REMARK INTER:                 -10.200
REMARK INTRA:                  -0.925
REMARK UNBOUND:                -1.155
REMARK SMILES O=c1c(O[C@H]2O[C@H](CO)[C@H](O)[C@@H](O)[C@@H]2O)c(-c2cc(O)c(O)c(O)c2)oc2cc(O)cc(O)c12
REMARK SMILES IDX 4 1 3 2 16 3 26 4 2 5 27 6 1 7 34 8 28 9 32 10 29 11 31 12
REMARK SMILES IDX 17 13 18 14 19 15 25 16 21 17 23 18 20 19 22 21 24 23 33 25
REMARK SMILES IDX 30 27 5 29 14 30 6 31 12 32 7 33 10 34 15 35 13 37 8 39 9 40
REMARK SMILES IDX 11 42
REMARK H PARENT 20 20 22 22 24 24 33 26 30 28 15 36 13 38 9 41 11 43
REMARK Flexibility Score: inf
ROOT
ATOM      1  O   UNL     1      53.507   6.331  81.467  1.00  0.00    -0.454 OA
ENDROOT
BRANCH   1   2
ATOM      2  C   UNL     1      54.473   6.830  80.566  1.00  0.00     0.214 A 
ATOM      3  C   UNL     1      54.516   6.267  79.275  1.00  0.00     0.181 A 
ATOM      4  O   UNL     1      55.367   6.730  78.372  1.00  0.00    -0.452 OA
ATOM      5  C   UNL     1      55.397   7.858  80.875  1.00  0.00     0.239 A 
ATOM      6  C   UNL     1      56.249   7.686  78.619  1.00  0.00     0.146 A 
ATOM      7  O   UNL     1      55.367   8.402  82.006  1.00  0.00    -0.285 OA
ATOM      8  C   UNL     1      56.341   8.277  79.904  1.00  0.00     0.111 A 
ATOM      9  C   UNL     1      57.090   8.098  77.584  1.00  0.00     0.094 A 
ATOM     10  C   UNL     1      57.352   9.262  80.128  1.00  0.00     0.134 A 
ATOM     11  C   UNL     1      58.033   9.103  77.797  1.00  0.00     0.123 A 
ATOM     12  C   UNL     1      58.155   9.680  79.060  1.00  0.00     0.093 A 
BRANCH   3  13
ATOM     13  C   UNL     1      53.599   5.176  78.868  1.00  0.00     0.029 A 
ATOM     14  C   UNL     1      52.208   5.361  78.860  1.00  0.00     0.062 A 
ATOM     15  C   UNL     1      51.356   4.308  78.503  1.00  0.00     0.162 A 
ATOM     16  C   UNL     1      54.125   3.921  78.532  1.00  0.00     0.062 A 
ATOM     17  C   UNL     1      51.884   3.055  78.160  1.00  0.00     0.200 A 
ATOM     18  C   UNL     1      53.287   2.863  78.163  1.00  0.00     0.162 A 
BRANCH  15  19
ATOM     19  O   UNL     1      49.975   4.500  78.491  1.00  0.00    -0.504 OA
ATOM     20  H   UNL     1      49.553   5.283  78.005  1.00  0.00     0.293 HD
ENDBRANCH  15  19
BRANCH  17  21
ATOM     21  O   UNL     1      50.987   2.033  77.831  1.00  0.00    -0.502 OA
ATOM     22  H   UNL     1      50.191   2.154  77.221  1.00  0.00     0.293 HD
ENDBRANCH  17  21
BRANCH  18  23
ATOM     23  O   UNL     1      53.883   1.650  77.814  1.00  0.00    -0.504 OA
ATOM     24  H   UNL     1      54.827   1.392  78.060  1.00  0.00     0.293 HD
ENDBRANCH  18  23
ENDBRANCH   3  13
BRANCH  10  25
ATOM     25  O   UNL     1      57.627   9.836  81.372  1.00  0.00    -0.507 OA
ATOM     26  H   UNL     1      58.043  10.743  81.512  1.00  0.00     0.293 HD
ENDBRANCH  10  25
BRANCH  11  27
ATOM     27  O   UNL     1      58.866   9.525  76.765  1.00  0.00    -0.508 OA
ATOM     28  H   UNL     1      58.666  10.364  76.233  1.00  0.00     0.293 HD
ENDBRANCH  11  27
ENDBRANCH   1   2
BRANCH   1  29
ATOM     29  C   UNL     1      53.593   5.203  82.344  1.00  0.00     0.339 C 
ATOM     30  C   UNL     1      55.067   4.876  82.676  1.00  0.00     0.214 C 
ATOM     31  O   UNL     1      52.888   4.104  81.785  1.00  0.00    -0.332 OA
ATOM     32  C   UNL     1      55.122   3.657  83.608  1.00  0.00     0.180 C 
ATOM     33  C   UNL     1      52.870   2.968  82.640  1.00  0.00     0.179 C 
ATOM     34  C   UNL     1      54.301   2.503  83.010  1.00  0.00     0.177 C 
BRANCH  30  35
ATOM     35  O   UNL     1      55.670   5.973  83.314  1.00  0.00    -0.384 OA
ATOM     36  H   UNL     1      56.513   6.161  82.828  1.00  0.00     0.211 HD
ENDBRANCH  30  35
BRANCH  32  37
ATOM     37  O   UNL     1      56.455   3.263  83.830  1.00  0.00    -0.387 OA
ATOM     38  H   UNL     1      57.033   3.778  83.209  1.00  0.00     0.211 HD
ENDBRANCH  32  37
BRANCH  33  39
ATOM     39  C   UNL     1      51.912   3.173  83.835  1.00  0.00     0.191 C 
BRANCH  39  40
ATOM     40  O   UNL     1      51.220   1.985  84.124  1.00  0.00    -0.394 OA
ATOM     41  H   UNL     1      50.301   2.237  84.397  1.00  0.00     0.210 HD
ENDBRANCH  39  40
ENDBRANCH  33  39
BRANCH  34  42
ATOM     42  O   UNL     1      54.254   1.430  83.918  1.00  0.00    -0.387 OA
ATOM     43  H   UNL     1      54.698   0.653  83.485  1.00  0.00     0.211 HD
ENDBRANCH  34  42
ENDBRANCH   1  29
TORSDOF 13
ENDMDL
MODEL 5
REMARK VINA RESULT:    -6.610      2.619      4.647
REMARK INTER + INTRA:         -11.050
REMARK INTER:                 -10.107
REMARK INTRA:                  -0.943
REMARK UNBOUND:                -1.155
REMARK SMILES O=c1c(O[C@H]2O[C@H](CO)[C@H](O)[C@@H](O)[C@@H]2O)c(-c2cc(O)c(O)c(O)c2)oc2cc(O)cc(O)c12
REMARK SMILES IDX 4 1 3 2 16 3 26 4 2 5 27 6 1 7 34 8 28 9 32 10 29 11 31 12
REMARK SMILES IDX 17 13 18 14 19 15 25 16 21 17 23 18 20 19 22 21 24 23 33 25
REMARK SMILES IDX 30 27 5 29 14 30 6 31 12 32 7 33 10 34 15 35 13 37 8 39 9 40
REMARK SMILES IDX 11 42
REMARK H PARENT 20 20 22 22 24 24 33 26 30 28 15 36 13 38 9 41 11 43
REMARK Flexibility Score: inf
ROOT
ATOM      1  O   UNL     1      55.242   5.735  78.961  1.00  0.00    -0.454 OA
ENDROOT
BRANCH   1   2
ATOM      2  C   UNL     1      54.241   5.253  79.832  1.00  0.00     0.214 A 
ATOM      3  C   UNL     1      52.951   5.804  79.714  1.00  0.00     0.181 A 
ATOM      4  O   UNL     1      51.960   5.355  80.471  1.00  0.00    -0.452 OA
ATOM      5  C   UNL     1      54.452   4.254  80.813  1.00  0.00     0.239 A 
ATOM      6  C   UNL     1      52.113   4.425  81.401  1.00  0.00     0.146 A 
ATOM      7  O   UNL     1      55.583   3.721  80.926  1.00  0.00    -0.285 OA
ATOM      8  C   UNL     1      53.384   3.850  81.653  1.00  0.00     0.111 A 
ATOM      9  C   UNL     1      50.993   4.025  82.131  1.00  0.00     0.094 A 
ATOM     10  C   UNL     1      53.499   2.896  82.710  1.00  0.00     0.134 A 
ATOM     11  C   UNL     1      51.106   3.049  83.120  1.00  0.00     0.123 A 
ATOM     12  C   UNL     1      52.350   2.488  83.399  1.00  0.00     0.093 A 
BRANCH   3  13
ATOM     13  C   UNL     1      52.641   6.865  78.727  1.00  0.00     0.029 A 
ATOM     14  C   UNL     1      53.159   6.819  77.423  1.00  0.00     0.062 A 
ATOM     15  C   UNL     1      52.881   7.848  76.514  1.00  0.00     0.162 A 
ATOM     16  C   UNL     1      51.859   7.962  79.114  1.00  0.00     0.062 A 
ATOM     17  C   UNL     1      52.093   8.942  76.901  1.00  0.00     0.200 A 
ATOM     18  C   UNL     1      51.566   8.993  78.215  1.00  0.00     0.162 A 
BRANCH  15  19
ATOM     19  O   UNL     1      53.394   7.793  75.219  1.00  0.00    -0.504 OA
ATOM     20  H   UNL     1      53.874   6.969  74.874  1.00  0.00     0.293 HD
ENDBRANCH  15  19
BRANCH  17  21
ATOM     21  O   UNL     1      51.864   9.951  75.960  1.00  0.00    -0.502 OA
ATOM     22  H   UNL     1      52.029   9.847  74.969  1.00  0.00     0.293 HD
ENDBRANCH  17  21
BRANCH  18  23
ATOM     23  O   UNL     1      50.757  10.039  78.661  1.00  0.00    -0.504 OA
ATOM     24  H   UNL     1      51.101  10.960  78.894  1.00  0.00     0.293 HD
ENDBRANCH  18  23
ENDBRANCH   3  13
BRANCH  10  25
ATOM     25  O   UNL     1      54.709   2.342  83.139  1.00  0.00    -0.507 OA
ATOM     26  H   UNL     1      55.081   2.418  84.073  1.00  0.00     0.293 HD
ENDBRANCH  10  25
BRANCH  11  27
ATOM     27  O   UNL     1      49.989   2.638  83.843  1.00  0.00    -0.508 OA
ATOM     28  H   UNL     1      49.471   1.805  83.590  1.00  0.00     0.293 HD
ENDBRANCH  11  27
ENDBRANCH   1   2
BRANCH   1  29
ATOM     29  C   UNL     1      56.519   6.299  79.280  1.00  0.00     0.339 C 
ATOM     30  C   UNL     1      56.716   7.654  78.563  1.00  0.00     0.214 C 
ATOM     31  O   UNL     1      57.545   5.360  78.993  1.00  0.00    -0.332 OA
ATOM     32  C   UNL     1      58.096   8.224  78.919  1.00  0.00     0.180 C 
ATOM     33  C   UNL     1      58.838   5.827  79.356  1.00  0.00     0.179 C 
ATOM     34  C   UNL     1      59.182   7.167  78.658  1.00  0.00     0.177 C 
BRANCH  30  35
ATOM     35  O   UNL     1      55.724   8.561  78.970  1.00  0.00    -0.384 OA
ATOM     36  H   UNL     1      55.907   8.782  79.918  1.00  0.00     0.211 HD
ENDBRANCH  30  35
BRANCH  32  37
ATOM     37  O   UNL     1      58.352   9.397  78.185  1.00  0.00    -0.387 OA
ATOM     38  H   UNL     1      58.794  10.047  78.792  1.00  0.00     0.211 HD
ENDBRANCH  32  37
BRANCH  33  39
ATOM     39  C   UNL     1      59.038   5.810  80.889  1.00  0.00     0.191 C 
BRANCH  39  40
ATOM     40  O   UNL     1      58.594   4.593  81.431  1.00  0.00    -0.394 OA
ATOM     41  H   UNL     1      59.378   3.987  81.478  1.00  0.00     0.210 HD
ENDBRANCH  39  40
ENDBRANCH  33  39
BRANCH  34  42
ATOM     42  O   UNL     1      60.431   7.647  79.094  1.00  0.00    -0.387 OA
ATOM     43  H   UNL     1      61.126   7.240  78.513  1.00  0.00     0.211 HD
ENDBRANCH  34  42
ENDBRANCH   1  29
TORSDOF 13
ENDMDL
MODEL 6
REMARK VINA RESULT:    -6.534      2.744      7.142
REMARK INTER + INTRA:         -10.936
REMARK INTER:                  -9.780
REMARK INTRA:                  -1.155
REMARK UNBOUND:                -1.155
REMARK SMILES O=c1c(O[C@H]2O[C@H](CO)[C@H](O)[C@@H](O)[C@@H]2O)c(-c2cc(O)c(O)c(O)c2)oc2cc(O)cc(O)c12
REMARK SMILES IDX 4 1 3 2 16 3 26 4 2 5 27 6 1 7 34 8 28 9 32 10 29 11 31 12
REMARK SMILES IDX 17 13 18 14 19 15 25 16 21 17 23 18 20 19 22 21 24 23 33 25
REMARK SMILES IDX 30 27 5 29 14 30 6 31 12 32 7 33 10 34 15 35 13 37 8 39 9 40
REMARK SMILES IDX 11 42
REMARK H PARENT 20 20 22 22 24 24 33 26 30 28 15 36 13 38 9 41 11 43
REMARK Flexibility Score: inf
ROOT
ATOM      1  O   UNL     1      54.250   5.990  77.760  1.00  0.00    -0.454 OA
ENDROOT
BRANCH   1   2
ATOM      2  C   UNL     1      55.331   6.830  78.108  1.00  0.00     0.214 A 
ATOM      3  C   UNL     1      55.137   8.221  78.003  1.00  0.00     0.181 A 
ATOM      4  O   UNL     1      56.098   9.058  78.363  1.00  0.00    -0.452 OA
ATOM      5  C   UNL     1      56.591   6.364  78.554  1.00  0.00     0.239 A 
ATOM      6  C   UNL     1      57.292   8.666  78.783  1.00  0.00     0.146 A 
ATOM      7  O   UNL     1      56.788   5.131  78.686  1.00  0.00    -0.285 OA
ATOM      8  C   UNL     1      57.619   7.290  78.863  1.00  0.00     0.111 A 
ATOM      9  C   UNL     1      58.222   9.642  79.145  1.00  0.00     0.094 A 
ATOM     10  C   UNL     1      58.942   6.929  79.265  1.00  0.00     0.134 A 
ATOM     11  C   UNL     1      59.491   9.277  79.594  1.00  0.00     0.123 A 
ATOM     12  C   UNL     1      59.840   7.930  79.656  1.00  0.00     0.093 A 
BRANCH   3  13
ATOM     13  C   UNL     1      53.857   8.798  77.530  1.00  0.00     0.029 A 
ATOM     14  C   UNL     1      52.660   8.586  78.230  1.00  0.00     0.062 A 
ATOM     15  C   UNL     1      51.455   9.113  77.750  1.00  0.00     0.162 A 
ATOM     16  C   UNL     1      53.829   9.529  76.333  1.00  0.00     0.062 A 
ATOM     17  C   UNL     1      51.429   9.849  76.557  1.00  0.00     0.200 A 
ATOM     18  C   UNL     1      52.635  10.070  75.846  1.00  0.00     0.162 A 
BRANCH  15  19
ATOM     19  O   UNL     1      50.270   8.903  78.455  1.00  0.00    -0.504 OA
ATOM     20  H   UNL     1      50.070   9.400  79.316  1.00  0.00     0.293 HD
ENDBRANCH  15  19
BRANCH  17  21
ATOM     21  O   UNL     1      50.196  10.336  76.112  1.00  0.00    -0.502 OA
ATOM     22  H   UNL     1      49.390  10.462  76.708  1.00  0.00     0.293 HD
ENDBRANCH  17  21
BRANCH  18  23
ATOM     23  O   UNL     1      52.687  10.810  74.664  1.00  0.00    -0.504 OA
ATOM     24  H   UNL     1      52.108  10.629  73.857  1.00  0.00     0.293 HD
ENDBRANCH  18  23
ENDBRANCH   3  13
BRANCH  10  25
ATOM     25  O   UNL     1      59.431   5.620  79.272  1.00  0.00    -0.507 OA
ATOM     26  H   UNL     1      58.871   4.793  79.132  1.00  0.00     0.293 HD
ENDBRANCH  10  25
BRANCH  11  27
ATOM     27  O   UNL     1      60.418  10.246  79.966  1.00  0.00    -0.508 OA
ATOM     28  H   UNL     1      60.285  11.223  79.734  1.00  0.00     0.293 HD
ENDBRANCH  11  27
ENDBRANCH   1   2
BRANCH   1  29
ATOM     29  C   UNL     1      53.565   5.024  78.564  1.00  0.00     0.339 C 
ATOM     30  C   UNL     1      52.119   4.817  78.061  1.00  0.00     0.214 C 
ATOM     31  O   UNL     1      53.633   5.402  79.931  1.00  0.00    -0.332 OA
ATOM     32  C   UNL     1      51.411   3.785  78.950  1.00  0.00     0.180 C 
ATOM     33  C   UNL     1      53.034   4.446  80.798  1.00  0.00     0.179 C 
ATOM     34  C   UNL     1      51.553   4.183  80.429  1.00  0.00     0.177 C 
BRANCH  30  35
ATOM     35  O   UNL     1      52.134   4.350  76.736  1.00  0.00    -0.384 OA
ATOM     36  H   UNL     1      52.210   3.363  76.779  1.00  0.00     0.211 HD
ENDBRANCH  30  35
BRANCH  32  37
ATOM     37  O   UNL     1      50.056   3.666  78.590  1.00  0.00    -0.387 OA
ATOM     38  H   UNL     1      49.516   4.150  79.267  1.00  0.00     0.211 HD
ENDBRANCH  32  37
BRANCH  33  39
ATOM     39  C   UNL     1      53.913   3.183  80.943  1.00  0.00     0.191 C 
BRANCH  39  40
ATOM     40  O   UNL     1      53.477   2.400  82.026  1.00  0.00    -0.394 OA
ATOM     41  H   UNL     1      53.793   2.842  82.855  1.00  0.00     0.210 HD
ENDBRANCH  39  40
ENDBRANCH  33  39
BRANCH  34  42
ATOM     42  O   UNL     1      51.007   3.179  81.249  1.00  0.00    -0.387 OA
ATOM     43  H   UNL     1      50.402   2.629  80.684  1.00  0.00     0.211 HD
ENDBRANCH  34  42
ENDBRANCH   1  29
TORSDOF 13
ENDMDL
MODEL 7
REMARK VINA RESULT:    -6.459      2.281      6.994
REMARK INTER + INTRA:         -10.823
REMARK INTER:                  -9.645
REMARK INTRA:                  -1.178
REMARK UNBOUND:                -1.155
REMARK SMILES O=c1c(O[C@H]2O[C@H](CO)[C@H](O)[C@@H](O)[C@@H]2O)c(-c2cc(O)c(O)c(O)c2)oc2cc(O)cc(O)c12
REMARK SMILES IDX 4 1 3 2 16 3 26 4 2 5 27 6 1 7 34 8 28 9 32 10 29 11 31 12
REMARK SMILES IDX 17 13 18 14 19 15 25 16 21 17 23 18 20 19 22 21 24 23 33 25
REMARK SMILES IDX 30 27 5 29 14 30 6 31 12 32 7 33 10 34 15 35 13 37 8 39 9 40
REMARK SMILES IDX 11 42
REMARK H PARENT 20 20 22 22 24 24 33 26 30 28 15 36 13 38 9 41 11 43
REMARK Flexibility Score: inf
ROOT
ATOM      1  O   UNL     1      54.401   4.923  78.974  1.00  0.00    -0.454 OA
ENDROOT
BRANCH   1   2
ATOM      2  C   UNL     1      55.242   5.724  79.778  1.00  0.00     0.214 A 
ATOM      3  C   UNL     1      55.109   7.122  79.673  1.00  0.00     0.181 A 
ATOM      4  O   UNL     1      55.836   7.922  80.439  1.00  0.00    -0.452 OA
ATOM      5  C   UNL     1      56.206   5.212  80.680  1.00  0.00     0.239 A 
ATOM      6  C   UNL     1      56.750   7.486  81.293  1.00  0.00     0.146 A 
ATOM      7  O   UNL     1      56.331   3.970  80.819  1.00  0.00    -0.285 OA
ATOM      8  C   UNL     1      57.016   6.101  81.431  1.00  0.00     0.111 A 
ATOM      9  C   UNL     1      57.449   8.425  82.054  1.00  0.00     0.094 A 
ATOM     10  C   UNL     1      58.056   5.695  82.323  1.00  0.00     0.134 A 
ATOM     11  C   UNL     1      58.420   8.013  82.966  1.00  0.00     0.123 A 
ATOM     12  C   UNL     1      58.712   6.658  83.099  1.00  0.00     0.093 A 
BRANCH   3  13
ATOM     13  C   UNL     1      54.138   7.747  78.745  1.00  0.00     0.029 A 
ATOM     14  C   UNL     1      54.167   7.472  77.369  1.00  0.00     0.062 A 
ATOM     15  C   UNL     1      53.262   8.097  76.502  1.00  0.00     0.162 A 
ATOM     16  C   UNL     1      53.205   8.669  79.239  1.00  0.00     0.062 A 
ATOM     17  C   UNL     1      52.324   9.014  76.998  1.00  0.00     0.200 A 
ATOM     18  C   UNL     1      52.288   9.295  78.387  1.00  0.00     0.162 A 
BRANCH  15  19
ATOM     19  O   UNL     1      53.292   7.814  75.137  1.00  0.00    -0.504 OA
ATOM     20  H   UNL     1      52.522   8.064  74.527  1.00  0.00     0.293 HD
ENDBRANCH  15  19
BRANCH  17  21
ATOM     21  O   UNL     1      51.457   9.625  76.086  1.00  0.00    -0.502 OA
ATOM     22  H   UNL     1      50.590   9.215  75.769  1.00  0.00     0.293 HD
ENDBRANCH  17  21
BRANCH  18  23
ATOM     23  O   UNL     1      51.369  10.180  78.953  1.00  0.00    -0.504 OA
ATOM     24  H   UNL     1      50.486   9.899  79.353  1.00  0.00     0.293 HD
ENDBRANCH  18  23
ENDBRANCH   3  13
BRANCH  10  25
ATOM     25  O   UNL     1      58.498   4.377  82.465  1.00  0.00    -0.507 OA
ATOM     26  H   UNL     1      59.345   4.004  82.066  1.00  0.00     0.293 HD
ENDBRANCH  10  25
BRANCH  11  27
ATOM     27  O   UNL     1      59.111   8.945  83.736  1.00  0.00    -0.508 OA
ATOM     28  H   UNL     1      60.057   9.225  83.505  1.00  0.00     0.293 HD
ENDBRANCH  11  27
ENDBRANCH   1   2
BRANCH   1  29
ATOM     29  C   UNL     1      53.153   4.309  79.310  1.00  0.00     0.339 C 
ATOM     30  C   UNL     1      52.580   3.532  78.103  1.00  0.00     0.214 C 
ATOM     31  O   UNL     1      52.259   5.286  79.822  1.00  0.00    -0.332 OA
ATOM     32  C   UNL     1      51.239   2.896  78.494  1.00  0.00     0.180 C 
ATOM     33  C   UNL     1      51.019   4.731  80.246  1.00  0.00     0.179 C 
ATOM     34  C   UNL     1      50.312   3.961  79.103  1.00  0.00     0.177 C 
BRANCH  30  35
ATOM     35  O   UNL     1      53.475   2.521  77.715  1.00  0.00    -0.384 OA
ATOM     36  H   UNL     1      53.731   2.708  76.776  1.00  0.00     0.211 HD
ENDBRANCH  30  35
BRANCH  32  37
ATOM     37  O   UNL     1      50.637   2.284  77.379  1.00  0.00    -0.387 OA
ATOM     38  H   UNL     1      50.053   1.553  77.710  1.00  0.00     0.211 HD
ENDBRANCH  32  37
BRANCH  33  39
ATOM     39  C   UNL     1      51.171   3.952  81.572  1.00  0.00     0.191 C 
BRANCH  39  40
ATOM     40  O   UNL     1      49.957   3.939  82.279  1.00  0.00    -0.394 OA
ATOM     41  H   UNL     1      50.111   3.434  83.119  1.00  0.00     0.210 HD
ENDBRANCH  39  40
ENDBRANCH  33  39
BRANCH  34  42
ATOM     42  O   UNL     1      49.130   3.357  79.568  1.00  0.00    -0.387 OA
ATOM     43  H   UNL     1      49.290   3.074  80.507  1.00  0.00     0.211 HD
ENDBRANCH  34  42
ENDBRANCH   1  29
TORSDOF 13
ENDMDL
MODEL 8
REMARK VINA RESULT:    -6.276      2.169      7.589
REMARK INTER + INTRA:         -10.549
REMARK INTER:                  -9.390
REMARK INTRA:                  -1.159
REMARK UNBOUND:                -1.155
REMARK SMILES O=c1c(O[C@H]2O[C@H](CO)[C@H](O)[C@@H](O)[C@@H]2O)c(-c2cc(O)c(O)c(O)c2)oc2cc(O)cc(O)c12
REMARK SMILES IDX 4 1 3 2 16 3 26 4 2 5 27 6 1 7 34 8 28 9 32 10 29 11 31 12
REMARK SMILES IDX 17 13 18 14 19 15 25 16 21 17 23 18 20 19 22 21 24 23 33 25
REMARK SMILES IDX 30 27 5 29 14 30 6 31 12 32 7 33 10 34 15 35 13 37 8 39 9 40
REMARK SMILES IDX 11 42
REMARK H PARENT 20 20 22 22 24 24 33 26 30 28 15 36 13 38 9 41 11 43
REMARK Flexibility Score: inf
ROOT
ATOM      1  O   UNL     1      53.309   7.716  79.932  1.00  0.00    -0.454 OA
ENDROOT
BRANCH   1   2
ATOM      2  C   UNL     1      54.288   6.915  80.559  1.00  0.00     0.214 A 
ATOM      3  C   UNL     1      54.063   5.525  80.607  1.00  0.00     0.181 A 
ATOM      4  O   UNL     1      54.970   4.719  81.139  1.00  0.00    -0.452 OA
ATOM      5  C   UNL     1      55.477   7.417  81.141  1.00  0.00     0.239 A 
ATOM      6  C   UNL     1      56.093   5.146  81.695  1.00  0.00     0.146 A 
ATOM      7  O   UNL     1      55.723   8.648  81.090  1.00  0.00    -0.285 OA
ATOM      8  C   UNL     1      56.390   6.530  81.764  1.00  0.00     0.111 A 
ATOM      9  C   UNL     1      56.978   4.200  82.215  1.00  0.00     0.094 A 
ATOM     10  C   UNL     1      57.588   6.934  82.430  1.00  0.00     0.134 A 
ATOM     11  C   UNL     1      58.174   4.603  82.809  1.00  0.00     0.123 A 
ATOM     12  C   UNL     1      58.473   5.960  82.909  1.00  0.00     0.093 A 
BRANCH   3  13
ATOM     13  C   UNL     1      52.839   4.912  80.039  1.00  0.00     0.029 A 
ATOM     14  C   UNL     1      52.830   4.372  78.744  1.00  0.00     0.062 A 
ATOM     15  C   UNL     1      51.656   3.825  78.212  1.00  0.00     0.162 A 
ATOM     16  C   UNL     1      51.654   4.914  80.787  1.00  0.00     0.062 A 
ATOM     17  C   UNL     1      50.472   3.823  78.964  1.00  0.00     0.200 A 
ATOM     18  C   UNL     1      50.475   4.364  80.273  1.00  0.00     0.162 A 
BRANCH  15  19
ATOM     19  O   UNL     1      51.656   3.286  76.927  1.00  0.00    -0.504 OA
ATOM     20  H   UNL     1      51.064   3.662  76.194  1.00  0.00     0.293 HD
ENDBRANCH  15  19
BRANCH  17  21
ATOM     21  O   UNL     1      49.323   3.282  78.377  1.00  0.00    -0.502 OA
ATOM     22  H   UNL     1      48.728   3.784  77.733  1.00  0.00     0.293 HD
ENDBRANCH  17  21
BRANCH  18  23
ATOM     23  O   UNL     1      49.340   4.375  81.086  1.00  0.00    -0.504 OA
ATOM     24  H   UNL     1      48.854   5.215  81.366  1.00  0.00     0.293 HD
ENDBRANCH  18  23
ENDBRANCH   3  13
BRANCH  10  25
ATOM     25  O   UNL     1      57.941   8.265  82.671  1.00  0.00    -0.507 OA
ATOM     26  H   UNL     1      57.323   8.969  83.043  1.00  0.00     0.293 HD
ENDBRANCH  10  25
BRANCH  11  27
ATOM     27  O   UNL     1      59.065   3.663  83.319  1.00  0.00    -0.508 OA
ATOM     28  H   UNL     1      60.030   3.628  83.013  1.00  0.00     0.293 HD
ENDBRANCH  11  27
ENDBRANCH   1   2
BRANCH   1  29
ATOM     29  C   UNL     1      53.459   8.634  78.843  1.00  0.00     0.339 C 
ATOM     30  C   UNL     1      52.215   8.607  77.927  1.00  0.00     0.214 C 
ATOM     31  O   UNL     1      54.670   8.365  78.152  1.00  0.00    -0.332 OA
ATOM     32  C   UNL     1      52.414   9.592  76.767  1.00  0.00     0.180 C 
ATOM     33  C   UNL     1      54.921   9.288  77.099  1.00  0.00     0.179 C 
ATOM     34  C   UNL     1      53.759   9.321  76.074  1.00  0.00     0.177 C 
BRANCH  30  35
ATOM     35  O   UNL     1      51.073   8.977  78.657  1.00  0.00    -0.384 OA
ATOM     36  H   UNL     1      51.135   9.954  78.811  1.00  0.00     0.211 HD
ENDBRANCH  30  35
BRANCH  32  37
ATOM     37  O   UNL     1      51.350   9.500  75.850  1.00  0.00    -0.387 OA
ATOM     38  H   UNL     1      50.693  10.211  76.071  1.00  0.00     0.211 HD
ENDBRANCH  32  37
BRANCH  33  39
ATOM     39  C   UNL     1      55.357  10.666  77.645  1.00  0.00     0.191 C 
BRANCH  39  40
ATOM     40  O   UNL     1      56.261  10.512  78.710  1.00  0.00    -0.394 OA
ATOM     41  H   UNL     1      56.272   9.550  78.951  1.00  0.00     0.210 HD
ENDBRANCH  39  40
ENDBRANCH  33  39
BRANCH  34  42
ATOM     42  O   UNL     1      53.995  10.296  75.088  1.00  0.00    -0.387 OA
ATOM     43  H   UNL     1      53.112  10.566  74.719  1.00  0.00     0.211 HD
ENDBRANCH  34  42
ENDBRANCH   1  29
TORSDOF 13
ENDMDL
