MODEL 1
REMARK VINA RESULT:    -3.507      0.000      0.000
REMARK INTER + INTRA:          -3.729
REMARK INTER:                  -3.712
REMARK INTRA:                  -0.018
REMARK UNBOUND:                -0.018
REMARK SMILES O=C([O-])c1cccnc1
REMARK SMILES IDX 4 1 5 2 9 3 6 4 8 5 7 6 2 7 1 8 3 9
REMARK H PARENT
REMARK Flexibility Score: inf
ROOT
ATOM      1  C   UNL     1      32.714  51.197  25.050  1.00  0.00     0.016 A 
ATOM      2  C   UNL     1      33.152  52.421  25.583  1.00  0.00     0.013 A 
ATOM      3  C   UNL     1      31.548  51.190  24.265  1.00  0.00     0.120 A 
ATOM      4  C   UNL     1      32.434  53.592  25.332  1.00  0.00     0.021 A 
ATOM      5  N   UNL     1      30.868  52.345  24.035  1.00  0.00    -0.264 NA
ATOM      6  C   UNL     1      31.282  53.533  24.547  1.00  0.00     0.111 A 
ENDROOT
BRANCH   1   7
ATOM      7  C   UNL     1      33.467  49.950  25.309  1.00  0.00     0.073 C 
ATOM      8  O   UNL     1      34.645  49.814  24.884  1.00  0.00    -0.545 OA
ATOM      9  O   UNL     1      32.882  48.911  26.023  1.00  0.00    -0.545 OA
ENDBRANCH   1   7
TORSDOF 1
ENDMDL
MODEL 2
REMARK VINA RESULT:    -3.460      3.230      3.932
REMARK INTER + INTRA:          -3.680
REMARK INTER:                  -3.664
REMARK INTRA:                  -0.016
REMARK UNBOUND:                -0.018
REMARK SMILES O=C([O-])c1cccnc1
REMARK SMILES IDX 4 1 5 2 9 3 6 4 8 5 7 6 2 7 1 8 3 9
REMARK H PARENT
REMARK Flexibility Score: inf
ROOT
ATOM      1  C   UNL     1      31.660  53.178  24.887  1.00  0.00     0.016 A 
ATOM      2  C   UNL     1      32.888  53.059  25.559  1.00  0.00     0.013 A 
ATOM      3  C   UNL     1      31.100  52.025  24.309  1.00  0.00     0.120 A 
ATOM      4  C   UNL     1      33.524  51.819  25.641  1.00  0.00     0.021 A 
ATOM      5  N   UNL     1      31.741  50.829  24.405  1.00  0.00    -0.264 NA
ATOM      6  C   UNL     1      32.929  50.704  25.052  1.00  0.00     0.111 A 
ENDROOT
BRANCH   1   7
ATOM      7  C   UNL     1      30.976  54.486  24.793  1.00  0.00     0.073 C 
ATOM      8  O   UNL     1      30.961  55.124  23.707  1.00  0.00    -0.545 OA
ATOM      9  O   UNL     1      30.342  55.030  25.904  1.00  0.00    -0.545 OA
ENDBRANCH   1   7
TORSDOF 1
ENDMDL
MODEL 3
REMARK VINA RESULT:    -3.356      3.331      4.239
REMARK INTER + INTRA:          -3.569
REMARK INTER:                  -3.552
REMARK INTRA:                  -0.017
REMARK UNBOUND:                -0.018
REMARK SMILES O=C([O-])c1cccnc1
REMARK SMILES IDX 4 1 5 2 9 3 6 4 8 5 7 6 2 7 1 8 3 9
REMARK H PARENT
REMARK Flexibility Score: inf
ROOT
ATOM      1  C   UNL     1      31.579  53.140  24.965  1.00  0.00     0.016 A 
ATOM      2  C   UNL     1      31.009  52.061  24.270  1.00  0.00     0.013 A 
ATOM      3  C   UNL     1      32.776  52.922  25.671  1.00  0.00     0.120 A 
ATOM      4  C   UNL     1      31.627  50.809  24.289  1.00  0.00     0.021 A 
ATOM      5  N   UNL     1      33.358  51.693  25.672  1.00  0.00    -0.264 NA
ATOM      6  C   UNL     1      32.814  50.643  25.004  1.00  0.00     0.111 A 
ENDROOT
BRANCH   1   7
ATOM      7  C   UNL     1      30.933  54.471  24.952  1.00  0.00     0.073 C 
ATOM      8  O   UNL     1      30.838  55.125  23.879  1.00  0.00    -0.545 OA
ATOM      9  O   UNL     1      30.425  55.018  26.124  1.00  0.00    -0.545 OA
ENDBRANCH   1   7
TORSDOF 1
ENDMDL
MODEL 4
REMARK VINA RESULT:    -3.322     17.114     17.376
REMARK INTER + INTRA:          -3.533
REMARK INTER:                  -3.511
REMARK INTRA:                  -0.022
REMARK UNBOUND:                -0.018
REMARK SMILES O=C([O-])c1cccnc1
REMARK SMILES IDX 4 1 5 2 9 3 6 4 8 5 7 6 2 7 1 8 3 9
REMARK H PARENT
REMARK Flexibility Score: inf
ROOT
ATOM      1  C   UNL     1      30.885  47.869   8.098  1.00  0.00     0.016 A 
ATOM      2  C   UNL     1      32.084  48.504   7.737  1.00  0.00     0.013 A 
ATOM      3  C   UNL     1      29.767  48.671   8.390  1.00  0.00     0.120 A 
ATOM      4  C   UNL     1      32.149  49.897   7.673  1.00  0.00     0.021 A 
ATOM      5  N   UNL     1      29.857  50.026   8.320  1.00  0.00    -0.264 NA
ATOM      6  C   UNL     1      31.013  50.649   7.971  1.00  0.00     0.111 A 
ENDROOT
BRANCH   1   7
ATOM      7  C   UNL     1      30.804  46.394   8.168  1.00  0.00     0.073 C 
ATOM      8  O   UNL     1      31.820  45.711   8.466  1.00  0.00    -0.545 OA
ATOM      9  O   UNL     1      29.605  45.742   7.904  1.00  0.00    -0.545 OA
ENDBRANCH   1   7
TORSDOF 1
ENDMDL
MODEL 5
REMARK VINA RESULT:    -3.270      2.081      2.672
REMARK INTER + INTRA:          -3.479
REMARK INTER:                  -3.462
REMARK INTRA:                  -0.017
REMARK UNBOUND:                -0.018
REMARK SMILES O=C([O-])c1cccnc1
REMARK SMILES IDX 4 1 5 2 9 3 6 4 8 5 7 6 2 7 1 8 3 9
REMARK H PARENT
REMARK Flexibility Score: inf
ROOT
ATOM      1  C   UNL     1      31.068  52.783  25.129  1.00  0.00     0.016 A 
ATOM      2  C   UNL     1      31.366  54.045  24.588  1.00  0.00     0.013 A 
ATOM      3  C   UNL     1      29.859  52.627  25.830  1.00  0.00     0.120 A 
ATOM      4  C   UNL     1      30.474  55.106  24.750  1.00  0.00     0.021 A 
ATOM      5  N   UNL     1      29.007  53.678  25.973  1.00  0.00    -0.264 NA
ATOM      6  C   UNL     1      29.287  54.901  25.454  1.00  0.00     0.111 A 
ENDROOT
BRANCH   1   7
ATOM      7  C   UNL     1      32.004  51.651  24.963  1.00  0.00     0.073 C 
ATOM      8  O   UNL     1      31.708  50.680  24.217  1.00  0.00    -0.545 OA
ATOM      9  O   UNL     1      33.224  51.643  25.630  1.00  0.00    -0.545 OA
ENDBRANCH   1   7
TORSDOF 1
ENDMDL
MODEL 6
REMARK VINA RESULT:    -3.182     17.027     17.518
REMARK INTER + INTRA:          -3.385
REMARK INTER:                  -3.365
REMARK INTRA:                  -0.020
REMARK UNBOUND:                -0.018
REMARK SMILES O=C([O-])c1cccnc1
REMARK SMILES IDX 4 1 5 2 9 3 6 4 8 5 7 6 2 7 1 8 3 9
REMARK H PARENT
REMARK Flexibility Score: inf
ROOT
ATOM      1  C   UNL     1      29.811  46.870   8.479  1.00  0.00     0.016 A 
ATOM      2  C   UNL     1      29.149  47.924   9.128  1.00  0.00     0.013 A 
ATOM      3  C   UNL     1      29.036  45.840   7.917  1.00  0.00     0.120 A 
ATOM      4  C   UNL     1      27.755  47.935   9.205  1.00  0.00     0.021 A 
ATOM      5  N   UNL     1      27.680  45.875   8.005  1.00  0.00    -0.264 NA
ATOM      6  C   UNL     1      27.030  46.891   8.632  1.00  0.00     0.111 A 
ENDROOT
BRANCH   1   7
ATOM      7  C   UNL     1      31.287  46.848   8.390  1.00  0.00     0.073 C 
ATOM      8  O   UNL     1      31.919  45.764   8.504  1.00  0.00    -0.545 OA
ATOM      9  O   UNL     1      31.998  48.025   8.183  1.00  0.00    -0.545 OA
ENDBRANCH   1   7
TORSDOF 1
ENDMDL
MODEL 7
REMARK VINA RESULT:    -3.058      2.840      3.483
REMARK INTER + INTRA:          -3.254
REMARK INTER:                  -3.231
REMARK INTRA:                  -0.023
REMARK UNBOUND:                -0.018
REMARK SMILES O=C([O-])c1cccnc1
REMARK SMILES IDX 4 1 5 2 9 3 6 4 8 5 7 6 2 7 1 8 3 9
REMARK H PARENT
REMARK Flexibility Score: inf
ROOT
ATOM      1  C   UNL     1      31.776  51.618  24.948  1.00  0.00     0.016 A 
ATOM      2  C   UNL     1      32.860  52.290  25.536  1.00  0.00     0.013 A 
ATOM      3  C   UNL     1      31.976  50.307  24.483  1.00  0.00     0.120 A 
ATOM      4  C   UNL     1      34.099  51.658  25.648  1.00  0.00     0.021 A 
ATOM      5  N   UNL     1      33.194  49.713  24.605  1.00  0.00    -0.264 NA
ATOM      6  C   UNL     1      34.248  50.355  25.172  1.00  0.00     0.111 A 
ENDROOT
BRANCH   1   7
ATOM      7  C   UNL     1      30.458  52.278  24.824  1.00  0.00     0.073 C 
ATOM      8  O   UNL     1      30.359  53.531  24.905  1.00  0.00    -0.545 OA
ATOM      9  O   UNL     1      29.309  51.522  24.617  1.00  0.00    -0.545 OA
ENDBRANCH   1   7
TORSDOF 1
ENDMDL
MODEL 8
REMARK VINA RESULT:    -3.057      4.113      5.932
REMARK INTER + INTRA:          -3.253
REMARK INTER:                  -3.231
REMARK INTRA:                  -0.022
REMARK UNBOUND:                -0.018
REMARK SMILES O=C([O-])c1cccnc1
REMARK SMILES IDX 4 1 5 2 9 3 6 4 8 5 7 6 2 7 1 8 3 9
REMARK H PARENT
REMARK Flexibility Score: inf
ROOT
ATOM      1  C   UNL     1      34.376  47.650  25.500  1.00  0.00     0.016 A 
ATOM      2  C   UNL     1      33.441  46.604  25.552  1.00  0.00     0.013 A 
ATOM      3  C   UNL     1      35.739  47.335  25.635  1.00  0.00     0.120 A 
ATOM      4  C   UNL     1      33.871  45.288  25.736  1.00  0.00     0.021 A 
ATOM      5  N   UNL     1      36.131  46.045  25.812  1.00  0.00    -0.264 NA
ATOM      6  C   UNL     1      35.234  45.026  25.865  1.00  0.00     0.111 A 
ENDROOT
BRANCH   1   7
ATOM      7  C   UNL     1      33.933  49.048  25.306  1.00  0.00     0.073 C 
ATOM      8  O   UNL     1      34.701  49.895  24.778  1.00  0.00    -0.545 OA
ATOM      9  O   UNL     1      32.662  49.445  25.706  1.00  0.00    -0.545 OA
ENDBRANCH   1   7
TORSDOF 1
ENDMDL
MODEL 9
REMARK VINA RESULT:    -3.051     17.359     17.658
REMARK INTER + INTRA:          -3.247
REMARK INTER:                  -3.224
REMARK INTRA:                  -0.023
REMARK UNBOUND:                -0.018
REMARK SMILES O=C([O-])c1cccnc1
REMARK SMILES IDX 4 1 5 2 9 3 6 4 8 5 7 6 2 7 1 8 3 9
REMARK H PARENT
REMARK Flexibility Score: inf
ROOT
ATOM      1  C   UNL     1      31.142  49.443   7.802  1.00  0.00     0.016 A 
ATOM      2  C   UNL     1      32.021  48.348   7.843  1.00  0.00     0.013 A 
ATOM      3  C   UNL     1      29.808  49.243   8.199  1.00  0.00     0.120 A 
ATOM      4  C   UNL     1      31.565  47.099   8.270  1.00  0.00     0.021 A 
ATOM      5  N   UNL     1      29.390  48.017   8.611  1.00  0.00    -0.264 NA
ATOM      6  C   UNL     1      30.233  46.952   8.654  1.00  0.00     0.111 A 
ENDROOT
BRANCH   1   7
ATOM      7  C   UNL     1      31.612  50.771   7.352  1.00  0.00     0.073 C 
ATOM      8  O   UNL     1      32.845  51.027   7.295  1.00  0.00    -0.545 OA
ATOM      9  O   UNL     1      30.700  51.755   6.988  1.00  0.00    -0.545 OA
ENDBRANCH   1   7
TORSDOF 1
ENDMDL
