MODEL 1
REMARK VINA RESULT:    -5.097      0.000      0.000
REMARK INTER + INTRA:          -8.438
REMARK INTER:                  -6.736
REMARK INTRA:                  -1.703
REMARK UNBOUND:                -1.703
REMARK SMILES CC[C@@H](C=C[C@@H](C)[C@H]1CC[C@H]2[C@H]3CC=C4C[C@@H](O)CC[C@]4(C)[C@@H]3CC[C@@]12C)C(C)C
REMARK SMILES IDX 6 1 7 2 5 3 4 4 3 5 2 6 1 7 28 8 29 9 30 10 8 11 9 12 26 13
REMARK SMILES IDX 10 14 11 15 25 16 27 17 12 18 24 19 23 20 13 21 21 22 14 23
REMARK SMILES IDX 15 24 20 25 22 26 16 27 19 28 17 29 18 30
REMARK H PARENT 18 31
REMARK Flexibility Score: inf
ROOT
ATOM      1  C   UNL     1      -4.425  20.517  -8.298  1.00  0.00     0.012 C 
ATOM      2  C   UNL     1      -4.117  19.049  -8.631  1.00  0.00     0.012 C 
ENDROOT
BRANCH   1   3
ATOM      3  C   UNL     1      -3.904  20.832  -6.907  1.00  0.00    -0.028 C 
ATOM      4  C   UNL     1      -3.084  21.870  -6.663  1.00  0.00    -0.027 C 
BRANCH   4   5
ATOM      5  C   UNL     1      -2.600  22.202  -5.267  1.00  0.00     0.014 C 
BRANCH   5   6
ATOM      6  C   UNL     1      -2.409  20.868  -4.500  1.00  0.00     0.004 C 
ATOM      7  C   UNL     1      -1.016  20.257  -4.644  1.00  0.00     0.004 C 
ENDBRANCH   5   6
BRANCH   5   8
ATOM      8  C   UNL     1      -3.577  23.241  -4.618  1.00  0.00    -0.011 C 
ATOM      9  C   UNL     1      -4.772  22.579  -3.914  1.00  0.00     0.008 C 
ATOM     10  C   UNL     1      -4.054  24.339  -5.583  1.00  0.00     0.008 C 
ENDBRANCH   5   8
ENDBRANCH   4   5
ENDBRANCH   1   3
BRANCH   1  11
ATOM     11  C   UNL     1      -5.944  20.881  -8.421  1.00  0.00     0.002 C 
ATOM     12  C   UNL     1      -6.580  21.133  -7.041  1.00  0.00     0.005 C 
ATOM     13  C   UNL     1      -6.338  22.125  -9.282  1.00  0.00    -0.026 C 
ATOM     14  C   UNL     1      -7.654  22.203  -7.223  1.00  0.00     0.005 C 
ATOM     15  C   UNL     1      -7.741  22.471  -8.730  1.00  0.00    -0.001 C 
ATOM     16  C   UNL     1      -5.363  23.318  -9.047  1.00  0.00     0.007 C 
ATOM     17  C   UNL     1      -6.437  21.767 -10.788  1.00  0.00     0.012 C 
ATOM     18  C   UNL     1      -8.282  23.882  -9.131  1.00  0.00     0.000 C 
ATOM     19  C   UNL     1      -5.904  24.642  -9.589  1.00  0.00     0.005 C 
ATOM     20  C   UNL     1      -7.256  25.022  -8.936  1.00  0.00     0.003 C 
ATOM     21  C   UNL     1      -9.563  24.221  -8.356  1.00  0.00     0.031 C 
ATOM     22  C   UNL     1      -7.820  26.430  -9.414  1.00  0.00    -0.008 C 
ATOM     23  C   UNL     1     -10.117  25.541  -8.783  1.00  0.00    -0.027 C 
ATOM     24  C   UNL     1      -9.341  26.565  -9.197  1.00  0.00    -0.065 C 
ATOM     25  C   UNL     1      -7.558  26.669 -10.938  1.00  0.00     0.014 C 
ATOM     26  C   UNL     1      -7.102  27.527  -8.584  1.00  0.00     0.016 C 
ATOM     27  C   UNL     1     -10.021  27.817  -9.713  1.00  0.00     0.063 C 
ATOM     28  C   UNL     1      -8.236  27.930 -11.510  1.00  0.00     0.033 C 
ATOM     29  C   UNL     1      -9.746  27.954 -11.217  1.00  0.00     0.118 C 
BRANCH  29  30
ATOM     30  O   UNL     1     -10.334  29.125 -11.725  1.00  0.00    -0.393 OA
ATOM     31  H   UNL     1     -10.172  29.143 -12.705  1.00  0.00     0.210 HD
ENDBRANCH  29  30
ENDBRANCH   1  11
TORSDOF 6
ENDMDL
MODEL 2
REMARK VINA RESULT:    -4.972      0.528      1.727
REMARK INTER + INTRA:          -8.273
REMARK INTER:                  -6.743
REMARK INTRA:                  -1.530
REMARK UNBOUND:                -1.703
REMARK SMILES CC[C@@H](C=C[C@@H](C)[C@H]1CC[C@H]2[C@H]3CC=C4C[C@@H](O)CC[C@]4(C)[C@@H]3CC[C@@]12C)C(C)C
REMARK SMILES IDX 6 1 7 2 5 3 4 4 3 5 2 6 1 7 28 8 29 9 30 10 8 11 9 12 26 13
REMARK SMILES IDX 10 14 11 15 25 16 27 17 12 18 24 19 23 20 13 21 21 22 14 23
REMARK SMILES IDX 15 24 20 25 22 26 16 27 19 28 17 29 18 30
REMARK H PARENT 18 31
REMARK Flexibility Score: inf
ROOT
ATOM      1  C   UNL     1      -4.479  20.428  -8.255  1.00  0.00     0.012 C 
ATOM      2  C   UNL     1      -4.145  19.007  -8.739  1.00  0.00     0.012 C 
ENDROOT
BRANCH   1   3
ATOM      3  C   UNL     1      -4.050  20.574  -6.806  1.00  0.00    -0.028 C 
ATOM      4  C   UNL     1      -3.287  21.596  -6.380  1.00  0.00    -0.027 C 
BRANCH   4   5
ATOM      5  C   UNL     1      -2.897  21.758  -4.926  1.00  0.00     0.014 C 
BRANCH   5   6
ATOM      6  C   UNL     1      -3.483  23.103  -4.424  1.00  0.00     0.004 C 
ATOM      7  C   UNL     1      -4.637  23.638  -5.270  1.00  0.00     0.004 C 
ENDBRANCH   5   6
BRANCH   5   8
ATOM      8  C   UNL     1      -1.347  21.582  -4.787  1.00  0.00    -0.011 C 
ATOM      9  C   UNL     1      -0.555  22.478  -5.752  1.00  0.00     0.008 C 
ATOM     10  C   UNL     1      -0.871  20.124  -4.884  1.00  0.00     0.008 C 
ENDBRANCH   5   8
ENDBRANCH   4   5
ENDBRANCH   1   3
BRANCH   1  11
ATOM     11  C   UNL     1      -5.987  20.812  -8.434  1.00  0.00     0.002 C 
ATOM     12  C   UNL     1      -6.671  21.067  -7.076  1.00  0.00     0.005 C 
ATOM     13  C   UNL     1      -6.333  22.064  -9.303  1.00  0.00    -0.026 C 
ATOM     14  C   UNL     1      -7.724  22.151  -7.294  1.00  0.00     0.005 C 
ATOM     15  C   UNL     1      -7.752  22.426  -8.802  1.00  0.00    -0.001 C 
ATOM     16  C   UNL     1      -5.353  23.243  -9.027  1.00  0.00     0.007 C 
ATOM     17  C   UNL     1      -6.380  21.713 -10.813  1.00  0.00     0.012 C 
ATOM     18  C   UNL     1      -8.259  23.845  -9.217  1.00  0.00     0.000 C 
ATOM     19  C   UNL     1      -5.856  24.576  -9.583  1.00  0.00     0.005 C 
ATOM     20  C   UNL     1      -7.227  24.970  -8.979  1.00  0.00     0.003 C 
ATOM     21  C   UNL     1      -9.564  24.197  -8.488  1.00  0.00     0.031 C 
ATOM     22  C   UNL     1      -7.755  26.388  -9.471  1.00  0.00    -0.008 C 
ATOM     23  C   UNL     1     -10.085  25.526  -8.931  1.00  0.00    -0.027 C 
ATOM     24  C   UNL     1      -9.281  26.541  -9.311  1.00  0.00    -0.065 C 
ATOM     25  C   UNL     1      -7.433  26.629 -10.984  1.00  0.00     0.014 C 
ATOM     26  C   UNL     1      -7.054  27.472  -8.611  1.00  0.00     0.016 C 
ATOM     27  C   UNL     1      -9.926  27.804  -9.846  1.00  0.00     0.063 C 
ATOM     28  C   UNL     1      -8.074  27.901 -11.575  1.00  0.00     0.033 C 
ATOM     29  C   UNL     1      -9.594  27.943 -11.338  1.00  0.00     0.118 C 
BRANCH  29  30
ATOM     30  O   UNL     1     -10.148  29.123 -11.863  1.00  0.00    -0.393 OA
ATOM     31  H   UNL     1      -9.667  29.333 -12.707  1.00  0.00     0.210 HD
ENDBRANCH  29  30
ENDBRANCH   1  11
TORSDOF 6
ENDMDL
MODEL 3
REMARK VINA RESULT:    -4.940      3.105      7.709
REMARK INTER + INTRA:          -8.230
REMARK INTER:                  -6.955
REMARK INTRA:                  -1.276
REMARK UNBOUND:                -1.703
REMARK SMILES CC[C@@H](C=C[C@@H](C)[C@H]1CC[C@H]2[C@H]3CC=C4C[C@@H](O)CC[C@]4(C)[C@@H]3CC[C@@]12C)C(C)C
REMARK SMILES IDX 6 1 7 2 5 3 4 4 3 5 2 6 1 7 28 8 29 9 30 10 8 11 9 12 26 13
REMARK SMILES IDX 10 14 11 15 25 16 27 17 12 18 24 19 23 20 13 21 21 22 14 23
REMARK SMILES IDX 15 24 20 25 22 26 16 27 19 28 17 29 18 30
REMARK H PARENT 18 31
REMARK Flexibility Score: inf
ROOT
ATOM      1  C   UNL     1      -9.585  27.657  -7.143  1.00  0.00     0.012 C 
ATOM      2  C   UNL     1     -10.686  28.482  -6.456  1.00  0.00     0.012 C 
ENDROOT
BRANCH   1   3
ATOM      3  C   UNL     1      -9.292  28.255  -8.506  1.00  0.00    -0.028 C 
ATOM      4  C   UNL     1      -8.039  28.476  -8.942  1.00  0.00    -0.027 C 
BRANCH   4   5
ATOM      5  C   UNL     1      -7.752  29.035 -10.320  1.00  0.00     0.014 C 
BRANCH   5   6
ATOM      6  C   UNL     1      -8.535  28.182 -11.351  1.00  0.00     0.004 C 
ATOM      7  C   UNL     1      -8.294  26.678 -11.231  1.00  0.00     0.004 C 
ENDBRANCH   5   6
BRANCH   5   8
ATOM      8  C   UNL     1      -6.202  29.124 -10.526  1.00  0.00    -0.011 C 
ATOM      9  C   UNL     1      -5.790  29.047 -12.005  1.00  0.00     0.008 C 
ATOM     10  C   UNL     1      -5.400  28.117  -9.686  1.00  0.00     0.008 C 
ENDBRANCH   5   8
ENDBRANCH   4   5
ENDBRANCH   1   3
BRANCH   1  11
ATOM     11  C   UNL     1      -9.928  26.133  -7.262  1.00  0.00     0.002 C 
ATOM     12  C   UNL     1     -10.515  25.791  -8.646  1.00  0.00     0.005 C 
ATOM     13  C   UNL     1      -8.777  25.098  -7.045  1.00  0.00    -0.026 C 
ATOM     14  C   UNL     1     -10.061  24.377  -8.996  1.00  0.00     0.005 C 
ATOM     15  C   UNL     1      -9.330  23.842  -7.759  1.00  0.00    -0.001 C 
ATOM     16  C   UNL     1      -7.454  25.559  -7.724  1.00  0.00     0.007 C 
ATOM     17  C   UNL     1      -8.561  24.795  -5.538  1.00  0.00     0.012 C 
ATOM     18  C   UNL     1      -8.278  22.719  -8.034  1.00  0.00     0.000 C 
ATOM     19  C   UNL     1      -6.421  24.436  -7.834  1.00  0.00     0.005 C 
ATOM     20  C   UNL     1      -6.960  23.237  -8.652  1.00  0.00     0.003 C 
ATOM     21  C   UNL     1      -8.864  21.627  -8.941  1.00  0.00     0.031 C 
ATOM     22  C   UNL     1      -5.892  22.076  -8.859  1.00  0.00    -0.008 C 
ATOM     23  C   UNL     1      -7.882  20.520  -9.154  1.00  0.00    -0.027 C 
ATOM     24  C   UNL     1      -6.548  20.718  -9.186  1.00  0.00    -0.065 C 
ATOM     25  C   UNL     1      -5.021  21.859  -7.576  1.00  0.00     0.014 C 
ATOM     26  C   UNL     1      -4.980  22.485 -10.045  1.00  0.00     0.016 C 
ATOM     27  C   UNL     1      -5.645  19.506  -9.296  1.00  0.00     0.063 C 
ATOM     28  C   UNL     1      -4.090  20.631  -7.640  1.00  0.00     0.033 C 
ATOM     29  C   UNL     1      -4.859  19.345  -7.988  1.00  0.00     0.118 C 
BRANCH  29  30
ATOM     30  O   UNL     1      -3.985  18.247  -8.065  1.00  0.00    -0.393 OA
ATOM     31  H   UNL     1      -3.085  18.558  -7.782  1.00  0.00     0.210 HD
ENDBRANCH  29  30
ENDBRANCH   1  11
TORSDOF 6
ENDMDL
MODEL 4
REMARK VINA RESULT:    -4.882      3.355      6.119
REMARK INTER + INTRA:          -8.155
REMARK INTER:                  -6.697
REMARK INTRA:                  -1.458
REMARK UNBOUND:                -1.703
REMARK SMILES CC[C@@H](C=C[C@@H](C)[C@H]1CC[C@H]2[C@H]3CC=C4C[C@@H](O)CC[C@]4(C)[C@@H]3CC[C@@]12C)C(C)C
REMARK SMILES IDX 6 1 7 2 5 3 4 4 3 5 2 6 1 7 28 8 29 9 30 10 8 11 9 12 26 13
REMARK SMILES IDX 10 14 11 15 25 16 27 17 12 18 24 19 23 20 13 21 21 22 14 23
REMARK SMILES IDX 15 24 20 25 22 26 16 27 19 28 17 29 18 30
REMARK H PARENT 18 31
REMARK Flexibility Score: inf
ROOT
ATOM      1  C   UNL     1      -9.294  21.678  -9.472  1.00  0.00     0.012 C 
ATOM      2  C   UNL     1     -10.631  21.411 -10.180  1.00  0.00     0.012 C 
ENDROOT
BRANCH   1   3
ATOM      3  C   UNL     1      -9.544  21.854  -7.985  1.00  0.00    -0.028 C 
ATOM      4  C   UNL     1      -8.693  21.394  -7.051  1.00  0.00    -0.027 C 
BRANCH   4   5
ATOM      5  C   UNL     1      -8.929  21.608  -5.571  1.00  0.00     0.014 C 
BRANCH   5   6
ATOM      6  C   UNL     1     -10.256  22.392  -5.410  1.00  0.00     0.004 C 
ATOM      7  C   UNL     1     -10.726  22.540  -3.963  1.00  0.00     0.004 C 
ENDBRANCH   5   6
BRANCH   5   8
ATOM      8  C   UNL     1      -7.655  22.263  -4.937  1.00  0.00    -0.011 C 
ATOM      9  C   UNL     1      -7.387  23.682  -5.465  1.00  0.00     0.008 C 
ATOM     10  C   UNL     1      -6.389  21.397  -5.039  1.00  0.00     0.008 C 
ENDBRANCH   5   8
ENDBRANCH   4   5
ENDBRANCH   1   3
BRANCH   1  11
ATOM     11  C   UNL     1      -8.510  22.903 -10.055  1.00  0.00     0.002 C 
ATOM     12  C   UNL     1      -8.843  24.203  -9.296  1.00  0.00     0.005 C 
ATOM     13  C   UNL     1      -6.949  22.838 -10.080  1.00  0.00    -0.026 C 
ATOM     14  C   UNL     1      -7.584  25.065  -9.296  1.00  0.00     0.005 C 
ATOM     15  C   UNL     1      -6.562  24.333 -10.174  1.00  0.00    -0.001 C 
ATOM     16  C   UNL     1      -6.379  22.221  -8.767  1.00  0.00     0.007 C 
ATOM     17  C   UNL     1      -6.431  22.079 -11.330  1.00  0.00     0.012 C 
ATOM     18  C   UNL     1      -5.063  24.651  -9.866  1.00  0.00     0.000 C 
ATOM     19  C   UNL     1      -4.877  22.457  -8.604  1.00  0.00     0.005 C 
ATOM     20  C   UNL     1      -4.530  23.966  -8.587  1.00  0.00     0.003 C 
ATOM     21  C   UNL     1      -4.832  26.165  -9.760  1.00  0.00     0.031 C 
ATOM     22  C   UNL     1      -2.986  24.261  -8.343  1.00  0.00    -0.008 C 
ATOM     23  C   UNL     1      -3.388  26.474  -9.530  1.00  0.00    -0.027 C 
ATOM     24  C   UNL     1      -2.563  25.660  -8.838  1.00  0.00    -0.065 C 
ATOM     25  C   UNL     1      -2.076  23.226  -9.086  1.00  0.00     0.014 C 
ATOM     26  C   UNL     1      -2.730  24.177  -6.816  1.00  0.00     0.016 C 
ATOM     27  C   UNL     1      -1.094  26.022  -8.764  1.00  0.00     0.063 C 
ATOM     28  C   UNL     1      -0.571  23.557  -9.044  1.00  0.00     0.033 C 
ATOM     29  C   UNL     1      -0.281  24.981  -9.547  1.00  0.00     0.118 C 
BRANCH  29  30
ATOM     30  O   UNL     1       1.093  25.266  -9.474  1.00  0.00    -0.393 OA
ATOM     31  H   UNL     1       1.451  24.820  -8.661  1.00  0.00     0.210 HD
ENDBRANCH  29  30
ENDBRANCH   1  11
TORSDOF 6
ENDMDL
MODEL 5
REMARK VINA RESULT:    -4.759      3.551      7.431
REMARK INTER + INTRA:          -7.992
REMARK INTER:                  -6.575
REMARK INTRA:                  -1.417
REMARK UNBOUND:                -1.703
REMARK SMILES CC[C@@H](C=C[C@@H](C)[C@H]1CC[C@H]2[C@H]3CC=C4C[C@@H](O)CC[C@]4(C)[C@@H]3CC[C@@]12C)C(C)C
REMARK SMILES IDX 6 1 7 2 5 3 4 4 3 5 2 6 1 7 28 8 29 9 30 10 8 11 9 12 26 13
REMARK SMILES IDX 10 14 11 15 25 16 27 17 12 18 24 19 23 20 13 21 21 22 14 23
REMARK SMILES IDX 15 24 20 25 22 26 16 27 19 28 17 29 18 30
REMARK H PARENT 18 31
REMARK Flexibility Score: inf
ROOT
ATOM      1  C   UNL     1      -9.163  21.895  -9.202  1.00  0.00     0.012 C 
ATOM      2  C   UNL     1     -10.139  21.618 -10.357  1.00  0.00     0.012 C 
ENDROOT
BRANCH   1   3
ATOM      3  C   UNL     1      -9.678  23.066  -8.384  1.00  0.00    -0.028 C 
ATOM      4  C   UNL     1      -9.605  23.095  -7.042  1.00  0.00    -0.027 C 
BRANCH   4   5
ATOM      5  C   UNL     1     -10.084  24.284  -6.235  1.00  0.00     0.014 C 
BRANCH   5   6
ATOM      6  C   UNL     1      -9.213  25.505  -6.626  1.00  0.00     0.004 C 
ATOM      7  C   UNL     1      -7.724  25.335  -6.328  1.00  0.00     0.004 C 
ENDBRANCH   5   6
BRANCH   5   8
ATOM      8  C   UNL     1     -10.099  23.901  -4.716  1.00  0.00    -0.011 C 
ATOM      9  C   UNL     1     -10.292  22.394  -4.482  1.00  0.00     0.008 C 
ATOM     10  C   UNL     1     -11.096  24.714  -3.875  1.00  0.00     0.008 C 
ENDBRANCH   5   8
ENDBRANCH   4   5
ENDBRANCH   1   3
BRANCH   1  11
ATOM     11  C   UNL     1      -7.691  22.149  -9.674  1.00  0.00     0.002 C 
ATOM     12  C   UNL     1      -7.390  23.654  -9.809  1.00  0.00     0.005 C 
ATOM     13  C   UNL     1      -6.526  21.580  -8.801  1.00  0.00    -0.026 C 
ATOM     14  C   UNL     1      -5.921  23.858  -9.446  1.00  0.00     0.005 C 
ATOM     15  C   UNL     1      -5.331  22.458  -9.239  1.00  0.00    -0.001 C 
ATOM     16  C   UNL     1      -6.802  21.774  -7.280  1.00  0.00     0.007 C 
ATOM     17  C   UNL     1      -6.238  20.092  -9.135  1.00  0.00     0.012 C 
ATOM     18  C   UNL     1      -4.079  22.389  -8.305  1.00  0.00     0.000 C 
ATOM     19  C   UNL     1      -5.557  21.554  -6.419  1.00  0.00     0.005 C 
ATOM     20  C   UNL     1      -4.414  22.526  -6.803  1.00  0.00     0.003 C 
ATOM     21  C   UNL     1      -3.046  23.457  -8.690  1.00  0.00     0.031 C 
ATOM     22  C   UNL     1      -3.124  22.386  -5.882  1.00  0.00    -0.008 C 
ATOM     23  C   UNL     1      -1.821  23.351  -7.841  1.00  0.00    -0.027 C 
ATOM     24  C   UNL     1      -1.850  22.936  -6.557  1.00  0.00    -0.065 C 
ATOM     25  C   UNL     1      -2.834  20.892  -5.519  1.00  0.00     0.014 C 
ATOM     26  C   UNL     1      -3.386  23.195  -4.585  1.00  0.00     0.016 C 
ATOM     27  C   UNL     1      -0.533  22.762  -5.829  1.00  0.00     0.063 C 
ATOM     28  C   UNL     1      -1.498  20.664  -4.782  1.00  0.00     0.033 C 
ATOM     29  C   UNL     1      -0.309  21.270  -5.547  1.00  0.00     0.118 C 
BRANCH  29  30
ATOM     30  O   UNL     1       0.891  21.071  -4.842  1.00  0.00    -0.393 OA
ATOM     31  H   UNL     1       1.428  21.903  -4.921  1.00  0.00     0.210 HD
ENDBRANCH  29  30
ENDBRANCH   1  11
TORSDOF 6
ENDMDL
MODEL 6
REMARK VINA RESULT:    -4.441      3.329      7.774
REMARK INTER + INTRA:          -7.572
REMARK INTER:                  -6.035
REMARK INTRA:                  -1.537
REMARK UNBOUND:                -1.703
REMARK SMILES CC[C@@H](C=C[C@@H](C)[C@H]1CC[C@H]2[C@H]3CC=C4C[C@@H](O)CC[C@]4(C)[C@@H]3CC[C@@]12C)C(C)C
REMARK SMILES IDX 6 1 7 2 5 3 4 4 3 5 2 6 1 7 28 8 29 9 30 10 8 11 9 12 26 13
REMARK SMILES IDX 10 14 11 15 25 16 27 17 12 18 24 19 23 20 13 21 21 22 14 23
REMARK SMILES IDX 15 24 20 25 22 26 16 27 19 28 17 29 18 30
REMARK H PARENT 18 31
REMARK Flexibility Score: inf
ROOT
ATOM      1  C   UNL     1      -8.513  22.630 -10.044  1.00  0.00     0.012 C 
ATOM      2  C   UNL     1      -9.310  22.366 -11.332  1.00  0.00     0.012 C 
ENDROOT
BRANCH   1   3
ATOM      3  C   UNL     1      -9.019  23.907  -9.399  1.00  0.00    -0.028 C 
ATOM      4  C   UNL     1      -9.641  23.916  -8.207  1.00  0.00    -0.027 C 
BRANCH   4   5
ATOM      5  C   UNL     1     -10.107  25.198  -7.550  1.00  0.00     0.014 C 
BRANCH   5   6
ATOM      6  C   UNL     1      -9.854  26.360  -8.545  1.00  0.00     0.004 C 
ATOM      7  C   UNL     1     -10.455  27.697  -8.112  1.00  0.00     0.004 C 
ENDBRANCH   5   6
BRANCH   5   8
ATOM      8  C   UNL     1      -9.431  25.329  -6.143  1.00  0.00    -0.011 C 
ATOM      9  C   UNL     1      -7.903  25.476  -6.226  1.00  0.00     0.008 C 
ATOM     10  C   UNL     1      -9.818  24.217  -5.156  1.00  0.00     0.008 C 
ENDBRANCH   5   8
ENDBRANCH   4   5
ENDBRANCH   1   3
BRANCH   1  11
ATOM     11  C   UNL     1      -6.964  22.692 -10.269  1.00  0.00     0.002 C 
ATOM     12  C   UNL     1      -6.461  24.147 -10.351  1.00  0.00     0.005 C 
ATOM     13  C   UNL     1      -6.037  22.002  -9.217  1.00  0.00    -0.026 C 
ATOM     14  C   UNL     1      -5.058  24.177  -9.753  1.00  0.00     0.005 C 
ATOM     15  C   UNL     1      -4.687  22.720  -9.454  1.00  0.00    -0.001 C 
ATOM     16  C   UNL     1      -6.529  22.258  -7.762  1.00  0.00     0.007 C 
ATOM     17  C   UNL     1      -5.884  20.485  -9.502  1.00  0.00     0.012 C 
ATOM     18  C   UNL     1      -3.622  22.516  -8.328  1.00  0.00     0.000 C 
ATOM     19  C   UNL     1      -5.478  21.905  -6.709  1.00  0.00     0.005 C 
ATOM     20  C   UNL     1      -4.176  22.722  -6.900  1.00  0.00     0.003 C 
ATOM     21  C   UNL     1      -2.415  23.443  -8.537  1.00  0.00     0.031 C 
ATOM     22  C   UNL     1      -3.081  22.444  -5.781  1.00  0.00    -0.008 C 
ATOM     23  C   UNL     1      -1.367  23.204  -7.499  1.00  0.00    -0.027 C 
ATOM     24  C   UNL     1      -1.656  22.821  -6.238  1.00  0.00    -0.065 C 
ATOM     25  C   UNL     1      -3.040  20.932  -5.376  1.00  0.00     0.014 C 
ATOM     26  C   UNL     1      -3.448  23.304  -4.543  1.00  0.00     0.016 C 
ATOM     27  C   UNL     1      -0.506  22.501  -5.304  1.00  0.00     0.063 C 
ATOM     28  C   UNL     1      -1.880  20.558  -4.431  1.00  0.00     0.033 C 
ATOM     29  C   UNL     1      -0.517  20.998  -4.991  1.00  0.00     0.118 C 
BRANCH  29  30
ATOM     30  O   UNL     1       0.518  20.669  -4.099  1.00  0.00    -0.393 OA
ATOM     31  H   UNL     1       1.262  21.310  -4.250  1.00  0.00     0.210 HD
ENDBRANCH  29  30
ENDBRANCH   1  11
TORSDOF 6
ENDMDL
MODEL 7
REMARK VINA RESULT:    -4.275      3.510      6.571
REMARK INTER + INTRA:          -7.352
REMARK INTER:                  -6.471
REMARK INTRA:                  -0.881
REMARK UNBOUND:                -1.703
REMARK SMILES CC[C@@H](C=C[C@@H](C)[C@H]1CC[C@H]2[C@H]3CC=C4C[C@@H](O)CC[C@]4(C)[C@@H]3CC[C@@]12C)C(C)C
REMARK SMILES IDX 6 1 7 2 5 3 4 4 3 5 2 6 1 7 28 8 29 9 30 10 8 11 9 12 26 13
REMARK SMILES IDX 10 14 11 15 25 16 27 17 12 18 24 19 23 20 13 21 21 22 14 23
REMARK SMILES IDX 15 24 20 25 22 26 16 27 19 28 17 29 18 30
REMARK H PARENT 18 31
REMARK Flexibility Score: inf
ROOT
ATOM      1  C   UNL     1     -10.143  25.584  -8.655  1.00  0.00     0.012 C 
ATOM      2  C   UNL     1      -9.623  26.267  -7.380  1.00  0.00     0.012 C 
ENDROOT
BRANCH   1   3
ATOM      3  C   UNL     1     -10.100  24.079  -8.467  1.00  0.00    -0.028 C 
ATOM      4  C   UNL     1      -9.503  23.501  -7.410  1.00  0.00    -0.027 C 
BRANCH   4   5
ATOM      5  C   UNL     1      -9.499  22.000  -7.208  1.00  0.00     0.014 C 
BRANCH   5   6
ATOM      6  C   UNL     1      -9.950  21.717  -5.751  1.00  0.00     0.004 C 
ATOM      7  C   UNL     1     -10.126  22.970  -4.895  1.00  0.00     0.004 C 
ENDBRANCH   5   6
BRANCH   5   8
ATOM      8  C   UNL     1      -8.101  21.429  -7.624  1.00  0.00    -0.011 C 
ATOM      9  C   UNL     1      -6.952  22.419  -7.375  1.00  0.00     0.008 C 
ATOM     10  C   UNL     1      -8.050  20.888  -9.062  1.00  0.00     0.008 C 
ENDBRANCH   5   8
ENDBRANCH   4   5
ENDBRANCH   1   3
BRANCH   1  11
ATOM     11  C   UNL     1      -9.371  26.008  -9.951  1.00  0.00     0.002 C 
ATOM     12  C   UNL     1      -9.535  27.513 -10.242  1.00  0.00     0.005 C 
ATOM     13  C   UNL     1      -7.831  25.750 -10.011  1.00  0.00    -0.026 C 
ATOM     14  C   UNL     1      -8.239  27.995 -10.888  1.00  0.00     0.005 C 
ATOM     15  C   UNL     1      -7.376  26.746 -11.104  1.00  0.00    -0.001 C 
ATOM     16  C   UNL     1      -7.139  26.090  -8.658  1.00  0.00     0.007 C 
ATOM     17  C   UNL     1      -7.515  24.298 -10.457  1.00  0.00     0.012 C 
ATOM     18  C   UNL     1      -5.835  26.998 -11.171  1.00  0.00     0.000 C 
ATOM     19  C   UNL     1      -5.617  26.185  -8.777  1.00  0.00     0.005 C 
ATOM     20  C   UNL     1      -5.187  27.270  -9.795  1.00  0.00     0.003 C 
ATOM     21  C   UNL     1      -5.509  28.161 -12.120  1.00  0.00     0.031 C 
ATOM     22  C   UNL     1      -3.611  27.458  -9.897  1.00  0.00    -0.008 C 
ATOM     23  C   UNL     1      -4.033  28.362 -12.236  1.00  0.00    -0.027 C 
ATOM     24  C   UNL     1      -3.175  28.114 -11.223  1.00  0.00    -0.065 C 
ATOM     25  C   UNL     1      -2.859  26.088  -9.803  1.00  0.00     0.014 C 
ATOM     26  C   UNL     1      -3.173  28.374  -8.724  1.00  0.00     0.016 C 
ATOM     27  C   UNL     1      -1.690  28.248 -11.492  1.00  0.00     0.063 C 
ATOM     28  C   UNL     1      -1.344  26.174 -10.076  1.00  0.00     0.033 C 
ATOM     29  C   UNL     1      -1.040  26.860 -11.419  1.00  0.00     0.118 C 
BRANCH  29  30
ATOM     30  O   UNL     1       0.347  26.948 -11.631  1.00  0.00    -0.393 OA
ATOM     31  H   UNL     1       0.593  26.266 -12.309  1.00  0.00     0.210 HD
ENDBRANCH  29  30
ENDBRANCH   1  11
TORSDOF 6
ENDMDL
MODEL 8
REMARK VINA RESULT:    -4.174      3.784      6.059
REMARK INTER + INTRA:          -7.219
REMARK INTER:                  -5.621
REMARK INTRA:                  -1.597
REMARK UNBOUND:                -1.703
REMARK SMILES CC[C@@H](C=C[C@@H](C)[C@H]1CC[C@H]2[C@H]3CC=C4C[C@@H](O)CC[C@]4(C)[C@@H]3CC[C@@]12C)C(C)C
REMARK SMILES IDX 6 1 7 2 5 3 4 4 3 5 2 6 1 7 28 8 29 9 30 10 8 11 9 12 26 13
REMARK SMILES IDX 10 14 11 15 25 16 27 17 12 18 24 19 23 20 13 21 21 22 14 23
REMARK SMILES IDX 15 24 20 25 22 26 16 27 19 28 17 29 18 30
REMARK H PARENT 18 31
REMARK Flexibility Score: inf
ROOT
ATOM      1  C   UNL     1      -1.590  26.258  -7.110  1.00  0.00     0.012 C 
ATOM      2  C   UNL     1      -0.991  27.193  -6.047  1.00  0.00     0.012 C 
ENDROOT
BRANCH   1   3
ATOM      3  C   UNL     1      -0.633  26.165  -8.286  1.00  0.00    -0.028 C 
ATOM      4  C   UNL     1      -0.331  24.996  -8.877  1.00  0.00    -0.027 C 
BRANCH   4   5
ATOM      5  C   UNL     1       0.592  24.914 -10.075  1.00  0.00     0.014 C 
BRANCH   5   6
ATOM      6  C   UNL     1       0.660  26.323 -10.719  1.00  0.00     0.004 C 
ATOM      7  C   UNL     1      -0.115  26.450 -12.030  1.00  0.00     0.004 C 
ENDBRANCH   5   6
BRANCH   5   8
ATOM      8  C   UNL     1       0.122  23.746 -11.007  1.00  0.00    -0.011 C 
ATOM      9  C   UNL     1      -1.287  23.238 -10.664  1.00  0.00     0.008 C 
ATOM     10  C   UNL     1       1.116  22.577 -11.095  1.00  0.00     0.008 C 
ENDBRANCH   5   8
ENDBRANCH   4   5
ENDBRANCH   1   3
BRANCH   1  11
ATOM     11  C   UNL     1      -3.020  26.686  -7.586  1.00  0.00     0.002 C 
ATOM     12  C   UNL     1      -2.995  27.248  -9.021  1.00  0.00     0.005 C 
ATOM     13  C   UNL     1      -4.150  25.607  -7.594  1.00  0.00    -0.026 C 
ATOM     14  C   UNL     1      -4.318  26.867  -9.681  1.00  0.00     0.005 C 
ATOM     15  C   UNL     1      -5.169  26.209  -8.589  1.00  0.00    -0.001 C 
ATOM     16  C   UNL     1      -3.631  24.237  -8.125  1.00  0.00     0.007 C 
ATOM     17  C   UNL     1      -4.804  25.457  -6.195  1.00  0.00     0.012 C 
ATOM     18  C   UNL     1      -6.264  25.217  -9.099  1.00  0.00     0.000 C 
ATOM     19  C   UNL     1      -4.763  23.269  -8.473  1.00  0.00     0.005 C 
ATOM     20  C   UNL     1      -5.704  23.851  -9.556  1.00  0.00     0.003 C 
ATOM     21  C   UNL     1      -7.078  25.836 -10.244  1.00  0.00     0.031 C 
ATOM     22  C   UNL     1      -6.853  22.848 -10.007  1.00  0.00    -0.008 C 
ATOM     23  C   UNL     1      -8.167  24.915 -10.689  1.00  0.00    -0.027 C 
ATOM     24  C   UNL     1      -8.054  23.571 -10.651  1.00  0.00    -0.065 C 
ATOM     25  C   UNL     1      -7.415  22.032  -8.795  1.00  0.00     0.014 C 
ATOM     26  C   UNL     1      -6.243  21.875 -11.050  1.00  0.00     0.016 C 
ATOM     27  C   UNL     1      -9.265  22.739 -11.024  1.00  0.00     0.063 C 
ATOM     28  C   UNL     1      -8.653  21.174  -9.124  1.00  0.00     0.033 C 
ATOM     29  C   UNL     1      -9.773  22.006  -9.774  1.00  0.00     0.118 C 
BRANCH  29  30
ATOM     30  O   UNL     1     -10.877  21.196 -10.088  1.00  0.00    -0.393 OA
ATOM     31  H   UNL     1     -11.671  21.575  -9.626  1.00  0.00     0.210 HD
ENDBRANCH  29  30
ENDBRANCH   1  11
TORSDOF 6
ENDMDL
MODEL 9
REMARK VINA RESULT:    -4.170      3.641      6.553
REMARK INTER + INTRA:          -7.213
REMARK INTER:                  -6.487
REMARK INTRA:                  -0.726
REMARK UNBOUND:                -1.703
REMARK SMILES CC[C@@H](C=C[C@@H](C)[C@H]1CC[C@H]2[C@H]3CC=C4C[C@@H](O)CC[C@]4(C)[C@@H]3CC[C@@]12C)C(C)C
REMARK SMILES IDX 6 1 7 2 5 3 4 4 3 5 2 6 1 7 28 8 29 9 30 10 8 11 9 12 26 13
REMARK SMILES IDX 10 14 11 15 25 16 27 17 12 18 24 19 23 20 13 21 21 22 14 23
REMARK SMILES IDX 15 24 20 25 22 26 16 27 19 28 17 29 18 30
REMARK H PARENT 18 31
REMARK Flexibility Score: inf
ROOT
ATOM      1  C   UNL     1      -4.292  28.993 -11.341  1.00  0.00     0.012 C 
ATOM      2  C   UNL     1      -4.447  28.516 -12.794  1.00  0.00     0.012 C 
ENDROOT
BRANCH   1   3
ATOM      3  C   UNL     1      -3.146  28.240 -10.690  1.00  0.00    -0.028 C 
ATOM      4  C   UNL     1      -2.141  27.701 -11.401  1.00  0.00    -0.027 C 
BRANCH   4   5
ATOM      5  C   UNL     1      -0.980  26.986 -10.743  1.00  0.00     0.014 C 
BRANCH   5   6
ATOM      6  C   UNL     1      -0.346  26.041 -11.795  1.00  0.00     0.004 C 
ATOM      7  C   UNL     1       0.383  26.763 -12.928  1.00  0.00     0.004 C 
ENDBRANCH   5   6
BRANCH   5   8
ATOM      8  C   UNL     1      -1.474  26.316  -9.417  1.00  0.00    -0.011 C 
ATOM      9  C   UNL     1      -0.446  26.412  -8.278  1.00  0.00     0.008 C 
ATOM     10  C   UNL     1      -1.960  24.868  -9.590  1.00  0.00     0.008 C 
ENDBRANCH   5   8
ENDBRANCH   4   5
ENDBRANCH   1   3
BRANCH   1  11
ATOM     11  C   UNL     1      -5.604  28.857 -10.494  1.00  0.00     0.002 C 
ATOM     12  C   UNL     1      -6.859  29.120 -11.348  1.00  0.00     0.005 C 
ATOM     13  C   UNL     1      -5.881  27.497  -9.776  1.00  0.00    -0.026 C 
ATOM     14  C   UNL     1      -7.973  28.230 -10.805  1.00  0.00     0.005 C 
ATOM     15  C   UNL     1      -7.410  27.554  -9.549  1.00  0.00    -0.001 C 
ATOM     16  C   UNL     1      -5.522  26.284 -10.684  1.00  0.00     0.007 C 
ATOM     17  C   UNL     1      -5.148  27.415  -8.411  1.00  0.00     0.012 C 
ATOM     18  C   UNL     1      -8.075  26.193  -9.163  1.00  0.00     0.000 C 
ATOM     19  C   UNL     1      -6.094  24.964 -10.166  1.00  0.00     0.005 C 
ATOM     20  C   UNL     1      -7.638  25.010 -10.057  1.00  0.00     0.003 C 
ATOM     21  C   UNL     1      -9.606  26.303  -9.186  1.00  0.00     0.031 C 
ATOM     22  C   UNL     1      -8.286  23.633  -9.594  1.00  0.00    -0.008 C 
ATOM     23  C   UNL     1     -10.244  25.022  -8.755  1.00  0.00    -0.027 C 
ATOM     24  C   UNL     1      -9.695  23.812  -8.991  1.00  0.00    -0.065 C 
ATOM     25  C   UNL     1      -7.415  22.924  -8.503  1.00  0.00     0.014 C 
ATOM     26  C   UNL     1      -8.394  22.723 -10.846  1.00  0.00     0.016 C 
ATOM     27  C   UNL     1     -10.376  22.590  -8.410  1.00  0.00     0.063 C 
ATOM     28  C   UNL     1      -8.071  21.677  -7.877  1.00  0.00     0.033 C 
ATOM     29  C   UNL     1      -9.475  21.981  -7.326  1.00  0.00     0.118 C 
BRANCH  29  30
ATOM     30  O   UNL     1     -10.060  20.823  -6.786  1.00  0.00    -0.393 OA
ATOM     31  H   UNL     1      -9.819  20.785  -5.823  1.00  0.00     0.210 HD
ENDBRANCH  29  30
ENDBRANCH   1  11
TORSDOF 6
ENDMDL
