MODEL 1
REMARK VINA RESULT:    -5.228      0.000      0.000
REMARK INTER + INTRA:          -5.927
REMARK INTER:                  -5.839
REMARK INTRA:                  -0.088
REMARK UNBOUND:                -0.088
REMARK SMILES CCc1ccc(O)cc1O
REMARK SMILES IDX 3 1 9 2 8 3 6 4 5 5 4 6 2 7 1 8 10 9 7 11
REMARK H PARENT 10 10 7 12
REMARK Flexibility Score: inf
ROOT
ATOM      1  C   UNL     1      15.802  43.416   5.339  1.00  0.00    -0.006 A 
ATOM      2  C   UNL     1      15.367  42.652   6.439  1.00  0.00     0.122 A 
ATOM      3  C   UNL     1      16.189  42.524   7.570  1.00  0.00     0.092 A 
ATOM      4  C   UNL     1      17.442  43.142   7.607  1.00  0.00     0.119 A 
ATOM      5  C   UNL     1      17.882  43.890   6.508  1.00  0.00     0.047 A 
ATOM      6  C   UNL     1      17.069  44.023   5.379  1.00  0.00     0.011 A 
ENDROOT
BRANCH   1   7
ATOM      7  C   UNL     1      14.953  43.545   4.099  1.00  0.00     0.036 C 
ATOM      8  C   UNL     1      14.897  44.995   3.631  1.00  0.00     0.009 C 
ENDBRANCH   1   7
BRANCH   2   9
ATOM      9  O   UNL     1      14.124  42.020   6.407  1.00  0.00    -0.508 OA
ATOM     10  H   UNL     1      13.839  41.447   5.620  1.00  0.00     0.293 HD
ENDBRANCH   2   9
BRANCH   4  11
ATOM     11  O   UNL     1      18.244  43.003   8.737  1.00  0.00    -0.508 OA
ATOM     12  H   UNL     1      18.032  42.320   9.456  1.00  0.00     0.293 HD
ENDBRANCH   4  11
TORSDOF 3
ENDMDL
MODEL 2
REMARK VINA RESULT:    -5.180      2.151      2.440
REMARK INTER + INTRA:          -5.874
REMARK INTER:                  -5.766
REMARK INTRA:                  -0.108
REMARK UNBOUND:                -0.088
REMARK SMILES CCc1ccc(O)cc1O
REMARK SMILES IDX 3 1 9 2 8 3 6 4 5 5 4 6 2 7 1 8 10 9 7 11
REMARK H PARENT 10 10 7 12
REMARK Flexibility Score: inf
ROOT
ATOM      1  C   UNL     1      15.944  44.073   5.815  1.00  0.00    -0.006 A 
ATOM      2  C   UNL     1      15.446  45.088   6.656  1.00  0.00     0.122 A 
ATOM      3  C   UNL     1      15.288  44.844   8.029  1.00  0.00     0.092 A 
ATOM      4  C   UNL     1      15.613  43.595   8.566  1.00  0.00     0.119 A 
ATOM      5  C   UNL     1      16.095  42.581   7.730  1.00  0.00     0.047 A 
ATOM      6  C   UNL     1      16.255  42.817   6.362  1.00  0.00     0.011 A 
ENDROOT
BRANCH   1   7
ATOM      7  C   UNL     1      16.094  44.299   4.331  1.00  0.00     0.036 C 
ATOM      8  C   UNL     1      14.896  43.735   3.575  1.00  0.00     0.009 C 
ENDBRANCH   1   7
BRANCH   2   9
ATOM      9  O   UNL     1      15.105  46.334   6.127  1.00  0.00    -0.508 OA
ATOM     10  H   UNL     1      15.704  46.810   5.462  1.00  0.00     0.293 HD
ENDBRANCH   2   9
BRANCH   4  11
ATOM     11  O   UNL     1      15.450  43.371   9.932  1.00  0.00    -0.508 OA
ATOM     12  H   UNL     1      16.125  43.709  10.608  1.00  0.00     0.293 HD
ENDBRANCH   4  11
TORSDOF 3
ENDMDL
MODEL 3
REMARK VINA RESULT:    -5.172      1.808      2.152
REMARK INTER + INTRA:          -5.865
REMARK INTER:                  -5.761
REMARK INTRA:                  -0.104
REMARK UNBOUND:                -0.088
REMARK SMILES CCc1ccc(O)cc1O
REMARK SMILES IDX 3 1 9 2 8 3 6 4 5 5 4 6 2 7 1 8 10 9 7 11
REMARK H PARENT 10 10 7 12
REMARK Flexibility Score: inf
ROOT
ATOM      1  C   UNL     1      15.321  43.849   6.126  1.00  0.00    -0.006 A 
ATOM      2  C   UNL     1      15.770  45.040   6.730  1.00  0.00     0.122 A 
ATOM      3  C   UNL     1      16.726  44.986   7.755  1.00  0.00     0.092 A 
ATOM      4  C   UNL     1      17.230  43.756   8.189  1.00  0.00     0.119 A 
ATOM      5  C   UNL     1      16.774  42.570   7.599  1.00  0.00     0.047 A 
ATOM      6  C   UNL     1      15.822  42.616   6.577  1.00  0.00     0.011 A 
ENDROOT
BRANCH   1   7
ATOM      7  C   UNL     1      14.271  43.876   5.043  1.00  0.00     0.036 C 
ATOM      8  C   UNL     1      14.914  43.785   3.664  1.00  0.00     0.009 C 
ENDBRANCH   1   7
BRANCH   2   9
ATOM      9  O   UNL     1      15.264  46.272   6.314  1.00  0.00    -0.508 OA
ATOM     10  H   UNL     1      15.226  46.528   5.334  1.00  0.00     0.293 HD
ENDBRANCH   2   9
BRANCH   4  11
ATOM     11  O   UNL     1      18.179  43.723   9.208  1.00  0.00    -0.508 OA
ATOM     12  H   UNL     1      17.987  44.114  10.123  1.00  0.00     0.293 HD
ENDBRANCH   4  11
TORSDOF 3
ENDMDL
MODEL 4
REMARK VINA RESULT:    -5.020      1.855      2.148
REMARK INTER + INTRA:          -5.696
REMARK INTER:                  -5.611
REMARK INTRA:                  -0.085
REMARK UNBOUND:                -0.088
REMARK SMILES CCc1ccc(O)cc1O
REMARK SMILES IDX 3 1 9 2 8 3 6 4 5 5 4 6 2 7 1 8 10 9 7 11
REMARK H PARENT 10 10 7 12
REMARK Flexibility Score: inf
ROOT
ATOM      1  C   UNL     1      15.633  44.464   4.921  1.00  0.00    -0.006 A 
ATOM      2  C   UNL     1      16.776  43.647   5.026  1.00  0.00     0.122 A 
ATOM      3  C   UNL     1      17.542  43.663   6.202  1.00  0.00     0.092 A 
ATOM      4  C   UNL     1      17.184  44.494   7.267  1.00  0.00     0.119 A 
ATOM      5  C   UNL     1      16.056  45.318   7.159  1.00  0.00     0.047 A 
ATOM      6  C   UNL     1      15.288  45.306   5.992  1.00  0.00     0.011 A 
ENDROOT
BRANCH   1   7
ATOM      7  C   UNL     1      14.810  44.489   3.657  1.00  0.00     0.036 C 
ATOM      8  C   UNL     1      13.351  44.804   3.969  1.00  0.00     0.009 C 
ENDBRANCH   1   7
BRANCH   2   9
ATOM      9  O   UNL     1      17.151  42.824   3.963  1.00  0.00    -0.508 OA
ATOM     10  H   UNL     1      17.653  43.188   3.161  1.00  0.00     0.293 HD
ENDBRANCH   2   9
BRANCH   4  11
ATOM     11  O   UNL     1      17.956  44.497   8.426  1.00  0.00    -0.508 OA
ATOM     12  H   UNL     1      18.966  44.572   8.389  1.00  0.00     0.293 HD
ENDBRANCH   4  11
TORSDOF 3
ENDMDL
MODEL 5
REMARK VINA RESULT:    -4.947      1.532      1.624
REMARK INTER + INTRA:          -5.614
REMARK INTER:                  -5.510
REMARK INTRA:                  -0.104
REMARK UNBOUND:                -0.088
REMARK SMILES CCc1ccc(O)cc1O
REMARK SMILES IDX 3 1 9 2 8 3 6 4 5 5 4 6 2 7 1 8 10 9 7 11
REMARK H PARENT 10 10 7 12
REMARK Flexibility Score: inf
ROOT
ATOM      1  C   UNL     1      15.860  44.061   5.822  1.00  0.00    -0.006 A 
ATOM      2  C   UNL     1      14.977  43.125   6.396  1.00  0.00     0.122 A 
ATOM      3  C   UNL     1      14.893  43.009   7.792  1.00  0.00     0.092 A 
ATOM      4  C   UNL     1      15.687  43.810   8.617  1.00  0.00     0.119 A 
ATOM      5  C   UNL     1      16.575  44.730   8.048  1.00  0.00     0.047 A 
ATOM      6  C   UNL     1      16.664  44.852   6.659  1.00  0.00     0.011 A 
ENDROOT
BRANCH   1   7
ATOM      7  C   UNL     1      15.993  44.184   4.324  1.00  0.00     0.036 C 
ATOM      8  C   UNL     1      15.094  45.294   3.792  1.00  0.00     0.009 C 
ENDBRANCH   1   7
BRANCH   2   9
ATOM      9  O   UNL     1      14.190  42.310   5.581  1.00  0.00    -0.508 OA
ATOM     10  H   UNL     1      14.559  41.887   4.737  1.00  0.00     0.293 HD
ENDBRANCH   2   9
BRANCH   4  11
ATOM     11  O   UNL     1      15.589  43.680  10.001  1.00  0.00    -0.508 OA
ATOM     12  H   UNL     1      15.466  42.776  10.441  1.00  0.00     0.293 HD
ENDBRANCH   4  11
TORSDOF 3
ENDMDL
MODEL 6
REMARK VINA RESULT:    -4.919      2.292      4.058
REMARK INTER + INTRA:          -5.583
REMARK INTER:                  -5.515
REMARK INTRA:                  -0.067
REMARK UNBOUND:                -0.088
REMARK SMILES CCc1ccc(O)cc1O
REMARK SMILES IDX 3 1 9 2 8 3 6 4 5 5 4 6 2 7 1 8 10 9 7 11
REMARK H PARENT 10 10 7 12
REMARK Flexibility Score: inf
ROOT
ATOM      1  C   UNL     1      15.957  42.398   8.086  1.00  0.00    -0.006 A 
ATOM      2  C   UNL     1      15.722  43.590   8.800  1.00  0.00     0.122 A 
ATOM      3  C   UNL     1      15.498  44.788   8.106  1.00  0.00     0.092 A 
ATOM      4  C   UNL     1      15.518  44.811   6.709  1.00  0.00     0.119 A 
ATOM      5  C   UNL     1      15.766  43.631   5.997  1.00  0.00     0.047 A 
ATOM      6  C   UNL     1      15.989  42.433   6.681  1.00  0.00     0.011 A 
ENDROOT
BRANCH   1   7
ATOM      7  C   UNL     1      16.231  41.102   8.806  1.00  0.00     0.036 C 
ATOM      8  C   UNL     1      14.927  40.418   9.203  1.00  0.00     0.009 C 
ENDBRANCH   1   7
BRANCH   2   9
ATOM      9  O   UNL     1      15.714  43.581  10.195  1.00  0.00    -0.508 OA
ATOM     10  H   UNL     1      16.473  43.983  10.733  1.00  0.00     0.293 HD
ENDBRANCH   2   9
BRANCH   4  11
ATOM     11  O   UNL     1      15.294  46.011   6.037  1.00  0.00    -0.508 OA
ATOM     12  H   UNL     1      14.844  46.033   5.130  1.00  0.00     0.293 HD
ENDBRANCH   4  11
TORSDOF 3
ENDMDL
MODEL 7
REMARK VINA RESULT:    -4.680      2.776      4.913
REMARK INTER + INTRA:          -5.316
REMARK INTER:                  -5.220
REMARK INTRA:                  -0.095
REMARK UNBOUND:                -0.088
REMARK SMILES CCc1ccc(O)cc1O
REMARK SMILES IDX 3 1 9 2 8 3 6 4 5 5 4 6 2 7 1 8 10 9 7 11
REMARK H PARENT 10 10 7 12
REMARK Flexibility Score: inf
ROOT
ATOM      1  C   UNL     1      14.581  44.059   5.451  1.00  0.00    -0.006 A 
ATOM      2  C   UNL     1      14.581  45.459   5.613  1.00  0.00     0.122 A 
ATOM      3  C   UNL     1      13.656  46.244   4.907  1.00  0.00     0.092 A 
ATOM      4  C   UNL     1      12.742  45.646   4.035  1.00  0.00     0.119 A 
ATOM      5  C   UNL     1      12.750  44.257   3.862  1.00  0.00     0.047 A 
ATOM      6  C   UNL     1      13.667  43.468   4.562  1.00  0.00     0.011 A 
ENDROOT
BRANCH   1   7
ATOM      7  C   UNL     1      15.584  43.195   6.174  1.00  0.00     0.036 C 
ATOM      8  C   UNL     1      16.866  43.057   5.360  1.00  0.00     0.009 C 
ENDBRANCH   1   7
BRANCH   2   9
ATOM      9  O   UNL     1      15.499  46.067   6.470  1.00  0.00    -0.508 OA
ATOM     10  H   UNL     1      16.208  45.529   6.956  1.00  0.00     0.293 HD
ENDBRANCH   2   9
BRANCH   4  11
ATOM     11  O   UNL     1      11.832  46.442   3.342  1.00  0.00    -0.508 OA
ATOM     12  H   UNL     1      12.081  47.367   3.013  1.00  0.00     0.293 HD
ENDBRANCH   4  11
TORSDOF 3
ENDMDL
MODEL 8
REMARK VINA RESULT:    -4.675      2.251      4.303
REMARK INTER + INTRA:          -5.310
REMARK INTER:                  -5.219
REMARK INTRA:                  -0.091
REMARK UNBOUND:                -0.088
REMARK SMILES CCc1ccc(O)cc1O
REMARK SMILES IDX 3 1 9 2 8 3 6 4 5 5 4 6 2 7 1 8 10 9 7 11
REMARK H PARENT 10 10 7 12
REMARK Flexibility Score: inf
ROOT
ATOM      1  C   UNL     1      16.403  44.308   5.805  1.00  0.00    -0.006 A 
ATOM      2  C   UNL     1      16.054  43.839   4.523  1.00  0.00     0.122 A 
ATOM      3  C   UNL     1      14.925  44.358   3.872  1.00  0.00     0.092 A 
ATOM      4  C   UNL     1      14.137  45.332   4.492  1.00  0.00     0.119 A 
ATOM      5  C   UNL     1      14.474  45.789   5.772  1.00  0.00     0.047 A 
ATOM      6  C   UNL     1      15.598  45.277   6.426  1.00  0.00     0.011 A 
ENDROOT
BRANCH   1   7
ATOM      7  C   UNL     1      17.594  43.745   6.540  1.00  0.00     0.036 C 
ATOM      8  C   UNL     1      17.236  43.430   7.988  1.00  0.00     0.009 C 
ENDBRANCH   1   7
BRANCH   2   9
ATOM      9  O   UNL     1      16.826  42.857   3.901  1.00  0.00    -0.508 OA
ATOM     10  H   UNL     1      16.440  42.253   3.183  1.00  0.00     0.293 HD
ENDBRANCH   2   9
BRANCH   4  11
ATOM     11  O   UNL     1      13.019  45.835   3.830  1.00  0.00    -0.508 OA
ATOM     12  H   UNL     1      12.340  45.221   3.396  1.00  0.00     0.293 HD
ENDBRANCH   4  11
TORSDOF 3
ENDMDL
MODEL 9
REMARK VINA RESULT:    -4.644      2.575      4.888
REMARK INTER + INTRA:          -5.275
REMARK INTER:                  -5.173
REMARK INTRA:                  -0.102
REMARK UNBOUND:                -0.088
REMARK SMILES CCc1ccc(O)cc1O
REMARK SMILES IDX 3 1 9 2 8 3 6 4 5 5 4 6 2 7 1 8 10 9 7 11
REMARK H PARENT 10 10 7 12
REMARK Flexibility Score: inf
ROOT
ATOM      1  C   UNL     1      14.503  43.302   5.681  1.00  0.00    -0.006 A 
ATOM      2  C   UNL     1      14.789  43.759   4.379  1.00  0.00     0.122 A 
ATOM      3  C   UNL     1      13.904  43.475   3.328  1.00  0.00     0.092 A 
ATOM      4  C   UNL     1      12.744  42.732   3.561  1.00  0.00     0.119 A 
ATOM      5  C   UNL     1      12.465  42.265   4.852  1.00  0.00     0.047 A 
ATOM      6  C   UNL     1      13.341  42.544   5.904  1.00  0.00     0.011 A 
ENDROOT
BRANCH   1   7
ATOM      7  C   UNL     1      15.452  43.567   6.823  1.00  0.00     0.036 C 
ATOM      8  C   UNL     1      15.068  44.846   7.559  1.00  0.00     0.009 C 
ENDBRANCH   1   7
BRANCH   2   9
ATOM      9  O   UNL     1      15.952  44.490   4.132  1.00  0.00    -0.508 OA
ATOM     10  H   UNL     1      16.507  44.339   3.296  1.00  0.00     0.293 HD
ENDBRANCH   2   9
BRANCH   4  11
ATOM     11  O   UNL     1      11.878  42.460   2.505  1.00  0.00    -0.508 OA
ATOM     12  H   UNL     1      11.074  43.047   2.315  1.00  0.00     0.293 HD
ENDBRANCH   4  11
TORSDOF 3
ENDMDL
