MODEL 1
REMARK VINA RESULT:    -4.792      0.000      0.000
REMARK INTER + INTRA:          -7.613
REMARK INTER:                  -7.313
REMARK INTRA:                  -0.300
REMARK UNBOUND:                -0.300
REMARK SMILES CC1=CCC[C@H](C)C(=O)C[C@@H](C(C)C)C(=O)C1
REMARK SMILES IDX 8 1 9 2 6 3 7 4 5 5 4 6 3 7 2 8 1 9 10 11 11 12 15 13 16 14
REMARK SMILES IDX 17 15 12 17 13 18 14 19
REMARK H PARENT
REMARK Flexibility Score: 70.00
ROOT
ATOM      1  C   UNL     1      -9.213  30.895  42.691  1.00  0.00     0.136 C 
ATOM      2  O   UNL     1      -8.879  29.966  43.414  1.00  0.00    -0.299 OA
ENDROOT
BRANCH   1   3
ATOM      3  C   UNL     1      -9.129  32.316  43.218  1.00  0.00     0.053 C 
ATOM      4  C   UNL     1      -9.779  32.412  44.605  1.00  0.00     0.016 C 
BRANCH   3   5
ATOM      5  C   UNL     1      -7.659  32.792  43.263  1.00  0.00     0.015 C 
BRANCH   5   6
ATOM      6  C   UNL     1      -7.181  33.293  41.886  1.00  0.00     0.028 C 
BRANCH   6   7
ATOM      7  C   UNL     1      -8.232  34.080  41.143  1.00  0.00    -0.028 C 
ATOM      8  C   UNL     1      -8.703  33.783  39.905  1.00  0.00    -0.070 CG0
ATOM      9  C   UNL     1      -9.811  34.626  39.325  1.00  0.00     0.039 C 
ATOM     10  G   UNL     1      -8.102  32.711  39.010  1.00  0.00     0.000 G0
ENDBRANCH   6   7
ENDBRANCH   5   6
ENDBRANCH   3   5
ENDBRANCH   1   3
BRANCH   1  11
ATOM     11  C   UNL     1      -9.714  30.597  41.297  1.00  0.00     0.087 C 
BRANCH  11  12
ATOM     12  C   UNL     1      -8.557  30.468  40.270  1.00  0.00     0.066 C 
BRANCH  12  13
ATOM     13  C   UNL     1      -8.787  31.368  39.065  1.00  0.00     0.140 C 
ATOM     14  O   UNL     1      -9.489  30.993  38.137  1.00  0.00    -0.299 OA
BRANCH  13  15
ATOM     15  C   UNL     1      -8.100  32.711  38.985  1.00  0.00     0.106 CG0
ATOM     16  G   UNL     1      -8.693  33.763  39.909  1.00  0.00     0.000 G0
ENDBRANCH  13  15
ENDBRANCH  12  13
BRANCH  12  17
ATOM     17  C   UNL     1      -8.262  28.992  39.846  1.00  0.00    -0.006 C 
ATOM     18  C   UNL     1      -6.891  28.521  40.359  1.00  0.00     0.008 C 
ATOM     19  C   UNL     1      -9.350  27.990  40.280  1.00  0.00     0.008 C 
ENDBRANCH  12  17
ENDBRANCH  11  12
ENDBRANCH   1  11
TORSDOF 1
ENDMDL
MODEL 2
REMARK VINA RESULT:    -4.680      1.733      4.097
REMARK INTER + INTRA:          -7.441
REMARK INTER:                  -7.435
REMARK INTRA:                  -0.006
REMARK UNBOUND:                -0.300
REMARK SMILES CC1=CCC[C@H](C)C(=O)C[C@@H](C(C)C)C(=O)C1
REMARK SMILES IDX 8 1 9 2 6 3 7 4 5 5 4 6 3 7 2 8 1 9 10 11 11 12 15 13 16 14
REMARK SMILES IDX 17 15 12 17 13 18 14 19
REMARK H PARENT
REMARK Flexibility Score: 70.00
ROOT
ATOM      1  C   UNL     1      -8.127  30.792  42.208  1.00  0.00     0.136 C 
ATOM      2  O   UNL     1      -9.092  31.037  42.918  1.00  0.00    -0.299 OA
ENDROOT
BRANCH   1   3
ATOM      3  C   UNL     1      -7.527  29.398  42.220  1.00  0.00     0.053 C 
ATOM      4  C   UNL     1      -8.219  28.527  43.278  1.00  0.00     0.016 C 
BRANCH   3   5
ATOM      5  C   UNL     1      -7.630  28.751  40.821  1.00  0.00     0.015 C 
BRANCH   5   6
ATOM      6  C   UNL     1      -8.908  29.195  40.081  1.00  0.00     0.028 C 
BRANCH   6   7
ATOM      7  C   UNL     1      -8.650  29.637  38.663  1.00  0.00    -0.028 C 
ATOM      8  C   UNL     1      -8.934  30.866  38.161  1.00  0.00    -0.070 CG0
ATOM      9  C   UNL     1      -8.547  31.179  36.737  1.00  0.00     0.039 C 
ATOM     10  G   UNL     1      -9.724  31.922  38.917  1.00  0.00     0.000 G0
ENDBRANCH   6   7
ENDBRANCH   5   6
ENDBRANCH   3   5
ENDBRANCH   1   3
BRANCH   1  11
ATOM     11  C   UNL     1      -7.549  31.894  41.349  1.00  0.00     0.087 C 
BRANCH  11  12
ATOM     12  C   UNL     1      -8.594  32.992  41.017  1.00  0.00     0.066 C 
BRANCH  12  13
ATOM     13  C   UNL     1      -8.906  33.025  39.528  1.00  0.00     0.140 C 
ATOM     14  O   UNL     1      -8.519  33.955  38.835  1.00  0.00    -0.299 OA
BRANCH  13  15
ATOM     15  C   UNL     1      -9.746  31.933  38.909  1.00  0.00     0.106 CG0
ATOM     16  G   UNL     1      -8.939  30.879  38.168  1.00  0.00     0.000 G0
ENDBRANCH  13  15
ENDBRANCH  12  13
BRANCH  12  17
ATOM     17  C   UNL     1      -8.207  34.405  41.563  1.00  0.00    -0.006 C 
ATOM     18  C   UNL     1      -9.419  35.125  42.177  1.00  0.00     0.008 C 
ATOM     19  C   UNL     1      -7.048  34.385  42.577  1.00  0.00     0.008 C 
ENDBRANCH  12  17
ENDBRANCH  11  12
ENDBRANCH   1  11
TORSDOF 1
ENDMDL
MODEL 3
REMARK VINA RESULT:    -4.591      1.824      3.862
REMARK INTER + INTRA:          -7.306
REMARK INTER:                  -7.847
REMARK INTRA:                   0.541
REMARK UNBOUND:                -0.300
REMARK SMILES CC1=CCC[C@H](C)C(=O)C[C@@H](C(C)C)C(=O)C1
REMARK SMILES IDX 8 1 9 2 6 3 7 4 5 5 4 6 3 7 2 8 1 9 10 11 11 12 15 13 16 14
REMARK SMILES IDX 17 15 12 17 13 18 14 19
REMARK H PARENT
REMARK Flexibility Score: 70.00
ROOT
ATOM      1  C   UNL     1      -9.319  31.431  43.759  1.00  0.00     0.136 C 
ATOM      2  O   UNL     1      -9.759  31.913  44.793  1.00  0.00    -0.299 OA
ENDROOT
BRANCH   1   3
ATOM      3  C   UNL     1      -8.060  30.583  43.807  1.00  0.00     0.053 C 
ATOM      4  C   UNL     1      -7.469  30.584  45.224  1.00  0.00     0.016 C 
BRANCH   3   5
ATOM      5  C   UNL     1      -8.358  29.142  43.335  1.00  0.00     0.015 C 
BRANCH   5   6
ATOM      6  C   UNL     1      -7.479  28.745  42.132  1.00  0.00     0.028 C 
BRANCH   6   7
ATOM      7  C   UNL     1      -8.216  28.788  40.817  1.00  0.00    -0.028 C 
ATOM      8  C   UNL     1      -8.273  29.859  39.986  1.00  0.00    -0.070 CG0
ATOM      9  C   UNL     1      -8.992  29.722  38.667  1.00  0.00     0.039 C 
ATOM     10  G   UNL     1      -7.746  31.238  40.351  1.00  0.00     0.000 G0
ENDBRANCH   6   7
ENDBRANCH   5   6
ENDBRANCH   3   5
ENDBRANCH   1   3
BRANCH   1  11
ATOM     11  C   UNL     1     -10.036  31.708  42.457  1.00  0.00     0.087 C 
BRANCH  11  12
ATOM     12  C   UNL     1      -9.372  32.856  41.652  1.00  0.00     0.066 C 
BRANCH  12  13
ATOM     13  C   UNL     1      -8.791  32.347  40.341  1.00  0.00     0.140 C 
ATOM     14  O   UNL     1      -9.191  32.789  39.273  1.00  0.00    -0.299 OA
BRANCH  13  15
ATOM     15  C   UNL     1      -7.756  31.247  40.351  1.00  0.00     0.106 CG0
ATOM     16  G   UNL     1      -8.304  29.880  39.971  1.00  0.00     0.000 G0
ENDBRANCH  13  15
ENDBRANCH  12  13
BRANCH  12  17
ATOM     17  C   UNL     1      -8.321  33.669  42.477  1.00  0.00    -0.006 C 
ATOM     18  C   UNL     1      -7.046  33.934  41.661  1.00  0.00     0.008 C 
ATOM     19  C   UNL     1      -8.863  34.998  43.038  1.00  0.00     0.008 C 
ENDBRANCH  12  17
ENDBRANCH  11  12
ENDBRANCH   1  11
TORSDOF 1
ENDMDL
MODEL 4
REMARK VINA RESULT:    -4.296      1.586      3.830
REMARK INTER + INTRA:          -6.856
REMARK INTER:                  -7.674
REMARK INTRA:                   0.819
REMARK UNBOUND:                -0.300
REMARK SMILES CC1=CCC[C@H](C)C(=O)C[C@@H](C(C)C)C(=O)C1
REMARK SMILES IDX 8 1 9 2 6 3 7 4 5 5 4 6 3 7 2 8 1 9 10 11 11 12 15 13 16 14
REMARK SMILES IDX 17 15 12 17 13 18 14 19
REMARK H PARENT
REMARK Flexibility Score: 70.00
ROOT
ATOM      1  C   UNL     1      -8.054  29.409  41.187  1.00  0.00     0.136 C 
ATOM      2  O   UNL     1      -8.516  28.694  42.065  1.00  0.00    -0.299 OA
ENDROOT
BRANCH   1   3
ATOM      3  C   UNL     1      -8.036  28.911  39.753  1.00  0.00     0.053 C 
ATOM      4  C   UNL     1      -9.137  27.865  39.535  1.00  0.00     0.016 C 
BRANCH   3   5
ATOM      5  C   UNL     1      -8.193  30.091  38.767  1.00  0.00     0.015 C 
BRANCH   5   6
ATOM      6  C   UNL     1      -9.509  30.859  39.005  1.00  0.00     0.028 C 
BRANCH   6   7
ATOM      7  C   UNL     1      -9.491  32.257  38.440  1.00  0.00    -0.028 C 
ATOM      8  C   UNL     1      -8.719  33.276  38.896  1.00  0.00    -0.070 CG0
ATOM      9  C   UNL     1      -8.760  34.601  38.176  1.00  0.00     0.039 C 
ATOM     10  G   UNL     1      -7.889  33.200  40.167  1.00  0.00     0.000 G0
ENDBRANCH   6   7
ENDBRANCH   5   6
ENDBRANCH   3   5
ENDBRANCH   1   3
BRANCH   1  11
ATOM     11  C   UNL     1      -7.501  30.765  41.560  1.00  0.00     0.087 C 
BRANCH  11  12
ATOM     12  C   UNL     1      -8.578  31.687  42.191  1.00  0.00     0.066 C 
BRANCH  12  13
ATOM     13  C   UNL     1      -8.686  33.005  41.437  1.00  0.00     0.140 C 
ATOM     14  O   UNL     1      -9.459  33.873  41.815  1.00  0.00    -0.299 OA
BRANCH  13  15
ATOM     15  C   UNL     1      -7.878  33.223  40.180  1.00  0.00     0.106 CG0
ATOM     16  G   UNL     1      -8.714  33.288  38.912  1.00  0.00     0.000 G0
ENDBRANCH  13  15
ENDBRANCH  12  13
BRANCH  12  17
ATOM     17  C   UNL     1      -8.385  31.910  43.727  1.00  0.00    -0.006 C 
ATOM     18  C   UNL     1      -9.710  32.278  44.414  1.00  0.00     0.008 C 
ATOM     19  C   UNL     1      -7.739  30.714  44.453  1.00  0.00     0.008 C 
ENDBRANCH  12  17
ENDBRANCH  11  12
ENDBRANCH   1  11
TORSDOF 1
ENDMDL
MODEL 5
REMARK VINA RESULT:    -4.125      1.895      4.057
REMARK INTER + INTRA:          -6.595
REMARK INTER:                  -7.406
REMARK INTRA:                   0.811
REMARK UNBOUND:                -0.300
REMARK SMILES CC1=CCC[C@H](C)C(=O)C[C@@H](C(C)C)C(=O)C1
REMARK SMILES IDX 8 1 9 2 6 3 7 4 5 5 4 6 3 7 2 8 1 9 10 11 11 12 15 13 16 14
REMARK SMILES IDX 17 15 12 17 13 18 14 19
REMARK H PARENT
REMARK Flexibility Score: 70.00
ROOT
ATOM      1  C   UNL     1      -7.940  33.432  41.483  1.00  0.00     0.136 C 
ATOM      2  O   UNL     1      -7.604  34.224  42.352  1.00  0.00    -0.299 OA
ENDROOT
BRANCH   1   3
ATOM      3  C   UNL     1      -9.124  33.761  40.592  1.00  0.00     0.053 C 
ATOM      4  C   UNL     1      -9.720  35.123  40.975  1.00  0.00     0.016 C 
BRANCH   3   5
ATOM      5  C   UNL     1      -8.707  33.741  39.104  1.00  0.00     0.015 C 
BRANCH   5   6
ATOM      6  C   UNL     1      -9.519  32.707  38.299  1.00  0.00     0.028 C 
BRANCH   6   7
ATOM      7  C   UNL     1      -8.797  31.396  38.117  1.00  0.00    -0.028 C 
ATOM      8  C   UNL     1      -8.816  30.363  38.997  1.00  0.00    -0.070 CG0
ATOM      9  C   UNL     1      -8.100  29.085  38.637  1.00  0.00     0.039 C 
ATOM     10  G   UNL     1      -9.428  30.451  40.386  1.00  0.00     0.000 G0
ENDBRANCH   6   7
ENDBRANCH   5   6
ENDBRANCH   3   5
ENDBRANCH   1   3
BRANCH   1  11
ATOM     11  C   UNL     1      -7.172  32.139  41.331  1.00  0.00     0.087 C 
BRANCH  11  12
ATOM     12  C   UNL     1      -7.697  31.027  42.278  1.00  0.00     0.066 C 
BRANCH  12  13
ATOM     13  C   UNL     1      -8.533  30.006  41.519  1.00  0.00     0.140 C 
ATOM     14  O   UNL     1      -8.451  28.816  41.789  1.00  0.00    -0.299 OA
BRANCH  13  15
ATOM     15  C   UNL     1      -9.427  30.454  40.388  1.00  0.00     0.106 CG0
ATOM     16  G   UNL     1      -8.782  30.350  39.014  1.00  0.00     0.000 G0
ENDBRANCH  13  15
ENDBRANCH  12  13
BRANCH  12  17
ATOM     17  C   UNL     1      -8.452  31.582  43.530  1.00  0.00    -0.006 C 
ATOM     18  C   UNL     1      -9.924  31.140  43.544  1.00  0.00     0.008 C 
ATOM     19  C   UNL     1      -7.787  31.212  44.871  1.00  0.00     0.008 C 
ENDBRANCH  12  17
ENDBRANCH  11  12
ENDBRANCH   1  11
TORSDOF 1
ENDMDL
MODEL 6
REMARK VINA RESULT:    -3.945      1.909      4.096
REMARK INTER + INTRA:          -6.321
REMARK INTER:                  -7.482
REMARK INTRA:                   1.161
REMARK UNBOUND:                -0.300
REMARK SMILES CC1=CCC[C@H](C)C(=O)C[C@@H](C(C)C)C(=O)C1
REMARK SMILES IDX 8 1 9 2 6 3 7 4 5 5 4 6 3 7 2 8 1 9 10 11 11 12 15 13 16 14
REMARK SMILES IDX 17 15 12 17 13 18 14 19
REMARK H PARENT
REMARK Flexibility Score: 70.00
ROOT
ATOM      1  C   UNL     1      -8.455  32.979  42.711  1.00  0.00     0.136 C 
ATOM      2  O   UNL     1      -8.568  34.175  42.939  1.00  0.00    -0.299 OA
ENDROOT
BRANCH   1   3
ATOM      3  C   UNL     1      -8.760  31.978  43.811  1.00  0.00     0.053 C 
ATOM      4  C   UNL     1      -9.725  32.588  44.837  1.00  0.00     0.016 C 
BRANCH   3   5
ATOM      5  C   UNL     1      -9.339  30.676  43.215  1.00  0.00     0.015 C 
BRANCH   5   6
ATOM      6  C   UNL     1      -8.439  29.461  43.521  1.00  0.00     0.028 C 
BRANCH   6   7
ATOM      7  C   UNL     1      -7.840  28.841  42.284  1.00  0.00    -0.028 C 
ATOM      8  C   UNL     1      -8.266  29.057  41.014  1.00  0.00    -0.070 CG0
ATOM      9  C   UNL     1      -7.514  28.419  39.873  1.00  0.00     0.039 C 
ATOM     10  G   UNL     1      -9.535  29.822  40.670  1.00  0.00     0.000 G0
ENDBRANCH   6   7
ENDBRANCH   5   6
ENDBRANCH   3   5
ENDBRANCH   1   3
BRANCH   1  11
ATOM     11  C   UNL     1      -8.002  32.533  41.339  1.00  0.00     0.087 C 
BRANCH  11  12
ATOM     12  C   UNL     1      -9.181  32.415  40.338  1.00  0.00     0.066 C 
BRANCH  12  13
ATOM     13  C   UNL     1      -9.265  31.015  39.747  1.00  0.00     0.140 C 
ATOM     14  O   UNL     1      -9.167  30.846  38.539  1.00  0.00    -0.299 OA
BRANCH  13  15
ATOM     15  C   UNL     1      -9.527  29.831  40.646  1.00  0.00     0.106 CG0
ATOM     16  G   UNL     1      -8.279  29.037  41.000  1.00  0.00     0.000 G0
ENDBRANCH  13  15
ENDBRANCH  12  13
BRANCH  12  17
ATOM     17  C   UNL     1      -9.168  33.516  39.228  1.00  0.00    -0.006 C 
ATOM     18  C   UNL     1      -9.910  34.785  39.682  1.00  0.00     0.008 C 
ATOM     19  C   UNL     1      -7.756  33.889  38.738  1.00  0.00     0.008 C 
ENDBRANCH  12  17
ENDBRANCH  11  12
ENDBRANCH   1  11
TORSDOF 1
ENDMDL
MODEL 7
REMARK VINA RESULT:    -3.884      1.371      2.005
REMARK INTER + INTRA:          -6.227
REMARK INTER:                  -7.771
REMARK INTRA:                   1.544
REMARK UNBOUND:                -0.300
REMARK SMILES CC1=CCC[C@H](C)C(=O)C[C@@H](C(C)C)C(=O)C1
REMARK SMILES IDX 8 1 9 2 6 3 7 4 5 5 4 6 3 7 2 8 1 9 10 11 11 12 15 13 16 14
REMARK SMILES IDX 17 15 12 17 13 18 14 19
REMARK H PARENT
REMARK Flexibility Score: 70.00
ROOT
ATOM      1  C   UNL     1      -8.068  32.288  43.004  1.00  0.00     0.136 C 
ATOM      2  O   UNL     1      -7.858  31.824  44.116  1.00  0.00    -0.299 OA
ENDROOT
BRANCH   1   3
ATOM      3  C   UNL     1      -7.462  33.628  42.629  1.00  0.00     0.053 C 
ATOM      4  C   UNL     1      -6.676  33.510  41.315  1.00  0.00     0.016 C 
BRANCH   3   5
ATOM      5  C   UNL     1      -8.560  34.709  42.519  1.00  0.00     0.015 C 
BRANCH   5   6
ATOM      6  C   UNL     1      -9.708  34.262  41.593  1.00  0.00     0.028 C 
BRANCH   6   7
ATOM      7  C   UNL     1      -9.415  34.493  40.131  1.00  0.00    -0.028 C 
ATOM      8  C   UNL     1      -9.549  33.565  39.150  1.00  0.00    -0.070 CG0
ATOM      9  C   UNL     1      -9.287  33.971  37.721  1.00  0.00     0.039 C 
ATOM     10  G   UNL     1      -9.843  32.096  39.414  1.00  0.00     0.000 G0
ENDBRANCH   6   7
ENDBRANCH   5   6
ENDBRANCH   3   5
ENDBRANCH   1   3
BRANCH   1  11
ATOM     11  C   UNL     1      -8.941  31.517  42.040  1.00  0.00     0.087 C 
BRANCH  11  12
ATOM     12  C   UNL     1      -8.115  30.826  40.922  1.00  0.00     0.066 C 
BRANCH  12  13
ATOM     13  C   UNL     1      -8.632  31.204  39.541  1.00  0.00     0.140 C 
ATOM     14  O   UNL     1      -8.039  30.837  38.537  1.00  0.00    -0.299 OA
BRANCH  13  15
ATOM     15  C   UNL     1      -9.850  32.086  39.407  1.00  0.00     0.106 CG0
ATOM     16  G   UNL     1      -9.528  33.551  39.157  1.00  0.00     0.000 G0
ENDBRANCH  13  15
ENDBRANCH  12  13
BRANCH  12  17
ATOM     17  C   UNL     1      -8.004  29.276  41.098  1.00  0.00    -0.006 C 
ATOM     18  C   UNL     1      -7.862  28.884  42.578  1.00  0.00     0.008 C 
ATOM     19  C   UNL     1      -9.170  28.493  40.464  1.00  0.00     0.008 C 
ENDBRANCH  12  17
ENDBRANCH  11  12
ENDBRANCH   1  11
TORSDOF 1
ENDMDL
MODEL 8
REMARK VINA RESULT:    -3.877      2.277      4.023
REMARK INTER + INTRA:          -6.217
REMARK INTER:                  -6.948
REMARK INTRA:                   0.732
REMARK UNBOUND:                -0.300
REMARK SMILES CC1=CCC[C@H](C)C(=O)C[C@@H](C(C)C)C(=O)C1
REMARK SMILES IDX 8 1 9 2 6 3 7 4 5 5 4 6 3 7 2 8 1 9 10 11 11 12 15 13 16 14
REMARK SMILES IDX 17 15 12 17 13 18 14 19
REMARK H PARENT
REMARK Flexibility Score: 70.00
ROOT
ATOM      1  C   UNL     1      -8.645  33.283  40.955  1.00  0.00     0.136 C 
ATOM      2  O   UNL     1      -8.180  33.943  40.037  1.00  0.00    -0.299 OA
ENDROOT
BRANCH   1   3
ATOM      3  C   UNL     1      -8.011  33.370  42.332  1.00  0.00     0.053 C 
ATOM      4  C   UNL     1      -6.708  34.180  42.270  1.00  0.00     0.016 C 
BRANCH   3   5
ATOM      5  C   UNL     1      -8.998  33.989  43.346  1.00  0.00     0.015 C 
BRANCH   5   6
ATOM      6  C   UNL     1      -9.718  32.904  44.173  1.00  0.00     0.028 C 
BRANCH   6   7
ATOM      7  C   UNL     1      -8.784  31.846  44.705  1.00  0.00    -0.028 C 
ATOM      8  C   UNL     1      -8.539  30.649  44.114  1.00  0.00    -0.070 CG0
ATOM      9  C   UNL     1      -7.519  29.726  44.732  1.00  0.00     0.039 C 
ATOM     10  G   UNL     1      -9.316  30.127  42.916  1.00  0.00     0.000 G0
ENDBRANCH   6   7
ENDBRANCH   5   6
ENDBRANCH   3   5
ENDBRANCH   1   3
BRANCH   1  11
ATOM     11  C   UNL     1      -9.832  32.386  40.687  1.00  0.00     0.087 C 
BRANCH  11  12
ATOM     12  C   UNL     1      -9.409  30.919  40.406  1.00  0.00     0.066 C 
BRANCH  12  13
ATOM     13  C   UNL     1      -8.623  30.339  41.572  1.00  0.00     0.140 C 
ATOM     14  O   UNL     1      -7.451  30.019  41.430  1.00  0.00    -0.299 OA
BRANCH  13  15
ATOM     15  C   UNL     1      -9.305  30.102  42.898  1.00  0.00     0.106 CG0
ATOM     16  G   UNL     1      -8.534  30.642  44.093  1.00  0.00     0.000 G0
ENDBRANCH  13  15
ENDBRANCH  12  13
BRANCH  12  17
ATOM     17  C   UNL     1      -8.656  30.737  39.047  1.00  0.00    -0.006 C 
ATOM     18  C   UNL     1      -8.552  29.255  38.654  1.00  0.00     0.008 C 
ATOM     19  C   UNL     1      -9.268  31.541  37.884  1.00  0.00     0.008 C 
ENDBRANCH  12  17
ENDBRANCH  11  12
ENDBRANCH   1  11
TORSDOF 1
ENDMDL
MODEL 9
REMARK VINA RESULT:    -3.103     18.466     20.181
REMARK INTER + INTRA:          -5.036
REMARK INTER:                  -5.412
REMARK INTRA:                   0.376
REMARK UNBOUND:                -0.300
REMARK SMILES CC1=CCC[C@H](C)C(=O)C[C@@H](C(C)C)C(=O)C1
REMARK SMILES IDX 8 1 9 2 6 3 7 4 5 5 4 6 3 7 2 8 1 9 10 11 11 12 15 13 16 14
REMARK SMILES IDX 17 15 12 17 13 18 14 19
REMARK H PARENT
REMARK Flexibility Score: 70.00
ROOT
ATOM      1  C   UNL     1       0.279  17.278  51.239  1.00  0.00     0.136 C 
ATOM      2  O   UNL     1       0.406  18.317  50.608  1.00  0.00    -0.299 OA
ENDROOT
BRANCH   1   3
ATOM      3  C   UNL     1       1.436  16.297  51.302  1.00  0.00     0.053 C 
ATOM      4  C   UNL     1       1.004  15.004  52.008  1.00  0.00     0.016 C 
BRANCH   3   5
ATOM      5  C   UNL     1       1.971  15.998  49.883  1.00  0.00     0.015 C 
BRANCH   5   6
ATOM      6  C   UNL     1       1.152  14.891  49.189  1.00  0.00     0.028 C 
BRANCH   6   7
ATOM      7  C   UNL     1       0.464  15.362  47.932  1.00  0.00    -0.028 C 
ATOM      8  C   UNL     1      -0.878  15.497  47.778  1.00  0.00    -0.070 CG0
ATOM      9  C   UNL     1      -1.411  16.052  46.481  1.00  0.00     0.039 C 
ATOM     10  G   UNL     1      -1.896  15.017  48.801  1.00  0.00     0.000 G0
ENDBRANCH   6   7
ENDBRANCH   5   6
ENDBRANCH   3   5
ENDBRANCH   1   3
BRANCH   1  11
ATOM     11  C   UNL     1      -1.036  16.994  51.930  1.00  0.00     0.087 C 
BRANCH  11  12
ATOM     12  C   UNL     1      -1.762  15.762  51.328  1.00  0.00     0.066 C 
BRANCH  12  13
ATOM     13  C   UNL     1      -2.214  16.031  49.900  1.00  0.00     0.140 C 
ATOM     14  O   UNL     1      -2.852  17.039  49.632  1.00  0.00    -0.299 OA
BRANCH  13  15
ATOM     15  C   UNL     1      -1.922  15.023  48.814  1.00  0.00     0.106 CG0
ATOM     16  G   UNL     1      -0.893  15.491  47.797  1.00  0.00     0.000 G0
ENDBRANCH  13  15
ENDBRANCH  12  13
BRANCH  12  17
ATOM     17  C   UNL     1      -2.934  15.234  52.219  1.00  0.00    -0.006 C 
ATOM     18  C   UNL     1      -2.520  15.134  53.696  1.00  0.00     0.008 C 
ATOM     19  C   UNL     1      -4.229  16.060  52.098  1.00  0.00     0.008 C 
ENDBRANCH  12  17
ENDBRANCH  11  12
ENDBRANCH   1  11
TORSDOF 1
ENDMDL
