MODEL 1
REMARK VINA RESULT:    -4.265      0.000      0.000
REMARK INTER + INTRA:          -9.914
REMARK INTER:                  -7.506
REMARK INTRA:                  -2.408
REMARK UNBOUND:                -2.408
REMARK SMILES CCCCCCCCCCCCCCC(=O)[O-]
REMARK SMILES IDX 9 1 10 2 11 3 12 4 13 5 14 6 15 7 16 8 17 9 8 10 7 11 6 12
REMARK SMILES IDX 5 13 4 14 3 15 2 16 1 17
REMARK H PARENT
REMARK Flexibility Score: inf
ROOT
ATOM      1  C   UNL     1     -52.976  16.411 -27.432  1.00  0.00     0.000 C 
ENDROOT
BRANCH   1   2
ATOM      2  C   UNL     1     -54.096  15.802 -28.287  1.00  0.00     0.000 C 
BRANCH   2   3
ATOM      3  C   UNL     1     -53.853  14.303 -28.521  1.00  0.00     0.000 C 
BRANCH   3   4
ATOM      4  C   UNL     1     -54.018  13.889 -29.992  1.00  0.00     0.000 C 
BRANCH   4   5
ATOM      5  C   UNL     1     -53.523  12.471 -30.337  1.00  0.00     0.006 C 
BRANCH   5   6
ATOM      6  C   UNL     1     -52.739  12.384 -31.661  1.00  0.00     0.053 C 
BRANCH   6   7
ATOM      7  C   UNL     1     -51.897  11.146 -31.753  1.00  0.00     0.041 C 
ATOM      8  O   UNL     1     -51.193  10.783 -30.775  1.00  0.00    -0.550 OA
ATOM      9  O   UNL     1     -51.857  10.418 -32.935  1.00  0.00    -0.550 OA
ENDBRANCH   6   7
ENDBRANCH   5   6
ENDBRANCH   4   5
ENDBRANCH   3   4
ENDBRANCH   2   3
ENDBRANCH   1   2
BRANCH   1  10
ATOM     10  C   UNL     1     -52.579  17.822 -27.894  1.00  0.00     0.000 C 
BRANCH  10  11
ATOM     11  C   UNL     1     -53.123  18.162 -29.291  1.00  0.00    -0.000 C 
BRANCH  11  12
ATOM     12  C   UNL     1     -52.019  18.062 -30.351  1.00  0.00    -0.000 C 
BRANCH  12  13
ATOM     13  C   UNL     1     -52.445  17.136 -31.501  1.00  0.00    -0.000 C 
BRANCH  13  14
ATOM     14  C   UNL     1     -51.524  15.913 -31.650  1.00  0.00    -0.000 C 
BRANCH  14  15
ATOM     15  C   UNL     1     -50.500  15.802 -30.508  1.00  0.00    -0.000 C 
BRANCH  15  16
ATOM     16  C   UNL     1     -49.963  14.372 -30.336  1.00  0.00    -0.003 C 
ATOM     17  C   UNL     1     -50.275  13.783 -28.960  1.00  0.00     0.004 C 
ENDBRANCH  15  16
ENDBRANCH  14  15
ENDBRANCH  13  14
ENDBRANCH  12  13
ENDBRANCH  11  12
ENDBRANCH  10  11
ENDBRANCH   1  10
TORSDOF 13
ENDMDL
MODEL 2
REMARK VINA RESULT:    -4.118      2.527      4.364
REMARK INTER + INTRA:          -9.655
REMARK INTER:                  -8.215
REMARK INTRA:                  -1.441
REMARK UNBOUND:                -2.408
REMARK SMILES CCCCCCCCCCCCCCC(=O)[O-]
REMARK SMILES IDX 9 1 10 2 11 3 12 4 13 5 14 6 15 7 16 8 17 9 8 10 7 11 6 12
REMARK SMILES IDX 5 13 4 14 3 15 2 16 1 17
REMARK H PARENT
REMARK Flexibility Score: inf
ROOT
ATOM      1  C   UNL     1     -51.233  14.504 -28.752  1.00  0.00     0.000 C 
ENDROOT
BRANCH   1   2
ATOM      2  C   UNL     1     -50.539  14.200 -30.088  1.00  0.00     0.000 C 
BRANCH   2   3
ATOM      3  C   UNL     1     -49.975  12.772 -30.099  1.00  0.00     0.000 C 
BRANCH   3   4
ATOM      4  C   UNL     1     -49.615  12.256 -28.696  1.00  0.00     0.000 C 
BRANCH   4   5
ATOM      5  C   UNL     1     -48.544  11.148 -28.655  1.00  0.00     0.006 C 
BRANCH   5   6
ATOM      6  C   UNL     1     -48.842   9.952 -29.579  1.00  0.00     0.053 C 
BRANCH   6   7
ATOM      7  C   UNL     1     -47.618   9.141 -29.886  1.00  0.00     0.041 C 
ATOM      8  O   UNL     1     -46.485   9.530 -29.501  1.00  0.00    -0.550 OA
ATOM      9  O   UNL     1     -47.725   7.975 -30.634  1.00  0.00    -0.550 OA
ENDBRANCH   6   7
ENDBRANCH   5   6
ENDBRANCH   4   5
ENDBRANCH   3   4
ENDBRANCH   2   3
ENDBRANCH   1   2
BRANCH   1  10
ATOM     10  C   UNL     1     -52.748  14.251 -28.802  1.00  0.00     0.000 C 
BRANCH  10  11
ATOM     11  C   UNL     1     -53.557  15.364 -28.114  1.00  0.00    -0.000 C 
BRANCH  11  12
ATOM     12  C   UNL     1     -52.631  16.345 -27.384  1.00  0.00    -0.000 C 
BRANCH  12  13
ATOM     13  C   UNL     1     -53.165  17.782 -27.488  1.00  0.00    -0.000 C 
BRANCH  13  14
ATOM     14  C   UNL     1     -53.183  18.305 -28.934  1.00  0.00    -0.000 C 
BRANCH  14  15
ATOM     15  C   UNL     1     -51.881  17.991 -29.691  1.00  0.00    -0.000 C 
BRANCH  15  16
ATOM     16  C   UNL     1     -52.140  17.457 -31.110  1.00  0.00    -0.003 C 
ATOM     17  C   UNL     1     -53.622  17.201 -31.386  1.00  0.00     0.004 C 
ENDBRANCH  15  16
ENDBRANCH  14  15
ENDBRANCH  13  14
ENDBRANCH  12  13
ENDBRANCH  11  12
ENDBRANCH  10  11
ENDBRANCH   1  10
TORSDOF 13
ENDMDL
MODEL 3
REMARK VINA RESULT:    -4.075     14.561     16.425
REMARK INTER + INTRA:          -9.581
REMARK INTER:                  -8.015
REMARK INTRA:                  -1.566
REMARK UNBOUND:                -2.408
REMARK SMILES CCCCCCCCCCCCCCC(=O)[O-]
REMARK SMILES IDX 9 1 10 2 11 3 12 4 13 5 14 6 15 7 16 8 17 9 8 10 7 11 6 12
REMARK SMILES IDX 5 13 4 14 3 15 2 16 1 17
REMARK H PARENT
REMARK Flexibility Score: inf
ROOT
ATOM      1  C   UNL     1     -34.699  19.986 -27.022  1.00  0.00     0.000 C 
ENDROOT
BRANCH   1   2
ATOM      2  C   UNL     1     -35.763  19.017 -27.557  1.00  0.00     0.000 C 
BRANCH   2   3
ATOM      3  C   UNL     1     -35.737  18.969 -29.092  1.00  0.00     0.000 C 
BRANCH   3   4
ATOM      4  C   UNL     1     -35.190  17.642 -29.643  1.00  0.00     0.000 C 
BRANCH   4   5
ATOM      5  C   UNL     1     -36.224  16.750 -30.359  1.00  0.00     0.006 C 
BRANCH   5   6
ATOM      6  C   UNL     1     -37.655  16.875 -29.801  1.00  0.00     0.053 C 
BRANCH   6   7
ATOM      7  C   UNL     1     -38.636  17.352 -30.831  1.00  0.00     0.041 C 
ATOM      8  O   UNL     1     -38.546  18.516 -31.302  1.00  0.00    -0.550 OA
ATOM      9  O   UNL     1     -39.674  16.525 -31.239  1.00  0.00    -0.550 OA
ENDBRANCH   6   7
ENDBRANCH   5   6
ENDBRANCH   4   5
ENDBRANCH   3   4
ENDBRANCH   2   3
ENDBRANCH   1   2
BRANCH   1  10
ATOM     10  C   UNL     1     -34.522  21.223 -27.916  1.00  0.00     0.000 C 
BRANCH  10  11
ATOM     11  C   UNL     1     -34.606  22.540 -27.128  1.00  0.00    -0.000 C 
BRANCH  11  12
ATOM     12  C   UNL     1     -35.864  23.331 -27.512  1.00  0.00    -0.000 C 
BRANCH  12  13
ATOM     13  C   UNL     1     -36.519  22.742 -28.771  1.00  0.00    -0.000 C 
BRANCH  13  14
ATOM     14  C   UNL     1     -38.026  22.491 -28.593  1.00  0.00    -0.000 C 
BRANCH  14  15
ATOM     15  C   UNL     1     -38.474  21.145 -29.189  1.00  0.00    -0.000 C 
BRANCH  15  16
ATOM     16  C   UNL     1     -39.981  20.897 -29.012  1.00  0.00    -0.003 C 
ATOM     17  C   UNL     1     -40.287  19.543 -28.372  1.00  0.00     0.004 C 
ENDBRANCH  15  16
ENDBRANCH  14  15
ENDBRANCH  13  14
ENDBRANCH  12  13
ENDBRANCH  11  12
ENDBRANCH  10  11
ENDBRANCH   1  10
TORSDOF 13
ENDMDL
MODEL 4
REMARK VINA RESULT:    -4.021      1.008      3.129
REMARK INTER + INTRA:          -9.485
REMARK INTER:                  -7.242
REMARK INTRA:                  -2.242
REMARK UNBOUND:                -2.408
REMARK SMILES CCCCCCCCCCCCCCC(=O)[O-]
REMARK SMILES IDX 9 1 10 2 11 3 12 4 13 5 14 6 15 7 16 8 17 9 8 10 7 11 6 12
REMARK SMILES IDX 5 13 4 14 3 15 2 16 1 17
REMARK H PARENT
REMARK Flexibility Score: inf
ROOT
ATOM      1  C   UNL     1     -50.000  14.477 -30.237  1.00  0.00     0.000 C 
ENDROOT
BRANCH   1   2
ATOM      2  C   UNL     1     -50.704  14.119 -28.920  1.00  0.00     0.000 C 
BRANCH   2   3
ATOM      3  C   UNL     1     -51.360  12.733 -29.009  1.00  0.00     0.000 C 
BRANCH   3   4
ATOM      4  C   UNL     1     -52.896  12.796 -29.046  1.00  0.00     0.000 C 
BRANCH   4   5
ATOM      5  C   UNL     1     -53.544  12.317 -30.360  1.00  0.00     0.006 C 
BRANCH   5   6
ATOM      6  C   UNL     1     -52.554  12.168 -31.531  1.00  0.00     0.053 C 
BRANCH   6   7
ATOM      7  C   UNL     1     -52.331  10.736 -31.919  1.00  0.00     0.041 C 
ATOM      8  O   UNL     1     -51.685  10.454 -32.962  1.00  0.00    -0.550 OA
ATOM      9  O   UNL     1     -52.873   9.714 -31.151  1.00  0.00    -0.550 OA
ENDBRANCH   6   7
ENDBRANCH   5   6
ENDBRANCH   4   5
ENDBRANCH   3   4
ENDBRANCH   2   3
ENDBRANCH   1   2
BRANCH   1  10
ATOM     10  C   UNL     1     -50.380  15.875 -30.750  1.00  0.00     0.000 C 
BRANCH  10  11
ATOM     11  C   UNL     1     -51.487  15.834 -31.816  1.00  0.00    -0.000 C 
BRANCH  11  12
ATOM     12  C   UNL     1     -52.639  16.778 -31.448  1.00  0.00    -0.000 C 
BRANCH  12  13
ATOM     13  C   UNL     1     -53.830  15.992 -30.876  1.00  0.00    -0.000 C 
BRANCH  13  14
ATOM     14  C   UNL     1     -54.073  16.286 -29.386  1.00  0.00    -0.000 C 
BRANCH  14  15
ATOM     15  C   UNL     1     -53.741  17.739 -29.008  1.00  0.00    -0.000 C 
BRANCH  15  16
ATOM     16  C   UNL     1     -52.611  17.834 -27.970  1.00  0.00    -0.003 C 
ATOM     17  C   UNL     1     -52.612  16.666 -26.985  1.00  0.00     0.004 C 
ENDBRANCH  15  16
ENDBRANCH  14  15
ENDBRANCH  13  14
ENDBRANCH  12  13
ENDBRANCH  11  12
ENDBRANCH  10  11
ENDBRANCH   1  10
TORSDOF 13
ENDMDL
MODEL 5
REMARK VINA RESULT:    -4.000      1.180      3.926
REMARK INTER + INTRA:          -9.448
REMARK INTER:                  -7.410
REMARK INTRA:                  -2.038
REMARK UNBOUND:                -2.408
REMARK SMILES CCCCCCCCCCCCCCC(=O)[O-]
REMARK SMILES IDX 9 1 10 2 11 3 12 4 13 5 14 6 15 7 16 8 17 9 8 10 7 11 6 12
REMARK SMILES IDX 5 13 4 14 3 15 2 16 1 17
REMARK H PARENT
REMARK Flexibility Score: inf
ROOT
ATOM      1  C   UNL     1     -51.894  14.602 -31.080  1.00  0.00     0.000 C 
ENDROOT
BRANCH   1   2
ATOM      2  C   UNL     1     -50.679  14.976 -30.219  1.00  0.00     0.000 C 
BRANCH   2   3
ATOM      3  C   UNL     1     -49.600  13.886 -30.292  1.00  0.00     0.000 C 
BRANCH   3   4
ATOM      4  C   UNL     1     -49.699  12.863 -29.148  1.00  0.00     0.000 C 
BRANCH   4   5
ATOM      5  C   UNL     1     -49.794  11.389 -29.589  1.00  0.00     0.006 C 
BRANCH   5   6
ATOM      6  C   UNL     1     -50.364  11.192 -31.006  1.00  0.00     0.053 C 
BRANCH   6   7
ATOM      7  C   UNL     1     -51.808  10.784 -30.996  1.00  0.00     0.041 C 
ATOM      8  O   UNL     1     -52.534  11.042 -30.001  1.00  0.00    -0.550 OA
ATOM      9  O   UNL     1     -52.340  10.080 -32.068  1.00  0.00    -0.550 OA
ENDBRANCH   6   7
ENDBRANCH   5   6
ENDBRANCH   4   5
ENDBRANCH   3   4
ENDBRANCH   2   3
ENDBRANCH   1   2
BRANCH   1  10
ATOM     10  C   UNL     1     -53.215  14.666 -30.299  1.00  0.00     0.000 C 
BRANCH  10  11
ATOM     11  C   UNL     1     -53.045  14.298 -28.815  1.00  0.00    -0.000 C 
BRANCH  11  12
ATOM     12  C   UNL     1     -53.744  15.321 -27.912  1.00  0.00    -0.000 C 
BRANCH  12  13
ATOM     13  C   UNL     1     -52.739  16.350 -27.370  1.00  0.00    -0.000 C 
BRANCH  13  14
ATOM     14  C   UNL     1     -53.305  17.781 -27.356  1.00  0.00    -0.000 C 
BRANCH  14  15
ATOM     15  C   UNL     1     -53.451  18.371 -28.769  1.00  0.00    -0.000 C 
BRANCH  15  16
ATOM     16  C   UNL     1     -52.170  18.219 -29.605  1.00  0.00    -0.003 C 
ATOM     17  C   UNL     1     -52.427  18.323 -31.109  1.00  0.00     0.004 C 
ENDBRANCH  15  16
ENDBRANCH  14  15
ENDBRANCH  13  14
ENDBRANCH  12  13
ENDBRANCH  11  12
ENDBRANCH  10  11
ENDBRANCH   1  10
TORSDOF 13
ENDMDL
MODEL 6
REMARK VINA RESULT:    -3.955      2.424      4.153
REMARK INTER + INTRA:          -9.370
REMARK INTER:                  -8.102
REMARK INTRA:                  -1.268
REMARK UNBOUND:                -2.408
REMARK SMILES CCCCCCCCCCCCCCC(=O)[O-]
REMARK SMILES IDX 9 1 10 2 11 3 12 4 13 5 14 6 15 7 16 8 17 9 8 10 7 11 6 12
REMARK SMILES IDX 5 13 4 14 3 15 2 16 1 17
REMARK H PARENT
REMARK Flexibility Score: inf
ROOT
ATOM      1  C   UNL     1     -49.955  14.438 -30.371  1.00  0.00     0.000 C 
ENDROOT
BRANCH   1   2
ATOM      2  C   UNL     1     -50.373  14.065 -28.942  1.00  0.00     0.000 C 
BRANCH   2   3
ATOM      3  C   UNL     1     -50.467  12.541 -28.779  1.00  0.00     0.000 C 
BRANCH   3   4
ATOM      4  C   UNL     1     -50.625  11.802 -30.118  1.00  0.00     0.000 C 
BRANCH   4   5
ATOM      5  C   UNL     1     -49.792  10.513 -30.262  1.00  0.00     0.006 C 
BRANCH   5   6
ATOM      6  C   UNL     1     -48.621  10.407 -29.267  1.00  0.00     0.053 C 
BRANCH   6   7
ATOM      7  C   UNL     1     -47.716   9.247 -29.561  1.00  0.00     0.041 C 
ATOM      8  O   UNL     1     -46.466   9.396 -29.545  1.00  0.00    -0.550 OA
ATOM      9  O   UNL     1     -48.255   8.012 -29.896  1.00  0.00    -0.550 OA
ENDBRANCH   6   7
ENDBRANCH   5   6
ENDBRANCH   4   5
ENDBRANCH   3   4
ENDBRANCH   2   3
ENDBRANCH   1   2
BRANCH   1  10
ATOM     10  C   UNL     1     -50.411  15.850 -30.772  1.00  0.00     0.000 C 
BRANCH  10  11
ATOM     11  C   UNL     1     -51.815  15.864 -31.398  1.00  0.00    -0.000 C 
BRANCH  11  12
ATOM     12  C   UNL     1     -52.365  17.293 -31.484  1.00  0.00    -0.000 C 
BRANCH  12  13
ATOM     13  C   UNL     1     -53.403  17.549 -30.380  1.00  0.00    -0.000 C 
BRANCH  13  14
ATOM     14  C   UNL     1     -52.793  18.219 -29.137  1.00  0.00    -0.000 C 
BRANCH  14  15
ATOM     15  C   UNL     1     -53.381  17.674 -27.824  1.00  0.00    -0.000 C 
BRANCH  15  16
ATOM     16  C   UNL     1     -52.815  16.293 -27.454  1.00  0.00    -0.003 C 
ATOM     17  C   UNL     1     -53.698  15.142 -27.936  1.00  0.00     0.004 C 
ENDBRANCH  15  16
ENDBRANCH  14  15
ENDBRANCH  13  14
ENDBRANCH  12  13
ENDBRANCH  11  12
ENDBRANCH  10  11
ENDBRANCH   1  10
TORSDOF 13
ENDMDL
MODEL 7
REMARK VINA RESULT:    -3.896     15.124     17.294
REMARK INTER + INTRA:          -9.266
REMARK INTER:                  -7.279
REMARK INTRA:                  -1.986
REMARK UNBOUND:                -2.408
REMARK SMILES CCCCCCCCCCCCCCC(=O)[O-]
REMARK SMILES IDX 9 1 10 2 11 3 12 4 13 5 14 6 15 7 16 8 17 9 8 10 7 11 6 12
REMARK SMILES IDX 5 13 4 14 3 15 2 16 1 17
REMARK H PARENT
REMARK Flexibility Score: inf
ROOT
ATOM      1  C   UNL     1     -35.590  19.416 -27.760  1.00  0.00     0.000 C 
ENDROOT
BRANCH   1   2
ATOM      2  C   UNL     1     -34.650  20.497 -27.209  1.00  0.00     0.000 C 
BRANCH   2   3
ATOM      3  C   UNL     1     -35.000  21.876 -27.789  1.00  0.00     0.000 C 
BRANCH   3   4
ATOM      4  C   UNL     1     -36.356  21.896 -28.514  1.00  0.00     0.000 C 
BRANCH   4   5
ATOM      5  C   UNL     1     -36.337  22.501 -29.932  1.00  0.00     0.006 C 
BRANCH   5   6
ATOM      6  C   UNL     1     -36.745  21.514 -31.042  1.00  0.00     0.053 C 
BRANCH   6   7
ATOM      7  C   UNL     1     -35.777  21.503 -32.188  1.00  0.00     0.041 C 
ATOM      8  O   UNL     1     -36.147  21.867 -33.335  1.00  0.00    -0.550 OA
ATOM      9  O   UNL     1     -34.478  21.049 -31.999  1.00  0.00    -0.550 OA
ENDBRANCH   6   7
ENDBRANCH   5   6
ENDBRANCH   4   5
ENDBRANCH   3   4
ENDBRANCH   2   3
ENDBRANCH   1   2
BRANCH   1  10
ATOM     10  C   UNL     1     -34.888  18.466 -28.742  1.00  0.00     0.000 C 
BRANCH  10  11
ATOM     11  C   UNL     1     -35.668  18.287 -30.055  1.00  0.00    -0.000 C 
BRANCH  11  12
ATOM     12  C   UNL     1     -36.168  16.845 -30.205  1.00  0.00    -0.000 C 
BRANCH  12  13
ATOM     13  C   UNL     1     -37.703  16.789 -30.169  1.00  0.00    -0.000 C 
BRANCH  13  14
ATOM     14  C   UNL     1     -38.352  18.159 -30.430  1.00  0.00    -0.000 C 
BRANCH  14  15
ATOM     15  C   UNL     1     -39.505  18.461 -29.457  1.00  0.00    -0.000 C 
BRANCH  15  16
ATOM     16  C   UNL     1     -39.261  19.735 -28.632  1.00  0.00    -0.003 C 
ATOM     17  C   UNL     1     -39.931  20.970 -29.236  1.00  0.00     0.004 C 
ENDBRANCH  15  16
ENDBRANCH  14  15
ENDBRANCH  13  14
ENDBRANCH  12  13
ENDBRANCH  11  12
ENDBRANCH  10  11
ENDBRANCH   1  10
TORSDOF 13
ENDMDL
MODEL 8
REMARK VINA RESULT:    -3.864      1.523      2.388
REMARK INTER + INTRA:          -9.209
REMARK INTER:                  -7.283
REMARK INTRA:                  -1.925
REMARK UNBOUND:                -2.408
REMARK SMILES CCCCCCCCCCCCCCC(=O)[O-]
REMARK SMILES IDX 9 1 10 2 11 3 12 4 13 5 14 6 15 7 16 8 17 9 8 10 7 11 6 12
REMARK SMILES IDX 5 13 4 14 3 15 2 16 1 17
REMARK H PARENT
REMARK Flexibility Score: inf
ROOT
ATOM      1  C   UNL     1     -52.655  15.976 -27.393  1.00  0.00     0.000 C 
ENDROOT
BRANCH   1   2
ATOM      2  C   UNL     1     -53.851  15.391 -28.157  1.00  0.00     0.000 C 
BRANCH   2   3
ATOM      3  C   UNL     1     -53.418  14.198 -29.022  1.00  0.00     0.000 C 
BRANCH   3   4
ATOM      4  C   UNL     1     -51.964  13.767 -28.768  1.00  0.00     0.000 C 
BRANCH   4   5
ATOM      5  C   UNL     1     -51.490  12.540 -29.571  1.00  0.00     0.006 C 
BRANCH   5   6
ATOM      6  C   UNL     1     -50.040  12.114 -29.270  1.00  0.00     0.053 C 
BRANCH   6   7
ATOM      7  C   UNL     1     -49.647  10.858 -29.990  1.00  0.00     0.041 C 
ATOM      8  O   UNL     1     -50.027  10.658 -31.173  1.00  0.00    -0.550 OA
ATOM      9  O   UNL     1     -48.895   9.889 -29.339  1.00  0.00    -0.550 OA
ENDBRANCH   6   7
ENDBRANCH   5   6
ENDBRANCH   4   5
ENDBRANCH   3   4
ENDBRANCH   2   3
ENDBRANCH   1   2
BRANCH   1  10
ATOM     10  C   UNL     1     -52.793  17.486 -27.143  1.00  0.00     0.000 C 
BRANCH  10  11
ATOM     11  C   UNL     1     -53.968  18.109 -27.914  1.00  0.00    -0.000 C 
BRANCH  11  12
ATOM     12  C   UNL     1     -53.466  18.988 -29.066  1.00  0.00    -0.000 C 
BRANCH  12  13
ATOM     13  C   UNL     1     -53.796  18.352 -30.425  1.00  0.00    -0.000 C 
BRANCH  13  14
ATOM     14  C   UNL     1     -52.540  18.052 -31.261  1.00  0.00    -0.000 C 
BRANCH  14  15
ATOM     15  C   UNL     1     -51.297  17.803 -30.389  1.00  0.00    -0.000 C 
BRANCH  15  16
ATOM     16  C   UNL     1     -50.620  16.459 -30.701  1.00  0.00    -0.003 C 
ATOM     17  C   UNL     1     -51.312  15.693 -31.828  1.00  0.00     0.004 C 
ENDBRANCH  15  16
ENDBRANCH  14  15
ENDBRANCH  13  14
ENDBRANCH  12  13
ENDBRANCH  11  12
ENDBRANCH  10  11
ENDBRANCH   1  10
TORSDOF 13
ENDMDL
MODEL 9
REMARK VINA RESULT:    -3.819      2.705      5.437
REMARK INTER + INTRA:          -9.129
REMARK INTER:                  -7.423
REMARK INTRA:                  -1.706
REMARK UNBOUND:                -2.408
REMARK SMILES CCCCCCCCCCCCCCC(=O)[O-]
REMARK SMILES IDX 9 1 10 2 11 3 12 4 13 5 14 6 15 7 16 8 17 9 8 10 7 11 6 12
REMARK SMILES IDX 5 13 4 14 3 15 2 16 1 17
REMARK H PARENT
REMARK Flexibility Score: inf
ROOT
ATOM      1  C   UNL     1     -51.331  14.628 -28.841  1.00  0.00     0.000 C 
ENDROOT
BRANCH   1   2
ATOM      2  C   UNL     1     -52.850  14.460 -28.992  1.00  0.00     0.000 C 
BRANCH   2   3
ATOM      3  C   UNL     1     -53.603  15.484 -28.130  1.00  0.00     0.000 C 
BRANCH   3   4
ATOM      4  C   UNL     1     -52.665  16.421 -27.352  1.00  0.00     0.000 C 
BRANCH   4   5
ATOM      5  C   UNL     1     -52.713  17.902 -27.776  1.00  0.00     0.006 C 
BRANCH   5   6
ATOM      6  C   UNL     1     -53.386  18.143 -29.141  1.00  0.00     0.053 C 
BRANCH   6   7
ATOM      7  C   UNL     1     -52.448  17.933 -30.292  1.00  0.00     0.041 C 
ATOM      8  O   UNL     1     -52.878  17.491 -31.390  1.00  0.00    -0.550 OA
ATOM      9  O   UNL     1     -51.090  18.183 -30.139  1.00  0.00    -0.550 OA
ENDBRANCH   6   7
ENDBRANCH   5   6
ENDBRANCH   4   5
ENDBRANCH   3   4
ENDBRANCH   2   3
ENDBRANCH   1   2
BRANCH   1  10
ATOM     10  C   UNL     1     -50.609  14.730 -30.193  1.00  0.00     0.000 C 
BRANCH  10  11
ATOM     11  C   UNL     1     -49.489  13.688 -30.347  1.00  0.00    -0.000 C 
BRANCH  11  12
ATOM     12  C   UNL     1     -49.418  12.772 -29.119  1.00  0.00    -0.000 C 
BRANCH  12  13
ATOM     13  C   UNL     1     -49.380  11.295 -29.539  1.00  0.00    -0.000 C 
BRANCH  13  14
ATOM     14  C   UNL     1     -50.721  10.807 -30.113  1.00  0.00    -0.000 C 
BRANCH  14  15
ATOM     15  C   UNL     1     -50.648  10.528 -31.624  1.00  0.00    -0.000 C 
BRANCH  15  16
ATOM     16  C   UNL     1     -51.969  10.845 -32.345  1.00  0.00    -0.003 C 
ATOM     17  C   UNL     1     -52.638  12.118 -31.825  1.00  0.00     0.004 C 
ENDBRANCH  15  16
ENDBRANCH  14  15
ENDBRANCH  13  14
ENDBRANCH  12  13
ENDBRANCH  11  12
ENDBRANCH  10  11
ENDBRANCH   1  10
TORSDOF 13
ENDMDL
