MODEL 1
REMARK VINA RESULT:    -4.197      0.000      0.000
REMARK INTER + INTRA:          -4.818
REMARK INTER:                  -4.565
REMARK INTRA:                  -0.253
REMARK UNBOUND:                -0.253
REMARK SMILES O=C([O-])c1ccccc1O
REMARK SMILES IDX 4 1 9 2 5 3 8 4 6 5 7 6 2 7 1 8 3 9 10 10
REMARK H PARENT 10 11
REMARK Flexibility Score: inf
ROOT
ATOM      1  C   UNL     1      -4.629  67.465  32.728  1.00  0.00     0.039 A 
ATOM      2  C   UNL     1      -5.145  66.859  33.901  1.00  0.00     0.124 A 
ATOM      3  C   UNL     1      -5.429  67.498  31.569  1.00  0.00     0.014 A 
ATOM      4  C   UNL     1      -6.456  66.362  33.905  1.00  0.00     0.047 A 
ATOM      5  C   UNL     1      -6.725  66.979  31.585  1.00  0.00     0.001 A 
ATOM      6  C   UNL     1      -7.242  66.421  32.754  1.00  0.00     0.004 A 
ENDROOT
BRANCH   1   7
ATOM      7  C   UNL     1      -3.294  68.100  32.684  1.00  0.00     0.075 C 
ATOM      8  O   UNL     1      -3.160  69.258  32.209  1.00  0.00    -0.545 OA
ATOM      9  O   UNL     1      -2.185  67.463  33.227  1.00  0.00    -0.545 OA
ENDBRANCH   1   7
BRANCH   2  10
ATOM     10  O   UNL     1      -4.385  66.697  35.061  1.00  0.00    -0.507 OA
ATOM     11  H   UNL     1      -3.746  65.928  35.205  1.00  0.00     0.293 HD
ENDBRANCH   2  10
TORSDOF 2
ENDMDL
MODEL 2
REMARK VINA RESULT:    -4.165      9.463     10.334
REMARK INTER + INTRA:          -4.783
REMARK INTER:                  -4.534
REMARK INTRA:                  -0.249
REMARK UNBOUND:                -0.253
REMARK SMILES O=C([O-])c1ccccc1O
REMARK SMILES IDX 4 1 9 2 5 3 8 4 6 5 7 6 2 7 1 8 3 9 10 10
REMARK H PARENT 10 11
REMARK Flexibility Score: inf
ROOT
ATOM      1  C   UNL     1       1.124  61.885  26.700  1.00  0.00     0.039 A 
ATOM      2  C   UNL     1      -0.240  62.256  26.808  1.00  0.00     0.124 A 
ATOM      3  C   UNL     1       2.065  62.490  27.557  1.00  0.00     0.014 A 
ATOM      4  C   UNL     1      -0.635  63.165  27.800  1.00  0.00     0.047 A 
ATOM      5  C   UNL     1       1.657  63.410  28.525  1.00  0.00     0.001 A 
ATOM      6  C   UNL     1       0.309  63.739  28.653  1.00  0.00     0.004 A 
ENDROOT
BRANCH   1   7
ATOM      7  C   UNL     1       1.594  60.856  25.747  1.00  0.00     0.075 C 
ATOM      8  O   UNL     1       1.183  60.862  24.557  1.00  0.00    -0.545 OA
ATOM      9  O   UNL     1       2.543  59.915  26.127  1.00  0.00    -0.545 OA
ENDBRANCH   1   7
BRANCH   2  10
ATOM     10  O   UNL     1      -1.220  61.779  25.936  1.00  0.00    -0.507 OA
ATOM     11  H   UNL     1      -1.577  60.834  25.964  1.00  0.00     0.293 HD
ENDBRANCH   2  10
TORSDOF 2
ENDMDL
MODEL 3
REMARK VINA RESULT:    -4.153      7.135      7.798
REMARK INTER + INTRA:          -4.770
REMARK INTER:                  -4.525
REMARK INTRA:                  -0.245
REMARK UNBOUND:                -0.253
REMARK SMILES O=C([O-])c1ccccc1O
REMARK SMILES IDX 4 1 9 2 5 3 8 4 6 5 7 6 2 7 1 8 3 9 10 10
REMARK H PARENT 10 11
REMARK Flexibility Score: inf
ROOT
ATOM      1  C   UNL     1     -11.682  65.917  29.868  1.00  0.00     0.039 A 
ATOM      2  C   UNL     1     -12.072  66.368  31.154  1.00  0.00     0.124 A 
ATOM      3  C   UNL     1     -12.247  64.729  29.363  1.00  0.00     0.014 A 
ATOM      4  C   UNL     1     -13.051  65.665  31.869  1.00  0.00     0.047 A 
ATOM      5  C   UNL     1     -13.205  64.029  30.097  1.00  0.00     0.001 A 
ATOM      6  C   UNL     1     -13.614  64.501  31.343  1.00  0.00     0.004 A 
ENDROOT
BRANCH   1   7
ATOM      7  C   UNL     1     -10.732  66.666  29.017  1.00  0.00     0.075 C 
ATOM      8  O   UNL     1     -10.880  67.904  28.843  1.00  0.00    -0.545 OA
ATOM      9  O   UNL     1      -9.628  66.034  28.456  1.00  0.00    -0.545 OA
ENDBRANCH   1   7
BRANCH   2  10
ATOM     10  O   UNL     1     -11.491  67.479  31.769  1.00  0.00    -0.507 OA
ATOM     11  H   UNL     1     -10.755  68.027  31.346  1.00  0.00     0.293 HD
ENDBRANCH   2  10
TORSDOF 2
ENDMDL
MODEL 4
REMARK VINA RESULT:    -4.126      6.398      7.643
REMARK INTER + INTRA:          -4.741
REMARK INTER:                  -4.494
REMARK INTRA:                  -0.247
REMARK UNBOUND:                -0.253
REMARK SMILES O=C([O-])c1ccccc1O
REMARK SMILES IDX 4 1 9 2 5 3 8 4 6 5 7 6 2 7 1 8 3 9 10 10
REMARK H PARENT 10 11
REMARK Flexibility Score: inf
ROOT
ATOM      1  C   UNL     1     -11.422  66.306  30.593  1.00  0.00     0.039 A 
ATOM      2  C   UNL     1     -11.518  65.617  29.358  1.00  0.00     0.124 A 
ATOM      3  C   UNL     1     -12.271  65.929  31.652  1.00  0.00     0.014 A 
ATOM      4  C   UNL     1     -12.406  64.539  29.233  1.00  0.00     0.047 A 
ATOM      5  C   UNL     1     -13.165  64.867  31.503  1.00  0.00     0.001 A 
ATOM      6  C   UNL     1     -13.225  64.167  30.299  1.00  0.00     0.004 A 
ENDROOT
BRANCH   1   7
ATOM      7  C   UNL     1     -10.435  67.384  30.826  1.00  0.00     0.075 C 
ATOM      8  O   UNL     1      -9.233  67.224  30.488  1.00  0.00    -0.545 OA
ATOM      9  O   UNL     1     -10.830  68.607  31.355  1.00  0.00    -0.545 OA
ENDBRANCH   1   7
BRANCH   2  10
ATOM     10  O   UNL     1     -10.784  65.989  28.230  1.00  0.00    -0.507 OA
ATOM     11  H   UNL     1     -10.630  66.950  27.959  1.00  0.00     0.293 HD
ENDBRANCH   2  10
TORSDOF 2
ENDMDL
MODEL 5
REMARK VINA RESULT:    -4.110      6.591      7.712
REMARK INTER + INTRA:          -4.723
REMARK INTER:                  -4.475
REMARK INTRA:                  -0.248
REMARK UNBOUND:                -0.253
REMARK SMILES O=C([O-])c1ccccc1O
REMARK SMILES IDX 4 1 9 2 5 3 8 4 6 5 7 6 2 7 1 8 3 9 10 10
REMARK H PARENT 10 11
REMARK Flexibility Score: inf
ROOT
ATOM      1  C   UNL     1     -11.324  66.320  30.248  1.00  0.00     0.039 A 
ATOM      2  C   UNL     1     -10.881  67.625  30.580  1.00  0.00     0.124 A 
ATOM      3  C   UNL     1     -10.687  65.633  29.196  1.00  0.00     0.014 A 
ATOM      4  C   UNL     1      -9.787  68.180  29.903  1.00  0.00     0.047 A 
ATOM      5  C   UNL     1      -9.612  66.209  28.517  1.00  0.00     0.001 A 
ATOM      6  C   UNL     1      -9.156  67.476  28.876  1.00  0.00     0.004 A 
ENDROOT
BRANCH   1   7
ATOM      7  C   UNL     1     -12.404  65.634  30.990  1.00  0.00     0.075 C 
ATOM      8  O   UNL     1     -13.099  64.752  30.422  1.00  0.00    -0.545 OA
ATOM      9  O   UNL     1     -12.622  65.902  32.336  1.00  0.00    -0.545 OA
ENDBRANCH   1   7
BRANCH   2  10
ATOM     10  O   UNL     1     -11.518  68.412  31.543  1.00  0.00    -0.507 OA
ATOM     11  H   UNL     1     -11.907  69.324  31.346  1.00  0.00     0.293 HD
ENDBRANCH   2  10
TORSDOF 2
ENDMDL
MODEL 6
REMARK VINA RESULT:    -4.083      8.966     10.035
REMARK INTER + INTRA:          -4.694
REMARK INTER:                  -4.442
REMARK INTRA:                  -0.251
REMARK UNBOUND:                -0.253
REMARK SMILES O=C([O-])c1ccccc1O
REMARK SMILES IDX 4 1 9 2 5 3 8 4 6 5 7 6 2 7 1 8 3 9 10 10
REMARK H PARENT 10 11
REMARK Flexibility Score: inf
ROOT
ATOM      1  C   UNL     1      -4.830  69.351  24.067  1.00  0.00     0.039 A 
ATOM      2  C   UNL     1      -4.218  68.619  23.018  1.00  0.00     0.124 A 
ATOM      3  C   UNL     1      -4.076  69.651  25.218  1.00  0.00     0.014 A 
ATOM      4  C   UNL     1      -2.866  68.262  23.118  1.00  0.00     0.047 A 
ATOM      5  C   UNL     1      -2.736  69.269  25.310  1.00  0.00     0.001 A 
ATOM      6  C   UNL     1      -2.129  68.585  24.258  1.00  0.00     0.004 A 
ENDROOT
BRANCH   1   7
ATOM      7  C   UNL     1      -6.221  69.848  23.982  1.00  0.00     0.075 C 
ATOM      8  O   UNL     1      -6.475  71.058  24.221  1.00  0.00    -0.545 OA
ATOM      9  O   UNL     1      -7.251  69.010  23.574  1.00  0.00    -0.545 OA
ENDBRANCH   1   7
BRANCH   2  10
ATOM     10  O   UNL     1      -4.920  68.197  21.887  1.00  0.00    -0.507 OA
ATOM     11  H   UNL     1      -5.733  67.598  21.928  1.00  0.00     0.293 HD
ENDBRANCH   2  10
TORSDOF 2
ENDMDL
MODEL 7
REMARK VINA RESULT:    -4.073      2.703      3.726
REMARK INTER + INTRA:          -4.684
REMARK INTER:                  -4.436
REMARK INTRA:                  -0.248
REMARK UNBOUND:                -0.253
REMARK SMILES O=C([O-])c1ccccc1O
REMARK SMILES IDX 4 1 9 2 5 3 8 4 6 5 7 6 2 7 1 8 3 9 10 10
REMARK H PARENT 10 11
REMARK Flexibility Score: inf
ROOT
ATOM      1  C   UNL     1      -6.277  66.509  32.207  1.00  0.00     0.039 A 
ATOM      2  C   UNL     1      -6.086  66.527  33.611  1.00  0.00     0.124 A 
ATOM      3  C   UNL     1      -5.267  67.030  31.375  1.00  0.00     0.014 A 
ATOM      4  C   UNL     1      -4.878  67.001  34.141  1.00  0.00     0.047 A 
ATOM      5  C   UNL     1      -4.078  67.519  31.921  1.00  0.00     0.001 A 
ATOM      6  C   UNL     1      -3.879  67.495  33.300  1.00  0.00     0.004 A 
ENDROOT
BRANCH   1   7
ATOM      7  C   UNL     1      -7.483  65.929  31.576  1.00  0.00     0.075 C 
ATOM      8  O   UNL     1      -8.629  66.266  31.974  1.00  0.00    -0.545 OA
ATOM      9  O   UNL     1      -7.373  65.061  30.497  1.00  0.00    -0.545 OA
ENDBRANCH   1   7
BRANCH   2  10
ATOM     10  O   UNL     1      -7.075  66.121  34.510  1.00  0.00    -0.507 OA
ATOM     11  H   UNL     1      -6.937  66.086  35.510  1.00  0.00     0.293 HD
ENDBRANCH   2  10
TORSDOF 2
ENDMDL
MODEL 8
REMARK VINA RESULT:    -3.994      6.042      7.269
REMARK INTER + INTRA:          -4.597
REMARK INTER:                  -4.356
REMARK INTRA:                  -0.241
REMARK UNBOUND:                -0.253
REMARK SMILES O=C([O-])c1ccccc1O
REMARK SMILES IDX 4 1 9 2 5 3 8 4 6 5 7 6 2 7 1 8 3 9 10 10
REMARK H PARENT 10 11
REMARK Flexibility Score: inf
ROOT
ATOM      1  C   UNL     1     -10.774  66.808  30.128  1.00  0.00     0.039 A 
ATOM      2  C   UNL     1     -10.450  67.787  31.101  1.00  0.00     0.124 A 
ATOM      3  C   UNL     1      -9.732  66.090  29.511  1.00  0.00     0.014 A 
ATOM      4  C   UNL     1      -9.112  67.978  31.473  1.00  0.00     0.047 A 
ATOM      5  C   UNL     1      -8.403  66.308  29.879  1.00  0.00     0.001 A 
ATOM      6  C   UNL     1      -8.094  67.243  30.866  1.00  0.00     0.004 A 
ENDROOT
BRANCH   1   7
ATOM      7  C   UNL     1     -12.171  66.484  29.763  1.00  0.00     0.075 C 
ATOM      8  O   UNL     1     -13.016  66.228  30.661  1.00  0.00    -0.545 OA
ATOM      9  O   UNL     1     -12.586  66.522  28.438  1.00  0.00    -0.545 OA
ENDBRANCH   1   7
BRANCH   2  10
ATOM     10  O   UNL     1     -11.413  68.611  31.689  1.00  0.00    -0.507 OA
ATOM     11  H   UNL     1     -12.271  68.880  31.229  1.00  0.00     0.293 HD
ENDBRANCH   2  10
TORSDOF 2
ENDMDL
MODEL 9
REMARK VINA RESULT:    -3.954      6.895      8.074
REMARK INTER + INTRA:          -4.553
REMARK INTER:                  -4.308
REMARK INTRA:                  -0.246
REMARK UNBOUND:                -0.253
REMARK SMILES O=C([O-])c1ccccc1O
REMARK SMILES IDX 4 1 9 2 5 3 8 4 6 5 7 6 2 7 1 8 3 9 10 10
REMARK H PARENT 10 11
REMARK Flexibility Score: inf
ROOT
ATOM      1  C   UNL     1     -12.006  66.038  30.339  1.00  0.00     0.039 A 
ATOM      2  C   UNL     1     -12.868  65.619  31.383  1.00  0.00     0.124 A 
ATOM      3  C   UNL     1     -11.938  65.268  29.161  1.00  0.00     0.014 A 
ATOM      4  C   UNL     1     -13.679  64.490  31.202  1.00  0.00     0.047 A 
ATOM      5  C   UNL     1     -12.737  64.133  29.006  1.00  0.00     0.001 A 
ATOM      6  C   UNL     1     -13.613  63.751  30.020  1.00  0.00     0.004 A 
ENDROOT
BRANCH   1   7
ATOM      7  C   UNL     1     -11.201  67.276  30.423  1.00  0.00     0.075 C 
ATOM      8  O   UNL     1     -10.647  67.598  31.506  1.00  0.00    -0.545 OA
ATOM      9  O   UNL     1     -10.987  68.062  29.297  1.00  0.00    -0.545 OA
ENDBRANCH   1   7
BRANCH   2  10
ATOM     10  O   UNL     1     -12.924  66.268  32.619  1.00  0.00    -0.507 OA
ATOM     11  H   UNL     1     -13.551  67.035  32.816  1.00  0.00     0.293 HD
ENDBRANCH   2  10
TORSDOF 2
ENDMDL
