MODEL 1
REMARK VINA RESULT:    -3.802      0.000      0.000
REMARK INTER + INTRA:          -5.870
REMARK INTER:                  -5.358
REMARK INTRA:                  -0.512
REMARK UNBOUND:                -0.512
REMARK SMILES CCCCCCCCC(=O)[O-]
REMARK SMILES IDX 6 1 7 2 8 3 9 4 10 5 11 6 5 7 4 8 3 9 2 10 1 11
REMARK H PARENT
REMARK Flexibility Score: inf
ROOT
ATOM      1  C   UNL     1      43.932  28.453   2.152  1.00  0.00     0.000 C 
ENDROOT
BRANCH   1   2
ATOM      2  C   UNL     1      42.990  27.538   1.362  1.00  0.00     0.006 C 
BRANCH   2   3
ATOM      3  C   UNL     1      43.084  27.817  -0.142  1.00  0.00     0.053 C 
BRANCH   3   4
ATOM      4  C   UNL     1      44.102  26.922  -0.777  1.00  0.00     0.041 C 
ATOM      5  O   UNL     1      43.741  25.869  -1.365  1.00  0.00    -0.550 OA
ATOM      6  O   UNL     1      45.445  27.277  -0.763  1.00  0.00    -0.550 OA
ENDBRANCH   3   4
ENDBRANCH   2   3
ENDBRANCH   1   2
BRANCH   1   7
ATOM      7  C   UNL     1      45.039  27.644   2.837  1.00  0.00     0.000 C 
BRANCH   7   8
ATOM      8  C   UNL     1      44.725  26.143   2.802  1.00  0.00    -0.000 C 
BRANCH   8   9
ATOM      9  C   UNL     1      45.286  25.434   4.040  1.00  0.00    -0.000 C 
BRANCH   9  10
ATOM     10  C   UNL     1      46.218  26.360   4.830  1.00  0.00    -0.003 C 
ATOM     11  C   UNL     1      45.898  26.322   6.322  1.00  0.00     0.004 C 
ENDBRANCH   9  10
ENDBRANCH   8   9
ENDBRANCH   7   8
ENDBRANCH   1   7
TORSDOF 7
ENDMDL
MODEL 2
REMARK VINA RESULT:    -3.787      0.577      1.585
REMARK INTER + INTRA:          -5.848
REMARK INTER:                  -5.448
REMARK INTRA:                  -0.400
REMARK UNBOUND:                -0.512
REMARK SMILES CCCCCCCCC(=O)[O-]
REMARK SMILES IDX 6 1 7 2 8 3 9 4 10 5 11 6 5 7 4 8 3 9 2 10 1 11
REMARK H PARENT
REMARK Flexibility Score: inf
ROOT
ATOM      1  C   UNL     1      42.628  27.821   1.849  1.00  0.00     0.000 C 
ENDROOT
BRANCH   1   2
ATOM      2  C   UNL     1      42.386  27.480   0.374  1.00  0.00     0.006 C 
BRANCH   2   3
ATOM      3  C   UNL     1      43.432  28.148  -0.524  1.00  0.00     0.053 C 
BRANCH   3   4
ATOM      4  C   UNL     1      44.337  27.120  -1.127  1.00  0.00     0.041 C 
ATOM      5  O   UNL     1      45.571  27.346  -1.232  1.00  0.00    -0.550 OA
ATOM      6  O   UNL     1      43.825  25.893  -1.529  1.00  0.00    -0.550 OA
ENDBRANCH   3   4
ENDBRANCH   2   3
ENDBRANCH   1   2
BRANCH   1   7
ATOM      7  C   UNL     1      43.975  28.530   2.035  1.00  0.00     0.000 C 
BRANCH   7   8
ATOM      8  C   UNL     1      44.925  27.689   2.896  1.00  0.00    -0.000 C 
BRANCH   8   9
ATOM      9  C   UNL     1      44.689  26.191   2.674  1.00  0.00    -0.000 C 
BRANCH   9  10
ATOM     10  C   UNL     1      45.265  25.366   3.830  1.00  0.00    -0.003 C 
ATOM     11  C   UNL     1      45.950  26.261   4.858  1.00  0.00     0.004 C 
ENDBRANCH   9  10
ENDBRANCH   8   9
ENDBRANCH   7   8
ENDBRANCH   1   7
TORSDOF 7
ENDMDL
MODEL 3
REMARK VINA RESULT:    -3.649      1.359      2.442
REMARK INTER + INTRA:          -5.655
REMARK INTER:                  -5.268
REMARK INTRA:                  -0.387
REMARK UNBOUND:                -0.512
REMARK SMILES CCCCCCCCC(=O)[O-]
REMARK SMILES IDX 6 1 7 2 8 3 9 4 10 5 11 6 5 7 4 8 3 9 2 10 1 11
REMARK H PARENT
REMARK Flexibility Score: inf
ROOT
ATOM      1  C   UNL     1      44.934  25.696   3.292  1.00  0.00     0.000 C 
ENDROOT
BRANCH   1   2
ATOM      2  C   UNL     1      44.856  26.958   2.425  1.00  0.00     0.006 C 
BRANCH   2   3
ATOM      3  C   UNL     1      43.442  27.159   1.873  1.00  0.00     0.053 C 
BRANCH   3   4
ATOM      4  C   UNL     1      43.471  27.258   0.380  1.00  0.00     0.041 C 
ATOM      5  O   UNL     1      44.168  26.455  -0.294  1.00  0.00    -0.550 OA
ATOM      6  O   UNL     1      42.689  28.205  -0.269  1.00  0.00    -0.550 OA
ENDBRANCH   3   4
ENDBRANCH   2   3
ENDBRANCH   1   2
BRANCH   1   7
ATOM      7  C   UNL     1      45.881  25.902   4.480  1.00  0.00     0.000 C 
BRANCH   7   8
ATOM      8  C   UNL     1      46.025  27.391   4.817  1.00  0.00    -0.000 C 
BRANCH   8   9
ATOM      9  C   UNL     1      46.057  27.612   6.333  1.00  0.00    -0.000 C 
BRANCH   9  10
ATOM     10  C   UNL     1      46.188  26.281   7.081  1.00  0.00    -0.003 C 
ATOM     11  C   UNL     1      45.370  26.290   8.370  1.00  0.00     0.004 C 
ENDBRANCH   9  10
ENDBRANCH   8   9
ENDBRANCH   7   8
ENDBRANCH   1   7
TORSDOF 7
ENDMDL
MODEL 4
REMARK VINA RESULT:    -3.643      1.305      2.658
REMARK INTER + INTRA:          -5.646
REMARK INTER:                  -5.169
REMARK INTRA:                  -0.477
REMARK UNBOUND:                -0.512
REMARK SMILES CCCCCCCCC(=O)[O-]
REMARK SMILES IDX 6 1 7 2 8 3 9 4 10 5 11 6 5 7 4 8 3 9 2 10 1 11
REMARK H PARENT
REMARK Flexibility Score: inf
ROOT
ATOM      1  C   UNL     1      42.921  29.099  -0.223  1.00  0.00     0.000 C 
ENDROOT
BRANCH   1   2
ATOM      2  C   UNL     1      42.680  28.678  -1.677  1.00  0.00     0.006 C 
BRANCH   2   3
ATOM      3  C   UNL     1      44.004  28.390  -2.392  1.00  0.00     0.053 C 
BRANCH   3   4
ATOM      4  C   UNL     1      44.676  27.197  -1.790  1.00  0.00     0.041 C 
ATOM      5  O   UNL     1      45.851  27.286  -1.349  1.00  0.00    -0.550 OA
ATOM      6  O   UNL     1      43.985  25.997  -1.671  1.00  0.00    -0.550 OA
ENDBRANCH   3   4
ENDBRANCH   2   3
ENDBRANCH   1   2
BRANCH   1   7
ATOM      7  C   UNL     1      42.205  28.153   0.749  1.00  0.00     0.000 C 
BRANCH   7   8
ATOM      8  C   UNL     1      43.057  27.900   1.999  1.00  0.00    -0.000 C 
BRANCH   8   9
ATOM      9  C   UNL     1      43.979  26.692   1.802  1.00  0.00    -0.000 C 
BRANCH   9  10
ATOM     10  C   UNL     1      45.137  26.713   2.806  1.00  0.00    -0.003 C 
ATOM     11  C   UNL     1      45.152  25.447   3.658  1.00  0.00     0.004 C 
ENDBRANCH   9  10
ENDBRANCH   8   9
ENDBRANCH   7   8
ENDBRANCH   1   7
TORSDOF 7
ENDMDL
MODEL 5
REMARK VINA RESULT:    -3.530      2.673      3.888
REMARK INTER + INTRA:          -5.486
REMARK INTER:                  -5.140
REMARK INTRA:                  -0.347
REMARK UNBOUND:                -0.512
REMARK SMILES CCCCCCCCC(=O)[O-]
REMARK SMILES IDX 6 1 7 2 8 3 9 4 10 5 11 6 5 7 4 8 3 9 2 10 1 11
REMARK H PARENT
REMARK Flexibility Score: inf
ROOT
ATOM      1  C   UNL     1      43.707  28.609  -1.312  1.00  0.00     0.000 C 
ENDROOT
BRANCH   1   2
ATOM      2  C   UNL     1      42.586  28.935  -2.306  1.00  0.00     0.006 C 
BRANCH   2   3
ATOM      3  C   UNL     1      43.135  29.065  -3.730  1.00  0.00     0.053 C 
BRANCH   3   4
ATOM      4  C   UNL     1      42.715  27.893  -4.561  1.00  0.00     0.041 C 
ATOM      5  O   UNL     1      41.730  27.989  -5.339  1.00  0.00    -0.550 OA
ATOM      6  O   UNL     1      43.444  26.711  -4.514  1.00  0.00    -0.550 OA
ENDBRANCH   3   4
ENDBRANCH   2   3
ENDBRANCH   1   2
BRANCH   1   7
ATOM      7  C   UNL     1      43.432  27.286  -0.587  1.00  0.00     0.000 C 
BRANCH   7   8
ATOM      8  C   UNL     1      42.409  27.478   0.539  1.00  0.00    -0.000 C 
BRANCH   8   9
ATOM      9  C   UNL     1      43.092  27.463   1.912  1.00  0.00    -0.000 C 
BRANCH   9  10
ATOM     10  C   UNL     1      44.498  26.860   1.821  1.00  0.00    -0.003 C 
ATOM     11  C   UNL     1      44.826  26.035   3.063  1.00  0.00     0.004 C 
ENDBRANCH   9  10
ENDBRANCH   8   9
ENDBRANCH   7   8
ENDBRANCH   1   7
TORSDOF 7
ENDMDL
MODEL 6
REMARK VINA RESULT:    -3.459      3.116      4.924
REMARK INTER + INTRA:          -5.387
REMARK INTER:                  -4.995
REMARK INTRA:                  -0.392
REMARK UNBOUND:                -0.512
REMARK SMILES CCCCCCCCC(=O)[O-]
REMARK SMILES IDX 6 1 7 2 8 3 9 4 10 5 11 6 5 7 4 8 3 9 2 10 1 11
REMARK H PARENT
REMARK Flexibility Score: inf
ROOT
ATOM      1  C   UNL     1      44.062  27.299  -2.088  1.00  0.00     0.000 C 
ENDROOT
BRANCH   1   2
ATOM      2  C   UNL     1      44.517  27.155  -3.545  1.00  0.00     0.006 C 
BRANCH   2   3
ATOM      3  C   UNL     1      43.450  26.449  -4.387  1.00  0.00     0.053 C 
BRANCH   3   4
ATOM      4  C   UNL     1      42.952  27.355  -5.469  1.00  0.00     0.041 C 
ATOM      5  O   UNL     1      43.584  27.456  -6.552  1.00  0.00    -0.550 OA
ATOM      6  O   UNL     1      41.761  28.051  -5.298  1.00  0.00    -0.550 OA
ENDBRANCH   3   4
ENDBRANCH   2   3
ENDBRANCH   1   2
BRANCH   1   7
ATOM      7  C   UNL     1      43.179  28.539  -1.907  1.00  0.00     0.000 C 
BRANCH   7   8
ATOM      8  C   UNL     1      42.678  28.651  -0.462  1.00  0.00    -0.000 C 
BRANCH   8   9
ATOM      9  C   UNL     1      42.752  27.297   0.254  1.00  0.00    -0.000 C 
BRANCH   9  10
ATOM     10  C   UNL     1      42.982  27.481   1.757  1.00  0.00    -0.003 C 
ATOM     11  C   UNL     1      44.209  26.705   2.227  1.00  0.00     0.004 C 
ENDBRANCH   9  10
ENDBRANCH   8   9
ENDBRANCH   7   8
ENDBRANCH   1   7
TORSDOF 7
ENDMDL
MODEL 7
REMARK VINA RESULT:    -3.442      4.541      6.982
REMARK INTER + INTRA:          -5.362
REMARK INTER:                  -5.196
REMARK INTRA:                  -0.166
REMARK UNBOUND:                -0.512
REMARK SMILES CCCCCCCCC(=O)[O-]
REMARK SMILES IDX 6 1 7 2 8 3 9 4 10 5 11 6 5 7 4 8 3 9 2 10 1 11
REMARK H PARENT
REMARK Flexibility Score: inf
ROOT
ATOM      1  C   UNL     1      46.010  26.012   5.314  1.00  0.00     0.000 C 
ENDROOT
BRANCH   1   2
ATOM      2  C   UNL     1      46.029  26.868   6.586  1.00  0.00     0.006 C 
BRANCH   2   3
ATOM      3  C   UNL     1      46.938  26.249   7.652  1.00  0.00     0.053 C 
BRANCH   3   4
ATOM      4  C   UNL     1      46.132  25.803   8.832  1.00  0.00     0.041 C 
ATOM      5  O   UNL     1      46.642  25.043   9.696  1.00  0.00    -0.550 OA
ATOM      6  O   UNL     1      44.834  26.266   9.002  1.00  0.00    -0.550 OA
ENDBRANCH   3   4
ENDBRANCH   2   3
ENDBRANCH   1   2
BRANCH   1   7
ATOM      7  C   UNL     1      45.636  26.856   4.090  1.00  0.00     0.000 C 
BRANCH   7   8
ATOM      8  C   UNL     1      44.871  26.018   3.058  1.00  0.00    -0.000 C 
BRANCH   8   9
ATOM      9  C   UNL     1      44.538  26.847   1.812  1.00  0.00    -0.000 C 
BRANCH   9  10
ATOM     10  C   UNL     1      43.175  27.533   1.956  1.00  0.00    -0.003 C 
ATOM     11  C   UNL     1      42.411  27.523   0.634  1.00  0.00     0.004 C 
ENDBRANCH   9  10
ENDBRANCH   8   9
ENDBRANCH   7   8
ENDBRANCH   1   7
TORSDOF 7
ENDMDL
MODEL 8
REMARK VINA RESULT:    -3.347      2.546      4.212
REMARK INTER + INTRA:          -5.229
REMARK INTER:                  -4.623
REMARK INTRA:                  -0.607
REMARK UNBOUND:                -0.512
REMARK SMILES CCCCCCCCC(=O)[O-]
REMARK SMILES IDX 6 1 7 2 8 3 9 4 10 5 11 6 5 7 4 8 3 9 2 10 1 11
REMARK H PARENT
REMARK Flexibility Score: inf
ROOT
ATOM      1  C   UNL     1      43.451  29.945  -2.033  1.00  0.00     0.000 C 
ENDROOT
BRANCH   1   2
ATOM      2  C   UNL     1      42.699  28.690  -2.492  1.00  0.00     0.006 C 
BRANCH   2   3
ATOM      3  C   UNL     1      43.628  27.742  -3.256  1.00  0.00     0.053 C 
BRANCH   3   4
ATOM      4  C   UNL     1      44.439  26.922  -2.303  1.00  0.00     0.041 C 
ATOM      5  O   UNL     1      45.677  27.121  -2.191  1.00  0.00    -0.550 OA
ATOM      6  O   UNL     1      43.819  25.971  -1.502  1.00  0.00    -0.550 OA
ENDBRANCH   3   4
ENDBRANCH   2   3
ENDBRANCH   1   2
BRANCH   1   7
ATOM      7  C   UNL     1      43.597  29.971  -0.507  1.00  0.00     0.000 C 
BRANCH   7   8
ATOM      8  C   UNL     1      42.228  30.083   0.174  1.00  0.00    -0.000 C 
BRANCH   8   9
ATOM      9  C   UNL     1      42.202  29.301   1.493  1.00  0.00    -0.000 C 
BRANCH   9  10
ATOM     10  C   UNL     1      42.243  27.790   1.237  1.00  0.00    -0.003 C 
ATOM     11  C   UNL     1      43.490  27.160   1.851  1.00  0.00     0.004 C 
ENDBRANCH   9  10
ENDBRANCH   8   9
ENDBRANCH   7   8
ENDBRANCH   1   7
TORSDOF 7
ENDMDL
MODEL 9
REMARK VINA RESULT:    -3.262      2.336      3.066
REMARK INTER + INTRA:          -5.109
REMARK INTER:                  -4.781
REMARK INTRA:                  -0.328
REMARK UNBOUND:                -0.512
REMARK SMILES CCCCCCCCC(=O)[O-]
REMARK SMILES IDX 6 1 7 2 8 3 9 4 10 5 11 6 5 7 4 8 3 9 2 10 1 11
REMARK H PARENT
REMARK Flexibility Score: inf
ROOT
ATOM      1  C   UNL     1      43.020  27.151   0.104  1.00  0.00     0.000 C 
ENDROOT
BRANCH   1   2
ATOM      2  C   UNL     1      43.094  28.414  -0.764  1.00  0.00     0.006 C 
BRANCH   2   3
ATOM      3  C   UNL     1      43.475  28.067  -2.206  1.00  0.00     0.053 C 
BRANCH   3   4
ATOM      4  C   UNL     1      42.766  28.970  -3.166  1.00  0.00     0.041 C 
ATOM      5  O   UNL     1      41.992  29.866  -2.740  1.00  0.00    -0.550 OA
ATOM      6  O   UNL     1      43.000  28.854  -4.531  1.00  0.00    -0.550 OA
ENDBRANCH   3   4
ENDBRANCH   2   3
ENDBRANCH   1   2
BRANCH   1   7
ATOM      7  C   UNL     1      42.772  27.508   1.574  1.00  0.00     0.000 C 
BRANCH   7   8
ATOM      8  C   UNL     1      44.052  28.028   2.237  1.00  0.00    -0.000 C 
BRANCH   8   9
ATOM      9  C   UNL     1      45.174  26.986   2.164  1.00  0.00    -0.000 C 
BRANCH   9  10
ATOM     10  C   UNL     1      44.887  25.802   3.094  1.00  0.00    -0.003 C 
ATOM     11  C   UNL     1      46.178  25.095   3.501  1.00  0.00     0.004 C 
ENDBRANCH   9  10
ENDBRANCH   8   9
ENDBRANCH   7   8
ENDBRANCH   1   7
TORSDOF 7
ENDMDL
