MODEL 1
REMARK VINA RESULT:    -5.415      0.000      0.000
REMARK INTER + INTRA:         -15.405
REMARK INTER:                 -12.379
REMARK INTRA:                  -3.026
REMARK UNBOUND:                -3.026
REMARK SMILES CCCCCCCCCCCCCCCCCCCCCCCC(=O)[O-]
REMARK SMILES IDX 13 1 14 2 15 3 16 4 17 5 18 6 19 7 20 8 21 9 22 10 23 11
REMARK SMILES IDX 24 12 25 13 26 14 12 15 11 16 10 17 9 18 8 19 7 20 6 21 5 22
REMARK SMILES IDX 4 23 3 24 2 25 1 26
REMARK H PARENT
REMARK Flexibility Score: inf
ROOT
ATOM      1  C   UNL     1      11.682  24.451  -8.976  1.00  0.00     0.000 C 
ENDROOT
BRANCH   1   2
ATOM      2  C   UNL     1      13.114  24.265  -8.436  1.00  0.00     0.000 C 
BRANCH   2   3
ATOM      3  C   UNL     1      13.265  23.194  -7.340  1.00  0.00     0.000 C 
BRANCH   3   4
ATOM      4  C   UNL     1      14.580  22.405  -7.454  1.00  0.00     0.000 C 
BRANCH   4   5
ATOM      5  C   UNL     1      15.826  23.267  -7.180  1.00  0.00     0.000 C 
BRANCH   5   6
ATOM      6  C   UNL     1      16.565  22.961  -5.864  1.00  0.00     0.000 C 
BRANCH   6   7
ATOM      7  C   UNL     1      16.837  24.217  -5.019  1.00  0.00     0.000 C 
BRANCH   7   8
ATOM      8  C   UNL     1      15.712  25.258  -5.144  1.00  0.00     0.000 C 
BRANCH   8   9
ATOM      9  C   UNL     1      15.412  25.963  -3.810  1.00  0.00     0.000 C 
BRANCH   9  10
ATOM     10  C   UNL     1      15.222  24.973  -2.645  1.00  0.00     0.006 C 
BRANCH  10  11
ATOM     11  C   UNL     1      13.757  24.670  -2.299  1.00  0.00     0.053 C 
BRANCH  11  12
ATOM     12  C   UNL     1      13.397  23.242  -2.576  1.00  0.00     0.041 C 
ATOM     13  O   UNL     1      12.938  22.513  -1.656  1.00  0.00    -0.550 OA
ATOM     14  O   UNL     1      13.546  22.724  -3.855  1.00  0.00    -0.550 OA
ENDBRANCH  11  12
ENDBRANCH  10  11
ENDBRANCH   9  10
ENDBRANCH   8   9
ENDBRANCH   7   8
ENDBRANCH   6   7
ENDBRANCH   5   6
ENDBRANCH   4   5
ENDBRANCH   3   4
ENDBRANCH   2   3
ENDBRANCH   1   2
BRANCH   1  15
ATOM     15  C   UNL     1      11.124  23.268  -9.795  1.00  0.00     0.000 C 
BRANCH  15  16
ATOM     16  C   UNL     1      10.034  22.443  -9.086  1.00  0.00     0.000 C 
BRANCH  16  17
ATOM     17  C   UNL     1      10.547  21.090  -8.572  1.00  0.00     0.000 C 
BRANCH  17  18
ATOM     18  C   UNL     1      10.092  20.850  -7.127  1.00  0.00    -0.000 C 
BRANCH  18  19
ATOM     19  C   UNL     1       9.687  22.145  -6.403  1.00  0.00    -0.000 C 
BRANCH  19  20
ATOM     20  C   UNL     1       8.510  21.956  -5.422  1.00  0.00    -0.000 C 
BRANCH  20  21
ATOM     21  C   UNL     1       7.620  23.209  -5.332  1.00  0.00    -0.000 C 
BRANCH  21  22
ATOM     22  C   UNL     1       6.755  23.393  -6.589  1.00  0.00    -0.000 C 
BRANCH  22  23
ATOM     23  C   UNL     1       7.105  24.684  -7.352  1.00  0.00    -0.000 C 
BRANCH  23  24
ATOM     24  C   UNL     1       7.042  24.494  -8.877  1.00  0.00    -0.000 C 
BRANCH  24  25
ATOM     25  C   UNL     1       6.120  23.332  -9.278  1.00  0.00    -0.003 C 
ATOM     26  C   UNL     1       6.675  22.573 -10.481  1.00  0.00     0.004 C 
ENDBRANCH  24  25
ENDBRANCH  23  24
ENDBRANCH  22  23
ENDBRANCH  21  22
ENDBRANCH  20  21
ENDBRANCH  19  20
ENDBRANCH  18  19
ENDBRANCH  17  18
ENDBRANCH  16  17
ENDBRANCH  15  16
ENDBRANCH   1  15
TORSDOF 22
ENDMDL
MODEL 2
REMARK VINA RESULT:    -5.330      1.265      3.936
REMARK INTER + INTRA:         -15.212
REMARK INTER:                 -12.578
REMARK INTRA:                  -2.634
REMARK UNBOUND:                -3.026
REMARK SMILES CCCCCCCCCCCCCCCCCCCCCCCC(=O)[O-]
REMARK SMILES IDX 13 1 14 2 15 3 16 4 17 5 18 6 19 7 20 8 21 9 22 10 23 11
REMARK SMILES IDX 24 12 25 13 26 14 12 15 11 16 10 17 9 18 8 19 7 20 6 21 5 22
REMARK SMILES IDX 4 23 3 24 2 25 1 26
REMARK H PARENT
REMARK Flexibility Score: inf
ROOT
ATOM      1  C   UNL     1       8.538  23.122  -9.784  1.00  0.00     0.000 C 
ENDROOT
BRANCH   1   2
ATOM      2  C   UNL     1       9.938  22.480  -9.873  1.00  0.00     0.000 C 
BRANCH   2   3
ATOM      3  C   UNL     1      11.073  23.443 -10.267  1.00  0.00     0.000 C 
BRANCH   3   4
ATOM      4  C   UNL     1      11.372  24.489  -9.180  1.00  0.00     0.000 C 
BRANCH   4   5
ATOM      5  C   UNL     1      12.771  24.327  -8.556  1.00  0.00     0.000 C 
BRANCH   5   6
ATOM      6  C   UNL     1      13.179  22.882  -8.215  1.00  0.00     0.000 C 
BRANCH   6   7
ATOM      7  C   UNL     1      13.859  22.756  -6.841  1.00  0.00     0.000 C 
BRANCH   7   8
ATOM      8  C   UNL     1      15.393  22.735  -6.951  1.00  0.00     0.000 C 
BRANCH   8   9
ATOM      9  C   UNL     1      16.081  23.246  -5.673  1.00  0.00     0.000 C 
BRANCH   9  10
ATOM     10  C   UNL     1      15.076  23.721  -4.607  1.00  0.00     0.006 C 
BRANCH  10  11
ATOM     11  C   UNL     1      15.458  23.357  -3.164  1.00  0.00     0.053 C 
BRANCH  11  12
ATOM     12  C   UNL     1      14.415  23.789  -2.179  1.00  0.00     0.041 C 
ATOM     13  O   UNL     1      13.193  23.610  -2.430  1.00  0.00    -0.550 OA
ATOM     14  O   UNL     1      14.792  24.366  -0.975  1.00  0.00    -0.550 OA
ENDBRANCH  11  12
ENDBRANCH  10  11
ENDBRANCH   9  10
ENDBRANCH   8   9
ENDBRANCH   7   8
ENDBRANCH   6   7
ENDBRANCH   5   6
ENDBRANCH   4   5
ENDBRANCH   3   4
ENDBRANCH   2   3
ENDBRANCH   1   2
BRANCH   1  15
ATOM     15  C   UNL     1       7.357  22.185 -10.111  1.00  0.00     0.000 C 
BRANCH  15  16
ATOM     16  C   UNL     1       6.063  22.897 -10.546  1.00  0.00     0.000 C 
BRANCH  16  17
ATOM     17  C   UNL     1       5.381  23.652  -9.396  1.00  0.00     0.000 C 
BRANCH  17  18
ATOM     18  C   UNL     1       4.513  22.701  -8.561  1.00  0.00    -0.000 C 
BRANCH  18  19
ATOM     19  C   UNL     1       4.633  22.952  -7.049  1.00  0.00    -0.000 C 
BRANCH  19  20
ATOM     20  C   UNL     1       5.892  23.756  -6.660  1.00  0.00    -0.000 C 
BRANCH  20  21
ATOM     21  C   UNL     1       6.848  22.946  -5.766  1.00  0.00    -0.000 C 
BRANCH  21  22
ATOM     22  C   UNL     1       8.283  22.936  -6.317  1.00  0.00    -0.000 C 
BRANCH  22  23
ATOM     23  C   UNL     1       9.116  21.771  -5.752  1.00  0.00    -0.000 C 
BRANCH  23  24
ATOM     24  C   UNL     1      10.333  21.444  -6.633  1.00  0.00    -0.000 C 
BRANCH  24  25
ATOM     25  C   UNL     1      10.139  20.143  -7.428  1.00  0.00    -0.003 C 
ATOM     26  C   UNL     1      11.448  19.682  -8.065  1.00  0.00     0.004 C 
ENDBRANCH  24  25
ENDBRANCH  23  24
ENDBRANCH  22  23
ENDBRANCH  21  22
ENDBRANCH  20  21
ENDBRANCH  19  20
ENDBRANCH  18  19
ENDBRANCH  17  18
ENDBRANCH  16  17
ENDBRANCH  15  16
ENDBRANCH   1  15
TORSDOF 22
ENDMDL
MODEL 3
REMARK VINA RESULT:    -5.317      1.033      2.635
REMARK INTER + INTRA:         -15.182
REMARK INTER:                 -11.788
REMARK INTRA:                  -3.393
REMARK UNBOUND:                -3.026
REMARK SMILES CCCCCCCCCCCCCCCCCCCCCCCC(=O)[O-]
REMARK SMILES IDX 13 1 14 2 15 3 16 4 17 5 18 6 19 7 20 8 21 9 22 10 23 11
REMARK SMILES IDX 24 12 25 13 26 14 12 15 11 16 10 17 9 18 8 19 7 20 6 21 5 22
REMARK SMILES IDX 4 23 3 24 2 25 1 26
REMARK H PARENT
REMARK Flexibility Score: inf
ROOT
ATOM      1  C   UNL     1      12.152  24.388  -9.414  1.00  0.00     0.000 C 
ENDROOT
BRANCH   1   2
ATOM      2  C   UNL     1      13.181  24.326  -8.267  1.00  0.00     0.000 C 
BRANCH   2   3
ATOM      3  C   UNL     1      12.988  23.160  -7.280  1.00  0.00     0.000 C 
BRANCH   3   4
ATOM      4  C   UNL     1      14.135  22.137  -7.334  1.00  0.00     0.000 C 
BRANCH   4   5
ATOM      5  C   UNL     1      15.440  22.724  -7.903  1.00  0.00     0.000 C 
BRANCH   5   6
ATOM      6  C   UNL     1      16.666  22.634  -6.975  1.00  0.00     0.000 C 
BRANCH   6   7
ATOM      7  C   UNL     1      17.406  23.973  -6.821  1.00  0.00     0.000 C 
BRANCH   7   8
ATOM      8  C   UNL     1      17.295  24.539  -5.395  1.00  0.00     0.000 C 
BRANCH   8   9
ATOM      9  C   UNL     1      15.899  25.110  -5.095  1.00  0.00     0.000 C 
BRANCH   9  10
ATOM     10  C   UNL     1      15.424  24.796  -3.664  1.00  0.00     0.006 C 
BRANCH  10  11
ATOM     11  C   UNL     1      14.486  23.585  -3.555  1.00  0.00     0.053 C 
BRANCH  11  12
ATOM     12  C   UNL     1      13.522  23.720  -2.416  1.00  0.00     0.041 C 
ATOM     13  O   UNL     1      13.124  22.697  -1.797  1.00  0.00    -0.550 OA
ATOM     14  O   UNL     1      13.083  24.977  -2.023  1.00  0.00    -0.550 OA
ENDBRANCH  11  12
ENDBRANCH  10  11
ENDBRANCH   9  10
ENDBRANCH   8   9
ENDBRANCH   7   8
ENDBRANCH   6   7
ENDBRANCH   5   6
ENDBRANCH   4   5
ENDBRANCH   3   4
ENDBRANCH   2   3
ENDBRANCH   1   2
BRANCH   1  15
ATOM     15  C   UNL     1      10.714  23.977  -9.038  1.00  0.00     0.000 C 
BRANCH  15  16
ATOM     16  C   UNL     1      10.070  22.934  -9.970  1.00  0.00     0.000 C 
BRANCH  16  17
ATOM     17  C   UNL     1       8.565  22.760  -9.724  1.00  0.00     0.000 C 
BRANCH  17  18
ATOM     18  C   UNL     1       8.023  23.896  -8.847  1.00  0.00    -0.000 C 
BRANCH  18  19
ATOM     19  C   UNL     1       6.554  23.691  -8.440  1.00  0.00    -0.000 C 
BRANCH  19  20
ATOM     20  C   UNL     1       6.341  23.664  -6.911  1.00  0.00    -0.000 C 
BRANCH  20  21
ATOM     21  C   UNL     1       7.670  23.593  -6.138  1.00  0.00    -0.000 C 
BRANCH  21  22
ATOM     22  C   UNL     1       7.692  22.429  -5.135  1.00  0.00    -0.000 C 
BRANCH  22  23
ATOM     23  C   UNL     1       9.073  21.751  -5.060  1.00  0.00    -0.000 C 
BRANCH  23  24
ATOM     24  C   UNL     1       9.798  21.754  -6.417  1.00  0.00    -0.000 C 
BRANCH  24  25
ATOM     25  C   UNL     1       9.721  20.389  -7.117  1.00  0.00    -0.003 C 
ATOM     26  C   UNL     1      11.006  20.085  -7.883  1.00  0.00     0.004 C 
ENDBRANCH  24  25
ENDBRANCH  23  24
ENDBRANCH  22  23
ENDBRANCH  21  22
ENDBRANCH  20  21
ENDBRANCH  19  20
ENDBRANCH  18  19
ENDBRANCH  17  18
ENDBRANCH  16  17
ENDBRANCH  15  16
ENDBRANCH   1  15
TORSDOF 22
ENDMDL
MODEL 4
REMARK VINA RESULT:    -5.274      0.798      1.876
REMARK INTER + INTRA:         -15.083
REMARK INTER:                 -12.417
REMARK INTRA:                  -2.666
REMARK UNBOUND:                -3.026
REMARK SMILES CCCCCCCCCCCCCCCCCCCCCCCC(=O)[O-]
REMARK SMILES IDX 13 1 14 2 15 3 16 4 17 5 18 6 19 7 20 8 21 9 22 10 23 11
REMARK SMILES IDX 24 12 25 13 26 14 12 15 11 16 10 17 9 18 8 19 7 20 6 21 5 22
REMARK SMILES IDX 4 23 3 24 2 25 1 26
REMARK H PARENT
REMARK Flexibility Score: inf
ROOT
ATOM      1  C   UNL     1      10.385  22.508  -9.753  1.00  0.00     0.000 C 
ENDROOT
BRANCH   1   2
ATOM      2  C   UNL     1      10.647  23.974  -9.352  1.00  0.00     0.000 C 
BRANCH   2   3
ATOM      3  C   UNL     1      12.084  24.470  -9.593  1.00  0.00     0.000 C 
BRANCH   3   4
ATOM      4  C   UNL     1      12.955  24.416  -8.325  1.00  0.00     0.000 C 
BRANCH   4   5
ATOM      5  C   UNL     1      13.345  22.982  -7.923  1.00  0.00     0.000 C 
BRANCH   5   6
ATOM      6  C   UNL     1      14.274  22.868  -6.701  1.00  0.00     0.000 C 
BRANCH   6   7
ATOM      7  C   UNL     1      15.219  24.072  -6.547  1.00  0.00     0.000 C 
BRANCH   7   8
ATOM      8  C   UNL     1      16.017  24.022  -5.234  1.00  0.00     0.000 C 
BRANCH   8   9
ATOM      9  C   UNL     1      15.506  25.036  -4.196  1.00  0.00     0.000 C 
BRANCH   9  10
ATOM     10  C   UNL     1      15.329  24.415  -2.797  1.00  0.00     0.006 C 
BRANCH  10  11
ATOM     11  C   UNL     1      13.886  24.433  -2.270  1.00  0.00     0.053 C 
BRANCH  11  12
ATOM     12  C   UNL     1      13.251  23.077  -2.322  1.00  0.00     0.041 C 
ATOM     13  O   UNL     1      12.898  22.501  -1.259  1.00  0.00    -0.550 OA
ATOM     14  O   UNL     1      13.026  22.461  -3.545  1.00  0.00    -0.550 OA
ENDBRANCH  11  12
ENDBRANCH  10  11
ENDBRANCH   9  10
ENDBRANCH   8   9
ENDBRANCH   7   8
ENDBRANCH   6   7
ENDBRANCH   5   6
ENDBRANCH   4   5
ENDBRANCH   3   4
ENDBRANCH   2   3
ENDBRANCH   1   2
BRANCH   1  15
ATOM     15  C   UNL     1       9.500  21.702  -8.781  1.00  0.00     0.000 C 
BRANCH  15  16
ATOM     16  C   UNL     1      10.261  20.986  -7.649  1.00  0.00     0.000 C 
BRANCH  16  17
ATOM     17  C   UNL     1      10.256  21.775  -6.333  1.00  0.00     0.000 C 
BRANCH  17  18
ATOM     18  C   UNL     1       8.993  21.464  -5.517  1.00  0.00    -0.000 C 
BRANCH  18  19
ATOM     19  C   UNL     1       8.127  22.708  -5.256  1.00  0.00    -0.000 C 
BRANCH  19  20
ATOM     20  C   UNL     1       6.649  22.520  -5.657  1.00  0.00    -0.000 C 
BRANCH  20  21
ATOM     21  C   UNL     1       6.019  23.822  -6.185  1.00  0.00    -0.000 C 
BRANCH  21  22
ATOM     22  C   UNL     1       7.026  24.671  -6.977  1.00  0.00    -0.000 C 
BRANCH  22  23
ATOM     23  C   UNL     1       7.076  24.277  -8.465  1.00  0.00    -0.000 C 
BRANCH  23  24
ATOM     24  C   UNL     1       5.832  23.483  -8.900  1.00  0.00    -0.000 C 
BRANCH  24  25
ATOM     25  C   UNL     1       6.102  22.622 -10.144  1.00  0.00    -0.003 C 
ATOM     26  C   UNL     1       5.455  23.228 -11.388  1.00  0.00     0.004 C 
ENDBRANCH  24  25
ENDBRANCH  23  24
ENDBRANCH  22  23
ENDBRANCH  21  22
ENDBRANCH  20  21
ENDBRANCH  19  20
ENDBRANCH  18  19
ENDBRANCH  17  18
ENDBRANCH  16  17
ENDBRANCH  15  16
ENDBRANCH   1  15
TORSDOF 22
ENDMDL
MODEL 5
REMARK VINA RESULT:    -5.254      2.056      4.071
REMARK INTER + INTRA:         -15.038
REMARK INTER:                 -12.405
REMARK INTRA:                  -2.633
REMARK UNBOUND:                -3.026
REMARK SMILES CCCCCCCCCCCCCCCCCCCCCCCC(=O)[O-]
REMARK SMILES IDX 13 1 14 2 15 3 16 4 17 5 18 6 19 7 20 8 21 9 22 10 23 11
REMARK SMILES IDX 24 12 25 13 26 14 12 15 11 16 10 17 9 18 8 19 7 20 6 21 5 22
REMARK SMILES IDX 4 23 3 24 2 25 1 26
REMARK H PARENT
REMARK Flexibility Score: inf
ROOT
ATOM      1  C   UNL     1       9.934  21.443  -8.102  1.00  0.00     0.000 C 
ENDROOT
BRANCH   1   2
ATOM      2  C   UNL     1      10.373  22.185  -9.382  1.00  0.00     0.000 C 
BRANCH   2   3
ATOM      3  C   UNL     1      10.497  23.713  -9.240  1.00  0.00     0.000 C 
BRANCH   3   4
ATOM      4  C   UNL     1      11.905  24.231  -9.580  1.00  0.00     0.000 C 
BRANCH   4   5
ATOM      5  C   UNL     1      12.803  24.393  -8.339  1.00  0.00     0.000 C 
BRANCH   5   6
ATOM      6  C   UNL     1      13.573  23.130  -7.911  1.00  0.00     0.000 C 
BRANCH   6   7
ATOM      7  C   UNL     1      13.186  22.634  -6.507  1.00  0.00     0.000 C 
BRANCH   7   8
ATOM      8  C   UNL     1      14.374  22.663  -5.531  1.00  0.00     0.000 C 
BRANCH   8   9
ATOM      9  C   UNL     1      15.581  23.432  -6.096  1.00  0.00     0.000 C 
BRANCH   9  10
ATOM     10  C   UNL     1      16.837  23.296  -5.214  1.00  0.00     0.006 C 
BRANCH  10  11
ATOM     11  C   UNL     1      16.847  24.205  -3.975  1.00  0.00     0.053 C 
BRANCH  11  12
ATOM     12  C   UNL     1      16.472  25.616  -4.310  1.00  0.00     0.041 C 
ATOM     13  O   UNL     1      17.182  26.291  -5.102  1.00  0.00    -0.550 OA
ATOM     14  O   UNL     1      15.324  26.177  -3.767  1.00  0.00    -0.550 OA
ENDBRANCH  11  12
ENDBRANCH  10  11
ENDBRANCH   9  10
ENDBRANCH   8   9
ENDBRANCH   7   8
ENDBRANCH   6   7
ENDBRANCH   5   6
ENDBRANCH   4   5
ENDBRANCH   3   4
ENDBRANCH   2   3
ENDBRANCH   1   2
BRANCH   1  15
ATOM     15  C   UNL     1       9.747  22.329  -6.853  1.00  0.00     0.000 C 
BRANCH  15  16
ATOM     16  C   UNL     1       8.497  22.013  -6.012  1.00  0.00     0.000 C 
BRANCH  16  17
ATOM     17  C   UNL     1       7.732  23.273  -5.582  1.00  0.00     0.000 C 
BRANCH  17  18
ATOM     18  C   UNL     1       6.728  23.695  -6.663  1.00  0.00    -0.000 C 
BRANCH  18  19
ATOM     19  C   UNL     1       7.327  24.670  -7.690  1.00  0.00    -0.000 C 
BRANCH  19  20
ATOM     20  C   UNL     1       6.770  24.477  -9.116  1.00  0.00    -0.000 C 
BRANCH  20  21
ATOM     21  C   UNL     1       6.880  23.016  -9.592  1.00  0.00    -0.000 C 
BRANCH  21  22
ATOM     22  C   UNL     1       5.680  22.599 -10.456  1.00  0.00    -0.000 C 
BRANCH  22  23
ATOM     23  C   UNL     1       4.722  23.774 -10.728  1.00  0.00    -0.000 C 
BRANCH  23  24
ATOM     24  C   UNL     1       4.712  24.187 -12.210  1.00  0.00    -0.000 C 
BRANCH  24  25
ATOM     25  C   UNL     1       3.938  25.495 -12.441  1.00  0.00    -0.003 C 
ATOM     26  C   UNL     1       4.687  26.692 -11.860  1.00  0.00     0.004 C 
ENDBRANCH  24  25
ENDBRANCH  23  24
ENDBRANCH  22  23
ENDBRANCH  21  22
ENDBRANCH  20  21
ENDBRANCH  19  20
ENDBRANCH  18  19
ENDBRANCH  17  18
ENDBRANCH  16  17
ENDBRANCH  15  16
ENDBRANCH   1  15
TORSDOF 22
ENDMDL
MODEL 6
REMARK VINA RESULT:    -5.242      1.419      1.719
REMARK INTER + INTRA:         -15.009
REMARK INTER:                 -12.219
REMARK INTRA:                  -2.791
REMARK UNBOUND:                -3.026
REMARK SMILES CCCCCCCCCCCCCCCCCCCCCCCC(=O)[O-]
REMARK SMILES IDX 13 1 14 2 15 3 16 4 17 5 18 6 19 7 20 8 21 9 22 10 23 11
REMARK SMILES IDX 24 12 25 13 26 14 12 15 11 16 10 17 9 18 8 19 7 20 6 21 5 22
REMARK SMILES IDX 4 23 3 24 2 25 1 26
REMARK H PARENT
REMARK Flexibility Score: inf
ROOT
ATOM      1  C   UNL     1      12.103  24.322  -9.466  1.00  0.00     0.000 C 
ENDROOT
BRANCH   1   2
ATOM      2  C   UNL     1      13.062  24.350  -8.258  1.00  0.00     0.000 C 
BRANCH   2   3
ATOM      3  C   UNL     1      13.295  22.988  -7.579  1.00  0.00     0.000 C 
BRANCH   3   4
ATOM      4  C   UNL     1      14.786  22.629  -7.459  1.00  0.00     0.000 C 
BRANCH   4   5
ATOM      5  C   UNL     1      15.711  23.858  -7.546  1.00  0.00     0.000 C 
BRANCH   5   6
ATOM      6  C   UNL     1      16.387  24.271  -6.225  1.00  0.00     0.000 C 
BRANCH   6   7
ATOM      7  C   UNL     1      15.710  25.476  -5.553  1.00  0.00     0.000 C 
BRANCH   7   8
ATOM      8  C   UNL     1      15.576  25.295  -4.031  1.00  0.00     0.000 C 
BRANCH   8   9
ATOM      9  C   UNL     1      14.944  23.944  -3.653  1.00  0.00     0.000 C 
BRANCH   9  10
ATOM     10  C   UNL     1      13.757  24.096  -2.682  1.00  0.00     0.006 C 
BRANCH  10  11
ATOM     11  C   UNL     1      14.145  24.088  -1.196  1.00  0.00     0.053 C 
BRANCH  11  12
ATOM     12  C   UNL     1      13.977  25.436  -0.564  1.00  0.00     0.041 C 
ATOM     13  O   UNL     1      14.782  26.367  -0.831  1.00  0.00    -0.550 OA
ATOM     14  O   UNL     1      12.917  25.671   0.301  1.00  0.00    -0.550 OA
ENDBRANCH  11  12
ENDBRANCH  10  11
ENDBRANCH   9  10
ENDBRANCH   8   9
ENDBRANCH   7   8
ENDBRANCH   6   7
ENDBRANCH   5   6
ENDBRANCH   4   5
ENDBRANCH   3   4
ENDBRANCH   2   3
ENDBRANCH   1   2
BRANCH   1  15
ATOM     15  C   UNL     1      10.645  23.934  -9.147  1.00  0.00     0.000 C 
BRANCH  15  16
ATOM     16  C   UNL     1      10.237  22.516  -9.585  1.00  0.00     0.000 C 
BRANCH  16  17
ATOM     17  C   UNL     1       9.771  21.639  -8.415  1.00  0.00     0.000 C 
BRANCH  17  18
ATOM     18  C   UNL     1       9.766  22.439  -7.105  1.00  0.00    -0.000 C 
BRANCH  18  19
ATOM     19  C   UNL     1       9.469  21.568  -5.872  1.00  0.00    -0.000 C 
BRANCH  19  20
ATOM     20  C   UNL     1       8.104  21.875  -5.221  1.00  0.00    -0.000 C 
BRANCH  20  21
ATOM     21  C   UNL     1       7.690  23.347  -5.401  1.00  0.00    -0.000 C 
BRANCH  21  22
ATOM     22  C   UNL     1       6.667  23.523  -6.535  1.00  0.00    -0.000 C 
BRANCH  22  23
ATOM     23  C   UNL     1       6.956  24.770  -7.391  1.00  0.00    -0.000 C 
BRANCH  23  24
ATOM     24  C   UNL     1       7.000  24.448  -8.894  1.00  0.00    -0.000 C 
BRANCH  24  25
ATOM     25  C   UNL     1       6.027  23.319  -9.272  1.00  0.00    -0.003 C 
ATOM     26  C   UNL     1       6.629  22.401 -10.334  1.00  0.00     0.004 C 
ENDBRANCH  24  25
ENDBRANCH  23  24
ENDBRANCH  22  23
ENDBRANCH  21  22
ENDBRANCH  20  21
ENDBRANCH  19  20
ENDBRANCH  18  19
ENDBRANCH  17  18
ENDBRANCH  16  17
ENDBRANCH  15  16
ENDBRANCH   1  15
TORSDOF 22
ENDMDL
MODEL 7
REMARK VINA RESULT:    -5.211      2.514      4.735
REMARK INTER + INTRA:         -14.940
REMARK INTER:                 -12.307
REMARK INTRA:                  -2.633
REMARK UNBOUND:                -3.026
REMARK SMILES CCCCCCCCCCCCCCCCCCCCCCCC(=O)[O-]
REMARK SMILES IDX 13 1 14 2 15 3 16 4 17 5 18 6 19 7 20 8 21 9 22 10 23 11
REMARK SMILES IDX 24 12 25 13 26 14 12 15 11 16 10 17 9 18 8 19 7 20 6 21 5 22
REMARK SMILES IDX 4 23 3 24 2 25 1 26
REMARK H PARENT
REMARK Flexibility Score: inf
ROOT
ATOM      1  C   UNL     1       8.405  23.109  -9.725  1.00  0.00     0.000 C 
ENDROOT
BRANCH   1   2
ATOM      2  C   UNL     1       9.778  22.412  -9.822  1.00  0.00     0.000 C 
BRANCH   2   3
ATOM      3  C   UNL     1      10.931  23.305 -10.315  1.00  0.00     0.000 C 
BRANCH   3   4
ATOM      4  C   UNL     1      11.215  24.487  -9.372  1.00  0.00     0.000 C 
BRANCH   4   5
ATOM      5  C   UNL     1      12.564  24.363  -8.640  1.00  0.00     0.000 C 
BRANCH   5   6
ATOM      6  C   UNL     1      12.910  22.952  -8.128  1.00  0.00     0.000 C 
BRANCH   6   7
ATOM      7  C   UNL     1      14.311  22.866  -7.498  1.00  0.00     0.000 C 
BRANCH   7   8
ATOM      8  C   UNL     1      14.253  22.732  -5.967  1.00  0.00     0.000 C 
BRANCH   8   9
ATOM      9  C   UNL     1      15.484  23.344  -5.276  1.00  0.00     0.000 C 
BRANCH   9  10
ATOM     10  C   UNL     1      15.790  24.772  -5.767  1.00  0.00     0.006 C 
BRANCH  10  11
ATOM     11  C   UNL     1      17.280  25.053  -6.018  1.00  0.00     0.053 C 
BRANCH  11  12
ATOM     12  C   UNL     1      17.629  24.978  -7.473  1.00  0.00     0.041 C 
ATOM     13  O   UNL     1      17.528  23.887  -8.094  1.00  0.00    -0.550 OA
ATOM     14  O   UNL     1      18.043  26.119  -8.147  1.00  0.00    -0.550 OA
ENDBRANCH  11  12
ENDBRANCH  10  11
ENDBRANCH   9  10
ENDBRANCH   8   9
ENDBRANCH   7   8
ENDBRANCH   6   7
ENDBRANCH   5   6
ENDBRANCH   4   5
ENDBRANCH   3   4
ENDBRANCH   2   3
ENDBRANCH   1   2
BRANCH   1  15
ATOM     15  C   UNL     1       7.192  22.240 -10.117  1.00  0.00     0.000 C 
BRANCH  15  16
ATOM     16  C   UNL     1       6.048  22.998 -10.816  1.00  0.00     0.000 C 
BRANCH  16  17
ATOM     17  C   UNL     1       5.006  23.547  -9.831  1.00  0.00     0.000 C 
BRANCH  17  18
ATOM     18  C   UNL     1       4.496  22.436  -8.904  1.00  0.00    -0.000 C 
BRANCH  18  19
ATOM     19  C   UNL     1       4.485  22.848  -7.422  1.00  0.00    -0.000 C 
BRANCH  19  20
ATOM     20  C   UNL     1       5.758  23.605  -6.989  1.00  0.00    -0.000 C 
BRANCH  20  21
ATOM     21  C   UNL     1       6.550  22.844  -5.910  1.00  0.00    -0.000 C 
BRANCH  21  22
ATOM     22  C   UNL     1       8.066  23.055  -6.051  1.00  0.00    -0.000 C 
BRANCH  22  23
ATOM     23  C   UNL     1       8.872  21.843  -5.547  1.00  0.00    -0.000 C 
BRANCH  23  24
ATOM     24  C   UNL     1      10.084  21.537  -6.442  1.00  0.00    -0.000 C 
BRANCH  24  25
ATOM     25  C   UNL     1       9.964  20.168  -7.130  1.00  0.00    -0.003 C 
ATOM     26  C   UNL     1      11.224  19.833  -7.925  1.00  0.00     0.004 C 
ENDBRANCH  24  25
ENDBRANCH  23  24
ENDBRANCH  22  23
ENDBRANCH  21  22
ENDBRANCH  20  21
ENDBRANCH  19  20
ENDBRANCH  18  19
ENDBRANCH  17  18
ENDBRANCH  16  17
ENDBRANCH  15  16
ENDBRANCH   1  15
TORSDOF 22
ENDMDL
MODEL 8
REMARK VINA RESULT:    -5.091      3.304      8.591
REMARK INTER + INTRA:         -14.666
REMARK INTER:                 -11.748
REMARK INTRA:                  -2.917
REMARK UNBOUND:                -3.026
REMARK SMILES CCCCCCCCCCCCCCCCCCCCCCCC(=O)[O-]
REMARK SMILES IDX 13 1 14 2 15 3 16 4 17 5 18 6 19 7 20 8 21 9 22 10 23 11
REMARK SMILES IDX 24 12 25 13 26 14 12 15 11 16 10 17 9 18 8 19 7 20 6 21 5 22
REMARK SMILES IDX 4 23 3 24 2 25 1 26
REMARK H PARENT
REMARK Flexibility Score: inf
ROOT
ATOM      1  C   UNL     1      10.804  23.850  -9.014  1.00  0.00     0.000 C 
ENDROOT
BRANCH   1   2
ATOM      2  C   UNL     1      10.505  22.392  -9.419  1.00  0.00     0.000 C 
BRANCH   2   3
ATOM      3  C   UNL     1      10.327  21.411  -8.245  1.00  0.00     0.000 C 
BRANCH   3   4
ATOM      4  C   UNL     1      10.226  22.122  -6.885  1.00  0.00     0.000 C 
BRANCH   4   5
ATOM      5  C   UNL     1       8.945  21.759  -6.109  1.00  0.00     0.000 C 
BRANCH   5   6
ATOM      6  C   UNL     1       8.137  22.955  -5.572  1.00  0.00     0.000 C 
BRANCH   6   7
ATOM      7  C   UNL     1       6.823  23.187  -6.336  1.00  0.00     0.000 C 
BRANCH   7   8
ATOM      8  C   UNL     1       6.778  24.567  -7.012  1.00  0.00     0.000 C 
BRANCH   8   9
ATOM      9  C   UNL     1       7.261  24.523  -8.472  1.00  0.00     0.000 C 
BRANCH   9  10
ATOM     10  C   UNL     1       7.094  23.132  -9.111  1.00  0.00     0.006 C 
BRANCH  10  11
ATOM     11  C   UNL     1       6.303  23.127 -10.428  1.00  0.00     0.053 C 
BRANCH  11  12
ATOM     12  C   UNL     1       4.888  23.579 -10.236  1.00  0.00     0.041 C 
ATOM     13  O   UNL     1       4.409  24.491 -10.962  1.00  0.00    -0.550 OA
ATOM     14  O   UNL     1       4.090  22.976  -9.273  1.00  0.00    -0.550 OA
ENDBRANCH  11  12
ENDBRANCH  10  11
ENDBRANCH   9  10
ENDBRANCH   8   9
ENDBRANCH   7   8
ENDBRANCH   6   7
ENDBRANCH   5   6
ENDBRANCH   4   5
ENDBRANCH   3   4
ENDBRANCH   2   3
ENDBRANCH   1   2
BRANCH   1  15
ATOM     15  C   UNL     1      12.223  24.354  -9.350  1.00  0.00     0.000 C 
BRANCH  15  16
ATOM     16  C   UNL     1      13.211  24.352  -8.169  1.00  0.00     0.000 C 
BRANCH  16  17
ATOM     17  C   UNL     1      13.721  22.947  -7.820  1.00  0.00     0.000 C 
BRANCH  17  18
ATOM     18  C   UNL     1      14.705  23.003  -6.643  1.00  0.00    -0.000 C 
BRANCH  18  19
ATOM     19  C   UNL     1      15.189  24.430  -6.335  1.00  0.00    -0.000 C 
BRANCH  19  20
ATOM     20  C   UNL     1      16.051  24.522  -5.058  1.00  0.00    -0.000 C 
BRANCH  20  21
ATOM     21  C   UNL     1      15.902  23.277  -4.163  1.00  0.00    -0.000 C 
BRANCH  21  22
ATOM     22  C   UNL     1      15.513  23.646  -2.723  1.00  0.00    -0.000 C 
BRANCH  22  23
ATOM     23  C   UNL     1      14.334  24.635  -2.673  1.00  0.00    -0.000 C 
BRANCH  23  24
ATOM     24  C   UNL     1      14.604  25.816  -1.725  1.00  0.00    -0.000 C 
BRANCH  24  25
ATOM     25  C   UNL     1      15.028  27.083  -2.486  1.00  0.00    -0.003 C 
ATOM     26  C   UNL     1      16.535  27.311  -2.387  1.00  0.00     0.004 C 
ENDBRANCH  24  25
ENDBRANCH  23  24
ENDBRANCH  22  23
ENDBRANCH  21  22
ENDBRANCH  20  21
ENDBRANCH  19  20
ENDBRANCH  18  19
ENDBRANCH  17  18
ENDBRANCH  16  17
ENDBRANCH  15  16
ENDBRANCH   1  15
TORSDOF 22
ENDMDL
MODEL 9
REMARK VINA RESULT:    -5.007      1.203      2.683
REMARK INTER + INTRA:         -14.472
REMARK INTER:                 -11.770
REMARK INTRA:                  -2.702
REMARK UNBOUND:                -3.026
REMARK SMILES CCCCCCCCCCCCCCCCCCCCCCCC(=O)[O-]
REMARK SMILES IDX 13 1 14 2 15 3 16 4 17 5 18 6 19 7 20 8 21 9 22 10 23 11
REMARK SMILES IDX 24 12 25 13 26 14 12 15 11 16 10 17 9 18 8 19 7 20 6 21 5 22
REMARK SMILES IDX 4 23 3 24 2 25 1 26
REMARK H PARENT
REMARK Flexibility Score: inf
ROOT
ATOM      1  C   UNL     1      13.211  23.593  -7.771  1.00  0.00     0.000 C 
ENDROOT
BRANCH   1   2
ATOM      2  C   UNL     1      14.670  24.023  -7.510  1.00  0.00     0.000 C 
BRANCH   2   3
ATOM      3  C   UNL     1      15.656  22.867  -7.263  1.00  0.00     0.000 C 
BRANCH   3   4
ATOM      4  C   UNL     1      17.121  23.334  -7.213  1.00  0.00     0.000 C 
BRANCH   4   5
ATOM      5  C   UNL     1      17.347  24.688  -7.912  1.00  0.00     0.000 C 
BRANCH   5   6
ATOM      6  C   UNL     1      18.060  25.758  -7.066  1.00  0.00     0.000 C 
BRANCH   6   7
ATOM      7  C   UNL     1      17.185  26.310  -5.928  1.00  0.00     0.000 C 
BRANCH   7   8
ATOM      8  C   UNL     1      17.638  25.805  -4.548  1.00  0.00     0.000 C 
BRANCH   8   9
ATOM      9  C   UNL     1      16.592  26.070  -3.452  1.00  0.00     0.000 C 
BRANCH   9  10
ATOM     10  C   UNL     1      15.258  25.346  -3.718  1.00  0.00     0.006 C 
BRANCH  10  11
ATOM     11  C   UNL     1      15.325  23.817  -3.582  1.00  0.00     0.053 C 
BRANCH  11  12
ATOM     12  C   UNL     1      13.964  23.204  -3.453  1.00  0.00     0.041 C 
ATOM     13  O   UNL     1      13.278  23.393  -2.414  1.00  0.00    -0.550 OA
ATOM     14  O   UNL     1      13.444  22.443  -4.492  1.00  0.00    -0.550 OA
ENDBRANCH  11  12
ENDBRANCH  10  11
ENDBRANCH   9  10
ENDBRANCH   8   9
ENDBRANCH   7   8
ENDBRANCH   6   7
ENDBRANCH   5   6
ENDBRANCH   4   5
ENDBRANCH   3   4
ENDBRANCH   2   3
ENDBRANCH   1   2
BRANCH   1  15
ATOM     15  C   UNL     1      12.503  24.320  -8.933  1.00  0.00     0.000 C 
BRANCH  15  16
ATOM     16  C   UNL     1      11.242  23.617  -9.468  1.00  0.00     0.000 C 
BRANCH  16  17
ATOM     17  C   UNL     1      10.916  22.319  -8.716  1.00  0.00     0.000 C 
BRANCH  17  18
ATOM     18  C   UNL     1       9.469  21.885  -8.983  1.00  0.00    -0.000 C 
BRANCH  18  19
ATOM     19  C   UNL     1       8.740  22.806  -9.976  1.00  0.00    -0.000 C 
BRANCH  19  20
ATOM     20  C   UNL     1       7.233  22.499 -10.103  1.00  0.00    -0.000 C 
BRANCH  20  21
ATOM     21  C   UNL     1       6.377  23.394  -9.187  1.00  0.00    -0.000 C 
BRANCH  21  22
ATOM     22  C   UNL     1       7.202  24.525  -8.551  1.00  0.00    -0.000 C 
BRANCH  22  23
ATOM     23  C   UNL     1       6.895  24.696  -7.052  1.00  0.00    -0.000 C 
BRANCH  23  24
ATOM     24  C   UNL     1       6.695  23.348  -6.340  1.00  0.00    -0.000 C 
BRANCH  24  25
ATOM     25  C   UNL     1       7.703  23.142  -5.198  1.00  0.00    -0.003 C 
ATOM     26  C   UNL     1       8.645  21.976  -5.492  1.00  0.00     0.004 C 
ENDBRANCH  24  25
ENDBRANCH  23  24
ENDBRANCH  22  23
ENDBRANCH  21  22
ENDBRANCH  20  21
ENDBRANCH  19  20
ENDBRANCH  18  19
ENDBRANCH  17  18
ENDBRANCH  16  17
ENDBRANCH  15  16
ENDBRANCH   1  15
TORSDOF 22
ENDMDL
